MODEL 1
REMARK VINA RESULT:     -11.5      0.000      0.000
REMARK SMILES O=C(OCCOC(=O)c1ccc2c(=O)n(CCc3c[nH]c4ccccc34)c(=O)[nH]c2c1)c1ccc(-c2c3nc(c(-c4c(F)cc(S(=O)(=O)[O-])cc4F)c4ccc([nH]4)c(-c4c(F)cc(S(=O)(=O)[O-])cc4F)c4nc(c(-c5c(F)cc(S(=O)(=O)[O-])cc5F)c5ccc2[nH]5)C=C4)C=C3)cc1
REMARK SMILES IDX 4 1 3 2 2 3 1 4 32 5 33 6 97 7 34 8 96 9 35 10 36 11 37 12
REMARK SMILES IDX 90 13 38 14 95 15 89 16 91 17 39 18 94 19 88 20 87 21 40 23
REMARK SMILES IDX 74 24 53 25 73 26 54 27 57 28 72 29 92 30 55 31 56 32 71 34
REMARK SMILES IDX 93 35 58 36 41 37 42 38 51 39 43 40 44 41 50 42 52 43 45 44
REMARK SMILES IDX 46 45 47 46 48 47 49 48 75 49 76 50 85 51 77 52 78 53 84 54
REMARK SMILES IDX 86 55 79 56 80 57 81 58 82 59 83 60 59 61 60 62 69 63 61 64
REMARK SMILES IDX 62 65 68 66 70 67 63 68 64 69 65 70 66 71 67 72 5 73 6 74
REMARK SMILES IDX 7 75 8 76 9 77 10 78 31 79 11 80 30 81 12 82 29 83 13 84
REMARK SMILES IDX 27 85 14 87 15 88 28 89 16 90 17 91 18 92 19 93 26 94 20 95
REMARK SMILES IDX 21 96 25 97 22 99 24 100 23 101
REMARK H PARENT 91 22 57 33 29 86 20 98
REMARK Flexibility Score: inf
ROOT
ATOM      1  C   UNL A   1      43.285  18.630  25.555  1.00  0.00     0.275 C 
ENDROOT
BRANCH   1   2
ATOM      2  O   UNL A   1      43.769  19.265  24.368  1.00  0.00    -0.458 OA
BRANCH   2   3
ATOM      3  C   UNL A   1      44.984  19.826  24.177  1.00  0.00     0.338 C 
ATOM      4  O   UNL A   1      45.895  19.156  23.695  1.00  0.00    -0.246 OA
BRANCH   3   5
ATOM      5  C   UNL A   1      45.294  21.194  24.684  1.00  0.00     0.060 A 
ATOM      6  C   UNL A   1      45.488  21.270  26.054  1.00  0.00     0.016 A 
ATOM      7  C   UNL A   1      45.374  22.383  23.936  1.00  0.00     0.016 A 
ATOM      8  C   UNL A   1      45.655  22.510  26.657  1.00  0.00     0.010 A 
ATOM      9  C   UNL A   1      45.499  23.650  24.562  1.00  0.00     0.010 A 
ATOM     10  C   UNL A   1      45.620  23.740  25.947  1.00  0.00    -0.014 A 
BRANCH  10  11
ATOM     11  C   UNL A   1      45.892  25.006  26.719  1.00  0.00     0.031 A 
ATOM     12  C   UNL A   1      47.251  25.655  26.921  1.00  0.00     0.074 A 
ATOM     13  C   UNL A   1      44.809  25.768  26.958  1.00  0.00     0.049 A 
ATOM     14  N   UNL A   1      47.553  26.931  26.816  1.00  0.00    -0.248 NA
ATOM     15  C   UNL A   1      48.421  24.812  27.194  1.00  0.00     0.031 C 
ATOM     16  C   UNL A   1      43.422  25.325  26.795  1.00  0.00     0.029 A 
ATOM     17  N   UNL A   1      44.708  27.088  27.297  1.00  0.00    -0.354 N 
ATOM     18  C   UNL A   1      48.946  26.999  26.746  1.00  0.00     0.074 A 
ATOM     19  C   UNL A   1      49.430  25.652  26.950  1.00  0.00     0.031 C 
ATOM     20  C   UNL A   1      42.611  26.374  26.957  1.00  0.00     0.029 A 
ATOM     21  C   UNL A   1      43.411  27.522  27.365  1.00  0.00     0.049 A 
ATOM     22  H   UNL A   1      45.485  27.666  27.472  1.00  0.00     0.167 HD
ATOM     23  C   UNL A   1      49.723  28.090  26.525  1.00  0.00     0.037 A 
ATOM     24  C   UNL A   1      42.908  28.694  27.788  1.00  0.00     0.037 A 
ATOM     25  C   UNL A   1      49.263  29.432  26.791  1.00  0.00     0.049 A 
ATOM     26  C   UNL A   1      43.855  29.798  28.122  1.00  0.00     0.074 A 
ATOM     27  C   UNL A   1      49.997  30.605  26.853  1.00  0.00     0.029 A 
ATOM     28  N   UNL A   1      47.978  29.747  27.205  1.00  0.00    -0.354 N 
ATOM     29  N   UNL A   1      45.129  29.888  27.828  1.00  0.00    -0.248 NA
ATOM     30  C   UNL A   1      43.317  30.938  28.867  1.00  0.00     0.031 C 
ATOM     31  C   UNL A   1      49.195  31.584  27.455  1.00  0.00     0.029 A 
ATOM     32  C   UNL A   1      47.937  31.047  27.681  1.00  0.00     0.049 A 
ATOM     33  H   UNL A   1      47.207  29.136  27.166  1.00  0.00     0.167 HD
ATOM     34  C   UNL A   1      45.553  31.098  28.358  1.00  0.00     0.074 A 
ATOM     35  C   UNL A   1      44.391  31.711  28.974  1.00  0.00     0.031 C 
ATOM     36  C   UNL A   1      46.795  31.642  28.332  1.00  0.00     0.037 A 
BRANCH  23  37
ATOM     37  C   UNL A   1      51.164  27.921  26.104  1.00  0.00     0.058 A 
ATOM     38  C   UNL A   1      52.179  27.783  27.069  1.00  0.00     0.135 A 
ATOM     39  C   UNL A   1      51.525  27.730  24.762  1.00  0.00     0.135 A 
ATOM     40  F   UNL A   1      51.893  27.910  28.375  1.00  0.00    -0.206 F 
ATOM     41  C   UNL A   1      53.499  27.489  26.717  1.00  0.00     0.059 A 
ATOM     42  C   UNL A   1      52.836  27.428  24.386  1.00  0.00     0.059 A 
ATOM     43  F   UNL A   1      50.596  27.816  23.799  1.00  0.00    -0.206 F 
ATOM     44  C   UNL A   1      53.820  27.320  25.369  1.00  0.00     0.060 A 
BRANCH  44  45
ATOM     45  S   UNL A   1      55.543  26.989  24.921  1.00  0.00     0.124 S 
ATOM     46  O   UNL A   1      55.473  25.594  24.496  1.00  0.00    -0.237 OA
ATOM     47  O   UNL A   1      55.783  27.963  23.863  1.00  0.00    -0.237 OA
ATOM     48  O   UNL A   1      56.271  27.222  26.165  1.00  0.00    -0.744 OA
ENDBRANCH  44  45
ENDBRANCH  23  37
BRANCH  24  49
ATOM     49  C   UNL A   1      41.452  28.755  28.058  1.00  0.00     0.058 A 
ATOM     50  C   UNL A   1      40.922  28.612  29.342  1.00  0.00     0.135 A 
ATOM     51  C   UNL A   1      40.572  29.091  27.009  1.00  0.00     0.135 A 
ATOM     52  F   UNL A   1      41.721  28.283  30.368  1.00  0.00    -0.206 F 
ATOM     53  C   UNL A   1      39.570  28.835  29.586  1.00  0.00     0.059 A 
ATOM     54  C   UNL A   1      39.232  29.358  27.236  1.00  0.00     0.059 A 
ATOM     55  F   UNL A   1      41.039  29.245  25.759  1.00  0.00    -0.206 F 
ATOM     56  C   UNL A   1      38.740  29.226  28.530  1.00  0.00     0.060 A 
BRANCH  56  57
ATOM     57  S   UNL A   1      37.011  29.606  28.873  1.00  0.00     0.124 S 
ATOM     58  O   UNL A   1      36.839  29.007  30.191  1.00  0.00    -0.237 OA
ATOM     59  O   UNL A   1      37.006  31.064  28.824  1.00  0.00    -0.237 OA
ATOM     60  O   UNL A   1      36.298  28.946  27.783  1.00  0.00    -0.744 OA
ENDBRANCH  56  57
ENDBRANCH  24  49
BRANCH  36  61
ATOM     61  C   UNL A   1      46.993  32.951  29.036  1.00  0.00     0.058 A 
ATOM     62  C   UNL A   1      46.715  34.166  28.390  1.00  0.00     0.135 A 
ATOM     63  C   UNL A   1      47.378  32.995  30.384  1.00  0.00     0.135 A 
ATOM     64  F   UNL A   1      46.359  34.180  27.097  1.00  0.00    -0.206 F 
ATOM     65  C   UNL A   1      46.812  35.381  29.059  1.00  0.00     0.059 A 
ATOM     66  C   UNL A   1      47.453  34.196  31.082  1.00  0.00     0.059 A 
ATOM     67  F   UNL A   1      47.653  31.859  31.046  1.00  0.00    -0.206 F 
ATOM     68  C   UNL A   1      47.168  35.384  30.410  1.00  0.00     0.060 A 
BRANCH  68  69
ATOM     69  S   UNL A   1      47.212  36.964  31.280  1.00  0.00     0.124 S 
ATOM     70  O   UNL A   1      46.832  37.894  30.222  1.00  0.00    -0.237 OA
ATOM     71  O   UNL A   1      46.221  36.761  32.332  1.00  0.00    -0.237 OA
ATOM     72  O   UNL A   1      48.595  37.063  31.736  1.00  0.00    -0.744 OA
ENDBRANCH  68  69
ENDBRANCH  36  61
ENDBRANCH  10  11
ENDBRANCH   3   5
ENDBRANCH   2   3
ENDBRANCH   1   2
BRANCH   1  73
ATOM     73  C   UNL A   1      42.032  19.224  26.209  1.00  0.00     0.275 C 
BRANCH  73  74
ATOM     74  O   UNL A   1      42.182  20.467  26.928  1.00  0.00    -0.458 OA
BRANCH  74  75
ATOM     75  C   UNL A   1      41.652  21.549  26.284  1.00  0.00     0.338 C 
ATOM     76  O   UNL A   1      42.244  22.058  25.331  1.00  0.00    -0.246 OA
BRANCH  75  77
ATOM     77  C   UNL A   1      40.273  22.245  26.794  1.00  0.00     0.062 A 
ATOM     78  C   UNL A   1      39.648  24.073  27.429  1.00  0.00     0.016 A 
ATOM     79  C   UNL A   1      39.124  21.271  25.818  1.00  0.00     0.042 A 
ATOM     80  C   UNL A   1      38.023  24.668  26.915  1.00  0.00     0.017 A 
ATOM     81  C   UNL A   1      37.598  21.958  25.426  1.00  0.00     0.056 A 
ATOM     82  C   UNL A   1      37.080  23.577  25.911  1.00  0.00     0.064 A 
ATOM     83  N   UNL A   1      36.612  21.106  24.936  1.00  0.00    -0.307 N 
ATOM     84  C   UNL A   1      35.686  23.761  25.618  1.00  0.00     0.264 A 
ATOM     85  C   UNL A   1      35.308  21.315  25.303  1.00  0.00     0.328 A 
ATOM     86  H   UNL A   1      36.848  20.363  24.334  1.00  0.00     0.171 HD
ATOM     87  O   UNL A   1      35.197  24.855  25.390  1.00  0.00    -0.268 OA
ATOM     88  N   UNL A   1      35.012  22.570  25.845  1.00  0.00    -0.260 N 
ATOM     89  O   UNL A   1      34.522  20.369  25.295  1.00  0.00    -0.248 OA
BRANCH  88  90
ATOM     90  C   UNL A   1      34.513  22.546  27.180  1.00  0.00     0.136 C 
BRANCH  90  91
ATOM     91  C   UNL A   1      33.005  22.828  27.245  1.00  0.00     0.060 C 
BRANCH  91  92
ATOM     92  C   UNL A   1      32.146  23.877  26.492  1.00  0.00    -0.021 A 
ATOM     93  C   UNL A   1      31.515  23.367  25.353  1.00  0.00     0.087 A 
ATOM     94  C   UNL A   1      31.817  25.452  26.282  1.00  0.00     0.003 A 
ATOM     95  N   UNL A   1      30.227  23.829  25.336  1.00  0.00    -0.361 N 
ATOM     96  C   UNL A   1      30.392  25.187  25.261  1.00  0.00     0.046 A 
ATOM     97  C   UNL A   1      32.535  27.345  26.306  1.00  0.00     0.010 A 
ATOM     98  H   UNL A   1      29.390  23.312  25.371  1.00  0.00     0.166 HD
ATOM     99  C   UNL A   1      29.747  26.503  24.312  1.00  0.00     0.026 A 
ATOM    100  C   UNL A   1      31.794  28.582  25.208  1.00  0.00     0.001 A 
ATOM    101  C   UNL A   1      30.449  28.108  24.235  1.00  0.00     0.002 A 
ENDBRANCH  91  92
ENDBRANCH  90  91
ENDBRANCH  88  90
ENDBRANCH  75  77
ENDBRANCH  74  75
ENDBRANCH  73  74
ENDBRANCH   1  73
TORSDOF 17
ENDMDL
MODEL 2
REMARK VINA RESULT:     -11.5      5.866      8.146
REMARK SMILES O=C(OCCOC(=O)c1ccc2c(=O)n(CCc3c[nH]c4ccccc34)c(=O)[nH]c2c1)c1ccc(-c2c3nc(c(-c4c(F)cc(S(=O)(=O)[O-])cc4F)c4ccc([nH]4)c(-c4c(F)cc(S(=O)(=O)[O-])cc4F)c4nc(c(-c5c(F)cc(S(=O)(=O)[O-])cc5F)c5ccc2[nH]5)C=C4)C=C3)cc1
REMARK SMILES IDX 4 1 3 2 2 3 1 4 32 5 33 6 97 7 34 8 96 9 35 10 36 11 37 12
REMARK SMILES IDX 90 13 38 14 95 15 89 16 91 17 39 18 94 19 88 20 87 21 40 23
REMARK SMILES IDX 74 24 53 25 73 26 54 27 57 28 72 29 92 30 55 31 56 32 71 34
REMARK SMILES IDX 93 35 58 36 41 37 42 38 51 39 43 40 44 41 50 42 52 43 45 44
REMARK SMILES IDX 46 45 47 46 48 47 49 48 75 49 76 50 85 51 77 52 78 53 84 54
REMARK SMILES IDX 86 55 79 56 80 57 81 58 82 59 83 60 59 61 60 62 69 63 61 64
REMARK SMILES IDX 62 65 68 66 70 67 63 68 64 69 65 70 66 71 67 72 5 73 6 74
REMARK SMILES IDX 7 75 8 76 9 77 10 78 31 79 11 80 30 81 12 82 29 83 13 84
REMARK SMILES IDX 27 85 14 87 15 88 28 89 16 90 17 91 18 92 19 93 26 94 20 95
REMARK SMILES IDX 21 96 25 97 22 99 24 100 23 101
REMARK H PARENT 91 22 57 33 29 86 20 98
REMARK Flexibility Score: inf
ROOT
ATOM      1  C   UNL A   1      42.876  23.823  25.459  1.00  0.00     0.275 C 
ENDROOT
BRANCH   1   2
ATOM      2  O   UNL A   1      41.934  24.879  25.247  1.00  0.00    -0.458 OA
BRANCH   2   3
ATOM      3  C   UNL A   1      42.094  26.189  25.537  1.00  0.00     0.338 C 
ATOM      4  O   UNL A   1      42.766  26.901  24.793  1.00  0.00    -0.246 OA
BRANCH   3   5
ATOM      5  C   UNL A   1      41.606  26.763  26.825  1.00  0.00     0.060 A 
ATOM      6  C   UNL A   1      42.215  27.954  27.191  1.00  0.00     0.016 A 
ATOM      7  C   UNL A   1      40.644  26.216  27.693  1.00  0.00     0.016 A 
ATOM      8  C   UNL A   1      41.936  28.515  28.431  1.00  0.00     0.010 A 
ATOM      9  C   UNL A   1      40.398  26.768  28.976  1.00  0.00     0.010 A 
ATOM     10  C   UNL A   1      41.061  27.924  29.382  1.00  0.00    -0.014 A 
BRANCH  10  11
ATOM     11  C   UNL A   1      40.793  28.683  30.657  1.00  0.00     0.031 A 
ATOM     12  C   UNL A   1      41.681  28.702  31.890  1.00  0.00     0.074 A 
ATOM     13  C   UNL A   1      39.870  29.656  30.554  1.00  0.00     0.049 A 
ATOM     14  N   UNL A   1      42.030  29.746  32.609  1.00  0.00    -0.248 NA
ATOM     15  C   UNL A   1      42.317  27.459  32.342  1.00  0.00     0.031 C 
ATOM     16  C   UNL A   1      38.943  29.815  29.429  1.00  0.00     0.029 A 
ATOM     17  N   UNL A   1      39.624  30.737  31.353  1.00  0.00    -0.354 N 
ATOM     18  C   UNL A   1      43.102  29.334  33.404  1.00  0.00     0.074 A 
ATOM     19  C   UNL A   1      43.260  27.916  33.170  1.00  0.00     0.031 C 
ATOM     20  C   UNL A   1      38.285  30.968  29.571  1.00  0.00     0.029 A 
ATOM     21  C   UNL A   1      38.645  31.556  30.855  1.00  0.00     0.049 A 
ATOM     22  H   UNL A   1      40.101  30.909  32.197  1.00  0.00     0.167 HD
ATOM     23  C   UNL A   1      43.870  30.085  34.233  1.00  0.00     0.037 A 
ATOM     24  C   UNL A   1      38.041  32.622  31.406  1.00  0.00     0.037 A 
ATOM     25  C   UNL A   1      43.411  31.337  34.787  1.00  0.00     0.049 A 
ATOM     26  C   UNL A   1      38.558  33.142  32.705  1.00  0.00     0.074 A 
ATOM     27  C   UNL A   1      43.959  32.082  35.818  1.00  0.00     0.029 A 
ATOM     28  N   UNL A   1      42.201  31.933  34.467  1.00  0.00    -0.354 N 
ATOM     29  N   UNL A   1      39.695  32.865  33.293  1.00  0.00    -0.248 NA
ATOM     30  C   UNL A   1      37.708  34.088  33.432  1.00  0.00     0.031 C 
ATOM     31  C   UNL A   1      43.005  33.027  36.220  1.00  0.00     0.029 A 
ATOM     32  C   UNL A   1      41.906  32.930  35.381  1.00  0.00     0.049 A 
ATOM     33  H   UNL A   1      41.635  31.685  33.700  1.00  0.00     0.167 HD
ATOM     34  C   UNL A   1      39.700  33.600  34.470  1.00  0.00     0.074 A 
ATOM     35  C   UNL A   1      38.457  34.348  34.496  1.00  0.00     0.031 C 
ATOM     36  C   UNL A   1      40.652  33.644  35.434  1.00  0.00     0.037 A 
BRANCH  23  37
ATOM     37  C   UNL A   1      45.205  29.562  34.710  1.00  0.00     0.058 A 
ATOM     38  C   UNL A   1      46.390  29.905  34.034  1.00  0.00     0.135 A 
ATOM     39  C   UNL A   1      45.336  28.864  35.920  1.00  0.00     0.135 A 
ATOM     40  F   UNL A   1      46.339  30.611  32.894  1.00  0.00    -0.206 F 
ATOM     41  C   UNL A   1      47.650  29.553  34.526  1.00  0.00     0.059 A 
ATOM     42  C   UNL A   1      46.584  28.507  36.435  1.00  0.00     0.059 A 
ATOM     43  F   UNL A   1      44.243  28.538  36.627  1.00  0.00    -0.206 F 
ATOM     44  C   UNL A   1      47.736  28.846  35.726  1.00  0.00     0.060 A 
BRANCH  44  45
ATOM     45  S   UNL A   1      49.371  28.351  36.328  1.00  0.00     0.124 S 
ATOM     46  O   UNL A   1      49.749  27.336  35.348  1.00  0.00    -0.237 OA
ATOM     47  O   UNL A   1      50.119  29.601  36.267  1.00  0.00    -0.237 OA
ATOM     48  O   UNL A   1      49.102  27.845  37.671  1.00  0.00    -0.744 OA
ENDBRANCH  44  45
ENDBRANCH  23  37
BRANCH  24  49
ATOM     49  C   UNL A   1      36.793  33.104  30.769  1.00  0.00     0.058 A 
ATOM     50  C   UNL A   1      35.528  32.813  31.285  1.00  0.00     0.135 A 
ATOM     51  C   UNL A   1      36.877  33.989  29.675  1.00  0.00     0.135 A 
ATOM     52  F   UNL A   1      35.400  31.969  32.318  1.00  0.00    -0.206 F 
ATOM     53  C   UNL A   1      34.387  33.412  30.760  1.00  0.00     0.059 A 
ATOM     54  C   UNL A   1      35.760  34.629  29.164  1.00  0.00     0.059 A 
ATOM     55  F   UNL A   1      38.073  34.302  29.150  1.00  0.00    -0.206 F 
ATOM     56  C   UNL A   1      34.518  34.332  29.714  1.00  0.00     0.060 A 
BRANCH  56  57
ATOM     57  S   UNL A   1      33.044  35.176  29.104  1.00  0.00     0.124 S 
ATOM     58  O   UNL A   1      32.552  34.223  28.117  1.00  0.00    -0.237 OA
ATOM     59  O   UNL A   1      32.248  35.310  30.320  1.00  0.00    -0.237 OA
ATOM     60  O   UNL A   1      33.571  36.427  28.566  1.00  0.00    -0.744 OA
ENDBRANCH  56  57
ENDBRANCH  24  49
BRANCH  36  61
ATOM     61  C   UNL A   1      40.378  34.490  36.641  1.00  0.00     0.058 A 
ATOM     62  C   UNL A   1      40.803  35.826  36.698  1.00  0.00     0.135 A 
ATOM     63  C   UNL A   1      39.616  33.996  37.711  1.00  0.00     0.135 A 
ATOM     64  F   UNL A   1      41.549  36.342  35.708  1.00  0.00    -0.206 F 
ATOM     65  C   UNL A   1      40.480  36.644  37.774  1.00  0.00     0.059 A 
ATOM     66  C   UNL A   1      39.255  34.804  38.783  1.00  0.00     0.059 A 
ATOM     67  F   UNL A   1      39.185  32.723  37.702  1.00  0.00    -0.206 F 
ATOM     68  C   UNL A   1      39.693  36.128  38.805  1.00  0.00     0.060 A 
BRANCH  68  69
ATOM     69  S   UNL A   1      39.219  37.228  40.154  1.00  0.00     0.124 S 
ATOM     70  O   UNL A   1      38.425  38.230  39.452  1.00  0.00    -0.237 OA
ATOM     71  O   UNL A   1      38.476  36.332  41.034  1.00  0.00    -0.237 OA
ATOM     72  O   UNL A   1      40.499  37.696  40.678  1.00  0.00    -0.744 OA
ENDBRANCH  68  69
ENDBRANCH  36  61
ENDBRANCH  10  11
ENDBRANCH   3   5
ENDBRANCH   2   3
ENDBRANCH   1   2
BRANCH   1  73
ATOM     73  C   UNL A   1      42.315  22.441  25.813  1.00  0.00     0.275 C 
BRANCH  73  74
ATOM     74  O   UNL A   1      41.528  22.331  27.020  1.00  0.00    -0.458 OA
BRANCH  74  75
ATOM     75  C   UNL A   1      40.682  21.260  27.036  1.00  0.00     0.338 C 
ATOM     76  O   UNL A   1      40.851  20.344  27.843  1.00  0.00    -0.246 OA
BRANCH  75  77
ATOM     77  C   UNL A   1      39.477  21.117  25.952  1.00  0.00     0.062 A 
ATOM     78  C   UNL A   1      38.458  19.628  25.013  1.00  0.00     0.016 A 
ATOM     79  C   UNL A   1      38.560  22.593  26.399  1.00  0.00     0.042 A 
ATOM     80  C   UNL A   1      36.681  19.814  24.757  1.00  0.00     0.017 A 
ATOM     81  C   UNL A   1      36.874  22.640  26.069  1.00  0.00     0.056 A 
ATOM     82  C   UNL A   1      35.968  21.317  25.323  1.00  0.00     0.064 A 
ATOM     83  N   UNL A   1      36.234  23.874  26.139  1.00  0.00    -0.307 N 
ATOM     84  C   UNL A   1      34.641  21.752  24.986  1.00  0.00     0.264 A 
ATOM     85  C   UNL A   1      35.237  24.161  25.243  1.00  0.00     0.328 A 
ATOM     86  H   UNL A   1      36.494  24.532  26.825  1.00  0.00     0.171 HD
ATOM     87  O   UNL A   1      33.691  20.990  24.925  1.00  0.00    -0.268 OA
ATOM     88  N   UNL A   1      34.689  23.071  24.560  1.00  0.00    -0.260 N 
ATOM     89  O   UNL A   1      34.996  25.335  24.969  1.00  0.00    -0.248 OA
BRANCH  88  90
ATOM     90  C   UNL A   1      34.836  23.114  23.143  1.00  0.00     0.136 C 
BRANCH  90  91
ATOM     91  C   UNL A   1      33.533  23.506  22.431  1.00  0.00     0.060 C 
BRANCH  91  92
ATOM     92  C   UNL A   1      32.719  24.825  22.480  1.00  0.00    -0.021 A 
ATOM     93  C   UNL A   1      32.814  25.583  21.309  1.00  0.00     0.087 A 
ATOM     94  C   UNL A   1      31.951  25.903  23.419  1.00  0.00     0.003 A 
ATOM     95  N   UNL A   1      31.564  26.038  20.993  1.00  0.00    -0.361 N 
ATOM     96  C   UNL A   1      31.239  26.814  22.075  1.00  0.00     0.046 A 
ATOM     97  C   UNL A   1      31.863  26.805  25.229  1.00  0.00     0.010 A 
ATOM     98  H   UNL A   1      31.030  25.852  20.187  1.00  0.00     0.166 HD
ATOM     99  C   UNL A   1      30.587  28.408  22.356  1.00  0.00     0.026 A 
ATOM    100  C   UNL A   1      31.214  28.495  25.341  1.00  0.00     0.001 A 
ATOM    101  C   UNL A   1      30.627  29.239  23.899  1.00  0.00     0.002 A 
ENDBRANCH  91  92
ENDBRANCH  90  91
ENDBRANCH  88  90
ENDBRANCH  75  77
ENDBRANCH  74  75
ENDBRANCH  73  74
ENDBRANCH   1  73
TORSDOF 17
ENDMDL
MODEL 3
REMARK VINA RESULT:     -11.3      2.738      9.366
REMARK SMILES O=C(OCCOC(=O)c1ccc2c(=O)n(CCc3c[nH]c4ccccc34)c(=O)[nH]c2c1)c1ccc(-c2c3nc(c(-c4c(F)cc(S(=O)(=O)[O-])cc4F)c4ccc([nH]4)c(-c4c(F)cc(S(=O)(=O)[O-])cc4F)c4nc(c(-c5c(F)cc(S(=O)(=O)[O-])cc5F)c5ccc2[nH]5)C=C4)C=C3)cc1
REMARK SMILES IDX 4 1 3 2 2 3 1 4 32 5 33 6 97 7 34 8 96 9 35 10 36 11 37 12
REMARK SMILES IDX 90 13 38 14 95 15 89 16 91 17 39 18 94 19 88 20 87 21 40 23
REMARK SMILES IDX 74 24 53 25 73 26 54 27 57 28 72 29 92 30 55 31 56 32 71 34
REMARK SMILES IDX 93 35 58 36 41 37 42 38 51 39 43 40 44 41 50 42 52 43 45 44
REMARK SMILES IDX 46 45 47 46 48 47 49 48 75 49 76 50 85 51 77 52 78 53 84 54
REMARK SMILES IDX 86 55 79 56 80 57 81 58 82 59 83 60 59 61 60 62 69 63 61 64
REMARK SMILES IDX 62 65 68 66 70 67 63 68 64 69 65 70 66 71 67 72 5 73 6 74
REMARK SMILES IDX 7 75 8 76 9 77 10 78 31 79 11 80 30 81 12 82 29 83 13 84
REMARK SMILES IDX 27 85 14 87 15 88 28 89 16 90 17 91 18 92 19 93 26 94 20 95
REMARK SMILES IDX 21 96 25 97 22 99 24 100 23 101
REMARK H PARENT 91 22 57 33 29 86 20 98
REMARK Flexibility Score: inf
ROOT
ATOM      1  C   UNL A   1      35.252  31.742  28.992  1.00  0.00     0.275 C 
ENDROOT
BRANCH   1   2
ATOM      2  O   UNL A   1      35.883  30.793  29.857  1.00  0.00    -0.458 OA
BRANCH   2   3
ATOM      3  C   UNL A   1      36.946  31.003  30.666  1.00  0.00     0.338 C 
ATOM      4  O   UNL A   1      36.784  31.546  31.756  1.00  0.00    -0.246 OA
BRANCH   3   5
ATOM      5  C   UNL A   1      38.338  30.733  30.201  1.00  0.00     0.060 A 
ATOM      6  C   UNL A   1      38.428  30.254  28.903  1.00  0.00     0.016 A 
ATOM      7  C   UNL A   1      39.527  30.882  30.937  1.00  0.00     0.016 A 
ATOM      8  C   UNL A   1      39.659  29.846  28.406  1.00  0.00     0.010 A 
ATOM      9  C   UNL A   1      40.773  30.422  30.440  1.00  0.00     0.010 A 
ATOM     10  C   UNL A   1      40.860  29.869  29.165  1.00  0.00    -0.014 A 
BRANCH  10  11
ATOM     11  C   UNL A   1      42.137  29.468  28.472  1.00  0.00     0.031 A 
ATOM     12  C   UNL A   1      43.389  30.320  28.341  1.00  0.00     0.074 A 
ATOM     13  C   UNL A   1      42.270  28.148  28.247  1.00  0.00     0.049 A 
ATOM     14  N   UNL A   1      44.636  29.945  28.525  1.00  0.00    -0.248 NA
ATOM     15  C   UNL A   1      43.262  31.753  28.052  1.00  0.00     0.031 C 
ATOM     16  C   UNL A   1      41.185  27.169  28.350  1.00  0.00     0.029 A 
ATOM     17  N   UNL A   1      43.382  27.399  27.981  1.00  0.00    -0.354 N 
ATOM     18  C   UNL A   1      45.386  31.117  28.634  1.00  0.00     0.074 A 
ATOM     19  C   UNL A   1      44.476  32.209  28.369  1.00  0.00     0.031 C 
ATOM     20  C   UNL A   1      41.697  25.942  28.226  1.00  0.00     0.029 A 
ATOM     21  C   UNL A   1      43.114  26.058  27.903  1.00  0.00     0.049 A 
ATOM     22  H   UNL A   1      44.280  27.783  27.858  1.00  0.00     0.167 HD
ATOM     23  C   UNL A   1      46.704  31.247  28.937  1.00  0.00     0.037 A 
ATOM     24  C   UNL A   1      43.902  25.035  27.533  1.00  0.00     0.037 A 
ATOM     25  C   UNL A   1      47.650  30.176  28.734  1.00  0.00     0.049 A 
ATOM     26  C   UNL A   1      45.349  25.302  27.286  1.00  0.00     0.074 A 
ATOM     27  C   UNL A   1      49.034  30.226  28.757  1.00  0.00     0.029 A 
ATOM     28  N   UNL A   1      47.306  28.903  28.305  1.00  0.00    -0.354 N 
ATOM     29  N   UNL A   1      46.045  26.362  27.618  1.00  0.00    -0.248 NA
ATOM     30  C   UNL A   1      46.112  24.262  26.593  1.00  0.00     0.031 C 
ATOM     31  C   UNL A   1      49.517  29.038  28.190  1.00  0.00     0.029 A 
ATOM     32  C   UNL A   1      48.439  28.216  27.901  1.00  0.00     0.049 A 
ATOM     33  H   UNL A   1      46.391  28.541  28.290  1.00  0.00     0.167 HD
ATOM     34  C   UNL A   1      47.334  26.121  27.167  1.00  0.00     0.074 A 
ATOM     35  C   UNL A   1      47.322  24.805  26.556  1.00  0.00     0.031 C 
ATOM     36  C   UNL A   1      48.423  26.925  27.255  1.00  0.00     0.037 A 
BRANCH  23  37
ATOM     37  C   UNL A   1      47.251  32.582  29.384  1.00  0.00     0.058 A 
ATOM     38  C   UNL A   1      47.677  33.533  28.439  1.00  0.00     0.135 A 
ATOM     39  C   UNL A   1      47.202  32.989  30.726  1.00  0.00     0.135 A 
ATOM     40  F   UNL A   1      47.706  33.223  27.133  1.00  0.00    -0.206 F 
ATOM     41  C   UNL A   1      48.060  34.824  28.810  1.00  0.00     0.059 A 
ATOM     42  C   UNL A   1      47.572  34.276  31.121  1.00  0.00     0.059 A 
ATOM     43  F   UNL A   1      46.772  32.138  31.669  1.00  0.00    -0.206 F 
ATOM     44  C   UNL A   1      48.010  35.186  30.158  1.00  0.00     0.060 A 
BRANCH  44  45
ATOM     45  S   UNL A   1      48.555  36.846  30.633  1.00  0.00     0.124 S 
ATOM     46  O   UNL A   1      47.302  37.451  31.075  1.00  0.00    -0.237 OA
ATOM     47  O   UNL A   1      49.529  36.567  31.682  1.00  0.00    -0.237 OA
ATOM     48  O   UNL A   1      49.105  37.392  29.396  1.00  0.00    -0.744 OA
ENDBRANCH  44  45
ENDBRANCH  23  37
BRANCH  24  49
ATOM     49  C   UNL A   1      43.244  23.742  27.230  1.00  0.00     0.058 A 
ATOM     50  C   UNL A   1      42.760  23.429  25.958  1.00  0.00     0.135 A 
ATOM     51  C   UNL A   1      43.212  22.738  28.219  1.00  0.00     0.135 A 
ATOM     52  F   UNL A   1      42.762  24.356  24.989  1.00  0.00    -0.206 F 
ATOM     53  C   UNL A   1      42.296  22.150  25.665  1.00  0.00     0.059 A 
ATOM     54  C   UNL A   1      42.794  21.448  27.939  1.00  0.00     0.059 A 
ATOM     55  F   UNL A   1      43.673  22.993  29.455  1.00  0.00    -0.206 F 
ATOM     56  C   UNL A   1      42.336  21.164  26.657  1.00  0.00     0.060 A 
BRANCH  56  57
ATOM     57  S   UNL A   1      41.823  19.485  26.241  1.00  0.00     0.124 S 
ATOM     58  O   UNL A   1      42.613  19.229  25.043  1.00  0.00    -0.237 OA
ATOM     59  O   UNL A   1      42.212  18.746  27.438  1.00  0.00    -0.237 OA
ATOM     60  O   UNL A   1      40.384  19.615  26.032  1.00  0.00    -0.744 OA
ENDBRANCH  56  57
ENDBRANCH  24  49
BRANCH  36  61
ATOM     61  C   UNL A   1      49.697  26.438  26.631  1.00  0.00     0.058 A 
ATOM     62  C   UNL A   1      50.054  26.821  25.329  1.00  0.00     0.135 A 
ATOM     63  C   UNL A   1      50.605  25.658  27.361  1.00  0.00     0.135 A 
ATOM     64  F   UNL A   1      49.213  27.553  24.583  1.00  0.00    -0.206 F 
ATOM     65  C   UNL A   1      51.272  26.447  24.773  1.00  0.00     0.059 A 
ATOM     66  C   UNL A   1      51.841  25.297  26.836  1.00  0.00     0.059 A 
ATOM     67  F   UNL A   1      50.309  25.268  28.612  1.00  0.00    -0.206 F 
ATOM     68  C   UNL A   1      52.165  25.696  25.540  1.00  0.00     0.060 A 
BRANCH  68  69
ATOM     69  S   UNL A   1      53.772  25.288  24.828  1.00  0.00     0.124 S 
ATOM     70  O   UNL A   1      53.675  25.902  23.509  1.00  0.00    -0.237 OA
ATOM     71  O   UNL A   1      54.692  25.930  25.761  1.00  0.00    -0.237 OA
ATOM     72  O   UNL A   1      53.788  23.828  24.841  1.00  0.00    -0.744 OA
ENDBRANCH  68  69
ENDBRANCH  36  61
ENDBRANCH  10  11
ENDBRANCH   3   5
ENDBRANCH   2   3
ENDBRANCH   1   2
BRANCH   1  73
ATOM     73  C   UNL A   1      34.346  31.190  27.886  1.00  0.00     0.275 C 
BRANCH  73  74
ATOM     74  O   UNL A   1      33.228  32.007  27.471  1.00  0.00    -0.458 OA
BRANCH  74  75
ATOM     75  C   UNL A   1      32.237  31.312  26.841  1.00  0.00     0.338 C 
ATOM     76  O   UNL A   1      31.229  31.893  26.435  1.00  0.00    -0.246 OA
BRANCH  75  77
ATOM     77  C   UNL A   1      32.312  29.696  26.669  1.00  0.00     0.062 A 
ATOM     78  C   UNL A   1      31.491  28.045  27.529  1.00  0.00     0.016 A 
ATOM     79  C   UNL A   1      32.615  29.644  24.901  1.00  0.00     0.042 A 
ATOM     80  C   UNL A   1      31.024  26.654  26.478  1.00  0.00     0.017 A 
ATOM     81  C   UNL A   1      32.141  28.239  24.031  1.00  0.00     0.056 A 
ATOM     82  C   UNL A   1      31.357  26.833  24.761  1.00  0.00     0.064 A 
ATOM     83  N   UNL A   1      32.638  28.078  22.741  1.00  0.00    -0.307 N 
ATOM     84  C   UNL A   1      31.294  25.753  23.816  1.00  0.00     0.264 A 
ATOM     85  C   UNL A   1      32.966  26.822  22.305  1.00  0.00     0.328 A 
ATOM     86  H   UNL A   1      32.752  28.858  22.150  1.00  0.00     0.171 HD
ATOM     87  O   UNL A   1      30.430  24.893  23.852  1.00  0.00    -0.268 OA
ATOM     88  N   UNL A   1      32.447  25.755  23.045  1.00  0.00    -0.260 N 
ATOM     89  O   UNL A   1      33.808  26.694  21.416  1.00  0.00    -0.248 OA
BRANCH  88  90
ATOM     90  C   UNL A   1      33.423  24.902  23.637  1.00  0.00     0.136 C 
BRANCH  90  91
ATOM     91  C   UNL A   1      33.380  23.478  23.062  1.00  0.00     0.060 C 
BRANCH  91  92
ATOM     92  C   UNL A   1      33.202  22.112  23.776  1.00  0.00    -0.021 A 
ATOM     93  C   UNL A   1      33.946  21.999  24.955  1.00  0.00     0.087 A 
ATOM     94  C   UNL A   1      32.700  20.575  23.642  1.00  0.00     0.003 A 
ATOM     95  N   UNL A   1      33.148  21.426  25.908  1.00  0.00    -0.361 N 
ATOM     96  C   UNL A   1      32.862  20.199  25.367  1.00  0.00     0.046 A 
ATOM     97  C   UNL A   1      32.450  18.981  22.420  1.00  0.00     0.010 A 
ATOM     98  H   UNL A   1      32.854  21.803  26.768  1.00  0.00     0.166 HD
ATOM     99  C   UNL A   1      32.867  18.536  25.896  1.00  0.00     0.026 A 
ATOM    100  C   UNL A   1      32.549  17.310  23.119  1.00  0.00     0.001 A 
ATOM    101  C   UNL A   1      32.780  17.152  24.823  1.00  0.00     0.002 A 
ENDBRANCH  91  92
ENDBRANCH  90  91
ENDBRANCH  88  90
ENDBRANCH  75  77
ENDBRANCH  74  75
ENDBRANCH  73  74
ENDBRANCH   1  73
TORSDOF 17
ENDMDL
