MODEL 1
REMARK VINA RESULT:     -11.0      0.000      0.000
REMARK SMILES CCCOc1ccc(Nc2snc(C)c2C(=O)OCCOC(=O)c2ccc(-c3c4nc(c(-c5c(F)cc(S(=O)(=O)[O-])cc5F)c5ccc([nH]5)c(-c5c(F)cc(S(=O)(=O)[O-])cc5F)c5nc(c(-c6c(F)cc(S(=O)(=O)[O-])cc6F)c6ccc3[nH]6)C=C5)C=C4)cc2)cc1
REMARK SMILES IDX 19 1 18 2 16 3 17 4 15 5 10 6 11 7 12 8 13 9 14 10 9 11 8 13
REMARK SMILES IDX 5 14 6 15 91 16 7 17 90 18 4 19 3 20 2 21 1 22 20 23 21 24
REMARK SMILES IDX 22 25 23 26 24 27 25 28 89 29 26 30 88 31 27 32 28 33 29 34
REMARK SMILES IDX 82 35 30 36 87 37 81 38 83 39 31 40 86 41 80 42 79 43 32 45
REMARK SMILES IDX 66 46 45 47 65 48 46 49 49 50 64 51 84 52 47 53 48 54 63 56
REMARK SMILES IDX 85 57 50 58 33 59 34 60 43 61 35 62 36 63 42 64 44 65 37 66
REMARK SMILES IDX 38 67 39 68 40 69 41 70 67 71 68 72 77 73 69 74 70 75 76 76
REMARK SMILES IDX 78 77 71 78 72 79 73 80 74 81 75 82 51 83 52 84 61 85 53 86
REMARK SMILES IDX 54 87 60 88 62 89 55 90 56 91 57 92 58 93 59 94
REMARK H PARENT 9 12 83 44 49 55
REMARK Flexibility Score: inf
ROOT
ATOM      1  C   UNL A   1      32.178  29.710  26.822  1.00  0.00     0.275 C 
ENDROOT
BRANCH   1   2
ATOM      2  O   UNL A   1      32.882  28.793  25.971  1.00  0.00    -0.458 OA
BRANCH   2   3
ATOM      3  C   UNL A   1      32.519  28.691  24.657  1.00  0.00     0.343 C 
ATOM      4  O   UNL A   1      33.165  29.171  23.731  1.00  0.00    -0.246 OA
BRANCH   3   5
ATOM      5  C   UNL A   1      31.316  27.884  24.458  1.00  0.00     0.117 A 
ATOM      6  C   UNL A   1      30.987  26.743  25.187  1.00  0.00     0.128 A 
ATOM      7  S   UNL A   1      29.618  26.016  24.447  1.00  0.00    -0.017 S 
ATOM      8  N   UNL A   1      29.324  27.224  23.369  1.00  0.00    -0.195 NA
ATOM      9  C   UNL A   1      30.307  28.123  23.445  1.00  0.00     0.068 A 
ATOM     10  C   UNL A   1      30.258  29.247  22.465  1.00  0.00     0.069 C 
BRANCH   6  11
ATOM     11  N   UNL A   1      31.568  26.165  26.272  1.00  0.00    -0.345 N 
ATOM     12  H   UNL A   1      31.412  26.595  27.143  1.00  0.00     0.167 HD
BRANCH  11  13
ATOM     13  C   UNL A   1      32.370  25.013  26.265  1.00  0.00     0.039 A 
ATOM     14  C   UNL A   1      34.147  22.828  26.443  1.00  0.00     0.119 A 
ATOM     15  C   UNL A   1      32.858  22.736  26.968  1.00  0.00     0.048 A 
ATOM     16  C   UNL A   1      34.560  24.037  25.896  1.00  0.00     0.048 A 
ATOM     17  C   UNL A   1      31.985  23.824  26.898  1.00  0.00     0.030 A 
ATOM     18  C   UNL A   1      33.669  25.104  25.762  1.00  0.00     0.030 A 
BRANCH  14  19
ATOM     19  O   UNL A   1      34.884  21.684  26.512  1.00  0.00    -0.494 OA
BRANCH  19  20
ATOM     20  C   UNL A   1      35.108  20.921  25.326  1.00  0.00     0.229 C 
BRANCH  20  21
ATOM     21  C   UNL A   1      33.855  20.192  24.817  1.00  0.00     0.038 C 
ATOM     22  C   UNL A   1      34.083  18.728  24.455  1.00  0.00     0.007 C 
ENDBRANCH  20  21
ENDBRANCH  19  20
ENDBRANCH  14  19
ENDBRANCH  11  13
ENDBRANCH   6  11
ENDBRANCH   3   5
ENDBRANCH   2   3
ENDBRANCH   1   2
BRANCH   1  23
ATOM     23  C   UNL A   1      33.072  30.878  27.191  1.00  0.00     0.275 C 
BRANCH  23  24
ATOM     24  O   UNL A   1      34.378  30.409  27.503  1.00  0.00    -0.458 OA
BRANCH  24  25
ATOM     25  C   UNL A   1      35.226  31.380  27.901  1.00  0.00     0.338 C 
ATOM     26  O   UNL A   1      35.269  32.539  27.523  1.00  0.00    -0.246 OA
BRANCH  25  27
ATOM     27  C   UNL A   1      36.278  30.791  28.717  1.00  0.00     0.060 A 
ATOM     28  C   UNL A   1      37.139  31.691  29.348  1.00  0.00     0.016 A 
ATOM     29  C   UNL A   1      36.592  29.439  28.527  1.00  0.00     0.016 A 
ATOM     30  C   UNL A   1      38.421  31.279  29.602  1.00  0.00     0.010 A 
ATOM     31  C   UNL A   1      37.873  29.030  28.783  1.00  0.00     0.010 A 
ATOM     32  C   UNL A   1      38.788  29.983  29.227  1.00  0.00    -0.014 A 
BRANCH  32  33
ATOM     33  C   UNL A   1      40.175  29.616  29.389  1.00  0.00     0.031 A 
ATOM     34  C   UNL A   1      40.561  29.464  30.814  1.00  0.00     0.074 A 
ATOM     35  C   UNL A   1      40.940  29.319  28.324  1.00  0.00     0.049 A 
ATOM     36  N   UNL A   1      41.478  30.093  31.470  1.00  0.00    -0.248 NA
ATOM     37  C   UNL A   1      39.681  28.632  31.658  1.00  0.00     0.031 C 
ATOM     38  C   UNL A   1      40.531  29.177  26.922  1.00  0.00     0.029 A 
ATOM     39  N   UNL A   1      42.239  28.937  28.296  1.00  0.00    -0.354 N 
ATOM     40  C   UNL A   1      41.435  29.567  32.757  1.00  0.00     0.074 A 
ATOM     41  C   UNL A   1      40.204  28.832  32.865  1.00  0.00     0.031 C 
ATOM     42  C   UNL A   1      41.483  28.489  26.252  1.00  0.00     0.029 A 
ATOM     43  C   UNL A   1      42.605  28.257  27.144  1.00  0.00     0.049 A 
ATOM     44  H   UNL A   1      42.868  29.126  29.028  1.00  0.00     0.167 HD
ATOM     45  C   UNL A   1      42.534  29.557  33.556  1.00  0.00     0.037 A 
ATOM     46  C   UNL A   1      43.693  27.456  27.019  1.00  0.00     0.037 A 
ATOM     47  C   UNL A   1      43.496  30.542  33.139  1.00  0.00     0.049 A 
ATOM     48  C   UNL A   1      44.622  27.811  28.133  1.00  0.00     0.074 A 
ATOM     49  C   UNL A   1      43.456  31.916  32.990  1.00  0.00     0.029 A 
ATOM     50  N   UNL A   1      44.592  30.122  32.423  1.00  0.00    -0.354 N 
ATOM     51  N   UNL A   1      45.219  28.969  28.241  1.00  0.00    -0.248 NA
ATOM     52  C   UNL A   1      44.505  27.059  29.376  1.00  0.00     0.031 C 
ATOM     53  C   UNL A   1      44.215  32.184  31.815  1.00  0.00     0.029 A 
ATOM     54  C   UNL A   1      44.721  30.970  31.350  1.00  0.00     0.049 A 
ATOM     55  H   UNL A   1      45.173  29.358  32.638  1.00  0.00     0.167 HD
ATOM     56  C   UNL A   1      45.190  29.269  29.599  1.00  0.00     0.074 A 
ATOM     57  C   UNL A   1      44.802  28.022  30.253  1.00  0.00     0.031 C 
ATOM     58  C   UNL A   1      45.201  30.560  30.048  1.00  0.00     0.037 A 
BRANCH  45  59
ATOM     59  C   UNL A   1      42.870  28.404  34.466  1.00  0.00     0.058 A 
ATOM     60  C   UNL A   1      43.117  28.650  35.830  1.00  0.00     0.135 A 
ATOM     61  C   UNL A   1      43.237  27.117  34.001  1.00  0.00     0.135 A 
ATOM     62  F   UNL A   1      42.813  29.838  36.376  1.00  0.00    -0.206 F 
ATOM     63  C   UNL A   1      43.756  27.718  36.649  1.00  0.00     0.059 A 
ATOM     64  C   UNL A   1      43.820  26.156  34.813  1.00  0.00     0.059 A 
ATOM     65  F   UNL A   1      43.145  26.763  32.713  1.00  0.00    -0.206 F 
ATOM     66  C   UNL A   1      44.122  26.482  36.122  1.00  0.00     0.060 A 
BRANCH  66  67
ATOM     67  S   UNL A   1      45.072  25.332  37.129  1.00  0.00     0.124 S 
ATOM     68  O   UNL A   1      45.369  24.281  36.162  1.00  0.00    -0.237 OA
ATOM     69  O   UNL A   1      46.199  26.158  37.549  1.00  0.00    -0.237 OA
ATOM     70  O   UNL A   1      44.140  24.968  38.192  1.00  0.00    -0.744 OA
ENDBRANCH  66  67
ENDBRANCH  45  59
BRANCH  46  71
ATOM     71  C   UNL A   1      43.757  26.163  26.283  1.00  0.00     0.058 A 
ATOM     72  C   UNL A   1      44.795  25.892  25.376  1.00  0.00     0.135 A 
ATOM     73  C   UNL A   1      42.945  25.063  26.637  1.00  0.00     0.135 A 
ATOM     74  F   UNL A   1      45.636  26.870  25.005  1.00  0.00    -0.206 F 
ATOM     75  C   UNL A   1      45.033  24.607  24.875  1.00  0.00     0.059 A 
ATOM     76  C   UNL A   1      43.151  23.779  26.138  1.00  0.00     0.059 A 
ATOM     77  F   UNL A   1      41.970  25.180  27.551  1.00  0.00    -0.206 F 
ATOM     78  C   UNL A   1      44.213  23.551  25.276  1.00  0.00     0.060 A 
BRANCH  78  79
ATOM     79  S   UNL A   1      44.607  21.864  24.760  1.00  0.00     0.124 S 
ATOM     80  O   UNL A   1      44.609  21.985  23.307  1.00  0.00    -0.237 OA
ATOM     81  O   UNL A   1      45.907  21.647  25.385  1.00  0.00    -0.237 OA
ATOM     82  O   UNL A   1      43.512  21.074  25.318  1.00  0.00    -0.744 OA
ENDBRANCH  78  79
ENDBRANCH  46  71
BRANCH  58  83
ATOM     83  C   UNL A   1      45.488  31.663  29.059  1.00  0.00     0.058 A 
ATOM     84  C   UNL A   1      46.781  32.054  28.666  1.00  0.00     0.135 A 
ATOM     85  C   UNL A   1      44.414  32.222  28.353  1.00  0.00     0.135 A 
ATOM     86  F   UNL A   1      47.865  31.484  29.208  1.00  0.00    -0.206 F 
ATOM     87  C   UNL A   1      46.996  32.988  27.652  1.00  0.00     0.059 A 
ATOM     88  C   UNL A   1      44.603  33.133  27.315  1.00  0.00     0.059 A 
ATOM     89  F   UNL A   1      43.155  31.840  28.629  1.00  0.00    -0.206 F 
ATOM     90  C   UNL A   1      45.898  33.522  26.980  1.00  0.00     0.060 A 
BRANCH  90  91
ATOM     91  S   UNL A   1      46.177  34.673  25.615  1.00  0.00     0.124 S 
ATOM     92  O   UNL A   1      45.852  35.957  26.226  1.00  0.00    -0.237 OA
ATOM     93  O   UNL A   1      47.587  34.459  25.301  1.00  0.00    -0.237 OA
ATOM     94  O   UNL A   1      45.244  34.217  24.587  1.00  0.00    -0.744 OA
ENDBRANCH  90  91
ENDBRANCH  58  83
ENDBRANCH  32  33
ENDBRANCH  25  27
ENDBRANCH  24  25
ENDBRANCH  23  24
ENDBRANCH   1  23
TORSDOF 19
ENDMDL
MODEL 2
REMARK VINA RESULT:     -10.8      1.369      3.711
REMARK SMILES CCCOc1ccc(Nc2snc(C)c2C(=O)OCCOC(=O)c2ccc(-c3c4nc(c(-c5c(F)cc(S(=O)(=O)[O-])cc5F)c5ccc([nH]5)c(-c5c(F)cc(S(=O)(=O)[O-])cc5F)c5nc(c(-c6c(F)cc(S(=O)(=O)[O-])cc6F)c6ccc3[nH]6)C=C5)C=C4)cc2)cc1
REMARK SMILES IDX 19 1 18 2 16 3 17 4 15 5 10 6 11 7 12 8 13 9 14 10 9 11 8 13
REMARK SMILES IDX 5 14 6 15 91 16 7 17 90 18 4 19 3 20 2 21 1 22 20 23 21 24
REMARK SMILES IDX 22 25 23 26 24 27 25 28 89 29 26 30 88 31 27 32 28 33 29 34
REMARK SMILES IDX 82 35 30 36 87 37 81 38 83 39 31 40 86 41 80 42 79 43 32 45
REMARK SMILES IDX 66 46 45 47 65 48 46 49 49 50 64 51 84 52 47 53 48 54 63 56
REMARK SMILES IDX 85 57 50 58 33 59 34 60 43 61 35 62 36 63 42 64 44 65 37 66
REMARK SMILES IDX 38 67 39 68 40 69 41 70 67 71 68 72 77 73 69 74 70 75 76 76
REMARK SMILES IDX 78 77 71 78 72 79 73 80 74 81 75 82 51 83 52 84 61 85 53 86
REMARK SMILES IDX 54 87 60 88 62 89 55 90 56 91 57 92 58 93 59 94
REMARK H PARENT 9 12 83 44 49 55
REMARK Flexibility Score: inf
ROOT
ATOM      1  C   UNL A   1      32.937  28.336  27.231  1.00  0.00     0.275 C 
ENDROOT
BRANCH   1   2
ATOM      2  O   UNL A   1      33.426  27.261  26.414  1.00  0.00    -0.458 OA
BRANCH   2   3
ATOM      3  C   UNL A   1      32.606  26.200  26.150  1.00  0.00     0.343 C 
ATOM      4  O   UNL A   1      31.692  25.842  26.887  1.00  0.00    -0.246 OA
BRANCH   3   5
ATOM      5  C   UNL A   1      32.880  25.575  24.856  1.00  0.00     0.117 A 
ATOM      6  C   UNL A   1      32.821  26.224  23.625  1.00  0.00     0.128 A 
ATOM      7  S   UNL A   1      32.992  25.040  22.392  1.00  0.00    -0.017 S 
ATOM      8  N   UNL A   1      33.343  23.779  23.389  1.00  0.00    -0.195 NA
ATOM      9  C   UNL A   1      33.211  24.177  24.656  1.00  0.00     0.068 A 
ATOM     10  C   UNL A   1      33.397  23.133  25.705  1.00  0.00     0.069 C 
BRANCH   6  11
ATOM     11  N   UNL A   1      32.627  27.530  23.300  1.00  0.00    -0.345 N 
ATOM     12  H   UNL A   1      33.418  28.041  23.017  1.00  0.00     0.167 HD
BRANCH  11  13
ATOM     13  C   UNL A   1      31.403  28.216  23.332  1.00  0.00     0.039 A 
ATOM     14  C   UNL A   1      29.076  29.812  23.266  1.00  0.00     0.119 A 
ATOM     15  C   UNL A   1      29.187  28.690  22.446  1.00  0.00     0.048 A 
ATOM     16  C   UNL A   1      30.159  30.167  24.062  1.00  0.00     0.048 A 
ATOM     17  C   UNL A   1      30.347  27.911  22.463  1.00  0.00     0.030 A 
ATOM     18  C   UNL A   1      31.292  29.353  24.133  1.00  0.00     0.030 A 
BRANCH  14  19
ATOM     19  O   UNL A   1      27.875  30.455  23.211  1.00  0.00    -0.494 OA
BRANCH  19  20
ATOM     20  C   UNL A   1      27.845  31.882  23.184  1.00  0.00     0.229 C 
BRANCH  20  21
ATOM     21  C   UNL A   1      28.577  32.492  21.979  1.00  0.00     0.038 C 
ATOM     22  C   UNL A   1      27.978  32.119  20.626  1.00  0.00     0.007 C 
ENDBRANCH  20  21
ENDBRANCH  19  20
ENDBRANCH  14  19
ENDBRANCH  11  13
ENDBRANCH   6  11
ENDBRANCH   3   5
ENDBRANCH   2   3
ENDBRANCH   1   2
BRANCH   1  23
ATOM     23  C   UNL A   1      33.521  29.656  26.767  1.00  0.00     0.275 C 
BRANCH  23  24
ATOM     24  O   UNL A   1      34.911  29.702  27.064  1.00  0.00    -0.458 OA
BRANCH  24  25
ATOM     25  C   UNL A   1      35.290  30.809  27.737  1.00  0.00     0.338 C 
ATOM     26  O   UNL A   1      34.933  31.959  27.548  1.00  0.00    -0.246 OA
BRANCH  25  27
ATOM     27  C   UNL A   1      36.399  30.476  28.619  1.00  0.00     0.060 A 
ATOM     28  C   UNL A   1      37.301  31.508  28.883  1.00  0.00     0.016 A 
ATOM     29  C   UNL A   1      36.701  29.124  28.832  1.00  0.00     0.016 A 
ATOM     30  C   UNL A   1      38.599  31.167  29.162  1.00  0.00     0.010 A 
ATOM     31  C   UNL A   1      37.997  28.787  29.112  1.00  0.00     0.010 A 
ATOM     32  C   UNL A   1      38.940  29.811  29.178  1.00  0.00    -0.014 A 
BRANCH  32  33
ATOM     33  C   UNL A   1      40.336  29.482  29.348  1.00  0.00     0.031 A 
ATOM     34  C   UNL A   1      40.717  29.337  30.775  1.00  0.00     0.074 A 
ATOM     35  C   UNL A   1      41.116  29.210  28.287  1.00  0.00     0.049 A 
ATOM     36  N   UNL A   1      41.611  29.989  31.439  1.00  0.00    -0.248 NA
ATOM     37  C   UNL A   1      39.855  28.479  31.611  1.00  0.00     0.031 C 
ATOM     38  C   UNL A   1      40.720  29.061  26.883  1.00  0.00     0.029 A 
ATOM     39  N   UNL A   1      42.426  28.866  28.267  1.00  0.00    -0.354 N 
ATOM     40  C   UNL A   1      41.574  29.458  32.724  1.00  0.00     0.074 A 
ATOM     41  C   UNL A   1      40.364  28.690  32.821  1.00  0.00     0.031 C 
ATOM     42  C   UNL A   1      41.696  28.403  26.217  1.00  0.00     0.029 A 
ATOM     43  C   UNL A   1      42.818  28.199  27.115  1.00  0.00     0.049 A 
ATOM     44  H   UNL A   1      43.044  29.070  29.004  1.00  0.00     0.167 HD
ATOM     45  C   UNL A   1      42.667  29.478  33.531  1.00  0.00     0.037 A 
ATOM     46  C   UNL A   1      43.929  27.430  26.996  1.00  0.00     0.037 A 
ATOM     47  C   UNL A   1      43.605  30.490  33.123  1.00  0.00     0.049 A 
ATOM     48  C   UNL A   1      44.840  27.807  28.117  1.00  0.00     0.074 A 
ATOM     49  C   UNL A   1      43.526  31.863  32.978  1.00  0.00     0.029 A 
ATOM     50  N   UNL A   1      44.716  30.103  32.413  1.00  0.00    -0.354 N 
ATOM     51  N   UNL A   1      45.404  28.982  28.232  1.00  0.00    -0.248 NA
ATOM     52  C   UNL A   1      44.737  27.049  29.357  1.00  0.00     0.031 C 
ATOM     53  C   UNL A   1      44.286  32.156  31.809  1.00  0.00     0.029 A 
ATOM     54  C   UNL A   1      44.829  30.958  31.344  1.00  0.00     0.049 A 
ATOM     55  H   UNL A   1      45.318  29.355  32.631  1.00  0.00     0.167 HD
ATOM     56  C   UNL A   1      45.358  29.276  29.591  1.00  0.00     0.074 A 
ATOM     57  C   UNL A   1      45.000  28.017  30.239  1.00  0.00     0.031 C 
ATOM     58  C   UNL A   1      45.329  30.566  30.044  1.00  0.00     0.037 A 
BRANCH  45  59
ATOM     59  C   UNL A   1      43.030  28.331  34.440  1.00  0.00     0.058 A 
ATOM     60  C   UNL A   1      43.181  28.565  35.820  1.00  0.00     0.135 A 
ATOM     61  C   UNL A   1      43.511  27.083  33.976  1.00  0.00     0.135 A 
ATOM     62  F   UNL A   1      42.765  29.718  36.366  1.00  0.00    -0.206 F 
ATOM     63  C   UNL A   1      43.834  27.663  36.659  1.00  0.00     0.059 A 
ATOM     64  C   UNL A   1      44.112  26.147  34.804  1.00  0.00     0.059 A 
ATOM     65  F   UNL A   1      43.518  26.749  32.679  1.00  0.00    -0.206 F 
ATOM     66  C   UNL A   1      44.315  26.466  36.134  1.00  0.00     0.060 A 
BRANCH  66  67
ATOM     67  S   UNL A   1      45.282  25.363  37.176  1.00  0.00     0.124 S 
ATOM     68  O   UNL A   1      44.674  24.073  36.872  1.00  0.00    -0.237 OA
ATOM     69  O   UNL A   1      46.633  25.573  36.666  1.00  0.00    -0.237 OA
ATOM     70  O   UNL A   1      45.041  25.875  38.522  1.00  0.00    -0.744 OA
ENDBRANCH  66  67
ENDBRANCH  45  59
BRANCH  46  71
ATOM     71  C   UNL A   1      44.034  26.141  26.257  1.00  0.00     0.058 A 
ATOM     72  C   UNL A   1      45.166  25.837  25.482  1.00  0.00     0.135 A 
ATOM     73  C   UNL A   1      43.143  25.072  26.492  1.00  0.00     0.135 A 
ATOM     74  F   UNL A   1      46.084  26.783  25.232  1.00  0.00    -0.206 F 
ATOM     75  C   UNL A   1      45.415  24.547  24.997  1.00  0.00     0.059 A 
ATOM     76  C   UNL A   1      43.359  23.785  26.006  1.00  0.00     0.059 A 
ATOM     77  F   UNL A   1      42.067  25.220  27.280  1.00  0.00    -0.206 F 
ATOM     78  C   UNL A   1      44.511  23.522  25.279  1.00  0.00     0.060 A 
BRANCH  78  79
ATOM     79  S   UNL A   1      44.901  21.824  24.795  1.00  0.00     0.124 S 
ATOM     80  O   UNL A   1      44.641  21.853  23.360  1.00  0.00    -0.237 OA
ATOM     81  O   UNL A   1      46.301  21.705  25.188  1.00  0.00    -0.237 OA
ATOM     82  O   UNL A   1      43.966  21.024  25.581  1.00  0.00    -0.744 OA
ENDBRANCH  78  79
ENDBRANCH  46  71
BRANCH  58  83
ATOM     83  C   UNL A   1      45.592  31.679  29.060  1.00  0.00     0.058 A 
ATOM     84  C   UNL A   1      46.875  32.130  28.702  1.00  0.00     0.135 A 
ATOM     85  C   UNL A   1      44.512  32.187  28.323  1.00  0.00     0.135 A 
ATOM     86  F   UNL A   1      47.969  31.613  29.275  1.00  0.00    -0.206 F 
ATOM     87  C   UNL A   1      47.074  33.072  27.692  1.00  0.00     0.059 A 
ATOM     88  C   UNL A   1      44.687  33.104  27.288  1.00  0.00     0.059 A 
ATOM     89  F   UNL A   1      43.266  31.746  28.565  1.00  0.00    -0.206 F 
ATOM     90  C   UNL A   1      45.971  33.553  26.987  1.00  0.00     0.060 A 
BRANCH  90  91
ATOM     91  S   UNL A   1      46.234  34.713  25.628  1.00  0.00     0.124 S 
ATOM     92  O   UNL A   1      47.635  34.481  25.294  1.00  0.00    -0.237 OA
ATOM     93  O   UNL A   1      45.263  34.263  24.634  1.00  0.00    -0.237 OA
ATOM     94  O   UNL A   1      45.941  36.013  26.225  1.00  0.00    -0.744 OA
ENDBRANCH  90  91
ENDBRANCH  58  83
ENDBRANCH  32  33
ENDBRANCH  25  27
ENDBRANCH  24  25
ENDBRANCH  23  24
ENDBRANCH   1  23
TORSDOF 19
ENDMDL
MODEL 3
REMARK VINA RESULT:     -10.7      2.913      9.476
REMARK SMILES CCCOc1ccc(Nc2snc(C)c2C(=O)OCCOC(=O)c2ccc(-c3c4nc(c(-c5c(F)cc(S(=O)(=O)[O-])cc5F)c5ccc([nH]5)c(-c5c(F)cc(S(=O)(=O)[O-])cc5F)c5nc(c(-c6c(F)cc(S(=O)(=O)[O-])cc6F)c6ccc3[nH]6)C=C5)C=C4)cc2)cc1
REMARK SMILES IDX 19 1 18 2 16 3 17 4 15 5 10 6 11 7 12 8 13 9 14 10 9 11 8 13
REMARK SMILES IDX 5 14 6 15 91 16 7 17 90 18 4 19 3 20 2 21 1 22 20 23 21 24
REMARK SMILES IDX 22 25 23 26 24 27 25 28 89 29 26 30 88 31 27 32 28 33 29 34
REMARK SMILES IDX 82 35 30 36 87 37 81 38 83 39 31 40 86 41 80 42 79 43 32 45
REMARK SMILES IDX 66 46 45 47 65 48 46 49 49 50 64 51 84 52 47 53 48 54 63 56
REMARK SMILES IDX 85 57 50 58 33 59 34 60 43 61 35 62 36 63 42 64 44 65 37 66
REMARK SMILES IDX 38 67 39 68 40 69 41 70 67 71 68 72 77 73 69 74 70 75 76 76
REMARK SMILES IDX 78 77 71 78 72 79 73 80 74 81 75 82 51 83 52 84 61 85 53 86
REMARK SMILES IDX 54 87 60 88 62 89 55 90 56 91 57 92 58 93 59 94
REMARK H PARENT 9 12 83 44 49 55
REMARK Flexibility Score: inf
ROOT
ATOM      1  C   UNL A   1      36.539  21.385  25.686  1.00  0.00     0.275 C 
ENDROOT
BRANCH   1   2
ATOM      2  O   UNL A   1      35.489  22.348  25.506  1.00  0.00    -0.458 OA
BRANCH   2   3
ATOM      3  C   UNL A   1      34.198  21.981  25.760  1.00  0.00     0.343 C 
ATOM      4  O   UNL A   1      33.666  22.072  26.863  1.00  0.00    -0.246 OA
BRANCH   3   5
ATOM      5  C   UNL A   1      33.485  21.536  24.564  1.00  0.00     0.117 A 
ATOM      6  C   UNL A   1      33.159  22.345  23.477  1.00  0.00     0.128 A 
ATOM      7  S   UNL A   1      32.134  21.445  22.433  1.00  0.00    -0.017 S 
ATOM      8  N   UNL A   1      32.273  20.009  23.224  1.00  0.00    -0.195 NA
ATOM      9  C   UNL A   1      32.971  20.197  24.347  1.00  0.00     0.068 A 
ATOM     10  C   UNL A   1      33.114  19.016  25.246  1.00  0.00     0.069 C 
BRANCH   6  11
ATOM     11  N   UNL A   1      33.480  23.633  23.182  1.00  0.00    -0.345 N 
ATOM     12  H   UNL A   1      34.378  23.796  22.815  1.00  0.00     0.167 HD
BRANCH  11  13
ATOM     13  C   UNL A   1      32.649  24.751  23.352  1.00  0.00     0.039 A 
ATOM     14  C   UNL A   1      30.783  26.860  23.541  1.00  0.00     0.119 A 
ATOM     15  C   UNL A   1      31.082  26.078  24.657  1.00  0.00     0.048 A 
ATOM     16  C   UNL A   1      31.369  26.536  22.323  1.00  0.00     0.048 A 
ATOM     17  C   UNL A   1      31.990  25.021  24.559  1.00  0.00     0.030 A 
ATOM     18  C   UNL A   1      32.328  25.525  22.236  1.00  0.00     0.030 A 
BRANCH  14  19
ATOM     19  O   UNL A   1      29.934  27.901  23.773  1.00  0.00    -0.494 OA
BRANCH  19  20
ATOM     20  C   UNL A   1      30.382  29.237  23.541  1.00  0.00     0.229 C 
BRANCH  20  21
ATOM     21  C   UNL A   1      29.251  30.213  23.186  1.00  0.00     0.038 C 
ATOM     22  C   UNL A   1      29.078  30.457  21.690  1.00  0.00     0.007 C 
ENDBRANCH  20  21
ENDBRANCH  19  20
ENDBRANCH  14  19
ENDBRANCH  11  13
ENDBRANCH   6  11
ENDBRANCH   3   5
ENDBRANCH   2   3
ENDBRANCH   1   2
BRANCH   1  23
ATOM     23  C   UNL A   1      37.881  21.999  25.339  1.00  0.00     0.275 C 
BRANCH  23  24
ATOM     24  O   UNL A   1      38.251  22.949  26.329  1.00  0.00    -0.458 OA
BRANCH  24  25
ATOM     25  C   UNL A   1      39.521  22.816  26.767  1.00  0.00     0.338 C 
ATOM     26  O   UNL A   1      40.072  21.807  27.172  1.00  0.00    -0.246 OA
BRANCH  25  27
ATOM     27  C   UNL A   1      40.118  24.136  26.909  1.00  0.00     0.060 A 
ATOM     28  C   UNL A   1      41.358  24.180  27.549  1.00  0.00     0.016 A 
ATOM     29  C   UNL A   1      39.297  25.262  26.756  1.00  0.00     0.016 A 
ATOM     30  C   UNL A   1      41.684  25.322  28.233  1.00  0.00     0.010 A 
ATOM     31  C   UNL A   1      39.626  26.401  27.439  1.00  0.00     0.010 A 
ATOM     32  C   UNL A   1      40.766  26.377  28.241  1.00  0.00    -0.014 A 
BRANCH  32  33
ATOM     33  C   UNL A   1      41.075  27.517  29.071  1.00  0.00     0.031 A 
ATOM     34  C   UNL A   1      42.202  28.321  28.537  1.00  0.00     0.074 A 
ATOM     35  C   UNL A   1      40.298  27.839  30.120  1.00  0.00     0.049 A 
ATOM     36  N   UNL A   1      43.325  28.608  29.106  1.00  0.00    -0.248 NA
ATOM     37  C   UNL A   1      42.138  28.694  27.111  1.00  0.00     0.031 C 
ATOM     38  C   UNL A   1      39.016  27.246  30.517  1.00  0.00     0.029 A 
ATOM     39  N   UNL A   1      40.427  28.876  30.981  1.00  0.00    -0.354 N 
ATOM     40  C   UNL A   1      44.013  29.392  28.185  1.00  0.00     0.074 A 
ATOM     41  C   UNL A   1      43.334  29.247  26.926  1.00  0.00     0.031 C 
ATOM     42  C   UNL A   1      38.376  28.097  31.351  1.00  0.00     0.029 A 
ATOM     43  C   UNL A   1      39.253  29.219  31.635  1.00  0.00     0.049 A 
ATOM     44  H   UNL A   1      41.279  29.345  31.130  1.00  0.00     0.167 HD
ATOM     45  C   UNL A   1      44.937  30.306  28.581  1.00  0.00     0.037 A 
ATOM     46  C   UNL A   1      39.010  30.411  32.235  1.00  0.00     0.037 A 
ATOM     47  C   UNL A   1      45.442  30.007  29.895  1.00  0.00     0.049 A 
ATOM     48  C   UNL A   1      40.336  31.058  32.466  1.00  0.00     0.074 A 
ATOM     49  C   UNL A   1      46.093  28.917  30.444  1.00  0.00     0.029 A 
ATOM     50  N   UNL A   1      44.959  30.728  30.960  1.00  0.00    -0.354 N 
ATOM     51  N   UNL A   1      41.244  30.587  33.281  1.00  0.00    -0.248 NA
ATOM     52  C   UNL A   1      40.841  31.951  31.431  1.00  0.00     0.031 C 
ATOM     53  C   UNL A   1      45.548  28.782  31.754  1.00  0.00     0.029 A 
ATOM     54  C   UNL A   1      44.644  29.827  31.948  1.00  0.00     0.049 A 
ATOM     55  H   UNL A   1      44.858  31.706  31.006  1.00  0.00     0.167 HD
ATOM     56  C   UNL A   1      42.457  30.791  32.633  1.00  0.00     0.074 A 
ATOM     57  C   UNL A   1      42.150  31.699  31.531  1.00  0.00     0.031 C 
ATOM     58  C   UNL A   1      43.538  29.988  32.867  1.00  0.00     0.037 A 
BRANCH  45  59
ATOM     59  C   UNL A   1      45.085  31.654  27.924  1.00  0.00     0.058 A 
ATOM     60  C   UNL A   1      46.323  32.016  27.362  1.00  0.00     0.135 A 
ATOM     61  C   UNL A   1      44.151  32.708  28.075  1.00  0.00     0.135 A 
ATOM     62  F   UNL A   1      47.285  31.097  27.178  1.00  0.00    -0.206 F 
ATOM     63  C   UNL A   1      46.640  33.339  27.051  1.00  0.00     0.059 A 
ATOM     64  C   UNL A   1      44.425  34.020  27.719  1.00  0.00     0.059 A 
ATOM     65  F   UNL A   1      42.964  32.540  28.672  1.00  0.00    -0.206 F 
ATOM     66  C   UNL A   1      45.688  34.335  27.254  1.00  0.00     0.060 A 
BRANCH  66  67
ATOM     67  S   UNL A   1      46.135  36.058  26.992  1.00  0.00     0.124 S 
ATOM     68  O   UNL A   1      44.839  36.714  27.117  1.00  0.00    -0.237 OA
ATOM     69  O   UNL A   1      47.083  36.294  28.076  1.00  0.00    -0.237 OA
ATOM     70  O   UNL A   1      46.715  36.054  25.651  1.00  0.00    -0.744 OA
ENDBRANCH  66  67
ENDBRANCH  45  59
BRANCH  46  71
ATOM     71  C   UNL A   1      37.727  31.166  32.212  1.00  0.00     0.058 A 
ATOM     72  C   UNL A   1      37.124  31.614  33.400  1.00  0.00     0.135 A 
ATOM     73  C   UNL A   1      37.189  31.685  31.015  1.00  0.00     0.135 A 
ATOM     74  F   UNL A   1      37.588  31.197  34.588  1.00  0.00    -0.206 F 
ATOM     75  C   UNL A   1      36.075  32.542  33.402  1.00  0.00     0.059 A 
ATOM     76  C   UNL A   1      36.135  32.595  30.990  1.00  0.00     0.059 A 
ATOM     77  F   UNL A   1      37.728  31.391  29.822  1.00  0.00    -0.206 F 
ATOM     78  C   UNL A   1      35.597  33.039  32.189  1.00  0.00     0.060 A 
BRANCH  78  79
ATOM     79  S   UNL A   1      34.354  34.352  32.186  1.00  0.00     0.124 S 
ATOM     80  O   UNL A   1      35.036  35.415  32.914  1.00  0.00    -0.237 OA
ATOM     81  O   UNL A   1      34.152  34.582  30.760  1.00  0.00    -0.237 OA
ATOM     82  O   UNL A   1      33.221  33.748  32.883  1.00  0.00    -0.744 OA
ENDBRANCH  78  79
ENDBRANCH  46  71
BRANCH  58  83
ATOM     83  C   UNL A   1      43.477  29.018  34.022  1.00  0.00     0.058 A 
ATOM     84  C   UNL A   1      43.755  29.362  35.357  1.00  0.00     0.135 A 
ATOM     85  C   UNL A   1      42.946  27.740  33.792  1.00  0.00     0.135 A 
ATOM     86  F   UNL A   1      44.156  30.598  35.679  1.00  0.00    -0.206 F 
ATOM     87  C   UNL A   1      43.558  28.465  36.408  1.00  0.00     0.059 A 
ATOM     88  C   UNL A   1      42.711  26.839  34.828  1.00  0.00     0.059 A 
ATOM     89  F   UNL A   1      42.593  27.373  32.549  1.00  0.00    -0.206 F 
ATOM     90  C   UNL A   1      43.033  27.204  36.133  1.00  0.00     0.060 A 
BRANCH  90  91
ATOM     91  S   UNL A   1      42.705  26.070  37.502  1.00  0.00     0.124 S 
ATOM     92  O   UNL A   1      43.589  26.583  38.543  1.00  0.00    -0.237 OA
ATOM     93  O   UNL A   1      41.276  26.259  37.735  1.00  0.00    -0.237 OA
ATOM     94  O   UNL A   1      43.070  24.764  36.960  1.00  0.00    -0.744 OA
ENDBRANCH  90  91
ENDBRANCH  58  83
ENDBRANCH  32  33
ENDBRANCH  25  27
ENDBRANCH  24  25
ENDBRANCH  23  24
ENDBRANCH   1  23
TORSDOF 19
ENDMDL
