MODEL 1
REMARK VINA RESULT:     -10.8      0.000      0.000
REMARK SMILES C/C(C(=O)N[C@H]1CCCC1(C)C)=C(\C)C(=O)OCCOC(=O)c1ccc(-c2c3nc(c(-c4c(F)cc(S(=O)(=O)[O-])cc4F)c4ccc([nH]4)c(-c4c(F)cc(S(=O)(=O)[O-])cc4F)c4nc(c(-c5c(F)cc(S(=O)(=O)[O-])cc5F)c5ccc2[nH]5)C=C4)C=C3)cc1
REMARK SMILES IDX 19 1 18 2 17 3 15 4 16 5 13 6 1 7 2 8 14 9 3 10 4 11 5 12
REMARK SMILES IDX 6 14 7 15 10 16 8 17 9 18 11 19 12 20 20 21 21 22 22 23
REMARK SMILES IDX 23 24 24 25 88 26 25 27 87 28 26 29 27 30 28 31 81 32 29 33
REMARK SMILES IDX 86 34 80 35 82 36 30 37 85 38 79 39 78 40 31 42 65 43 44 44
REMARK SMILES IDX 64 45 45 46 48 47 63 48 83 49 46 50 47 51 62 53 84 54 49 55
REMARK SMILES IDX 32 56 33 57 42 58 34 59 35 60 41 61 43 62 36 63 37 64 38 65
REMARK SMILES IDX 39 66 40 67 66 68 67 69 76 70 68 71 69 72 75 73 77 74 70 75
REMARK SMILES IDX 71 76 72 77 73 78 74 79 50 80 51 81 60 82 52 83 53 84 59 85
REMARK SMILES IDX 61 86 54 87 55 88 56 89 57 90 58 91
REMARK H PARENT 5 13 82 41 48 52
REMARK Flexibility Score: inf
ROOT
ATOM      1  C   UNL A   1      32.819  28.828  26.679  1.00  0.00     0.275 C 
ENDROOT
BRANCH   1   2
ATOM      2  C   UNL A   1      33.268  28.975  25.226  1.00  0.00     0.275 C 
BRANCH   2   3
ATOM      3  O   UNL A   1      33.455  27.686  24.620  1.00  0.00    -0.459 OA
BRANCH   3   4
ATOM      4  C   UNL A   1      32.909  27.449  23.395  1.00  0.00     0.334 C 
ATOM      5  O   UNL A   1      33.239  28.020  22.368  1.00  0.00    -0.247 OA
BRANCH   4   6
ATOM      6  C   UNL A   1      31.837  26.402  23.553  1.00  0.00     0.042 C 
ATOM      7  C   UNL A   1      30.641  24.318  23.229  1.00  0.00     0.051 C 
ATOM      8  C   UNL A   1      31.949  25.066  23.274  1.00  0.00     0.024 C 
ATOM      9  C   UNL A   1      30.509  27.043  23.962  1.00  0.00     0.053 C 
BRANCH   8  10
ATOM     10  C   UNL A   1      33.148  24.461  22.573  1.00  0.00     0.247 C 
ATOM     11  O   UNL A   1      33.101  24.466  21.335  1.00  0.00    -0.270 OA
ATOM     12  N   UNL A   1      34.270  23.872  23.087  1.00  0.00    -0.349 N 
ATOM     13  H   UNL A   1      34.897  23.747  22.339  1.00  0.00     0.164 HD
BRANCH  12  14
ATOM     14  C   UNL A   1      34.953  23.330  24.331  1.00  0.00     0.088 C 
ATOM     15  C   UNL A   1      35.250  24.399  25.358  1.00  0.00     0.025 C 
ATOM     16  C   UNL A   1      34.121  22.279  25.139  1.00  0.00    -0.015 C 
ATOM     17  C   UNL A   1      33.946  24.478  26.150  1.00  0.00     0.003 C 
ATOM     18  C   UNL A   1      33.116  23.230  25.764  1.00  0.00     0.008 C 
ATOM     19  C   UNL A   1      33.525  21.179  24.248  1.00  0.00     0.013 C 
ATOM     20  C   UNL A   1      34.811  21.572  26.333  1.00  0.00     0.013 C 
ENDBRANCH  12  14
ENDBRANCH   8  10
ENDBRANCH   4   6
ENDBRANCH   3   4
ENDBRANCH   2   3
ENDBRANCH   1   2
BRANCH   1  21
ATOM     21  O   UNL A   1      33.943  28.801  27.575  1.00  0.00    -0.458 OA
BRANCH  21  22
ATOM     22  C   UNL A   1      34.447  30.014  27.897  1.00  0.00     0.338 C 
ATOM     23  O   UNL A   1      33.848  31.073  27.971  1.00  0.00    -0.246 OA
BRANCH  22  24
ATOM     24  C   UNL A   1      35.865  29.877  28.246  1.00  0.00     0.060 A 
ATOM     25  C   UNL A   1      36.804  30.055  27.238  1.00  0.00     0.016 A 
ATOM     26  C   UNL A   1      36.265  29.453  29.513  1.00  0.00     0.016 A 
ATOM     27  C   UNL A   1      38.139  29.758  27.472  1.00  0.00     0.010 A 
ATOM     28  C   UNL A   1      37.625  29.209  29.758  1.00  0.00     0.010 A 
ATOM     29  C   UNL A   1      38.579  29.336  28.731  1.00  0.00    -0.014 A 
BRANCH  29  30
ATOM     30  C   UNL A   1      40.018  29.001  28.939  1.00  0.00     0.031 A 
ATOM     31  C   UNL A   1      40.962  30.028  29.511  1.00  0.00     0.074 A 
ATOM     32  C   UNL A   1      40.475  27.758  28.675  1.00  0.00     0.049 A 
ATOM     33  N   UNL A   1      42.267  29.995  29.597  1.00  0.00    -0.248 NA
ATOM     34  C   UNL A   1      40.359  31.252  30.062  1.00  0.00     0.031 C 
ATOM     35  C   UNL A   1      39.657  26.634  28.212  1.00  0.00     0.029 A 
ATOM     36  N   UNL A   1      41.738  27.223  28.768  1.00  0.00    -0.354 N 
ATOM     37  C   UNL A   1      42.646  31.213  30.154  1.00  0.00     0.074 A 
ATOM     38  C   UNL A   1      41.430  31.960  30.395  1.00  0.00     0.031 C 
ATOM     39  C   UNL A   1      40.423  25.540  28.108  1.00  0.00     0.029 A 
ATOM     40  C   UNL A   1      41.809  25.908  28.365  1.00  0.00     0.049 A 
ATOM     41  H   UNL A   1      42.516  27.732  29.091  1.00  0.00     0.167 HD
ATOM     42  C   UNL A   1      43.896  31.666  30.423  1.00  0.00     0.037 A 
ATOM     43  C   UNL A   1      42.870  25.105  28.154  1.00  0.00     0.037 A 
ATOM     44  C   UNL A   1      45.094  30.893  30.207  1.00  0.00     0.049 A 
ATOM     45  C   UNL A   1      44.251  25.659  28.366  1.00  0.00     0.074 A 
ATOM     46  C   UNL A   1      46.409  31.266  30.422  1.00  0.00     0.029 A 
ATOM     47  N   UNL A   1      45.123  29.589  29.732  1.00  0.00    -0.354 N 
ATOM     48  N   UNL A   1      44.604  26.843  28.809  1.00  0.00    -0.248 NA
ATOM     49  C   UNL A   1      45.380  24.783  28.025  1.00  0.00     0.031 C 
ATOM     50  C   UNL A   1      47.235  30.209  30.026  1.00  0.00     0.029 A 
ATOM     51  C   UNL A   1      46.434  29.152  29.626  1.00  0.00     0.049 A 
ATOM     52  H   UNL A   1      44.329  29.053  29.505  1.00  0.00     0.167 HD
ATOM     53  C   UNL A   1      45.993  26.847  28.816  1.00  0.00     0.074 A 
ATOM     54  C   UNL A   1      46.417  25.543  28.350  1.00  0.00     0.031 C 
ATOM     55  C   UNL A   1      46.841  27.843  29.176  1.00  0.00     0.037 A 
BRANCH  42  56
ATOM     56  C   UNL A   1      44.041  33.083  30.916  1.00  0.00     0.058 A 
ATOM     57  C   UNL A   1      44.045  34.188  30.052  1.00  0.00     0.135 A 
ATOM     58  C   UNL A   1      44.146  33.335  32.297  1.00  0.00     0.135 A 
ATOM     59  F   UNL A   1      43.963  34.009  28.724  1.00  0.00    -0.206 F 
ATOM     60  C   UNL A   1      44.179  35.488  30.534  1.00  0.00     0.059 A 
ATOM     61  C   UNL A   1      44.251  34.628  32.802  1.00  0.00     0.059 A 
ATOM     62  F   UNL A   1      44.146  32.317  33.171  1.00  0.00    -0.206 F 
ATOM     63  C   UNL A   1      44.283  35.698  31.911  1.00  0.00     0.060 A 
BRANCH  63  64
ATOM     64  S   UNL A   1      44.469  37.389  32.519  1.00  0.00     0.124 S 
ATOM     65  O   UNL A   1      44.500  38.144  31.270  1.00  0.00    -0.237 OA
ATOM     66  O   UNL A   1      43.271  37.561  33.333  1.00  0.00    -0.237 OA
ATOM     67  O   UNL A   1      45.728  37.349  33.258  1.00  0.00    -0.744 OA
ENDBRANCH  63  64
ENDBRANCH  42  56
BRANCH  43  68
ATOM     68  C   UNL A   1      42.667  23.722  27.635  1.00  0.00     0.058 A 
ATOM     69  C   UNL A   1      42.611  23.459  26.259  1.00  0.00     0.135 A 
ATOM     70  C   UNL A   1      42.531  22.631  28.511  1.00  0.00     0.135 A 
ATOM     71  F   UNL A   1      42.719  24.465  25.379  1.00  0.00    -0.206 F 
ATOM     72  C   UNL A   1      42.419  22.169  25.770  1.00  0.00     0.059 A 
ATOM     73  C   UNL A   1      42.376  21.329  28.047  1.00  0.00     0.059 A 
ATOM     74  F   UNL A   1      42.579  22.823  29.839  1.00  0.00    -0.206 F 
ATOM     75  C   UNL A   1      42.308  21.110  26.674  1.00  0.00     0.060 A 
BRANCH  75  76
ATOM     76  S   UNL A   1      42.098  19.436  26.030  1.00  0.00     0.124 S 
ATOM     77  O   UNL A   1      42.581  18.630  27.145  1.00  0.00    -0.237 OA
ATOM     78  O   UNL A   1      40.662  19.383  25.779  1.00  0.00    -0.237 OA
ATOM     79  O   UNL A   1      42.938  19.427  24.836  1.00  0.00    -0.744 OA
ENDBRANCH  75  76
ENDBRANCH  43  68
BRANCH  55  80
ATOM     80  C   UNL A   1      48.315  27.550  29.132  1.00  0.00     0.058 A 
ATOM     81  C   UNL A   1      49.108  27.899  28.028  1.00  0.00     0.135 A 
ATOM     82  C   UNL A   1      48.953  26.977  30.244  1.00  0.00     0.135 A 
ATOM     83  F   UNL A   1      48.546  28.438  26.934  1.00  0.00    -0.206 F 
ATOM     84  C   UNL A   1      50.482  27.680  28.025  1.00  0.00     0.059 A 
ATOM     85  C   UNL A   1      50.328  26.776  30.274  1.00  0.00     0.059 A 
ATOM     86  F   UNL A   1      48.240  26.629  31.328  1.00  0.00    -0.206 F 
ATOM     87  C   UNL A   1      51.084  27.125  29.156  1.00  0.00     0.060 A 
BRANCH  87  88
ATOM     88  S   UNL A   1      52.876  26.906  29.162  1.00  0.00     0.124 S 
ATOM     89  O   UNL A   1      53.080  26.178  30.410  1.00  0.00    -0.237 OA
ATOM     90  O   UNL A   1      53.100  26.144  27.938  1.00  0.00    -0.237 OA
ATOM     91  O   UNL A   1      53.386  28.274  29.143  1.00  0.00    -0.744 OA
ENDBRANCH  87  88
ENDBRANCH  55  80
ENDBRANCH  29  30
ENDBRANCH  22  24
ENDBRANCH  21  22
ENDBRANCH   1  21
TORSDOF 16
ENDMDL
MODEL 2
REMARK VINA RESULT:     -10.4      0.976      2.172
REMARK SMILES C/C(C(=O)N[C@H]1CCCC1(C)C)=C(\C)C(=O)OCCOC(=O)c1ccc(-c2c3nc(c(-c4c(F)cc(S(=O)(=O)[O-])cc4F)c4ccc([nH]4)c(-c4c(F)cc(S(=O)(=O)[O-])cc4F)c4nc(c(-c5c(F)cc(S(=O)(=O)[O-])cc5F)c5ccc2[nH]5)C=C4)C=C3)cc1
REMARK SMILES IDX 19 1 18 2 17 3 15 4 16 5 13 6 1 7 2 8 14 9 3 10 4 11 5 12
REMARK SMILES IDX 6 14 7 15 10 16 8 17 9 18 11 19 12 20 20 21 21 22 22 23
REMARK SMILES IDX 23 24 24 25 88 26 25 27 87 28 26 29 27 30 28 31 81 32 29 33
REMARK SMILES IDX 86 34 80 35 82 36 30 37 85 38 79 39 78 40 31 42 65 43 44 44
REMARK SMILES IDX 64 45 45 46 48 47 63 48 83 49 46 50 47 51 62 53 84 54 49 55
REMARK SMILES IDX 32 56 33 57 42 58 34 59 35 60 41 61 43 62 36 63 37 64 38 65
REMARK SMILES IDX 39 66 40 67 66 68 67 69 76 70 68 71 69 72 75 73 77 74 70 75
REMARK SMILES IDX 71 76 72 77 73 78 74 79 50 80 51 81 60 82 52 83 53 84 59 85
REMARK SMILES IDX 61 86 54 87 55 88 56 89 57 90 58 91
REMARK H PARENT 5 13 82 41 48 52
REMARK Flexibility Score: inf
ROOT
ATOM      1  C   UNL A   1      32.440  30.387  27.123  1.00  0.00     0.275 C 
ENDROOT
BRANCH   1   2
ATOM      2  C   UNL A   1      32.195  30.119  25.639  1.00  0.00     0.275 C 
BRANCH   2   3
ATOM      3  O   UNL A   1      31.883  28.735  25.418  1.00  0.00    -0.459 OA
BRANCH   3   4
ATOM      4  C   UNL A   1      31.817  28.271  24.138  1.00  0.00     0.334 C 
ATOM      5  O   UNL A   1      32.751  28.271  23.354  1.00  0.00    -0.247 OA
BRANCH   4   6
ATOM      6  C   UNL A   1      30.409  27.800  23.880  1.00  0.00     0.042 C 
ATOM      7  C   UNL A   1      28.491  26.318  23.821  1.00  0.00     0.051 C 
ATOM      8  C   UNL A   1      29.771  26.754  24.490  1.00  0.00     0.024 C 
ATOM      9  C   UNL A   1      29.781  28.579  22.721  1.00  0.00     0.053 C 
BRANCH   8  10
ATOM     10  C   UNL A   1      30.471  25.776  25.410  1.00  0.00     0.247 C 
ATOM     11  O   UNL A   1      29.938  25.609  26.516  1.00  0.00    -0.270 OA
ATOM     12  N   UNL A   1      31.625  25.065  25.234  1.00  0.00    -0.349 N 
ATOM     13  H   UNL A   1      31.679  24.416  25.972  1.00  0.00     0.164 HD
BRANCH  12  14
ATOM     14  C   UNL A   1      32.860  24.858  24.374  1.00  0.00     0.088 C 
ATOM     15  C   UNL A   1      34.136  25.300  25.053  1.00  0.00     0.025 C 
ATOM     16  C   UNL A   1      33.157  23.370  23.987  1.00  0.00    -0.015 C 
ATOM     17  C   UNL A   1      34.534  24.065  25.860  1.00  0.00     0.003 C 
ATOM     18  C   UNL A   1      33.671  22.893  25.334  1.00  0.00     0.008 C 
ATOM     19  C   UNL A   1      31.918  22.635  23.454  1.00  0.00     0.013 C 
ATOM     20  C   UNL A   1      34.311  23.097  22.990  1.00  0.00     0.013 C 
ENDBRANCH  12  14
ENDBRANCH   8  10
ENDBRANCH   4   6
ENDBRANCH   3   4
ENDBRANCH   2   3
ENDBRANCH   1   2
BRANCH   1  21
ATOM     21  O   UNL A   1      33.707  29.857  27.549  1.00  0.00    -0.458 OA
BRANCH  21  22
ATOM     22  C   UNL A   1      34.460  30.702  28.289  1.00  0.00     0.338 C 
ATOM     23  O   UNL A   1      34.096  31.709  28.871  1.00  0.00    -0.246 OA
BRANCH  22  24
ATOM     24  C   UNL A   1      35.830  30.182  28.380  1.00  0.00     0.060 A 
ATOM     25  C   UNL A   1      36.319  29.855  29.638  1.00  0.00     0.016 A 
ATOM     26  C   UNL A   1      36.666  30.136  27.265  1.00  0.00     0.016 A 
ATOM     27  C   UNL A   1      37.661  29.535  29.799  1.00  0.00     0.010 A 
ATOM     28  C   UNL A   1      38.007  29.757  27.427  1.00  0.00     0.010 A 
ATOM     29  C   UNL A   1      38.528  29.474  28.703  1.00  0.00    -0.014 A 
BRANCH  29  30
ATOM     30  C   UNL A   1      39.970  29.152  28.917  1.00  0.00     0.031 A 
ATOM     31  C   UNL A   1      40.904  30.191  29.484  1.00  0.00     0.074 A 
ATOM     32  C   UNL A   1      40.438  27.911  28.664  1.00  0.00     0.049 A 
ATOM     33  N   UNL A   1      42.209  30.170  29.573  1.00  0.00    -0.248 NA
ATOM     34  C   UNL A   1      40.289  31.414  30.024  1.00  0.00     0.031 C 
ATOM     35  C   UNL A   1      39.630  26.777  28.207  1.00  0.00     0.029 A 
ATOM     36  N   UNL A   1      41.705  27.388  28.763  1.00  0.00    -0.354 N 
ATOM     37  C   UNL A   1      42.576  31.396  30.121  1.00  0.00     0.074 A 
ATOM     38  C   UNL A   1      41.354  32.134  30.353  1.00  0.00     0.031 C 
ATOM     39  C   UNL A   1      40.406  25.688  28.114  1.00  0.00     0.029 A 
ATOM     40  C   UNL A   1      41.788  26.070  28.371  1.00  0.00     0.049 A 
ATOM     41  H   UNL A   1      42.479  27.905  29.085  1.00  0.00     0.167 HD
ATOM     42  C   UNL A   1      43.822  31.861  30.389  1.00  0.00     0.037 A 
ATOM     43  C   UNL A   1      42.857  25.274  28.169  1.00  0.00     0.037 A 
ATOM     44  C   UNL A   1      45.026  31.097  30.182  1.00  0.00     0.049 A 
ATOM     45  C   UNL A   1      44.232  25.841  28.380  1.00  0.00     0.074 A 
ATOM     46  C   UNL A   1      46.338  31.482  30.398  1.00  0.00     0.029 A 
ATOM     47  N   UNL A   1      45.068  29.789  29.718  1.00  0.00    -0.354 N 
ATOM     48  N   UNL A   1      44.574  27.031  28.814  1.00  0.00    -0.248 NA
ATOM     49  C   UNL A   1      45.370  24.972  28.049  1.00  0.00     0.031 C 
ATOM     50  C   UNL A   1      47.174  30.429  30.012  1.00  0.00     0.029 A 
ATOM     51  C   UNL A   1      46.383  29.362  29.618  1.00  0.00     0.049 A 
ATOM     52  H   UNL A   1      44.279  29.245  29.493  1.00  0.00     0.167 HD
ATOM     53  C   UNL A   1      45.963  27.048  28.825  1.00  0.00     0.074 A 
ATOM     54  C   UNL A   1      46.400  25.744  28.370  1.00  0.00     0.031 C 
ATOM     55  C   UNL A   1      46.801  28.053  29.180  1.00  0.00     0.037 A 
BRANCH  42  56
ATOM     56  C   UNL A   1      43.954  33.282  30.872  1.00  0.00     0.058 A 
ATOM     57  C   UNL A   1      44.035  33.614  32.233  1.00  0.00     0.135 A 
ATOM     58  C   UNL A   1      44.035  34.333  29.940  1.00  0.00     0.135 A 
ATOM     59  F   UNL A   1      43.948  32.656  33.170  1.00  0.00    -0.206 F 
ATOM     60  C   UNL A   1      44.159  34.936  32.654  1.00  0.00     0.059 A 
ATOM     61  C   UNL A   1      44.189  35.658  30.338  1.00  0.00     0.059 A 
ATOM     62  F   UNL A   1      43.966  34.077  28.625  1.00  0.00    -0.206 F 
ATOM     63  C   UNL A   1      44.234  35.952  31.698  1.00  0.00     0.060 A 
BRANCH  63  64
ATOM     64  S   UNL A   1      44.381  37.662  32.261  1.00  0.00     0.124 S 
ATOM     65  O   UNL A   1      43.359  37.715  33.302  1.00  0.00    -0.237 OA
ATOM     66  O   UNL A   1      45.762  37.719  32.727  1.00  0.00    -0.237 OA
ATOM     67  O   UNL A   1      44.094  38.442  31.061  1.00  0.00    -0.744 OA
ENDBRANCH  63  64
ENDBRANCH  42  56
BRANCH  43  68
ATOM     68  C   UNL A   1      42.667  23.885  27.660  1.00  0.00     0.058 A 
ATOM     69  C   UNL A   1      42.598  22.790  28.532  1.00  0.00     0.135 A 
ATOM     70  C   UNL A   1      42.546  23.628  26.283  1.00  0.00     0.135 A 
ATOM     71  F   UNL A   1      42.725  22.976  29.854  1.00  0.00    -0.206 F 
ATOM     72  C   UNL A   1      42.424  21.491  28.060  1.00  0.00     0.059 A 
ATOM     73  C   UNL A   1      42.333  22.345  25.790  1.00  0.00     0.059 A 
ATOM     74  F   UNL A   1      42.602  24.639  25.401  1.00  0.00    -0.206 F 
ATOM     75  C   UNL A   1      42.287  21.281  26.686  1.00  0.00     0.060 A 
BRANCH  75  76
ATOM     76  S   UNL A   1      42.024  19.598  26.086  1.00  0.00     0.124 S 
ATOM     77  O   UNL A   1      42.472  18.807  27.227  1.00  0.00    -0.237 OA
ATOM     78  O   UNL A   1      40.588  19.587  25.827  1.00  0.00    -0.237 OA
ATOM     79  O   UNL A   1      42.870  19.528  24.899  1.00  0.00    -0.744 OA
ENDBRANCH  75  76
ENDBRANCH  43  68
BRANCH  55  80
ATOM     80  C   UNL A   1      48.278  27.773  29.141  1.00  0.00     0.058 A 
ATOM     81  C   UNL A   1      48.974  27.300  30.264  1.00  0.00     0.135 A 
ATOM     82  C   UNL A   1      48.990  27.912  27.938  1.00  0.00     0.135 A 
ATOM     83  F   UNL A   1      48.344  27.162  31.441  1.00  0.00    -0.206 F 
ATOM     84  C   UNL A   1      50.327  26.985  30.199  1.00  0.00     0.059 A 
ATOM     85  C   UNL A   1      50.336  27.575  27.842  1.00  0.00     0.059 A 
ATOM     86  F   UNL A   1      48.369  28.356  26.832  1.00  0.00    -0.206 F 
ATOM     87  C   UNL A   1      50.997  27.118  28.980  1.00  0.00     0.060 A 
BRANCH  87  88
ATOM     88  S   UNL A   1      52.737  26.644  28.895  1.00  0.00     0.124 S 
ATOM     89  O   UNL A   1      53.393  27.945  28.798  1.00  0.00    -0.237 OA
ATOM     90  O   UNL A   1      52.927  25.930  30.153  1.00  0.00    -0.237 OA
ATOM     91  O   UNL A   1      52.806  25.817  27.695  1.00  0.00    -0.744 OA
ENDBRANCH  87  88
ENDBRANCH  55  80
ENDBRANCH  29  30
ENDBRANCH  22  24
ENDBRANCH  21  22
ENDBRANCH   1  21
TORSDOF 16
ENDMDL
MODEL 3
REMARK VINA RESULT:     -10.4      5.320     10.766
REMARK SMILES C/C(C(=O)N[C@H]1CCCC1(C)C)=C(\C)C(=O)OCCOC(=O)c1ccc(-c2c3nc(c(-c4c(F)cc(S(=O)(=O)[O-])cc4F)c4ccc([nH]4)c(-c4c(F)cc(S(=O)(=O)[O-])cc4F)c4nc(c(-c5c(F)cc(S(=O)(=O)[O-])cc5F)c5ccc2[nH]5)C=C4)C=C3)cc1
REMARK SMILES IDX 19 1 18 2 17 3 15 4 16 5 13 6 1 7 2 8 14 9 3 10 4 11 5 12
REMARK SMILES IDX 6 14 7 15 10 16 8 17 9 18 11 19 12 20 20 21 21 22 22 23
REMARK SMILES IDX 23 24 24 25 88 26 25 27 87 28 26 29 27 30 28 31 81 32 29 33
REMARK SMILES IDX 86 34 80 35 82 36 30 37 85 38 79 39 78 40 31 42 65 43 44 44
REMARK SMILES IDX 64 45 45 46 48 47 63 48 83 49 46 50 47 51 62 53 84 54 49 55
REMARK SMILES IDX 32 56 33 57 42 58 34 59 35 60 41 61 43 62 36 63 37 64 38 65
REMARK SMILES IDX 39 66 40 67 66 68 67 69 76 70 68 71 69 72 75 73 77 74 70 75
REMARK SMILES IDX 71 76 72 77 73 78 74 79 50 80 51 81 60 82 52 83 53 84 59 85
REMARK SMILES IDX 61 86 54 87 55 88 56 89 57 90 58 91
REMARK H PARENT 5 13 82 41 48 52
REMARK Flexibility Score: inf
ROOT
ATOM      1  C   UNL A   1      38.461  23.554  25.880  1.00  0.00     0.275 C 
ENDROOT
BRANCH   1   2
ATOM      2  C   UNL A   1      37.226  22.696  26.149  1.00  0.00     0.275 C 
BRANCH   2   3
ATOM      3  O   UNL A   1      36.042  23.508  26.184  1.00  0.00    -0.459 OA
BRANCH   3   4
ATOM      4  C   UNL A   1      34.872  22.948  26.601  1.00  0.00     0.334 C 
ATOM      5  O   UNL A   1      34.619  22.651  27.756  1.00  0.00    -0.247 OA
BRANCH   4   6
ATOM      6  C   UNL A   1      33.991  22.748  25.394  1.00  0.00     0.042 C 
ATOM      7  C   UNL A   1      33.177  21.802  23.315  1.00  0.00     0.051 C 
ATOM      8  C   UNL A   1      33.894  21.617  24.629  1.00  0.00     0.024 C 
ATOM      9  C   UNL A   1      33.272  24.049  25.026  1.00  0.00     0.053 C 
BRANCH   8  10
ATOM     10  C   UNL A   1      34.821  20.429  24.781  1.00  0.00     0.247 C 
ATOM     11  O   UNL A   1      36.027  20.671  24.633  1.00  0.00    -0.270 OA
ATOM     12  N   UNL A   1      34.541  19.112  25.022  1.00  0.00    -0.349 N 
ATOM     13  H   UNL A   1      35.397  18.668  25.217  1.00  0.00     0.164 HD
BRANCH  12  14
ATOM     14  C   UNL A   1      33.460  18.049  25.115  1.00  0.00     0.088 C 
ATOM     15  C   UNL A   1      32.289  18.312  24.195  1.00  0.00     0.025 C 
ATOM     16  C   UNL A   1      33.914  16.606  24.713  1.00  0.00    -0.015 C 
ATOM     17  C   UNL A   1      32.746  17.684  22.879  1.00  0.00     0.003 C 
ATOM     18  C   UNL A   1      33.979  16.809  23.210  1.00  0.00     0.008 C 
ATOM     19  C   UNL A   1      35.232  16.188  25.381  1.00  0.00     0.013 C 
ATOM     20  C   UNL A   1      32.910  15.446  24.925  1.00  0.00     0.013 C 
ENDBRANCH  12  14
ENDBRANCH   8  10
ENDBRANCH   4   6
ENDBRANCH   3   4
ENDBRANCH   2   3
ENDBRANCH   1   2
BRANCH   1  21
ATOM     21  O   UNL A   1      39.408  23.463  26.958  1.00  0.00    -0.458 OA
BRANCH  21  22
ATOM     22  C   UNL A   1      40.486  24.272  26.842  1.00  0.00     0.338 C 
ATOM     23  O   UNL A   1      41.433  24.147  26.085  1.00  0.00    -0.246 OA
BRANCH  22  24
ATOM     24  C   UNL A   1      40.325  25.429  27.731  1.00  0.00     0.060 A 
ATOM     25  C   UNL A   1      41.265  26.448  27.648  1.00  0.00     0.016 A 
ATOM     26  C   UNL A   1      39.342  25.456  28.720  1.00  0.00     0.016 A 
ATOM     27  C   UNL A   1      41.264  27.471  28.587  1.00  0.00     0.010 A 
ATOM     28  C   UNL A   1      39.313  26.523  29.630  1.00  0.00     0.010 A 
ATOM     29  C   UNL A   1      40.290  27.535  29.589  1.00  0.00    -0.014 A 
BRANCH  29  30
ATOM     30  C   UNL A   1      40.335  28.635  30.597  1.00  0.00     0.031 A 
ATOM     31  C   UNL A   1      41.376  28.624  31.687  1.00  0.00     0.074 A 
ATOM     32  C   UNL A   1      39.485  29.680  30.506  1.00  0.00     0.049 A 
ATOM     33  N   UNL A   1      41.468  29.379  32.752  1.00  0.00    -0.248 NA
ATOM     34  C   UNL A   1      42.459  27.635  31.562  1.00  0.00     0.031 C 
ATOM     35  C   UNL A   1      38.491  29.875  29.447  1.00  0.00     0.029 A 
ATOM     36  N   UNL A   1      39.324  30.784  31.309  1.00  0.00    -0.354 N 
ATOM     37  C   UNL A   1      42.578  28.920  33.454  1.00  0.00     0.074 A 
ATOM     38  C   UNL A   1      43.135  27.826  32.688  1.00  0.00     0.031 C 
ATOM     39  C   UNL A   1      37.862  31.043  29.637  1.00  0.00     0.029 A 
ATOM     40  C   UNL A   1      38.308  31.619  30.899  1.00  0.00     0.049 A 
ATOM     41  H   UNL A   1      39.882  30.961  32.100  1.00  0.00     0.167 HD
ATOM     42  C   UNL A   1      43.074  29.366  34.635  1.00  0.00     0.037 A 
ATOM     43  C   UNL A   1      37.744  32.685  31.500  1.00  0.00     0.037 A 
ATOM     44  C   UNL A   1      42.525  30.480  35.366  1.00  0.00     0.049 A 
ATOM     45  C   UNL A   1      38.246  33.102  32.854  1.00  0.00     0.074 A 
ATOM     46  C   UNL A   1      42.935  30.997  36.583  1.00  0.00     0.029 A 
ATOM     47  N   UNL A   1      41.452  31.254  34.948  1.00  0.00    -0.354 N 
ATOM     48  N   UNL A   1      39.240  32.606  33.552  1.00  0.00    -0.248 NA
ATOM     49  C   UNL A   1      37.535  34.203  33.518  1.00  0.00     0.031 C 
ATOM     50  C   UNL A   1      42.076  32.046  36.926  1.00  0.00     0.029 A 
ATOM     51  C   UNL A   1      41.171  32.229  35.893  1.00  0.00     0.049 A 
ATOM     52  H   UNL A   1      40.961  31.129  34.103  1.00  0.00     0.167 HD
ATOM     53  C   UNL A   1      39.286  33.346  34.727  1.00  0.00     0.074 A 
ATOM     54  C   UNL A   1      38.230  34.333  34.640  1.00  0.00     0.031 C 
ATOM     55  C   UNL A   1      40.126  33.217  35.784  1.00  0.00     0.037 A 
BRANCH  42  56
ATOM     56  C   UNL A   1      44.226  28.610  35.246  1.00  0.00     0.058 A 
ATOM     57  C   UNL A   1      44.042  27.529  36.121  1.00  0.00     0.135 A 
ATOM     58  C   UNL A   1      45.547  28.963  34.916  1.00  0.00     0.135 A 
ATOM     59  F   UNL A   1      42.804  27.155  36.484  1.00  0.00    -0.206 F 
ATOM     60  C   UNL A   1      45.124  26.846  36.671  1.00  0.00     0.059 A 
ATOM     61  C   UNL A   1      46.642  28.275  35.431  1.00  0.00     0.059 A 
ATOM     62  F   UNL A   1      45.785  29.987  34.082  1.00  0.00    -0.206 F 
ATOM     63  C   UNL A   1      46.421  27.227  36.321  1.00  0.00     0.060 A 
BRANCH  63  64
ATOM     64  S   UNL A   1      47.813  26.340  37.054  1.00  0.00     0.124 S 
ATOM     65  O   UNL A   1      47.684  25.028  36.425  1.00  0.00    -0.237 OA
ATOM     66  O   UNL A   1      48.954  27.138  36.621  1.00  0.00    -0.237 OA
ATOM     67  O   UNL A   1      47.528  26.379  38.485  1.00  0.00    -0.744 OA
ENDBRANCH  63  64
ENDBRANCH  42  56
BRANCH  43  68
ATOM     68  C   UNL A   1      36.585  33.374  30.863  1.00  0.00     0.058 A 
ATOM     69  C   UNL A   1      35.280  33.208  31.346  1.00  0.00     0.135 A 
ATOM     70  C   UNL A   1      36.765  34.222  29.756  1.00  0.00     0.135 A 
ATOM     71  F   UNL A   1      35.049  32.398  32.390  1.00  0.00    -0.206 F 
ATOM     72  C   UNL A   1      34.195  33.848  30.752  1.00  0.00     0.059 A 
ATOM     73  C   UNL A   1      35.704  34.901  29.169  1.00  0.00     0.059 A 
ATOM     74  F   UNL A   1      37.994  34.420  29.252  1.00  0.00    -0.206 F 
ATOM     75  C   UNL A   1      34.419  34.698  29.666  1.00  0.00     0.060 A 
BRANCH  75  76
ATOM     76  S   UNL A   1      33.011  35.553  28.926  1.00  0.00     0.124 S 
ATOM     77  O   UNL A   1      33.674  36.611  28.173  1.00  0.00    -0.237 OA
ATOM     78  O   UNL A   1      32.393  34.496  28.133  1.00  0.00    -0.237 OA
ATOM     79  O   UNL A   1      32.239  35.992  30.084  1.00  0.00    -0.744 OA
ENDBRANCH  75  76
ENDBRANCH  43  68
BRANCH  55  80
ATOM     80  C   UNL A   1      39.977  34.198  36.914  1.00  0.00     0.058 A 
ATOM     81  C   UNL A   1      40.440  35.519  36.816  1.00  0.00     0.135 A 
ATOM     82  C   UNL A   1      39.295  33.826  38.084  1.00  0.00     0.135 A 
ATOM     83  F   UNL A   1      41.110  35.922  35.724  1.00  0.00    -0.206 F 
ATOM     84  C   UNL A   1      40.241  36.435  37.844  1.00  0.00     0.059 A 
ATOM     85  C   UNL A   1      39.059  34.733  39.111  1.00  0.00     0.059 A 
ATOM     86  F   UNL A   1      38.828  32.575  38.225  1.00  0.00    -0.206 F 
ATOM     87  C   UNL A   1      39.541  36.034  38.984  1.00  0.00     0.060 A 
BRANCH  87  88
ATOM     88  S   UNL A   1      39.234  37.251  40.282  1.00  0.00     0.124 S 
ATOM     89  O   UNL A   1      38.358  36.508  41.182  1.00  0.00    -0.237 OA
ATOM     90  O   UNL A   1      40.579  37.517  40.782  1.00  0.00    -0.237 OA
ATOM     91  O   UNL A   1      38.607  38.358  39.568  1.00  0.00    -0.744 OA
ENDBRANCH  87  88
ENDBRANCH  55  80
ENDBRANCH  29  30
ENDBRANCH  22  24
ENDBRANCH  21  22
ENDBRANCH   1  21
TORSDOF 16
ENDMDL
