MODEL 1
REMARK VINA RESULT:     -11.2      0.000      0.000
REMARK SMILES Cc1nn(C)c2c1NC(=O)[C@@H](CCC(=O)OCCOC(=O)c1ccc(-c3c4nc(c(-c5c(F)cc(S(=O)(=O)[O-])cc5F)c5ccc([nH]5)c(-c5c(F)cc(S(=O)(=O)[O-])cc5F)c5nc(c(-c6c(F)cc(S(=O)(=O)[O-])cc6F)c6ccc3[nH]6)C=C5)C=C4)cc1)N2
REMARK SMILES IDX 18 1 17 2 16 3 14 4 15 5 13 6 12 7 11 8 1 9 2 10 3 11 7 12
REMARK SMILES IDX 4 13 6 14 8 15 5 16 88 17 9 18 10 21 19 22 20 23 21 24 22 25
REMARK SMILES IDX 23 26 87 27 24 28 86 29 25 30 26 31 27 32 80 33 28 34 85 35
REMARK SMILES IDX 79 36 81 37 29 38 84 39 78 40 77 41 30 43 64 44 43 45 63 46
REMARK SMILES IDX 44 47 47 48 62 49 82 50 45 51 46 52 61 54 83 55 48 56 31 57
REMARK SMILES IDX 32 58 41 59 33 60 34 61 40 62 42 63 35 64 36 65 37 66 38 67
REMARK SMILES IDX 39 68 65 69 66 70 75 71 67 72 68 73 74 74 76 75 69 76 70 77
REMARK SMILES IDX 71 78 72 79 73 80 49 81 50 82 59 83 51 84 52 85 58 86 60 87
REMARK SMILES IDX 53 88 54 89 55 90 56 91 57 92
REMARK H PARENT 8 19 88 20 81 42 47 53
REMARK Flexibility Score: inf
ROOT
ATOM      1  C   UNL A   1      38.727  21.914  25.953  1.00  0.00     0.275 C 
ENDROOT
BRANCH   1   2
ATOM      2  C   UNL A   1      37.921  21.072  24.966  1.00  0.00     0.274 C 
BRANCH   2   3
ATOM      3  O   UNL A   1      36.559  21.524  24.869  1.00  0.00    -0.462 OA
BRANCH   3   4
ATOM      4  C   UNL A   1      36.361  22.672  24.173  1.00  0.00     0.305 C 
ATOM      5  O   UNL A   1      36.632  22.836  22.990  1.00  0.00    -0.252 OA
BRANCH   4   6
ATOM      6  C   UNL A   1      35.825  23.780  25.046  1.00  0.00     0.125 C 
BRANCH   6   7
ATOM      7  C   UNL A   1      35.215  23.301  26.362  1.00  0.00     0.047 C 
BRANCH   7   8
ATOM      8  C   UNL A   1      33.686  23.496  26.432  1.00  0.00     0.171 C 
ATOM      9  C   UNL A   1      32.427  18.696  24.421  1.00  0.00     0.071 C 
ATOM     10  C   UNL A   1      32.569  20.159  24.226  1.00  0.00     0.085 A 
ATOM     11  N   UNL A   1      32.542  20.686  22.988  1.00  0.00    -0.174 NA
ATOM     12  C   UNL A   1      32.770  21.158  25.199  1.00  0.00     0.107 A 
ATOM     13  N   UNL A   1      32.754  22.010  23.185  1.00  0.00    -0.251 N 
ATOM     14  C   UNL A   1      32.904  22.333  24.501  1.00  0.00     0.149 A 
ATOM     15  N   UNL A   1      32.817  21.147  26.576  1.00  0.00    -0.320 N 
ATOM     16  C   UNL A   1      32.846  22.879  22.041  1.00  0.00     0.176 C 
ATOM     17  N   UNL A   1      33.171  23.544  25.041  1.00  0.00    -0.357 N 
ATOM     18  C   UNL A   1      33.047  22.329  27.258  1.00  0.00     0.247 C 
ATOM     19  H   UNL A   1      32.689  20.305  27.071  1.00  0.00     0.170 HD
ATOM     20  H   UNL A   1      33.034  24.387  24.552  1.00  0.00     0.163 HD
ATOM     21  O   UNL A   1      32.794  22.432  28.458  1.00  0.00    -0.272 OA
ENDBRANCH   7   8
ENDBRANCH   6   7
ENDBRANCH   4   6
ENDBRANCH   3   4
ENDBRANCH   2   3
ENDBRANCH   1   2
BRANCH   1  22
ATOM     22  O   UNL A   1      40.126  21.578  25.918  1.00  0.00    -0.458 OA
BRANCH  22  23
ATOM     23  C   UNL A   1      40.739  21.700  27.114  1.00  0.00     0.338 C 
ATOM     24  O   UNL A   1      40.789  20.858  28.004  1.00  0.00    -0.246 OA
BRANCH  23  25
ATOM     25  C   UNL A   1      41.362  23.010  27.285  1.00  0.00     0.060 A 
ATOM     26  C   UNL A   1      40.958  23.871  28.310  1.00  0.00     0.016 A 
ATOM     27  C   UNL A   1      42.200  23.450  26.263  1.00  0.00     0.016 A 
ATOM     28  C   UNL A   1      41.388  25.200  28.296  1.00  0.00     0.010 A 
ATOM     29  C   UNL A   1      42.630  24.770  26.259  1.00  0.00     0.010 A 
ATOM     30  C   UNL A   1      42.226  25.657  27.269  1.00  0.00    -0.014 A 
BRANCH  30  31
ATOM     31  C   UNL A   1      42.717  27.053  27.294  1.00  0.00     0.031 A 
ATOM     32  C   UNL A   1      41.648  28.093  27.306  1.00  0.00     0.074 A 
ATOM     33  C   UNL A   1      43.910  27.391  27.832  1.00  0.00     0.049 A 
ATOM     34  N   UNL A   1      40.948  28.337  28.375  1.00  0.00    -0.248 NA
ATOM     35  C   UNL A   1      41.131  28.736  26.101  1.00  0.00     0.031 C 
ATOM     36  C   UNL A   1      44.631  26.560  28.804  1.00  0.00     0.029 A 
ATOM     37  N   UNL A   1      44.587  28.590  27.842  1.00  0.00    -0.354 N 
ATOM     38  C   UNL A   1      39.864  29.094  27.993  1.00  0.00     0.074 A 
ATOM     39  C   UNL A   1      40.033  29.346  26.578  1.00  0.00     0.031 C 
ATOM     40  C   UNL A   1      45.524  27.334  29.454  1.00  0.00     0.029 A 
ATOM     41  C   UNL A   1      45.555  28.662  28.845  1.00  0.00     0.049 A 
ATOM     42  H   UNL A   1      44.408  29.321  27.207  1.00  0.00     0.167 HD
ATOM     43  C   UNL A   1      38.881  29.444  28.863  1.00  0.00     0.037 A 
ATOM     44  C   UNL A   1      45.909  29.791  29.518  1.00  0.00     0.037 A 
ATOM     45  C   UNL A   1      39.041  28.980  30.211  1.00  0.00     0.049 A 
ATOM     46  C   UNL A   1      44.634  30.118  30.252  1.00  0.00     0.074 A 
ATOM     47  C   UNL A   1      38.665  27.878  30.950  1.00  0.00     0.029 A 
ATOM     48  N   UNL A   1      39.856  29.698  31.055  1.00  0.00    -0.354 N 
ATOM     49  N   UNL A   1      44.209  29.541  31.344  1.00  0.00    -0.248 NA
ATOM     50  C   UNL A   1      43.625  30.915  29.553  1.00  0.00     0.031 C 
ATOM     51  C   UNL A   1      39.633  27.769  31.999  1.00  0.00     0.029 A 
ATOM     52  C   UNL A   1      40.570  28.780  31.789  1.00  0.00     0.049 A 
ATOM     53  H   UNL A   1      39.916  30.679  31.121  1.00  0.00     0.167 HD
ATOM     54  C   UNL A   1      42.822  29.689  31.331  1.00  0.00     0.074 A 
ATOM     55  C   UNL A   1      42.532  30.581  30.227  1.00  0.00     0.031 C 
ATOM     56  C   UNL A   1      41.977  28.934  32.093  1.00  0.00     0.037 A 
BRANCH  43  57
ATOM     57  C   UNL A   1      37.787  30.369  28.527  1.00  0.00     0.058 A 
ATOM     58  C   UNL A   1      37.914  31.711  28.910  1.00  0.00     0.135 A 
ATOM     59  C   UNL A   1      36.562  29.932  28.013  1.00  0.00     0.135 A 
ATOM     60  F   UNL A   1      39.075  32.156  29.420  1.00  0.00    -0.206 F 
ATOM     61  C   UNL A   1      36.844  32.589  28.832  1.00  0.00     0.059 A 
ATOM     62  C   UNL A   1      35.474  30.798  27.922  1.00  0.00     0.059 A 
ATOM     63  F   UNL A   1      36.400  28.653  27.639  1.00  0.00    -0.206 F 
ATOM     64  C   UNL A   1      35.621  32.116  28.356  1.00  0.00     0.060 A 
BRANCH  64  65
ATOM     65  S   UNL A   1      34.218  33.251  28.366  1.00  0.00     0.124 S 
ATOM     66  O   UNL A   1      34.747  34.386  27.617  1.00  0.00    -0.237 OA
ATOM     67  O   UNL A   1      33.191  32.466  27.689  1.00  0.00    -0.237 OA
ATOM     68  O   UNL A   1      33.985  33.492  29.787  1.00  0.00    -0.744 OA
ENDBRANCH  64  65
ENDBRANCH  43  57
BRANCH  44  69
ATOM     69  C   UNL A   1      46.683  30.811  28.736  1.00  0.00     0.058 A 
ATOM     70  C   UNL A   1      47.901  31.294  29.259  1.00  0.00     0.135 A 
ATOM     71  C   UNL A   1      46.288  31.357  27.502  1.00  0.00     0.135 A 
ATOM     72  F   UNL A   1      48.295  30.944  30.494  1.00  0.00    -0.206 F 
ATOM     73  C   UNL A   1      48.747  32.131  28.536  1.00  0.00     0.059 A 
ATOM     74  C   UNL A   1      47.128  32.176  26.745  1.00  0.00     0.059 A 
ATOM     75  F   UNL A   1      45.078  31.095  26.986  1.00  0.00    -0.206 F 
ATOM     76  C   UNL A   1      48.371  32.530  27.258  1.00  0.00     0.060 A 
BRANCH  76  77
ATOM     77  S   UNL A   1      49.557  33.454  26.260  1.00  0.00     0.124 S 
ATOM     78  O   UNL A   1      50.392  32.388  25.720  1.00  0.00    -0.237 OA
ATOM     79  O   UNL A   1      48.684  34.126  25.302  1.00  0.00    -0.237 OA
ATOM     80  O   UNL A   1      50.202  34.332  27.231  1.00  0.00    -0.744 OA
ENDBRANCH  76  77
ENDBRANCH  44  69
BRANCH  56  81
ATOM     81  C   UNL A   1      42.646  28.036  33.083  1.00  0.00     0.058 A 
ATOM     82  C   UNL A   1      42.717  28.393  34.438  1.00  0.00     0.135 A 
ATOM     83  C   UNL A   1      43.217  26.810  32.703  1.00  0.00     0.135 A 
ATOM     84  F   UNL A   1      42.180  29.550  34.862  1.00  0.00    -0.206 F 
ATOM     85  C   UNL A   1      43.317  27.563  35.381  1.00  0.00     0.059 A 
ATOM     86  C   UNL A   1      43.798  25.951  33.634  1.00  0.00     0.059 A 
ATOM     87  F   UNL A   1      43.205  26.415  31.419  1.00  0.00    -0.206 F 
ATOM     88  C   UNL A   1      43.847  26.339  34.972  1.00  0.00     0.060 A 
BRANCH  88  89
ATOM     89  S   UNL A   1      44.542  25.231  36.217  1.00  0.00     0.124 S 
ATOM     90  O   UNL A   1      44.659  23.978  35.481  1.00  0.00    -0.237 OA
ATOM     91  O   UNL A   1      45.802  25.888  36.555  1.00  0.00    -0.237 OA
ATOM     92  O   UNL A   1      43.540  25.242  37.280  1.00  0.00    -0.744 OA
ENDBRANCH  88  89
ENDBRANCH  56  81
ENDBRANCH  30  31
ENDBRANCH  23  25
ENDBRANCH  22  23
ENDBRANCH   1  22
TORSDOF 16
ENDMDL
MODEL 2
REMARK VINA RESULT:     -11.0      1.342      2.471
REMARK SMILES Cc1nn(C)c2c1NC(=O)[C@@H](CCC(=O)OCCOC(=O)c1ccc(-c3c4nc(c(-c5c(F)cc(S(=O)(=O)[O-])cc5F)c5ccc([nH]5)c(-c5c(F)cc(S(=O)(=O)[O-])cc5F)c5nc(c(-c6c(F)cc(S(=O)(=O)[O-])cc6F)c6ccc3[nH]6)C=C5)C=C4)cc1)N2
REMARK SMILES IDX 18 1 17 2 16 3 14 4 15 5 13 6 12 7 11 8 1 9 2 10 3 11 7 12
REMARK SMILES IDX 4 13 6 14 8 15 5 16 88 17 9 18 10 21 19 22 20 23 21 24 22 25
REMARK SMILES IDX 23 26 87 27 24 28 86 29 25 30 26 31 27 32 80 33 28 34 85 35
REMARK SMILES IDX 79 36 81 37 29 38 84 39 78 40 77 41 30 43 64 44 43 45 63 46
REMARK SMILES IDX 44 47 47 48 62 49 82 50 45 51 46 52 61 54 83 55 48 56 31 57
REMARK SMILES IDX 32 58 41 59 33 60 34 61 40 62 42 63 35 64 36 65 37 66 38 67
REMARK SMILES IDX 39 68 65 69 66 70 75 71 67 72 68 73 74 74 76 75 69 76 70 77
REMARK SMILES IDX 71 78 72 79 73 80 49 81 50 82 59 83 51 84 52 85 58 86 60 87
REMARK SMILES IDX 53 88 54 89 55 90 56 91 57 92
REMARK H PARENT 8 19 88 20 81 42 47 53
REMARK Flexibility Score: inf
ROOT
ATOM      1  C   UNL A   1      39.400  21.132  26.119  1.00  0.00     0.275 C 
ENDROOT
BRANCH   1   2
ATOM      2  C   UNL A   1      38.224  22.066  25.841  1.00  0.00     0.274 C 
BRANCH   2   3
ATOM      3  O   UNL A   1      37.765  21.954  24.482  1.00  0.00    -0.462 OA
BRANCH   3   4
ATOM      4  C   UNL A   1      36.421  21.891  24.311  1.00  0.00     0.305 C 
ATOM      5  O   UNL A   1      35.697  20.993  24.722  1.00  0.00    -0.252 OA
BRANCH   4   6
ATOM      6  C   UNL A   1      35.901  23.037  23.477  1.00  0.00     0.125 C 
BRANCH   6   7
ATOM      7  C   UNL A   1      34.866  23.908  24.187  1.00  0.00     0.047 C 
BRANCH   7   8
ATOM      8  C   UNL A   1      33.579  24.121  23.362  1.00  0.00     0.171 C 
ATOM      9  C   UNL A   1      31.631  28.077  26.400  1.00  0.00     0.071 C 
ATOM     10  C   UNL A   1      31.607  26.649  26.003  1.00  0.00     0.085 A 
ATOM     11  N   UNL A   1      30.937  25.748  26.745  1.00  0.00    -0.174 NA
ATOM     12  C   UNL A   1      32.240  26.032  24.906  1.00  0.00     0.107 A 
ATOM     13  N   UNL A   1      31.176  24.565  26.129  1.00  0.00    -0.251 N 
ATOM     14  C   UNL A   1      31.964  24.693  25.023  1.00  0.00     0.149 A 
ATOM     15  N   UNL A   1      32.981  26.509  23.846  1.00  0.00    -0.320 N 
ATOM     16  C   UNL A   1      30.647  23.357  26.707  1.00  0.00     0.176 C 
ATOM     17  N   UNL A   1      32.428  23.718  24.208  1.00  0.00    -0.357 N 
ATOM     18  C   UNL A   1      33.486  25.619  22.915  1.00  0.00     0.247 C 
ATOM     19  H   UNL A   1      33.149  27.475  23.751  1.00  0.00     0.170 HD
ATOM     20  H   UNL A   1      32.034  22.816  24.178  1.00  0.00     0.163 HD
ATOM     21  O   UNL A   1      33.875  26.002  21.811  1.00  0.00    -0.272 OA
ENDBRANCH   7   8
ENDBRANCH   6   7
ENDBRANCH   4   6
ENDBRANCH   3   4
ENDBRANCH   2   3
ENDBRANCH   1   2
BRANCH   1  22
ATOM     22  O   UNL A   1      40.018  21.421  27.386  1.00  0.00    -0.458 OA
BRANCH  22  23
ATOM     23  C   UNL A   1      41.341  21.669  27.296  1.00  0.00     0.338 C 
ATOM     24  O   UNL A   1      42.249  20.845  27.346  1.00  0.00    -0.246 OA
BRANCH  23  25
ATOM     25  C   UNL A   1      41.628  23.093  27.147  1.00  0.00     0.060 A 
ATOM     26  C   UNL A   1      42.522  23.550  26.173  1.00  0.00     0.016 A 
ATOM     27  C   UNL A   1      41.156  23.941  28.145  1.00  0.00     0.016 A 
ATOM     28  C   UNL A   1      42.964  24.873  26.217  1.00  0.00     0.010 A 
ATOM     29  C   UNL A   1      41.594  25.259  28.180  1.00  0.00     0.010 A 
ATOM     30  C   UNL A   1      42.502  25.736  27.222  1.00  0.00    -0.014 A 
BRANCH  30  31
ATOM     31  C   UNL A   1      42.937  27.150  27.226  1.00  0.00     0.031 A 
ATOM     32  C   UNL A   1      41.827  28.147  27.246  1.00  0.00     0.074 A 
ATOM     33  C   UNL A   1      44.124  27.541  27.741  1.00  0.00     0.049 A 
ATOM     34  N   UNL A   1      41.136  28.374  28.324  1.00  0.00    -0.248 NA
ATOM     35  C   UNL A   1      41.266  28.757  26.044  1.00  0.00     0.031 C 
ATOM     36  C   UNL A   1      44.894  26.748  28.708  1.00  0.00     0.029 A 
ATOM     37  N   UNL A   1      44.753  28.766  27.729  1.00  0.00    -0.354 N 
ATOM     38  C   UNL A   1      40.016  29.084  27.953  1.00  0.00     0.074 A 
ATOM     39  C   UNL A   1      40.153  29.328  26.533  1.00  0.00     0.031 C 
ATOM     40  C   UNL A   1      45.765  27.564  29.336  1.00  0.00     0.029 A 
ATOM     41  C   UNL A   1      45.733  28.886  28.714  1.00  0.00     0.049 A 
ATOM     42  H   UNL A   1      44.535  29.483  27.090  1.00  0.00     0.167 HD
ATOM     43  C   UNL A   1      39.034  29.403  28.835  1.00  0.00     0.037 A 
ATOM     44  C   UNL A   1      46.053  30.035  29.372  1.00  0.00     0.037 A 
ATOM     45  C   UNL A   1      39.235  28.959  30.185  1.00  0.00     0.049 A 
ATOM     46  C   UNL A   1      44.778  30.319  30.123  1.00  0.00     0.074 A 
ATOM     47  C   UNL A   1      38.914  27.851  30.940  1.00  0.00     0.029 A 
ATOM     48  N   UNL A   1      40.034  29.718  31.009  1.00  0.00    -0.354 N 
ATOM     49  N   UNL A   1      44.394  29.736  31.227  1.00  0.00    -0.248 NA
ATOM     50  C   UNL A   1      43.727  31.068  29.434  1.00  0.00     0.031 C 
ATOM     51  C   UNL A   1      39.903  27.791  31.974  1.00  0.00     0.029 A 
ATOM     52  C   UNL A   1      40.796  28.836  31.739  1.00  0.00     0.049 A 
ATOM     53  H   UNL A   1      40.056  30.700  31.065  1.00  0.00     0.167 HD
ATOM     54  C   UNL A   1      43.002  29.829  31.235  1.00  0.00     0.074 A 
ATOM     55  C   UNL A   1      42.659  30.698  30.128  1.00  0.00     0.031 C 
ATOM     56  C   UNL A   1      42.200  29.049  32.018  1.00  0.00     0.037 A 
BRANCH  43  57
ATOM     57  C   UNL A   1      37.899  30.281  28.509  1.00  0.00     0.058 A 
ATOM     58  C   UNL A   1      37.981  31.632  28.873  1.00  0.00     0.135 A 
ATOM     59  C   UNL A   1      36.683  29.790  28.024  1.00  0.00     0.135 A 
ATOM     60  F   UNL A   1      39.133  32.128  29.355  1.00  0.00    -0.206 F 
ATOM     61  C   UNL A   1      36.877  32.466  28.804  1.00  0.00     0.059 A 
ATOM     62  C   UNL A   1      35.560  30.611  27.942  1.00  0.00     0.059 A 
ATOM     63  F   UNL A   1      36.565  28.501  27.669  1.00  0.00    -0.206 F 
ATOM     64  C   UNL A   1      35.664  31.940  28.358  1.00  0.00     0.060 A 
BRANCH  64  65
ATOM     65  S   UNL A   1      34.218  33.020  28.380  1.00  0.00     0.124 S 
ATOM     66  O   UNL A   1      33.222  32.198  27.701  1.00  0.00    -0.237 OA
ATOM     67  O   UNL A   1      34.012  33.217  29.811  1.00  0.00    -0.237 OA
ATOM     68  O   UNL A   1      34.664  34.200  27.645  1.00  0.00    -0.744 OA
ENDBRANCH  64  65
ENDBRANCH  43  57
BRANCH  44  69
ATOM     69  C   UNL A   1      46.773  31.077  28.567  1.00  0.00     0.058 A 
ATOM     70  C   UNL A   1      47.925  31.685  29.110  1.00  0.00     0.135 A 
ATOM     71  C   UNL A   1      46.386  31.528  27.293  1.00  0.00     0.135 A 
ATOM     72  F   UNL A   1      48.295  31.429  30.375  1.00  0.00    -0.206 F 
ATOM     73  C   UNL A   1      48.729  32.553  28.377  1.00  0.00     0.059 A 
ATOM     74  C   UNL A   1      47.187  32.376  26.527  1.00  0.00     0.059 A 
ATOM     75  F   UNL A   1      45.224  31.141  26.746  1.00  0.00    -0.206 F 
ATOM     76  C   UNL A   1      48.375  32.858  27.066  1.00  0.00     0.060 A 
BRANCH  76  77
ATOM     77  S   UNL A   1      49.522  33.828  26.067  1.00  0.00     0.124 S 
ATOM     78  O   UNL A   1      50.376  32.792  25.497  1.00  0.00    -0.237 OA
ATOM     79  O   UNL A   1      48.618  34.494  25.134  1.00  0.00    -0.237 OA
ATOM     80  O   UNL A   1      50.160  34.705  27.043  1.00  0.00    -0.744 OA
ENDBRANCH  76  77
ENDBRANCH  44  69
BRANCH  56  81
ATOM     81  C   UNL A   1      42.920  28.187  33.006  1.00  0.00     0.058 A 
ATOM     82  C   UNL A   1      43.432  26.938  32.625  1.00  0.00     0.135 A 
ATOM     83  C   UNL A   1      43.114  28.592  34.338  1.00  0.00     0.135 A 
ATOM     84  F   UNL A   1      43.284  26.503  31.363  1.00  0.00    -0.206 F 
ATOM     85  C   UNL A   1      44.123  26.129  33.523  1.00  0.00     0.059 A 
ATOM     86  C   UNL A   1      43.826  27.810  35.245  1.00  0.00     0.059 A 
ATOM     87  F   UNL A   1      42.630  29.766  34.777  1.00  0.00    -0.206 F 
ATOM     88  C   UNL A   1      44.323  26.576  34.829  1.00  0.00     0.060 A 
BRANCH  88  89
ATOM     89  S   UNL A   1      45.298  25.558  35.958  1.00  0.00     0.124 S 
ATOM     90  O   UNL A   1      45.325  24.275  35.267  1.00  0.00    -0.237 OA
ATOM     91  O   UNL A   1      46.569  26.276  36.013  1.00  0.00    -0.237 OA
ATOM     92  O   UNL A   1      44.524  25.586  37.197  1.00  0.00    -0.744 OA
ENDBRANCH  88  89
ENDBRANCH  56  81
ENDBRANCH  30  31
ENDBRANCH  23  25
ENDBRANCH  22  23
ENDBRANCH   1  22
TORSDOF 16
ENDMDL
MODEL 3
REMARK VINA RESULT:     -10.9      3.944      6.738
REMARK SMILES Cc1nn(C)c2c1NC(=O)[C@@H](CCC(=O)OCCOC(=O)c1ccc(-c3c4nc(c(-c5c(F)cc(S(=O)(=O)[O-])cc5F)c5ccc([nH]5)c(-c5c(F)cc(S(=O)(=O)[O-])cc5F)c5nc(c(-c6c(F)cc(S(=O)(=O)[O-])cc6F)c6ccc3[nH]6)C=C5)C=C4)cc1)N2
REMARK SMILES IDX 18 1 17 2 16 3 14 4 15 5 13 6 12 7 11 8 1 9 2 10 3 11 7 12
REMARK SMILES IDX 4 13 6 14 8 15 5 16 88 17 9 18 10 21 19 22 20 23 21 24 22 25
REMARK SMILES IDX 23 26 87 27 24 28 86 29 25 30 26 31 27 32 80 33 28 34 85 35
REMARK SMILES IDX 79 36 81 37 29 38 84 39 78 40 77 41 30 43 64 44 43 45 63 46
REMARK SMILES IDX 44 47 47 48 62 49 82 50 45 51 46 52 61 54 83 55 48 56 31 57
REMARK SMILES IDX 32 58 41 59 33 60 34 61 40 62 42 63 35 64 36 65 37 66 38 67
REMARK SMILES IDX 39 68 65 69 66 70 75 71 67 72 68 73 74 74 76 75 69 76 70 77
REMARK SMILES IDX 71 78 72 79 73 80 49 81 50 82 59 83 51 84 52 85 58 86 60 87
REMARK SMILES IDX 53 88 54 89 55 90 56 91 57 92
REMARK H PARENT 8 19 88 20 81 42 47 53
REMARK Flexibility Score: inf
ROOT
ATOM      1  C   UNL A   1      42.312  20.189  26.174  1.00  0.00     0.275 C 
ENDROOT
BRANCH   1   2
ATOM      2  C   UNL A   1      43.763  20.197  25.696  1.00  0.00     0.274 C 
BRANCH   2   3
ATOM      3  O   UNL A   1      44.133  21.471  25.138  1.00  0.00    -0.462 OA
BRANCH   3   4
ATOM      4  C   UNL A   1      45.428  21.840  25.304  1.00  0.00     0.305 C 
ATOM      5  O   UNL A   1      46.400  21.166  24.988  1.00  0.00    -0.252 OA
BRANCH   4   6
ATOM      6  C   UNL A   1      45.553  23.171  26.005  1.00  0.00     0.125 C 
BRANCH   6   7
ATOM      7  C   UNL A   1      46.246  24.250  25.176  1.00  0.00     0.047 C 
BRANCH   7   8
ATOM      8  C   UNL A   1      46.378  25.598  25.917  1.00  0.00     0.171 C 
ATOM      9  C   UNL A   1      50.378  27.491  22.903  1.00  0.00     0.071 C 
ATOM     10  C   UNL A   1      49.924  26.877  24.173  1.00  0.00     0.085 A 
ATOM     11  N   UNL A   1      50.818  26.359  25.036  1.00  0.00    -0.174 NA
ATOM     12  C   UNL A   1      48.608  26.714  24.648  1.00  0.00     0.107 A 
ATOM     13  N   UNL A   1      50.059  25.846  26.034  1.00  0.00    -0.251 N 
ATOM     14  C   UNL A   1      48.723  26.032  25.833  1.00  0.00     0.149 A 
ATOM     15  N   UNL A   1      47.374  27.109  24.178  1.00  0.00    -0.320 N 
ATOM     16  C   UNL A   1      50.705  25.150  27.116  1.00  0.00     0.176 C 
ATOM     17  N   UNL A   1      47.694  25.610  26.603  1.00  0.00    -0.357 N 
ATOM     18  C   UNL A   1      46.236  26.774  24.892  1.00  0.00     0.247 C 
ATOM     19  H   UNL A   1      47.301  27.625  23.343  1.00  0.00     0.170 HD
ATOM     20  H   UNL A   1      47.807  25.336  27.542  1.00  0.00     0.163 HD
ATOM     21  O   UNL A   1      45.167  27.351  24.695  1.00  0.00    -0.272 OA
ENDBRANCH   7   8
ENDBRANCH   6   7
ENDBRANCH   4   6
ENDBRANCH   3   4
ENDBRANCH   2   3
ENDBRANCH   1   2
BRANCH   1  22
ATOM     22  O   UNL A   1      42.183  20.760  27.488  1.00  0.00    -0.458 OA
BRANCH  22  23
ATOM     23  C   UNL A   1      41.266  21.748  27.558  1.00  0.00     0.338 C 
ATOM     24  O   UNL A   1      40.048  21.617  27.614  1.00  0.00    -0.246 OA
BRANCH  23  25
ATOM     25  C   UNL A   1      41.879  23.073  27.539  1.00  0.00     0.060 A 
ATOM     26  C   UNL A   1      42.221  23.726  28.728  1.00  0.00     0.016 A 
ATOM     27  C   UNL A   1      41.899  23.743  26.319  1.00  0.00     0.016 A 
ATOM     28  C   UNL A   1      42.568  25.078  28.691  1.00  0.00     0.010 A 
ATOM     29  C   UNL A   1      42.252  25.086  26.287  1.00  0.00     0.010 A 
ATOM     30  C   UNL A   1      42.585  25.766  27.469  1.00  0.00    -0.014 A 
BRANCH  30  31
ATOM     31  C   UNL A   1      43.006  27.184  27.436  1.00  0.00     0.031 A 
ATOM     32  C   UNL A   1      41.886  28.170  27.421  1.00  0.00     0.074 A 
ATOM     33  C   UNL A   1      44.186  27.601  27.947  1.00  0.00     0.049 A 
ATOM     34  N   UNL A   1      41.186  28.419  28.488  1.00  0.00    -0.248 NA
ATOM     35  C   UNL A   1      41.326  28.740  26.199  1.00  0.00     0.031 C 
ATOM     36  C   UNL A   1      44.957  26.844  28.940  1.00  0.00     0.029 A 
ATOM     37  N   UNL A   1      44.802  28.832  27.903  1.00  0.00    -0.354 N 
ATOM     38  C   UNL A   1      40.061  29.107  28.091  1.00  0.00     0.074 A 
ATOM     39  C   UNL A   1      40.204  29.313  26.665  1.00  0.00     0.031 C 
ATOM     40  C   UNL A   1      45.816  27.686  29.550  1.00  0.00     0.029 A 
ATOM     41  C   UNL A   1      45.775  28.990  28.891  1.00  0.00     0.049 A 
ATOM     42  H   UNL A   1      44.580  29.529  27.243  1.00  0.00     0.167 HD
ATOM     43  C   UNL A   1      39.071  29.441  28.959  1.00  0.00     0.037 A 
ATOM     44  C   UNL A   1      46.079  30.160  29.517  1.00  0.00     0.037 A 
ATOM     45  C   UNL A   1      39.268  29.037  30.321  1.00  0.00     0.049 A 
ATOM     46  C   UNL A   1      44.797  30.451  30.254  1.00  0.00     0.074 A 
ATOM     47  C   UNL A   1      38.954  27.947  31.105  1.00  0.00     0.029 A 
ATOM     48  N   UNL A   1      40.054  29.827  31.128  1.00  0.00    -0.354 N 
ATOM     49  N   UNL A   1      44.412  29.895  31.371  1.00  0.00    -0.248 NA
ATOM     50  C   UNL A   1      43.742  31.170  29.537  1.00  0.00     0.031 C 
ATOM     51  C   UNL A   1      39.937  27.926  32.147  1.00  0.00     0.029 A 
ATOM     52  C   UNL A   1      40.820  28.973  31.887  1.00  0.00     0.049 A 
ATOM     53  H   UNL A   1      40.066  30.811  31.157  1.00  0.00     0.167 HD
ATOM     54  C   UNL A   1      43.019  29.975  31.369  1.00  0.00     0.074 A 
ATOM     55  C   UNL A   1      42.674  30.808  30.235  1.00  0.00     0.031 C 
ATOM     56  C   UNL A   1      42.220  29.208  32.169  1.00  0.00     0.037 A 
BRANCH  43  57
ATOM     57  C   UNL A   1      37.929  30.297  28.601  1.00  0.00     0.058 A 
ATOM     58  C   UNL A   1      37.989  31.656  28.939  1.00  0.00     0.135 A 
ATOM     59  C   UNL A   1      36.725  29.781  28.111  1.00  0.00     0.135 A 
ATOM     60  F   UNL A   1      39.129  32.176  29.425  1.00  0.00    -0.206 F 
ATOM     61  C   UNL A   1      36.875  32.475  28.841  1.00  0.00     0.059 A 
ATOM     62  C   UNL A   1      35.593  30.586  28.000  1.00  0.00     0.059 A 
ATOM     63  F   UNL A   1      36.627  28.484  27.780  1.00  0.00    -0.206 F 
ATOM     64  C   UNL A   1      35.675  31.924  28.390  1.00  0.00     0.060 A 
BRANCH  64  65
ATOM     65  S   UNL A   1      34.215  32.986  28.374  1.00  0.00     0.124 S 
ATOM     66  O   UNL A   1      34.686  34.127  27.597  1.00  0.00    -0.237 OA
ATOM     67  O   UNL A   1      33.230  32.133  27.717  1.00  0.00    -0.237 OA
ATOM     68  O   UNL A   1      33.970  33.248  29.789  1.00  0.00    -0.744 OA
ENDBRANCH  64  65
ENDBRANCH  43  57
BRANCH  44  69
ATOM     69  C   UNL A   1      46.793  31.186  28.688  1.00  0.00     0.058 A 
ATOM     70  C   UNL A   1      48.011  31.721  29.160  1.00  0.00     0.135 A 
ATOM     71  C   UNL A   1      46.341  31.691  27.457  1.00  0.00     0.135 A 
ATOM     72  F   UNL A   1      48.456  31.412  30.390  1.00  0.00    -0.206 F 
ATOM     73  C   UNL A   1      48.805  32.567  28.392  1.00  0.00     0.059 A 
ATOM     74  C   UNL A   1      47.129  32.519  26.655  1.00  0.00     0.059 A 
ATOM     75  F   UNL A   1      45.125  31.378  26.986  1.00  0.00    -0.206 F 
ATOM     76  C   UNL A   1      48.375  32.925  27.119  1.00  0.00     0.060 A 
BRANCH  76  77
ATOM     77  S   UNL A   1      49.497  33.864  26.063  1.00  0.00     0.124 S 
ATOM     78  O   UNL A   1      50.146  34.749  27.024  1.00  0.00    -0.237 OA
ATOM     79  O   UNL A   1      50.336  32.809  25.502  1.00  0.00    -0.237 OA
ATOM     80  O   UNL A   1      48.601  34.513  25.112  1.00  0.00    -0.744 OA
ENDBRANCH  76  77
ENDBRANCH  44  69
BRANCH  56  81
ATOM     81  C   UNL A   1      42.943  28.382  33.184  1.00  0.00     0.058 A 
ATOM     82  C   UNL A   1      43.460  27.124  32.844  1.00  0.00     0.135 A 
ATOM     83  C   UNL A   1      43.135  28.831  34.502  1.00  0.00     0.135 A 
ATOM     84  F   UNL A   1      43.315  26.647  31.597  1.00  0.00    -0.206 F 
ATOM     85  C   UNL A   1      44.153  26.347  33.768  1.00  0.00     0.059 A 
ATOM     86  C   UNL A   1      43.849  28.081  35.435  1.00  0.00     0.059 A 
ATOM     87  F   UNL A   1      42.646  30.017  34.902  1.00  0.00    -0.206 F 
ATOM     88  C   UNL A   1      44.352  26.837  35.060  1.00  0.00     0.060 A 
BRANCH  88  89
ATOM     89  S   UNL A   1      45.329  25.861  36.222  1.00  0.00     0.124 S 
ATOM     90  O   UNL A   1      46.090  24.994  35.329  1.00  0.00    -0.237 OA
ATOM     91  O   UNL A   1      46.102  26.884  36.922  1.00  0.00    -0.237 OA
ATOM     92  O   UNL A   1      44.320  25.189  37.037  1.00  0.00    -0.744 OA
ENDBRANCH  88  89
ENDBRANCH  56  81
ENDBRANCH  30  31
ENDBRANCH  23  25
ENDBRANCH  22  23
ENDBRANCH   1  22
TORSDOF 16
ENDMDL
