MODEL 1
REMARK VINA RESULT:     -12.2      0.000      0.000
REMARK SMILES O=C(OCCOC(=O)[C@@H]1C[NH2+]CCN1C(=O)N[C@@H]1CCOC1)c1ccc(-c2c3nc(c(-c4c(F)cc(S(=O)(=O)[O-])cc4F)c4ccc([nH]4)c(-c4c(F)cc(S(=O)(=O)[O-])cc4F)c4nc(c(-c5c(F)cc(S(=O)(=O)[O-])cc5F)c5ccc2[nH]5)C=C4)C=C3)cc1
REMARK SMILES IDX 4 1 3 2 2 3 1 4 23 5 24 6 88 7 25 8 87 9 26 10 27 11 28 12
REMARK SMILES IDX 81 13 29 14 86 15 80 16 82 17 30 18 85 19 79 20 78 21 31 23
REMARK SMILES IDX 65 24 44 25 64 26 45 27 48 28 63 29 83 30 46 31 47 32 62 34
REMARK SMILES IDX 84 35 49 36 32 37 33 38 42 39 34 40 35 41 41 42 43 43 36 44
REMARK SMILES IDX 37 45 38 46 39 47 40 48 66 49 67 50 76 51 68 52 69 53 75 54
REMARK SMILES IDX 77 55 70 56 71 57 72 58 73 59 74 60 50 61 51 62 60 63 52 64
REMARK SMILES IDX 53 65 59 66 61 67 54 68 55 69 56 70 57 71 58 72 5 73 6 74
REMARK SMILES IDX 7 75 8 76 9 77 10 78 14 79 11 80 13 81 12 82 15 85 16 86
REMARK SMILES IDX 17 87 18 89 19 90 22 91 20 92 21 93
REMARK H PARENT 82 22 48 33 11 83 11 84 17 88
REMARK Flexibility Score: inf
ROOT
ATOM      1  C   UNL A   1      38.698  22.911  26.129  1.00  0.00     0.275 C 
ENDROOT
BRANCH   1   2
ATOM      2  O   UNL A   1      40.125  22.869  26.262  1.00  0.00    -0.458 OA
BRANCH   2   3
ATOM      3  C   UNL A   1      40.999  23.865  26.500  1.00  0.00     0.338 C 
ATOM      4  O   UNL A   1      41.987  23.965  25.777  1.00  0.00    -0.246 OA
BRANCH   3   5
ATOM      5  C   UNL A   1      40.843  24.922  27.535  1.00  0.00     0.060 A 
ATOM      6  C   UNL A   1      39.327  25.434  28.436  1.00  0.00     0.016 A 
ATOM      7  C   UNL A   1      42.413  25.597  28.101  1.00  0.00     0.016 A 
ATOM      8  C   UNL A   1      39.401  26.701  29.783  1.00  0.00     0.010 A 
ATOM      9  C   UNL A   1      42.480  26.859  29.395  1.00  0.00     0.010 A 
ATOM     10  C   UNL A   1      40.973  27.443  30.228  1.00  0.00    -0.014 A 
BRANCH  10  11
ATOM     11  C   UNL A   1      40.959  28.574  31.233  1.00  0.00     0.031 A 
ATOM     12  C   UNL A   1      41.881  28.557  32.437  1.00  0.00     0.074 A 
ATOM     13  C   UNL A   1      40.186  29.671  31.026  1.00  0.00     0.049 A 
ATOM     14  N   UNL A   1      41.902  29.349  33.481  1.00  0.00    -0.248 NA
ATOM     15  C   UNL A   1      42.967  27.569  32.442  1.00  0.00     0.031 C 
ATOM     16  C   UNL A   1      39.413  29.979  29.819  1.00  0.00     0.029 A 
ATOM     17  N   UNL A   1      39.877  30.744  31.836  1.00  0.00    -0.354 N 
ATOM     18  C   UNL A   1      43.001  28.954  34.246  1.00  0.00     0.074 A 
ATOM     19  C   UNL A   1      43.594  27.824  33.579  1.00  0.00     0.031 C 
ATOM     20  C   UNL A   1      38.686  31.084  29.972  1.00  0.00     0.029 A 
ATOM     21  C   UNL A   1      38.873  31.546  31.318  1.00  0.00     0.049 A 
ATOM     22  H   UNL A   1      40.324  30.922  32.694  1.00  0.00     0.167 HD
ATOM     23  C   UNL A   1      43.489  29.508  35.384  1.00  0.00     0.037 A 
ATOM     24  C   UNL A   1      38.114  32.514  31.855  1.00  0.00     0.037 A 
ATOM     25  C   UNL A   1      42.883  30.654  36.011  1.00  0.00     0.049 A 
ATOM     26  C   UNL A   1      38.501  32.967  33.215  1.00  0.00     0.074 A 
ATOM     27  C   UNL A   1      43.219  31.274  37.199  1.00  0.00     0.029 A 
ATOM     28  N   UNL A   1      41.800  31.348  35.485  1.00  0.00    -0.354 N 
ATOM     29  N   UNL A   1      39.476  32.513  33.965  1.00  0.00    -0.248 NA
ATOM     30  C   UNL A   1      37.748  34.084  33.784  1.00  0.00     0.031 C 
ATOM     31  C   UNL A   1      42.284  32.287  37.432  1.00  0.00     0.029 A 
ATOM     32  C   UNL A   1      41.421  32.358  36.348  1.00  0.00     0.049 A 
ATOM     33  H   UNL A   1      41.367  31.149  34.623  1.00  0.00     0.167 HD
ATOM     34  C   UNL A   1      39.500  33.330  35.075  1.00  0.00     0.074 A 
ATOM     35  C   UNL A   1      38.433  34.301  34.898  1.00  0.00     0.031 C 
ATOM     36  C   UNL A   1      40.343  33.294  36.133  1.00  0.00     0.037 A 
BRANCH  23  37
ATOM     37  C   UNL A   1      44.660  28.826  36.047  1.00  0.00     0.058 A 
ATOM     38  C   UNL A   1      44.514  27.742  36.931  1.00  0.00     0.135 A 
ATOM     39  C   UNL A   1      45.963  29.306  35.826  1.00  0.00     0.135 A 
ATOM     40  F   UNL A   1      43.294  27.253  37.206  1.00  0.00    -0.206 F 
ATOM     41  C   UNL A   1      45.606  27.188  37.598  1.00  0.00     0.059 A 
ATOM     42  C   UNL A   1      47.072  28.747  36.455  1.00  0.00     0.059 A 
ATOM     43  F   UNL A   1      46.169  30.345  35.002  1.00  0.00    -0.206 F 
ATOM     44  C   UNL A   1      46.883  27.697  37.351  1.00  0.00     0.060 A 
BRANCH  44  45
ATOM     45  S   UNL A   1      48.291  26.962  38.210  1.00  0.00     0.124 S 
ATOM     46  O   UNL A   1      48.819  28.105  38.949  1.00  0.00    -0.237 OA
ATOM     47  O   UNL A   1      47.655  25.925  39.017  1.00  0.00    -0.237 OA
ATOM     48  O   UNL A   1      49.138  26.474  37.125  1.00  0.00    -0.744 OA
ENDBRANCH  44  45
ENDBRANCH  23  37
BRANCH  24  49
ATOM     49  C   UNL A   1      36.954  33.081  31.103  1.00  0.00     0.058 A 
ATOM     50  C   UNL A   1      35.632  32.772  31.448  1.00  0.00     0.135 A 
ATOM     51  C   UNL A   1      37.150  33.983  30.038  1.00  0.00     0.135 A 
ATOM     52  F   UNL A   1      35.384  31.939  32.469  1.00  0.00    -0.206 F 
ATOM     53  C   UNL A   1      34.550  33.297  30.744  1.00  0.00     0.059 A 
ATOM     54  C   UNL A   1      36.083  34.542  29.336  1.00  0.00     0.059 A 
ATOM     55  F   UNL A   1      38.392  34.350  29.687  1.00  0.00    -0.206 F 
ATOM     56  C   UNL A   1      34.785  34.178  29.685  1.00  0.00     0.060 A 
BRANCH  56  57
ATOM     57  S   UNL A   1      33.366  34.837  28.778  1.00  0.00     0.124 S 
ATOM     58  O   UNL A   1      33.959  35.981  28.095  1.00  0.00    -0.237 OA
ATOM     59  O   UNL A   1      32.997  33.710  27.930  1.00  0.00    -0.237 OA
ATOM     60  O   UNL A   1      32.409  35.162  29.832  1.00  0.00    -0.744 OA
ENDBRANCH  56  57
ENDBRANCH  24  49
BRANCH  36  61
ATOM     61  C   UNL A   1      40.148  34.357  37.161  1.00  0.00     0.058 A 
ATOM     62  C   UNL A   1      40.790  35.599  37.057  1.00  0.00     0.135 A 
ATOM     63  C   UNL A   1      39.261  34.144  38.225  1.00  0.00     0.135 A 
ATOM     64  F   UNL A   1      41.664  35.832  36.065  1.00  0.00    -0.206 F 
ATOM     65  C   UNL A   1      40.566  36.596  37.991  1.00  0.00     0.059 A 
ATOM     66  C   UNL A   1      38.987  35.144  39.143  1.00  0.00     0.059 A 
ATOM     67  F   UNL A   1      38.629  32.965  38.358  1.00  0.00    -0.206 F 
ATOM     68  C   UNL A   1      39.651  36.364  39.020  1.00  0.00     0.060 A 
BRANCH  68  69
ATOM     69  S   UNL A   1      39.312  37.702  40.173  1.00  0.00     0.124 S 
ATOM     70  O   UNL A   1      40.579  38.426  40.163  1.00  0.00    -0.237 OA
ATOM     71  O   UNL A   1      38.189  38.380  39.534  1.00  0.00    -0.237 OA
ATOM     72  O   UNL A   1      38.995  37.008  41.417  1.00  0.00    -0.744 OA
ENDBRANCH  68  69
ENDBRANCH  36  61
ENDBRANCH  10  11
ENDBRANCH   3   5
ENDBRANCH   2   3
ENDBRANCH   1   2
BRANCH   1  73
ATOM     73  C   UNL A   1      38.113  21.796  25.245  1.00  0.00     0.274 C 
BRANCH  73  74
ATOM     74  O   UNL A   1      36.789  22.130  24.791  1.00  0.00    -0.460 OA
BRANCH  74  75
ATOM     75  C   UNL A   1      36.298  22.641  23.640  1.00  0.00     0.334 C 
ATOM     76  O   UNL A   1      37.030  23.137  22.796  1.00  0.00    -0.250 OA
BRANCH  75  77
ATOM     77  C   UNL A   1      34.600  22.691  23.599  1.00  0.00     0.252 C 
ATOM     78  C   UNL A   1      34.191  24.190  23.663  1.00  0.00     0.298 C 
ATOM     79  N   UNL A   1      33.241  21.720  24.350  1.00  0.00    -0.300 N 
ATOM     80  N   UNL A   1      33.070  24.536  22.788  1.00  0.00    -0.343 N 
ATOM     81  C   UNL A   1      32.099  22.168  23.147  1.00  0.00     0.183 C 
ATOM     82  C   UNL A   1      31.895  23.706  23.046  1.00  0.00     0.282 C 
ATOM     83  H   UNL A   1      33.357  24.407  21.818  1.00  0.00     0.346 HD
ATOM     84  H   UNL A   1      32.815  25.506  22.973  1.00  0.00     0.346 HD
BRANCH  79  85
ATOM     85  C   UNL A   1      33.175  20.541  25.943  1.00  0.00     0.318 C 
ATOM     86  O   UNL A   1      33.287  20.694  27.205  1.00  0.00    -0.249 OA
ATOM     87  N   UNL A   1      33.004  18.917  25.913  1.00  0.00    -0.333 N 
ATOM     88  H   UNL A   1      33.324  18.569  26.777  1.00  0.00     0.165 HD
BRANCH  87  89
ATOM     89  C   UNL A   1      32.525  17.673  25.041  1.00  0.00     0.112 C 
ATOM     90  C   UNL A   1      32.552  16.361  25.799  1.00  0.00     0.056 C 
ATOM     91  C   UNL A   1      33.142  17.186  23.675  1.00  0.00     0.185 C 
ATOM     92  C   UNL A   1      33.558  15.471  25.075  1.00  0.00     0.162 C 
ATOM     93  O   UNL A   1      34.096  16.192  23.979  1.00  0.00    -0.379 OA
ENDBRANCH  87  89
ENDBRANCH  79  85
ENDBRANCH  75  77
ENDBRANCH  74  75
ENDBRANCH  73  74
ENDBRANCH   1  73
TORSDOF 16
ENDMDL
MODEL 2
REMARK VINA RESULT:     -12.2      6.779     12.087
REMARK SMILES O=C(OCCOC(=O)[C@@H]1C[NH2+]CCN1C(=O)N[C@@H]1CCOC1)c1ccc(-c2c3nc(c(-c4c(F)cc(S(=O)(=O)[O-])cc4F)c4ccc([nH]4)c(-c4c(F)cc(S(=O)(=O)[O-])cc4F)c4nc(c(-c5c(F)cc(S(=O)(=O)[O-])cc5F)c5ccc2[nH]5)C=C4)C=C3)cc1
REMARK SMILES IDX 4 1 3 2 2 3 1 4 23 5 24 6 88 7 25 8 87 9 26 10 27 11 28 12
REMARK SMILES IDX 81 13 29 14 86 15 80 16 82 17 30 18 85 19 79 20 78 21 31 23
REMARK SMILES IDX 65 24 44 25 64 26 45 27 48 28 63 29 83 30 46 31 47 32 62 34
REMARK SMILES IDX 84 35 49 36 32 37 33 38 42 39 34 40 35 41 41 42 43 43 36 44
REMARK SMILES IDX 37 45 38 46 39 47 40 48 66 49 67 50 76 51 68 52 69 53 75 54
REMARK SMILES IDX 77 55 70 56 71 57 72 58 73 59 74 60 50 61 51 62 60 63 52 64
REMARK SMILES IDX 53 65 59 66 61 67 54 68 55 69 56 70 57 71 58 72 5 73 6 74
REMARK SMILES IDX 7 75 8 76 9 77 10 78 14 79 11 80 13 81 12 82 15 85 16 86
REMARK SMILES IDX 17 87 18 89 19 90 22 91 20 92 21 93
REMARK H PARENT 82 22 48 33 11 83 11 84 17 88
REMARK Flexibility Score: inf
ROOT
ATOM      1  C   UNL A   1      33.962  30.636  27.253  1.00  0.00     0.275 C 
ENDROOT
BRANCH   1   2
ATOM      2  O   UNL A   1      34.627  30.654  28.523  1.00  0.00    -0.458 OA
BRANCH   2   3
ATOM      3  C   UNL A   1      35.670  31.398  28.941  1.00  0.00     0.338 C 
ATOM      4  O   UNL A   1      35.447  32.506  29.419  1.00  0.00    -0.246 OA
BRANCH   3   5
ATOM      5  C   UNL A   1      37.093  30.965  28.940  1.00  0.00     0.060 A 
ATOM      6  C   UNL A   1      38.321  31.050  30.303  1.00  0.00     0.016 A 
ATOM      7  C   UNL A   1      37.553  30.045  27.462  1.00  0.00     0.016 A 
ATOM      8  C   UNL A   1      40.016  30.330  30.104  1.00  0.00     0.010 A 
ATOM      9  C   UNL A   1      39.219  29.372  27.258  1.00  0.00     0.010 A 
ATOM     10  C   UNL A   1      40.473  29.531  28.564  1.00  0.00    -0.014 A 
BRANCH  10  11
ATOM     11  C   UNL A   1      41.911  29.089  28.400  1.00  0.00     0.031 A 
ATOM     12  C   UNL A   1      43.044  30.096  28.440  1.00  0.00     0.074 A 
ATOM     13  C   UNL A   1      42.221  27.770  28.306  1.00  0.00     0.049 A 
ATOM     14  N   UNL A   1      44.315  29.932  28.163  1.00  0.00    -0.248 NA
ATOM     15  C   UNL A   1      42.730  31.447  28.920  1.00  0.00     0.031 C 
ATOM     16  C   UNL A   1      41.302  26.642  28.484  1.00  0.00     0.029 A 
ATOM     17  N   UNL A   1      43.401  27.123  28.004  1.00  0.00    -0.354 N 
ATOM     18  C   UNL A   1      44.934  31.150  28.445  1.00  0.00     0.074 A 
ATOM     19  C   UNL A   1      43.902  32.060  28.866  1.00  0.00     0.031 C 
ATOM     20  C   UNL A   1      41.899  25.480  28.231  1.00  0.00     0.029 A 
ATOM     21  C   UNL A   1      43.239  25.762  27.801  1.00  0.00     0.049 A 
ATOM     22  H   UNL A   1      44.270  27.580  27.939  1.00  0.00     0.167 HD
ATOM     23  C   UNL A   1      46.252  31.468  28.390  1.00  0.00     0.037 A 
ATOM     24  C   UNL A   1      44.032  24.821  27.267  1.00  0.00     0.037 A 
ATOM     25  C   UNL A   1      47.261  30.525  27.986  1.00  0.00     0.049 A 
ATOM     26  C   UNL A   1      45.430  25.233  26.978  1.00  0.00     0.074 A 
ATOM     27  C   UNL A   1      48.617  30.724  27.811  1.00  0.00     0.029 A 
ATOM     28  N   UNL A   1      47.007  29.190  27.690  1.00  0.00    -0.354 N 
ATOM     29  N   UNL A   1      45.970  26.415  27.154  1.00  0.00    -0.248 NA
ATOM     30  C   UNL A   1      46.340  24.201  26.484  1.00  0.00     0.031 C 
ATOM     31  C   UNL A   1      49.165  29.532  27.324  1.00  0.00     0.029 A 
ATOM     32  C   UNL A   1      48.170  28.566  27.283  1.00  0.00     0.049 A 
ATOM     33  H   UNL A   1      46.127  28.755  27.760  1.00  0.00     0.167 HD
ATOM     34  C   UNL A   1      47.306  26.259  26.852  1.00  0.00     0.074 A 
ATOM     35  C   UNL A   1      47.486  24.867  26.474  1.00  0.00     0.031 C 
ATOM     36  C   UNL A   1      48.297  27.179  26.905  1.00  0.00     0.037 A 
BRANCH  23  37
ATOM     37  C   UNL A   1      46.639  32.897  28.683  1.00  0.00     0.058 A 
ATOM     38  C   UNL A   1      46.980  33.349  29.970  1.00  0.00     0.135 A 
ATOM     39  C   UNL A   1      46.621  33.850  27.650  1.00  0.00     0.135 A 
ATOM     40  F   UNL A   1      46.991  32.495  31.007  1.00  0.00    -0.206 F 
ATOM     41  C   UNL A   1      47.248  34.693  30.228  1.00  0.00     0.059 A 
ATOM     42  C   UNL A   1      46.917  35.192  27.878  1.00  0.00     0.059 A 
ATOM     43  F   UNL A   1      46.293  33.485  26.401  1.00  0.00    -0.206 F 
ATOM     44  C   UNL A   1      47.216  35.607  29.173  1.00  0.00     0.060 A 
BRANCH  44  45
ATOM     45  S   UNL A   1      47.579  37.342  29.517  1.00  0.00     0.124 S 
ATOM     46  O   UNL A   1      48.554  37.655  28.477  1.00  0.00    -0.237 OA
ATOM     47  O   UNL A   1      46.269  37.969  29.366  1.00  0.00    -0.237 OA
ATOM     48  O   UNL A   1      48.104  37.319  30.880  1.00  0.00    -0.744 OA
ENDBRANCH  44  45
ENDBRANCH  23  37
BRANCH  24  49
ATOM     49  C   UNL A   1      43.512  23.448  26.991  1.00  0.00     0.058 A 
ATOM     50  C   UNL A   1      43.264  23.004  25.686  1.00  0.00     0.135 A 
ATOM     51  C   UNL A   1      43.287  22.532  28.038  1.00  0.00     0.135 A 
ATOM     52  F   UNL A   1      43.483  23.823  24.648  1.00  0.00    -0.206 F 
ATOM     53  C   UNL A   1      42.773  21.725  25.428  1.00  0.00     0.059 A 
ATOM     54  C   UNL A   1      42.822  21.238  27.804  1.00  0.00     0.059 A 
ATOM     55  F   UNL A   1      43.544  22.885  29.307  1.00  0.00    -0.206 F 
ATOM     56  C   UNL A   1      42.550  20.850  26.495  1.00  0.00     0.060 A 
BRANCH  56  57
ATOM     57  S   UNL A   1      41.901  19.201  26.137  1.00  0.00     0.124 S 
ATOM     58  O   UNL A   1      42.646  18.846  24.934  1.00  0.00    -0.237 OA
ATOM     59  O   UNL A   1      42.256  18.465  27.346  1.00  0.00    -0.237 OA
ATOM     60  O   UNL A   1      40.472  19.431  25.946  1.00  0.00    -0.744 OA
ENDBRANCH  56  57
ENDBRANCH  24  49
BRANCH  36  61
ATOM     61  C   UNL A   1      49.665  26.687  26.567  1.00  0.00     0.058 A 
ATOM     62  C   UNL A   1      50.150  26.727  25.253  1.00  0.00     0.135 A 
ATOM     63  C   UNL A   1      50.512  26.230  27.586  1.00  0.00     0.135 A 
ATOM     64  F   UNL A   1      49.361  27.137  24.248  1.00  0.00    -0.206 F 
ATOM     65  C   UNL A   1      51.438  26.311  24.957  1.00  0.00     0.059 A 
ATOM     66  C   UNL A   1      51.818  25.854  27.319  1.00  0.00     0.059 A 
ATOM     67  F   UNL A   1      50.080  26.176  28.857  1.00  0.00    -0.206 F 
ATOM     68  C   UNL A   1      52.268  25.893  26.000  1.00  0.00     0.060 A 
BRANCH  68  69
ATOM     69  S   UNL A   1      53.963  25.438  25.605  1.00  0.00     0.124 S 
ATOM     70  O   UNL A   1      53.761  24.328  24.680  1.00  0.00    -0.237 OA
ATOM     71  O   UNL A   1      54.482  26.669  25.018  1.00  0.00    -0.237 OA
ATOM     72  O   UNL A   1      54.530  25.079  26.902  1.00  0.00    -0.744 OA
ENDBRANCH  68  69
ENDBRANCH  36  61
ENDBRANCH  10  11
ENDBRANCH   3   5
ENDBRANCH   2   3
ENDBRANCH   1   2
BRANCH   1  73
ATOM     73  C   UNL A   1      33.838  29.238  26.625  1.00  0.00     0.274 C 
BRANCH  73  74
ATOM     74  O   UNL A   1      32.464  28.904  26.359  1.00  0.00    -0.460 OA
BRANCH  74  75
ATOM     75  C   UNL A   1      31.680  27.851  26.682  1.00  0.00     0.334 C 
ATOM     76  O   UNL A   1      31.219  27.718  27.807  1.00  0.00    -0.250 OA
BRANCH  75  77
ATOM     77  C   UNL A   1      31.584  26.683  25.452  1.00  0.00     0.252 C 
ATOM     78  C   UNL A   1      30.512  27.180  24.441  1.00  0.00     0.298 C 
ATOM     79  N   UNL A   1      31.601  24.853  25.377  1.00  0.00    -0.300 N 
ATOM     80  N   UNL A   1      30.868  26.951  23.040  1.00  0.00    -0.343 N 
ATOM     81  C   UNL A   1      32.131  24.809  23.743  1.00  0.00     0.183 C 
ATOM     82  C   UNL A   1      31.167  25.546  22.771  1.00  0.00     0.282 C 
ATOM     83  H   UNL A   1      31.690  27.511  22.813  1.00  0.00     0.346 HD
ATOM     84  H   UNL A   1      30.069  27.218  22.465  1.00  0.00     0.346 HD
BRANCH  79  85
ATOM     85  C   UNL A   1      31.202  23.465  26.736  1.00  0.00     0.318 C 
ATOM     86  O   UNL A   1      30.230  23.195  27.516  1.00  0.00    -0.249 OA
ATOM     87  N   UNL A   1      32.226  22.285  27.212  1.00  0.00    -0.333 N 
ATOM     88  H   UNL A   1      31.917  21.960  28.088  1.00  0.00     0.165 HD
BRANCH  87  89
ATOM     89  C   UNL A   1      33.526  21.451  26.821  1.00  0.00     0.112 C 
ATOM     90  C   UNL A   1      34.748  22.315  26.585  1.00  0.00     0.056 C 
ATOM     91  C   UNL A   1      33.680  20.461  25.605  1.00  0.00     0.185 C 
ATOM     92  C   UNL A   1      35.142  22.106  25.126  1.00  0.00     0.162 C 
ATOM     93  O   UNL A   1      34.227  21.198  24.534  1.00  0.00    -0.379 OA
ENDBRANCH  87  89
ENDBRANCH  79  85
ENDBRANCH  75  77
ENDBRANCH  74  75
ENDBRANCH  73  74
ENDBRANCH   1  73
TORSDOF 16
ENDMDL
MODEL 3
REMARK VINA RESULT:     -12.2      5.141     10.541
REMARK SMILES O=C(OCCOC(=O)[C@@H]1C[NH2+]CCN1C(=O)N[C@@H]1CCOC1)c1ccc(-c2c3nc(c(-c4c(F)cc(S(=O)(=O)[O-])cc4F)c4ccc([nH]4)c(-c4c(F)cc(S(=O)(=O)[O-])cc4F)c4nc(c(-c5c(F)cc(S(=O)(=O)[O-])cc5F)c5ccc2[nH]5)C=C4)C=C3)cc1
REMARK SMILES IDX 4 1 3 2 2 3 1 4 23 5 24 6 88 7 25 8 87 9 26 10 27 11 28 12
REMARK SMILES IDX 81 13 29 14 86 15 80 16 82 17 30 18 85 19 79 20 78 21 31 23
REMARK SMILES IDX 65 24 44 25 64 26 45 27 48 28 63 29 83 30 46 31 47 32 62 34
REMARK SMILES IDX 84 35 49 36 32 37 33 38 42 39 34 40 35 41 41 42 43 43 36 44
REMARK SMILES IDX 37 45 38 46 39 47 40 48 66 49 67 50 76 51 68 52 69 53 75 54
REMARK SMILES IDX 77 55 70 56 71 57 72 58 73 59 74 60 50 61 51 62 60 63 52 64
REMARK SMILES IDX 53 65 59 66 61 67 54 68 55 69 56 70 57 71 58 72 5 73 6 74
REMARK SMILES IDX 7 75 8 76 9 77 10 78 14 79 11 80 13 81 12 82 15 85 16 86
REMARK SMILES IDX 17 87 18 89 19 90 22 91 20 92 21 93
REMARK H PARENT 82 22 48 33 11 83 11 84 17 88
REMARK Flexibility Score: inf
ROOT
ATOM      1  C   UNL A   1      32.902  28.376  27.440  1.00  0.00     0.275 C 
ENDROOT
BRANCH   1   2
ATOM      2  O   UNL A   1      33.133  29.775  27.234  1.00  0.00    -0.458 OA
BRANCH   2   3
ATOM      3  C   UNL A   1      34.015  30.602  27.828  1.00  0.00     0.338 C 
ATOM      4  O   UNL A   1      33.654  31.741  28.112  1.00  0.00    -0.246 OA
BRANCH   3   5
ATOM      5  C   UNL A   1      35.395  30.235  28.245  1.00  0.00     0.060 A 
ATOM      6  C   UNL A   1      35.994  29.703  29.898  1.00  0.00     0.016 A 
ATOM      7  C   UNL A   1      36.540  30.097  26.862  1.00  0.00     0.016 A 
ATOM      8  C   UNL A   1      37.751  29.175  30.149  1.00  0.00     0.010 A 
ATOM      9  C   UNL A   1      38.264  29.612  27.117  1.00  0.00     0.010 A 
ATOM     10  C   UNL A   1      38.892  29.173  28.765  1.00  0.00    -0.014 A 
BRANCH  10  11
ATOM     11  C   UNL A   1      40.347  28.873  29.052  1.00  0.00     0.031 A 
ATOM     12  C   UNL A   1      41.276  29.952  29.572  1.00  0.00     0.074 A 
ATOM     13  C   UNL A   1      40.826  27.608  28.935  1.00  0.00     0.049 A 
ATOM     14  N   UNL A   1      42.578  29.928  29.725  1.00  0.00    -0.248 NA
ATOM     15  C   UNL A   1      40.663  31.197  30.052  1.00  0.00     0.031 C 
ATOM     16  C   UNL A   1      40.041  26.397  28.677  1.00  0.00     0.029 A 
ATOM     17  N   UNL A   1      42.109  27.102  28.984  1.00  0.00    -0.354 N 
ATOM     18  C   UNL A   1      42.922  31.142  30.321  1.00  0.00     0.074 A 
ATOM     19  C   UNL A   1      41.707  31.902  30.459  1.00  0.00     0.031 C 
ATOM     20  C   UNL A   1      40.822  25.330  28.525  1.00  0.00     0.029 A 
ATOM     21  C   UNL A   1      42.185  25.773  28.602  1.00  0.00     0.049 A 
ATOM     22  H   UNL A   1      42.890  27.631  29.262  1.00  0.00     0.167 HD
ATOM     23  C   UNL A   1      44.137  31.568  30.745  1.00  0.00     0.037 A 
ATOM     24  C   UNL A   1      43.216  24.978  28.275  1.00  0.00     0.037 A 
ATOM     25  C   UNL A   1      45.329  30.771  30.612  1.00  0.00     0.049 A 
ATOM     26  C   UNL A   1      44.571  25.535  28.517  1.00  0.00     0.074 A 
ATOM     27  C   UNL A   1      46.634  31.098  30.925  1.00  0.00     0.029 A 
ATOM     28  N   UNL A   1      45.346  29.473  30.114  1.00  0.00    -0.354 N 
ATOM     29  N   UNL A   1      44.879  26.721  28.983  1.00  0.00    -0.248 NA
ATOM     30  C   UNL A   1      45.709  24.654  28.257  1.00  0.00     0.031 C 
ATOM     31  C   UNL A   1      47.449  30.031  30.534  1.00  0.00     0.029 A 
ATOM     32  C   UNL A   1      46.644  29.003  30.062  1.00  0.00     0.049 A 
ATOM     33  H   UNL A   1      44.549  28.963  29.840  1.00  0.00     0.167 HD
ATOM     34  C   UNL A   1      46.250  26.714  29.135  1.00  0.00     0.074 A 
ATOM     35  C   UNL A   1      46.708  25.404  28.702  1.00  0.00     0.031 C 
ATOM     36  C   UNL A   1      47.053  27.694  29.611  1.00  0.00     0.037 A 
BRANCH  23  37
ATOM     37  C   UNL A   1      44.235  32.970  31.294  1.00  0.00     0.058 A 
ATOM     38  C   UNL A   1      44.494  34.092  30.487  1.00  0.00     0.135 A 
ATOM     39  C   UNL A   1      44.113  33.187  32.678  1.00  0.00     0.135 A 
ATOM     40  F   UNL A   1      44.647  33.950  29.160  1.00  0.00    -0.206 F 
ATOM     41  C   UNL A   1      44.666  35.364  31.032  1.00  0.00     0.059 A 
ATOM     42  C   UNL A   1      44.249  34.453  33.241  1.00  0.00     0.059 A 
ATOM     43  F   UNL A   1      43.877  32.157  33.504  1.00  0.00    -0.206 F 
ATOM     44  C   UNL A   1      44.540  35.534  32.412  1.00  0.00     0.060 A 
BRANCH  44  45
ATOM     45  S   UNL A   1      44.752  37.189  33.105  1.00  0.00     0.124 S 
ATOM     46  O   UNL A   1      46.170  37.434  32.862  1.00  0.00    -0.237 OA
ATOM     47  O   UNL A   1      43.826  37.981  32.302  1.00  0.00    -0.237 OA
ATOM     48  O   UNL A   1      44.377  37.024  34.507  1.00  0.00    -0.744 OA
ENDBRANCH  44  45
ENDBRANCH  23  37
BRANCH  24  49
ATOM     49  C   UNL A   1      42.981  23.618  27.703  1.00  0.00     0.058 A 
ATOM     50  C   UNL A   1      43.072  23.374  26.327  1.00  0.00     0.135 A 
ATOM     51  C   UNL A   1      42.697  22.518  28.537  1.00  0.00     0.135 A 
ATOM     52  F   UNL A   1      43.364  24.377  25.487  1.00  0.00    -0.206 F 
ATOM     53  C   UNL A   1      42.848  22.106  25.791  1.00  0.00     0.059 A 
ATOM     54  C   UNL A   1      42.496  21.236  28.028  1.00  0.00     0.059 A 
ATOM     55  F   UNL A   1      42.637  22.680  29.868  1.00  0.00    -0.206 F 
ATOM     56  C   UNL A   1      42.555  21.043  26.650  1.00  0.00     0.060 A 
BRANCH  56  57
ATOM     57  S   UNL A   1      42.256  19.411  25.932  1.00  0.00     0.124 S 
ATOM     58  O   UNL A   1      42.740  18.531  26.991  1.00  0.00    -0.237 OA
ATOM     59  O   UNL A   1      40.812  19.428  25.727  1.00  0.00    -0.237 OA
ATOM     60  O   UNL A   1      43.058  19.423  24.712  1.00  0.00    -0.744 OA
ENDBRANCH  56  57
ENDBRANCH  24  49
BRANCH  36  61
ATOM     61  C   UNL A   1      48.504  27.362  29.707  1.00  0.00     0.058 A 
ATOM     62  C   UNL A   1      49.393  27.676  28.670  1.00  0.00     0.135 A 
ATOM     63  C   UNL A   1      49.010  26.779  30.877  1.00  0.00     0.135 A 
ATOM     64  F   UNL A   1      48.942  28.214  27.526  1.00  0.00    -0.206 F 
ATOM     65  C   UNL A   1      50.747  27.406  28.788  1.00  0.00     0.059 A 
ATOM     66  C   UNL A   1      50.366  26.544  31.033  1.00  0.00     0.059 A 
ATOM     67  F   UNL A   1      48.187  26.463  31.890  1.00  0.00    -0.206 F 
ATOM     68  C   UNL A   1      51.224  26.856  29.979  1.00  0.00     0.060 A 
BRANCH  68  69
ATOM     69  S   UNL A   1      52.996  26.592  30.143  1.00  0.00     0.124 S 
ATOM     70  O   UNL A   1      53.454  27.918  30.543  1.00  0.00    -0.237 OA
ATOM     71  O   UNL A   1      53.059  25.560  31.173  1.00  0.00    -0.237 OA
ATOM     72  O   UNL A   1      53.401  26.165  28.807  1.00  0.00    -0.744 OA
ENDBRANCH  68  69
ENDBRANCH  36  61
ENDBRANCH  10  11
ENDBRANCH   3   5
ENDBRANCH   2   3
ENDBRANCH   1   2
BRANCH   1  73
ATOM     73  C   UNL A   1      33.436  27.475  26.313  1.00  0.00     0.274 C 
BRANCH  73  74
ATOM     74  O   UNL A   1      32.379  26.704  25.716  1.00  0.00    -0.460 OA
BRANCH  74  75
ATOM     75  C   UNL A   1      31.929  25.441  25.893  1.00  0.00     0.334 C 
ATOM     76  O   UNL A   1      31.237  25.138  26.854  1.00  0.00    -0.250 OA
BRANCH  75  77
ATOM     77  C   UNL A   1      32.578  24.335  24.779  1.00  0.00     0.252 C 
ATOM     78  C   UNL A   1      31.554  24.213  23.615  1.00  0.00     0.298 C 
ATOM     79  N   UNL A   1      33.480  22.744  24.885  1.00  0.00    -0.300 N 
ATOM     80  N   UNL A   1      32.170  24.140  22.289  1.00  0.00    -0.343 N 
ATOM     81  C   UNL A   1      34.192  22.910  23.329  1.00  0.00     0.183 C 
ATOM     82  C   UNL A   1      33.140  23.051  22.192  1.00  0.00     0.282 C 
ATOM     83  H   UNL A   1      32.646  25.022  22.099  1.00  0.00     0.346 HD
ATOM     84  H   UNL A   1      31.431  23.964  21.609  1.00  0.00     0.346 HD
BRANCH  79  85
ATOM     85  C   UNL A   1      33.608  21.384  26.322  1.00  0.00     0.318 C 
ATOM     86  O   UNL A   1      33.975  21.369  27.544  1.00  0.00    -0.249 OA
ATOM     87  N   UNL A   1      33.277  19.793  26.151  1.00  0.00    -0.333 N 
ATOM     88  H   UNL A   1      33.722  19.317  26.889  1.00  0.00     0.165 HD
BRANCH  87  89
ATOM     89  C   UNL A   1      32.521  18.707  25.265  1.00  0.00     0.112 C 
ATOM     90  C   UNL A   1      32.876  17.280  25.630  1.00  0.00     0.056 C 
ATOM     91  C   UNL A   1      32.556  18.581  23.695  1.00  0.00     0.185 C 
ATOM     92  C   UNL A   1      33.533  16.674  24.393  1.00  0.00     0.162 C 
ATOM     93  O   UNL A   1      33.575  17.660  23.373  1.00  0.00    -0.379 OA
ENDBRANCH  87  89
ENDBRANCH  79  85
ENDBRANCH  75  77
ENDBRANCH  74  75
ENDBRANCH  73  74
ENDBRANCH   1  73
TORSDOF 16
ENDMDL
