MODEL 1
REMARK VINA RESULT:     -10.4      0.000      0.000
REMARK SMILES N#C[C@@H]1CN(C(=O)N[C@@H](Cc2cnc[nH]2)C(=O)OCCOC(=O)c2ccc(-c3c4nc(c(-c5c(F)cc(S(=O)(=O)[O-])cc5F)c5ccc([nH]5)c(-c5c(F)cc(S(=O)(=O)[O-])cc5F)c5nc(c(-c6c(F)cc(S(=O)(=O)[O-])cc6F)c6ccc3[nH]6)C=C5)C=C4)cc2)CCO1
REMARK SMILES IDX 19 1 18 2 16 3 17 4 9 5 8 6 6 7 7 8 5 10 3 11 4 12 92 13
REMARK SMILES IDX 91 14 90 15 2 16 1 17 10 18 11 19 12 20 15 21 13 22 14 23
REMARK SMILES IDX 20 25 21 26 22 27 23 28 24 29 25 30 89 31 26 32 88 33 27 34
REMARK SMILES IDX 28 35 29 36 82 37 30 38 87 39 81 40 83 41 31 42 86 43 80 44
REMARK SMILES IDX 79 45 32 47 66 48 45 49 65 50 46 51 49 52 64 53 84 54 47 55
REMARK SMILES IDX 48 56 63 58 85 59 50 60 33 61 34 62 43 63 35 64 36 65 42 66
REMARK SMILES IDX 44 67 37 68 38 69 39 70 40 71 41 72 67 73 68 74 77 75 69 76
REMARK SMILES IDX 70 77 76 78 78 79 71 80 72 81 73 82 74 83 75 84 51 85 52 86
REMARK SMILES IDX 61 87 53 88 54 89 60 90 62 91 55 92 56 93 57 94 58 95 59 96
REMARK H PARENT 8 9 15 24 83 46 49 57
REMARK Flexibility Score: inf
ROOT
ATOM      1  C   UNL A   1      41.979  21.187  26.986  1.00  0.00     0.274 C 
ENDROOT
BRANCH   1   2
ATOM      2  O   UNL A   1      42.738  21.543  25.805  1.00  0.00    -0.461 OA
BRANCH   2   3
ATOM      3  C   UNL A   1      43.780  22.410  25.998  1.00  0.00     0.329 C 
ATOM      4  O   UNL A   1      44.375  22.569  27.060  1.00  0.00    -0.250 OA
BRANCH   3   5
ATOM      5  C   UNL A   1      44.231  23.047  24.660  1.00  0.00     0.199 C 
BRANCH   5   6
ATOM      6  N   UNL A   1      44.262  24.519  24.670  1.00  0.00    -0.324 N 
ATOM      7  C   UNL A   1      44.959  25.485  25.294  1.00  0.00     0.318 C 
ATOM      8  O   UNL A   1      44.419  26.595  25.296  1.00  0.00    -0.249 OA
ATOM      9  H   UNL A   1      43.594  24.898  24.055  1.00  0.00     0.166 HD
BRANCH   7  10
ATOM     10  N   UNL A   1      46.182  25.290  25.876  1.00  0.00    -0.319 N 
ATOM     11  C   UNL A   1      48.238  26.548  25.332  1.00  0.00     0.240 C 
ATOM     12  C   UNL A   1      47.502  25.199  25.238  1.00  0.00     0.169 C 
ATOM     13  O   UNL A   1      48.409  26.873  26.739  1.00  0.00    -0.360 OA
ATOM     14  C   UNL A   1      47.157  26.942  27.456  1.00  0.00     0.183 C 
ATOM     15  C   UNL A   1      46.326  25.652  27.302  1.00  0.00     0.150 C 
BRANCH  11  16
ATOM     16  C   UNL A   1      47.439  27.640  24.641  1.00  0.00     0.096 C 
ATOM     17  N   UNL A   1      46.776  28.547  24.068  1.00  0.00    -0.195 NA
ENDBRANCH  11  16
ENDBRANCH   7  10
ENDBRANCH   5   6
BRANCH   5  18
ATOM     18  C   UNL A   1      45.562  22.456  24.163  1.00  0.00     0.092 C 
BRANCH  18  19
ATOM     19  C   UNL A   1      45.582  20.965  24.122  1.00  0.00     0.037 A 
ATOM     20  C   UNL A   1      46.349  20.013  24.761  1.00  0.00     0.134 A 
ATOM     21  N   UNL A   1      44.668  20.241  23.395  1.00  0.00    -0.348 N 
ATOM     22  N   UNL A   1      45.909  18.750  24.459  1.00  0.00    -0.245 NA
ATOM     23  C   UNL A   1      44.892  18.919  23.644  1.00  0.00     0.196 A 
ATOM     24  H   UNL A   1      43.975  20.611  22.800  1.00  0.00     0.167 HD
ENDBRANCH  18  19
ENDBRANCH   5  18
ENDBRANCH   3   5
ENDBRANCH   2   3
ENDBRANCH   1   2
BRANCH   1  25
ATOM     25  C   UNL A   1      41.302  22.455  27.570  1.00  0.00     0.275 C 
BRANCH  25  26
ATOM     26  O   UNL A   1      40.438  23.286  26.732  1.00  0.00    -0.458 OA
BRANCH  26  27
ATOM     27  C   UNL A   1      40.758  24.576  26.566  1.00  0.00     0.338 C 
ATOM     28  O   UNL A   1      41.655  24.990  25.822  1.00  0.00    -0.246 OA
BRANCH  27  29
ATOM     29  C   UNL A   1      40.067  25.586  27.408  1.00  0.00     0.060 A 
ATOM     30  C   UNL A   1      40.680  26.831  27.326  1.00  0.00     0.016 A 
ATOM     31  C   UNL A   1      39.198  25.332  28.482  1.00  0.00     0.016 A 
ATOM     32  C   UNL A   1      40.645  27.680  28.413  1.00  0.00     0.010 A 
ATOM     33  C   UNL A   1      39.066  26.287  29.536  1.00  0.00     0.010 A 
ATOM     34  C   UNL A   1      39.841  27.458  29.553  1.00  0.00    -0.014 A 
BRANCH  34  35
ATOM     35  C   UNL A   1      39.942  28.473  30.675  1.00  0.00     0.031 A 
ATOM     36  C   UNL A   1      41.034  28.494  31.737  1.00  0.00     0.074 A 
ATOM     37  C   UNL A   1      39.118  29.550  30.630  1.00  0.00     0.049 A 
ATOM     38  N   UNL A   1      41.163  29.329  32.746  1.00  0.00    -0.248 NA
ATOM     39  C   UNL A   1      42.104  27.487  31.680  1.00  0.00     0.031 C 
ATOM     40  C   UNL A   1      38.022  29.728  29.671  1.00  0.00     0.029 A 
ATOM     41  N   UNL A   1      39.114  30.732  31.334  1.00  0.00    -0.354 N 
ATOM     42  C   UNL A   1      42.284  28.921  33.468  1.00  0.00     0.074 A 
ATOM     43  C   UNL A   1      42.827  27.781  32.759  1.00  0.00     0.031 C 
ATOM     44  C   UNL A   1      37.596  30.991  29.711  1.00  0.00     0.029 A 
ATOM     45  C   UNL A   1      38.174  31.630  30.882  1.00  0.00     0.049 A 
ATOM     46  H   UNL A   1      39.722  30.917  32.087  1.00  0.00     0.167 HD
ATOM     47  C   UNL A   1      42.793  29.438  34.616  1.00  0.00     0.037 A 
ATOM     48  C   UNL A   1      37.698  32.782  31.392  1.00  0.00     0.037 A 
ATOM     49  C   UNL A   1      42.290  30.609  35.304  1.00  0.00     0.049 A 
ATOM     50  C   UNL A   1      38.194  33.261  32.710  1.00  0.00     0.074 A 
ATOM     51  C   UNL A   1      42.776  31.201  36.463  1.00  0.00     0.029 A 
ATOM     52  N   UNL A   1      41.200  31.367  34.911  1.00  0.00    -0.354 N 
ATOM     53  N   UNL A   1      39.164  32.775  33.442  1.00  0.00    -0.248 NA
ATOM     54  C   UNL A   1      37.486  34.400  33.306  1.00  0.00     0.031 C 
ATOM     55  C   UNL A   1      41.951  32.282  36.796  1.00  0.00     0.029 A 
ATOM     56  C   UNL A   1      40.978  32.393  35.821  1.00  0.00     0.049 A 
ATOM     57  H   UNL A   1      40.661  31.202  34.103  1.00  0.00     0.167 HD
ATOM     58  C   UNL A   1      39.147  33.515  34.615  1.00  0.00     0.074 A 
ATOM     59  C   UNL A   1      38.111  34.517  34.469  1.00  0.00     0.031 C 
ATOM     60  C   UNL A   1      39.913  33.353  35.719  1.00  0.00     0.037 A 
BRANCH  47  61
ATOM     61  C   UNL A   1      43.941  28.735  35.299  1.00  0.00     0.058 A 
ATOM     62  C   UNL A   1      43.738  27.682  36.202  1.00  0.00     0.135 A 
ATOM     63  C   UNL A   1      45.254  28.970  34.849  1.00  0.00     0.135 A 
ATOM     64  F   UNL A   1      42.506  27.411  36.658  1.00  0.00    -0.206 F 
ATOM     65  C   UNL A   1      44.794  26.866  36.614  1.00  0.00     0.059 A 
ATOM     66  C   UNL A   1      46.319  28.161  35.238  1.00  0.00     0.059 A 
ATOM     67  F   UNL A   1      45.498  29.956  33.972  1.00  0.00    -0.206 F 
ATOM     68  C   UNL A   1      46.077  27.104  36.114  1.00  0.00     0.060 A 
BRANCH  68  69
ATOM     69  S   UNL A   1      47.414  25.971  36.562  1.00  0.00     0.124 S 
ATOM     70  O   UNL A   1      46.680  24.732  36.801  1.00  0.00    -0.237 OA
ATOM     71  O   UNL A   1      48.254  25.989  35.368  1.00  0.00    -0.237 OA
ATOM     72  O   UNL A   1      48.003  26.590  37.745  1.00  0.00    -0.744 OA
ENDBRANCH  68  69
ENDBRANCH  47  61
BRANCH  48  73
ATOM     73  C   UNL A   1      36.521  33.411  30.739  1.00  0.00     0.058 A 
ATOM     74  C   UNL A   1      35.226  33.251  31.239  1.00  0.00     0.135 A 
ATOM     75  C   UNL A   1      36.709  34.271  29.641  1.00  0.00     0.135 A 
ATOM     76  F   UNL A   1      34.997  32.420  32.266  1.00  0.00    -0.206 F 
ATOM     77  C   UNL A   1      34.156  33.960  30.699  1.00  0.00     0.059 A 
ATOM     78  C   UNL A   1      35.669  35.021  29.119  1.00  0.00     0.059 A 
ATOM     79  F   UNL A   1      37.939  34.458  29.135  1.00  0.00    -0.206 F 
ATOM     80  C   UNL A   1      34.394  34.858  29.655  1.00  0.00     0.060 A 
BRANCH  80  81
ATOM     81  S   UNL A   1      33.053  35.903  29.049  1.00  0.00     0.124 S 
ATOM     82  O   UNL A   1      32.456  36.360  30.298  1.00  0.00    -0.237 OA
ATOM     83  O   UNL A   1      33.763  36.913  28.270  1.00  0.00    -0.237 OA
ATOM     84  O   UNL A   1      32.251  34.972  28.262  1.00  0.00    -0.744 OA
ENDBRANCH  80  81
ENDBRANCH  48  73
BRANCH  60  85
ATOM     85  C   UNL A   1      39.627  34.277  36.864  1.00  0.00     0.058 A 
ATOM     86  C   UNL A   1      40.211  35.553  36.924  1.00  0.00     0.135 A 
ATOM     87  C   UNL A   1      38.833  33.865  37.943  1.00  0.00     0.135 A 
ATOM     88  F   UNL A   1      40.993  35.986  35.922  1.00  0.00    -0.206 F 
ATOM     89  C   UNL A   1      40.059  36.369  38.040  1.00  0.00     0.059 A 
ATOM     90  C   UNL A   1      38.650  34.673  39.061  1.00  0.00     0.059 A 
ATOM     91  F   UNL A   1      38.253  32.655  37.933  1.00  0.00    -0.206 F 
ATOM     92  C   UNL A   1      39.291  35.912  39.111  1.00  0.00     0.060 A 
BRANCH  92  93
ATOM     93  S   UNL A   1      39.149  36.947  40.584  1.00  0.00     0.124 S 
ATOM     94  O   UNL A   1      38.459  36.050  41.505  1.00  0.00    -0.237 OA
ATOM     95  O   UNL A   1      40.544  37.234  40.905  1.00  0.00    -0.237 OA
ATOM     96  O   UNL A   1      38.371  38.091  40.119  1.00  0.00    -0.744 OA
ENDBRANCH  92  93
ENDBRANCH  60  85
ENDBRANCH  34  35
ENDBRANCH  27  29
ENDBRANCH  26  27
ENDBRANCH  25  26
ENDBRANCH   1  25
TORSDOF 19
ENDMDL
MODEL 2
REMARK VINA RESULT:     -10.2      5.211     10.699
REMARK SMILES N#C[C@@H]1CN(C(=O)N[C@@H](Cc2cnc[nH]2)C(=O)OCCOC(=O)c2ccc(-c3c4nc(c(-c5c(F)cc(S(=O)(=O)[O-])cc5F)c5ccc([nH]5)c(-c5c(F)cc(S(=O)(=O)[O-])cc5F)c5nc(c(-c6c(F)cc(S(=O)(=O)[O-])cc6F)c6ccc3[nH]6)C=C5)C=C4)cc2)CCO1
REMARK SMILES IDX 19 1 18 2 16 3 17 4 9 5 8 6 6 7 7 8 5 10 3 11 4 12 92 13
REMARK SMILES IDX 91 14 90 15 2 16 1 17 10 18 11 19 12 20 15 21 13 22 14 23
REMARK SMILES IDX 20 25 21 26 22 27 23 28 24 29 25 30 89 31 26 32 88 33 27 34
REMARK SMILES IDX 28 35 29 36 82 37 30 38 87 39 81 40 83 41 31 42 86 43 80 44
REMARK SMILES IDX 79 45 32 47 66 48 45 49 65 50 46 51 49 52 64 53 84 54 47 55
REMARK SMILES IDX 48 56 63 58 85 59 50 60 33 61 34 62 43 63 35 64 36 65 42 66
REMARK SMILES IDX 44 67 37 68 38 69 39 70 40 71 41 72 67 73 68 74 77 75 69 76
REMARK SMILES IDX 70 77 76 78 78 79 71 80 72 81 73 82 74 83 75 84 51 85 52 86
REMARK SMILES IDX 61 87 53 88 54 89 60 90 62 91 55 92 56 93 57 94 58 95 59 96
REMARK H PARENT 8 9 15 24 83 46 49 57
REMARK Flexibility Score: inf
ROOT
ATOM      1  C   UNL A   1      32.179  29.243  25.424  1.00  0.00     0.274 C 
ENDROOT
BRANCH   1   2
ATOM      2  O   UNL A   1      32.829  27.984  25.125  1.00  0.00    -0.461 OA
BRANCH   2   3
ATOM      3  C   UNL A   1      33.234  27.809  23.829  1.00  0.00     0.329 C 
ATOM      4  O   UNL A   1      34.043  28.524  23.243  1.00  0.00    -0.250 OA
BRANCH   3   5
ATOM      5  C   UNL A   1      32.674  26.490  23.242  1.00  0.00     0.199 C 
BRANCH   5   6
ATOM      6  N   UNL A   1      32.087  25.582  24.242  1.00  0.00    -0.324 N 
ATOM      7  C   UNL A   1      32.300  24.329  24.679  1.00  0.00     0.318 C 
ATOM      8  O   UNL A   1      31.346  23.818  25.273  1.00  0.00    -0.249 OA
ATOM      9  H   UNL A   1      31.339  26.007  24.720  1.00  0.00     0.166 HD
BRANCH   7  10
ATOM     10  N   UNL A   1      33.476  23.650  24.510  1.00  0.00    -0.319 N 
ATOM     11  C   UNL A   1      34.744  22.523  26.307  1.00  0.00     0.240 C 
ATOM     12  C   UNL A   1      34.698  23.707  25.324  1.00  0.00     0.169 C 
ATOM     13  O   UNL A   1      34.743  21.292  25.533  1.00  0.00    -0.360 OA
ATOM     14  C   UNL A   1      33.592  21.173  24.669  1.00  0.00     0.183 C 
ATOM     15  C   UNL A   1      33.434  22.391  23.737  1.00  0.00     0.150 C 
BRANCH  11  16
ATOM     16  C   UNL A   1      33.540  22.553  27.235  1.00  0.00     0.096 C 
ATOM     17  N   UNL A   1      32.541  22.578  28.004  1.00  0.00    -0.195 NA
ENDBRANCH  11  16
ENDBRANCH   7  10
ENDBRANCH   5   6
BRANCH   5  18
ATOM     18  C   UNL A   1      31.705  26.746  22.074  1.00  0.00     0.092 C 
BRANCH  18  19
ATOM     19  C   UNL A   1      30.639  27.743  22.383  1.00  0.00     0.037 A 
ATOM     20  C   UNL A   1      29.477  27.684  23.124  1.00  0.00     0.134 A 
ATOM     21  N   UNL A   1      30.719  29.051  21.968  1.00  0.00    -0.348 N 
ATOM     22  N   UNL A   1      28.876  28.915  23.186  1.00  0.00    -0.245 NA
ATOM     23  C   UNL A   1      29.650  29.718  22.491  1.00  0.00     0.196 A 
ATOM     24  H   UNL A   1      31.422  29.437  21.397  1.00  0.00     0.167 HD
ENDBRANCH  18  19
ENDBRANCH   5  18
ENDBRANCH   3   5
ENDBRANCH   2   3
ENDBRANCH   1   2
BRANCH   1  25
ATOM     25  C   UNL A   1      33.176  30.182  26.152  1.00  0.00     0.275 C 
BRANCH  25  26
ATOM     26  O   UNL A   1      32.703  31.113  27.177  1.00  0.00    -0.458 OA
BRANCH  26  27
ATOM     27  C   UNL A   1      33.568  32.004  27.679  1.00  0.00     0.338 C 
ATOM     28  O   UNL A   1      33.272  33.151  28.033  1.00  0.00    -0.246 OA
BRANCH  27  29
ATOM     29  C   UNL A   1      35.007  31.640  27.723  1.00  0.00     0.060 A 
ATOM     30  C   UNL A   1      35.187  30.274  27.910  1.00  0.00     0.016 A 
ATOM     31  C   UNL A   1      36.085  32.503  27.978  1.00  0.00     0.016 A 
ATOM     32  C   UNL A   1      36.301  29.820  28.587  1.00  0.00     0.010 A 
ATOM     33  C   UNL A   1      37.288  31.992  28.553  1.00  0.00     0.010 A 
ATOM     34  C   UNL A   1      37.396  30.644  28.930  1.00  0.00    -0.014 A 
BRANCH  34  35
ATOM     35  C   UNL A   1      38.529  29.996  29.702  1.00  0.00     0.031 A 
ATOM     36  C   UNL A   1      39.591  29.088  29.094  1.00  0.00     0.074 A 
ATOM     37  C   UNL A   1      38.730  30.392  30.984  1.00  0.00     0.049 A 
ATOM     38  N   UNL A   1      40.580  28.478  29.711  1.00  0.00    -0.248 NA
ATOM     39  C   UNL A   1      39.564  28.827  27.647  1.00  0.00     0.031 C 
ATOM     40  C   UNL A   1      37.835  31.278  31.737  1.00  0.00     0.029 A 
ATOM     41  N   UNL A   1      39.774  30.186  31.854  1.00  0.00    -0.354 N 
ATOM     42  C   UNL A   1      41.254  27.726  28.750  1.00  0.00     0.074 A 
ATOM     43  C   UNL A   1      40.584  27.984  27.493  1.00  0.00     0.031 C 
ATOM     44  C   UNL A   1      38.448  31.691  32.847  1.00  0.00     0.029 A 
ATOM     45  C   UNL A   1      39.644  30.885  33.033  1.00  0.00     0.049 A 
ATOM     46  H   UNL A   1      40.539  29.598  31.655  1.00  0.00     0.167 HD
ATOM     47  C   UNL A   1      42.314  26.890  28.909  1.00  0.00     0.037 A 
ATOM     48  C   UNL A   1      40.302  30.819  34.207  1.00  0.00     0.037 A 
ATOM     49  C   UNL A   1      43.024  26.665  30.151  1.00  0.00     0.049 A 
ATOM     50  C   UNL A   1      41.382  29.811  34.387  1.00  0.00     0.074 A 
ATOM     51  C   UNL A   1      44.124  25.847  30.376  1.00  0.00     0.029 A 
ATOM     52  N   UNL A   1      42.719  27.247  31.370  1.00  0.00    -0.354 N 
ATOM     53  N   UNL A   1      41.906  29.011  33.495  1.00  0.00    -0.248 NA
ATOM     54  C   UNL A   1      41.908  29.646  35.747  1.00  0.00     0.031 C 
ATOM     55  C   UNL A   1      44.449  25.896  31.737  1.00  0.00     0.029 A 
ATOM     56  C   UNL A   1      43.584  26.779  32.352  1.00  0.00     0.049 A 
ATOM     57  H   UNL A   1      41.996  27.899  31.518  1.00  0.00     0.167 HD
ATOM     58  C   UNL A   1      42.790  28.204  34.197  1.00  0.00     0.074 A 
ATOM     59  C   UNL A   1      42.769  28.653  35.575  1.00  0.00     0.031 C 
ATOM     60  C   UNL A   1      43.529  27.169  33.735  1.00  0.00     0.037 A 
BRANCH  47  61
ATOM     61  C   UNL A   1      42.787  26.065  27.738  1.00  0.00     0.058 A 
ATOM     62  C   UNL A   1      43.872  26.455  26.941  1.00  0.00     0.135 A 
ATOM     63  C   UNL A   1      42.292  24.757  27.577  1.00  0.00     0.135 A 
ATOM     64  F   UNL A   1      44.386  27.688  27.057  1.00  0.00    -0.206 F 
ATOM     65  C   UNL A   1      44.469  25.568  26.044  1.00  0.00     0.059 A 
ATOM     66  C   UNL A   1      42.880  23.853  26.697  1.00  0.00     0.059 A 
ATOM     67  F   UNL A   1      41.264  24.329  28.328  1.00  0.00    -0.206 F 
ATOM     68  C   UNL A   1      43.976  24.264  25.941  1.00  0.00     0.060 A 
BRANCH  68  69
ATOM     69  S   UNL A   1      44.830  23.089  24.863  1.00  0.00     0.124 S 
ATOM     70  O   UNL A   1      45.846  23.939  24.250  1.00  0.00    -0.237 OA
ATOM     71  O   UNL A   1      45.324  22.095  25.811  1.00  0.00    -0.237 OA
ATOM     72  O   UNL A   1      43.777  22.623  23.966  1.00  0.00    -0.744 OA
ENDBRANCH  68  69
ENDBRANCH  47  61
BRANCH  48  73
ATOM     73  C   UNL A   1      39.767  31.587  35.360  1.00  0.00     0.058 A 
ATOM     74  C   UNL A   1      38.655  31.151  36.087  1.00  0.00     0.135 A 
ATOM     75  C   UNL A   1      40.444  32.737  35.806  1.00  0.00     0.135 A 
ATOM     76  F   UNL A   1      37.965  30.075  35.682  1.00  0.00    -0.206 F 
ATOM     77  C   UNL A   1      38.255  31.807  37.248  1.00  0.00     0.059 A 
ATOM     78  C   UNL A   1      40.092  33.377  36.983  1.00  0.00     0.059 A 
ATOM     79  F   UNL A   1      41.521  33.185  35.141  1.00  0.00    -0.206 F 
ATOM     80  C   UNL A   1      38.995  32.905  37.698  1.00  0.00     0.060 A 
BRANCH  80  81
ATOM     81  S   UNL A   1      38.591  33.668  39.282  1.00  0.00     0.124 S 
ATOM     82  O   UNL A   1      37.269  33.113  39.543  1.00  0.00    -0.237 OA
ATOM     83  O   UNL A   1      39.667  33.196  40.147  1.00  0.00    -0.237 OA
ATOM     84  O   UNL A   1      38.633  35.094  38.971  1.00  0.00    -0.744 OA
ENDBRANCH  80  81
ENDBRANCH  48  73
BRANCH  60  85
ATOM     85  C   UNL A   1      44.358  26.442  34.750  1.00  0.00     0.058 A 
ATOM     86  C   UNL A   1      43.869  25.290  35.389  1.00  0.00     0.135 A 
ATOM     87  C   UNL A   1      45.608  26.935  35.148  1.00  0.00     0.135 A 
ATOM     88  F   UNL A   1      42.669  24.790  35.053  1.00  0.00    -0.206 F 
ATOM     89  C   UNL A   1      44.570  24.682  36.424  1.00  0.00     0.059 A 
ATOM     90  C   UNL A   1      46.337  26.330  36.167  1.00  0.00     0.059 A 
ATOM     91  F   UNL A   1      46.118  28.033  34.568  1.00  0.00    -0.206 F 
ATOM     92  C   UNL A   1      45.796  25.220  36.818  1.00  0.00     0.060 A 
BRANCH  92  93
ATOM     93  S   UNL A   1      46.672  24.465  38.204  1.00  0.00     0.124 S 
ATOM     94  O   UNL A   1      45.568  23.898  38.972  1.00  0.00    -0.237 OA
ATOM     95  O   UNL A   1      47.543  23.500  37.541  1.00  0.00    -0.237 OA
ATOM     96  O   UNL A   1      47.356  25.594  38.826  1.00  0.00    -0.744 OA
ENDBRANCH  92  93
ENDBRANCH  60  85
ENDBRANCH  34  35
ENDBRANCH  27  29
ENDBRANCH  26  27
ENDBRANCH  25  26
ENDBRANCH   1  25
TORSDOF 19
ENDMDL
MODEL 3
REMARK VINA RESULT:     -10.1      5.003     10.986
REMARK SMILES N#C[C@@H]1CN(C(=O)N[C@@H](Cc2cnc[nH]2)C(=O)OCCOC(=O)c2ccc(-c3c4nc(c(-c5c(F)cc(S(=O)(=O)[O-])cc5F)c5ccc([nH]5)c(-c5c(F)cc(S(=O)(=O)[O-])cc5F)c5nc(c(-c6c(F)cc(S(=O)(=O)[O-])cc6F)c6ccc3[nH]6)C=C5)C=C4)cc2)CCO1
REMARK SMILES IDX 19 1 18 2 16 3 17 4 9 5 8 6 6 7 7 8 5 10 3 11 4 12 92 13
REMARK SMILES IDX 91 14 90 15 2 16 1 17 10 18 11 19 12 20 15 21 13 22 14 23
REMARK SMILES IDX 20 25 21 26 22 27 23 28 24 29 25 30 89 31 26 32 88 33 27 34
REMARK SMILES IDX 28 35 29 36 82 37 30 38 87 39 81 40 83 41 31 42 86 43 80 44
REMARK SMILES IDX 79 45 32 47 66 48 45 49 65 50 46 51 49 52 64 53 84 54 47 55
REMARK SMILES IDX 48 56 63 58 85 59 50 60 33 61 34 62 43 63 35 64 36 65 42 66
REMARK SMILES IDX 44 67 37 68 38 69 39 70 40 71 41 72 67 73 68 74 77 75 69 76
REMARK SMILES IDX 70 77 76 78 78 79 71 80 72 81 73 82 74 83 75 84 51 85 52 86
REMARK SMILES IDX 61 87 53 88 54 89 60 90 62 91 55 92 56 93 57 94 58 95 59 96
REMARK H PARENT 8 9 15 24 83 46 49 57
REMARK Flexibility Score: inf
ROOT
ATOM      1  C   UNL A   1      35.859  23.279  23.731  1.00  0.00     0.274 C 
ENDROOT
BRANCH   1   2
ATOM      2  O   UNL A   1      34.423  23.097  23.767  1.00  0.00    -0.461 OA
BRANCH   2   3
ATOM      3  C   UNL A   1      33.680  24.039  23.107  1.00  0.00     0.329 C 
ATOM      4  O   UNL A   1      33.492  24.063  21.894  1.00  0.00    -0.250 OA
BRANCH   3   5
ATOM      5  C   UNL A   1      32.960  24.981  24.104  1.00  0.00     0.199 C 
BRANCH   5   6
ATOM      6  N   UNL A   1      31.599  25.368  23.696  1.00  0.00    -0.324 N 
ATOM      7  C   UNL A   1      30.883  26.503  23.605  1.00  0.00     0.318 C 
ATOM      8  O   UNL A   1      29.659  26.342  23.572  1.00  0.00    -0.249 OA
ATOM      9  H   UNL A   1      31.071  24.587  23.415  1.00  0.00     0.166 HD
BRANCH   7  10
ATOM     10  N   UNL A   1      31.437  27.752  23.536  1.00  0.00    -0.319 N 
ATOM     11  C   UNL A   1      31.738  29.287  25.449  1.00  0.00     0.240 C 
ATOM     12  C   UNL A   1      30.968  29.003  24.147  1.00  0.00     0.169 C 
ATOM     13  O   UNL A   1      33.149  29.415  25.121  1.00  0.00    -0.360 OA
ATOM     14  C   UNL A   1      33.685  28.239  24.476  1.00  0.00     0.183 C 
ATOM     15  C   UNL A   1      32.879  27.844  23.223  1.00  0.00     0.150 C 
BRANCH  11  16
ATOM     16  C   UNL A   1      31.538  28.156  26.444  1.00  0.00     0.096 C 
ATOM     17  N   UNL A   1      31.373  27.217  27.270  1.00  0.00    -0.195 NA
ENDBRANCH  11  16
ENDBRANCH   7  10
ENDBRANCH   5   6
BRANCH   5  18
ATOM     18  C   UNL A   1      32.985  24.427  25.539  1.00  0.00     0.092 C 
BRANCH  18  19
ATOM     19  C   UNL A   1      31.756  23.668  25.914  1.00  0.00     0.037 A 
ATOM     20  C   UNL A   1      31.287  22.412  25.593  1.00  0.00     0.134 A 
ATOM     21  N   UNL A   1      30.835  24.165  26.805  1.00  0.00    -0.348 N 
ATOM     22  N   UNL A   1      30.133  22.133  26.280  1.00  0.00    -0.245 NA
ATOM     23  C   UNL A   1      29.892  23.200  27.006  1.00  0.00     0.196 A 
ATOM     24  H   UNL A   1      30.853  25.056  27.222  1.00  0.00     0.167 HD
ENDBRANCH  18  19
ENDBRANCH   5  18
ENDBRANCH   3   5
ENDBRANCH   2   3
ENDBRANCH   1   2
BRANCH   1  25
ATOM     25  C   UNL A   1      36.453  23.002  25.136  1.00  0.00     0.275 C 
BRANCH  25  26
ATOM     26  O   UNL A   1      37.435  23.918  25.719  1.00  0.00    -0.458 OA
BRANCH  26  27
ATOM     27  C   UNL A   1      38.639  23.437  26.051  1.00  0.00     0.338 C 
ATOM     28  O   UNL A   1      38.995  22.262  25.901  1.00  0.00    -0.246 OA
BRANCH  27  29
ATOM     29  C   UNL A   1      39.590  24.341  26.747  1.00  0.00     0.060 A 
ATOM     30  C   UNL A   1      39.320  24.422  28.108  1.00  0.00     0.016 A 
ATOM     31  C   UNL A   1      40.391  25.334  26.158  1.00  0.00     0.016 A 
ATOM     32  C   UNL A   1      39.603  25.588  28.790  1.00  0.00     0.010 A 
ATOM     33  C   UNL A   1      40.793  26.472  26.920  1.00  0.00     0.010 A 
ATOM     34  C   UNL A   1      40.350  26.653  28.241  1.00  0.00    -0.014 A 
BRANCH  34  35
ATOM     35  C   UNL A   1      40.546  27.878  29.112  1.00  0.00     0.031 A 
ATOM     36  C   UNL A   1      39.498  28.960  29.343  1.00  0.00     0.074 A 
ATOM     37  C   UNL A   1      41.654  27.931  29.892  1.00  0.00     0.049 A 
ATOM     38  N   UNL A   1      39.614  30.055  30.065  1.00  0.00    -0.248 NA
ATOM     39  C   UNL A   1      38.176  28.820  28.714  1.00  0.00     0.031 C 
ATOM     40  C   UNL A   1      42.764  26.972  29.837  1.00  0.00     0.029 A 
ATOM     41  N   UNL A   1      42.004  28.756  30.935  1.00  0.00    -0.354 N 
ATOM     42  C   UNL A   1      38.415  30.754  29.935  1.00  0.00     0.074 A 
ATOM     43  C   UNL A   1      37.563  29.941  29.092  1.00  0.00     0.031 C 
ATOM     44  C   UNL A   1      43.548  27.136  30.902  1.00  0.00     0.029 A 
ATOM     45  C   UNL A   1      43.175  28.381  31.555  1.00  0.00     0.049 A 
ATOM     46  H   UNL A   1      41.471  29.537  31.212  1.00  0.00     0.167 HD
ATOM     47  C   UNL A   1      38.071  31.962  30.453  1.00  0.00     0.037 A 
ATOM     48  C   UNL A   1      43.968  29.000  32.451  1.00  0.00     0.037 A 
ATOM     49  C   UNL A   1      38.894  32.759  31.339  1.00  0.00     0.049 A 
ATOM     50  C   UNL A   1      43.624  30.372  32.910  1.00  0.00     0.074 A 
ATOM     51  C   UNL A   1      38.595  33.985  31.920  1.00  0.00     0.029 A 
ATOM     52  N   UNL A   1      40.165  32.425  31.774  1.00  0.00    -0.354 N 
ATOM     53  N   UNL A   1      42.545  31.069  32.660  1.00  0.00    -0.248 NA
ATOM     54  C   UNL A   1      44.634  31.070  33.714  1.00  0.00     0.031 C 
ATOM     55  C   UNL A   1      39.702  34.412  32.662  1.00  0.00     0.029 A 
ATOM     56  C   UNL A   1      40.674  33.434  32.583  1.00  0.00     0.049 A 
ATOM     57  H   UNL A   1      40.639  31.593  31.545  1.00  0.00     0.167 HD
ATOM     58  C   UNL A   1      42.770  32.313  33.230  1.00  0.00     0.074 A 
ATOM     59  C   UNL A   1      44.060  32.252  33.886  1.00  0.00     0.031 C 
ATOM     60  C   UNL A   1      41.979  33.411  33.186  1.00  0.00     0.037 A 
BRANCH  47  61
ATOM     61  C   UNL A   1      36.758  32.591  30.055  1.00  0.00     0.058 A 
ATOM     62  C   UNL A   1      35.616  32.506  30.862  1.00  0.00     0.135 A 
ATOM     63  C   UNL A   1      36.729  33.487  28.970  1.00  0.00     0.135 A 
ATOM     64  F   UNL A   1      35.592  31.671  31.913  1.00  0.00    -0.206 F 
ATOM     65  C   UNL A   1      34.498  33.308  30.625  1.00  0.00     0.059 A 
ATOM     66  C   UNL A   1      35.629  34.305  28.723  1.00  0.00     0.059 A 
ATOM     67  F   UNL A   1      37.804  33.618  28.176  1.00  0.00    -0.206 F 
ATOM     68  C   UNL A   1      34.521  34.216  29.564  1.00  0.00     0.060 A 
BRANCH  68  69
ATOM     69  S   UNL A   1      33.116  35.333  29.336  1.00  0.00     0.124 S 
ATOM     70  O   UNL A   1      32.550  35.368  30.682  1.00  0.00    -0.237 OA
ATOM     71  O   UNL A   1      33.762  36.563  28.890  1.00  0.00    -0.237 OA
ATOM     72  O   UNL A   1      32.303  34.657  28.331  1.00  0.00    -0.744 OA
ENDBRANCH  68  69
ENDBRANCH  47  61
BRANCH  48  73
ATOM     73  C   UNL A   1      45.287  28.391  32.765  1.00  0.00     0.058 A 
ATOM     74  C   UNL A   1      46.432  28.682  32.018  1.00  0.00     0.135 A 
ATOM     75  C   UNL A   1      45.423  27.573  33.901  1.00  0.00     0.135 A 
ATOM     76  F   UNL A   1      46.342  29.435  30.913  1.00  0.00    -0.206 F 
ATOM     77  C   UNL A   1      47.683  28.215  32.412  1.00  0.00     0.059 A 
ATOM     78  C   UNL A   1      46.663  27.136  34.338  1.00  0.00     0.059 A 
ATOM     79  F   UNL A   1      44.349  27.276  34.651  1.00  0.00    -0.206 F 
ATOM     80  C   UNL A   1      47.788  27.463  33.586  1.00  0.00     0.060 A 
BRANCH  80  81
ATOM     81  S   UNL A   1      49.416  26.985  34.200  1.00  0.00     0.124 S 
ATOM     82  O   UNL A   1      49.420  27.600  35.521  1.00  0.00    -0.237 OA
ATOM     83  O   UNL A   1      49.354  25.527  34.171  1.00  0.00    -0.237 OA
ATOM     84  O   UNL A   1      50.318  27.581  33.217  1.00  0.00    -0.744 OA
ENDBRANCH  80  81
ENDBRANCH  48  73
BRANCH  60  85
ATOM     85  C   UNL A   1      42.516  34.641  33.853  1.00  0.00     0.058 A 
ATOM     86  C   UNL A   1      43.198  35.623  33.116  1.00  0.00     0.135 A 
ATOM     87  C   UNL A   1      42.422  34.808  35.242  1.00  0.00     0.135 A 
ATOM     88  F   UNL A   1      43.328  35.499  31.785  1.00  0.00    -0.206 F 
ATOM     89  C   UNL A   1      43.813  36.702  33.740  1.00  0.00     0.059 A 
ATOM     90  C   UNL A   1      43.012  35.891  35.886  1.00  0.00     0.059 A 
ATOM     91  F   UNL A   1      41.780  33.897  35.991  1.00  0.00    -0.206 F 
ATOM     92  C   UNL A   1      43.729  36.818  35.128  1.00  0.00     0.060 A 
BRANCH  92  93
ATOM     93  S   UNL A   1      44.584  38.186  35.940  1.00  0.00     0.124 S 
ATOM     94  O   UNL A   1      44.207  39.310  35.090  1.00  0.00    -0.237 OA
ATOM     95  O   UNL A   1      43.996  38.177  37.276  1.00  0.00    -0.237 OA
ATOM     96  O   UNL A   1      45.987  37.792  35.876  1.00  0.00    -0.744 OA
ENDBRANCH  92  93
ENDBRANCH  60  85
ENDBRANCH  34  35
ENDBRANCH  27  29
ENDBRANCH  26  27
ENDBRANCH  25  26
ENDBRANCH   1  25
TORSDOF 19
ENDMDL
