MODEL 1
REMARK VINA RESULT:     -12.5      0.000      0.000
REMARK SMILES CCc1cccc2c3c([nH]c12)[C@](CC)(CC(=O)OCCOC(=O)c1ccc(-c2c4nc(c(-c5c(F)cc(S(=O)(=O)[O-])cc5F)c5ccc([nH]5)c(-c5c(F)cc(S(=O)(=O)[O-])cc5F)c5nc(c(-c6c(F)cc(S(=O)(=O)[O-])cc6F)c6ccc2[nH]6)C=C5)C=C4)cc1)OCC3
REMARK SMILES IDX 20 1 19 2 18 3 16 4 17 5 15 6 12 7 3 8 4 9 11 10 5 11 7 12
REMARK SMILES IDX 10 13 6 14 8 15 9 16 92 18 91 19 90 20 2 21 1 22 13 23 14 24
REMARK SMILES IDX 21 25 22 26 23 27 24 28 25 29 89 30 26 31 88 32 27 33 28 34
REMARK SMILES IDX 29 35 82 36 30 37 87 38 81 39 83 40 31 41 86 42 80 43 79 44
REMARK SMILES IDX 32 46 66 47 45 48 65 49 46 50 49 51 64 52 84 53 47 54 48 55
REMARK SMILES IDX 63 57 85 58 50 59 33 60 34 61 43 62 35 63 36 64 42 65 44 66
REMARK SMILES IDX 37 67 38 68 39 69 40 70 41 71 67 72 68 73 77 74 69 75 70 76
REMARK SMILES IDX 76 77 78 78 71 79 72 80 73 81 74 82 75 83 51 84 52 85 61 86
REMARK SMILES IDX 53 87 54 88 60 89 62 90 55 91 56 92 57 93 58 94 59 95
REMARK H PARENT 10 17 83 45 49 56
REMARK Flexibility Score: inf
ROOT
ATOM      1  C   UNL A   1      38.548  20.928  25.389  1.00  0.00     0.275 C 
ENDROOT
BRANCH   1   2
ATOM      2  C   UNL A   1      37.229  21.266  24.693  1.00  0.00     0.274 C 
BRANCH   2   3
ATOM      3  O   UNL A   1      36.204  20.305  25.048  1.00  0.00    -0.462 OA
BRANCH   3   4
ATOM      4  C   UNL A   1      34.927  20.725  24.929  1.00  0.00     0.309 C 
ATOM      5  O   UNL A   1      33.995  19.972  24.657  1.00  0.00    -0.252 OA
BRANCH   4   6
ATOM      6  C   UNL A   1      34.692  22.216  25.008  1.00  0.00     0.164 C 
BRANCH   6   7
ATOM      7  C   UNL A   1      33.354  22.979  24.895  1.00  0.00     0.118 C 
ATOM      8  C   UNL A   1      33.219  28.017  25.593  1.00  0.00    -0.024 A 
ATOM      9  C   UNL A   1      33.344  29.090  24.683  1.00  0.00     0.006 A 
ATOM     10  C   UNL A   1      33.266  26.722  25.022  1.00  0.00     0.049 A 
ATOM     11  C   UNL A   1      33.435  28.892  23.308  1.00  0.00     0.001 A 
ATOM     12  C   UNL A   1      33.361  26.497  23.644  1.00  0.00     0.003 A 
ATOM     13  N   UNL A   1      33.225  25.469  25.613  1.00  0.00    -0.356 N 
ATOM     14  C   UNL A   1      33.422  27.602  22.777  1.00  0.00     0.010 A 
ATOM     15  C   UNL A   1      33.336  25.089  23.444  1.00  0.00    -0.014 A 
ATOM     16  C   UNL A   1      33.382  24.472  24.676  1.00  0.00     0.052 A 
ATOM     17  H   UNL A   1      33.099  25.313  26.578  1.00  0.00     0.166 HD
ATOM     18  C   UNL A   1      33.197  24.303  22.194  1.00  0.00     0.066 C 
ATOM     19  C   UNL A   1      33.052  22.791  22.477  1.00  0.00     0.166 C 
ATOM     20  O   UNL A   1      32.565  22.459  23.788  1.00  0.00    -0.368 OA
BRANCH   8  21
ATOM     21  C   UNL A   1      33.111  28.294  27.078  1.00  0.00     0.034 C 
ATOM     22  C   UNL A   1      31.697  28.166  27.641  1.00  0.00     0.009 C 
ENDBRANCH   8  21
BRANCH   7  23
ATOM     23  C   UNL A   1      32.511  22.666  26.180  1.00  0.00     0.039 C 
ATOM     24  C   UNL A   1      33.318  22.490  27.466  1.00  0.00     0.007 C 
ENDBRANCH   7  23
ENDBRANCH   6   7
ENDBRANCH   4   6
ENDBRANCH   3   4
ENDBRANCH   2   3
ENDBRANCH   1   2
BRANCH   1  25
ATOM     25  O   UNL A   1      38.881  22.001  26.278  1.00  0.00    -0.458 OA
BRANCH  25  26
ATOM     26  C   UNL A   1      40.195  22.138  26.574  1.00  0.00     0.338 C 
ATOM     27  O   UNL A   1      41.094  21.366  26.293  1.00  0.00    -0.246 OA
BRANCH  26  28
ATOM     28  C   UNL A   1      40.382  23.534  27.014  1.00  0.00     0.060 A 
ATOM     29  C   UNL A   1      41.484  23.909  27.778  1.00  0.00     0.016 A 
ATOM     30  C   UNL A   1      39.321  24.424  26.812  1.00  0.00     0.016 A 
ATOM     31  C   UNL A   1      41.468  25.143  28.411  1.00  0.00     0.010 A 
ATOM     32  C   UNL A   1      39.285  25.647  27.474  1.00  0.00     0.010 A 
ATOM     33  C   UNL A   1      40.353  25.993  28.294  1.00  0.00    -0.014 A 
BRANCH  33  34
ATOM     34  C   UNL A   1      40.519  27.354  28.779  1.00  0.00     0.031 A 
ATOM     35  C   UNL A   1      41.648  28.044  28.116  1.00  0.00     0.074 A 
ATOM     36  C   UNL A   1      39.822  28.034  29.706  1.00  0.00     0.049 A 
ATOM     37  N   UNL A   1      42.848  28.161  28.577  1.00  0.00    -0.248 NA
ATOM     38  C   UNL A   1      41.473  28.516  26.739  1.00  0.00     0.031 C 
ATOM     39  C   UNL A   1      38.529  27.749  30.317  1.00  0.00     0.029 A 
ATOM     40  N   UNL A   1      40.192  29.218  30.281  1.00  0.00    -0.354 N 
ATOM     41  C   UNL A   1      43.550  28.887  27.630  1.00  0.00     0.074 A 
ATOM     42  C   UNL A   1      42.705  28.947  26.463  1.00  0.00     0.031 C 
ATOM     43  C   UNL A   1      38.144  28.824  31.053  1.00  0.00     0.029 A 
ATOM     44  C   UNL A   1      39.228  29.798  31.087  1.00  0.00     0.049 A 
ATOM     45  H   UNL A   1      41.074  29.628  30.132  1.00  0.00     0.167 HD
ATOM     46  C   UNL A   1      44.696  29.543  27.957  1.00  0.00     0.037 A 
ATOM     47  C   UNL A   1      39.330  31.000  31.709  1.00  0.00     0.037 A 
ATOM     48  C   UNL A   1      45.227  29.084  29.220  1.00  0.00     0.049 A 
ATOM     49  C   UNL A   1      40.781  31.273  31.912  1.00  0.00     0.074 A 
ATOM     50  C   UNL A   1      45.604  27.852  29.722  1.00  0.00     0.029 A 
ATOM     51  N   UNL A   1      45.098  29.902  30.318  1.00  0.00    -0.354 N 
ATOM     52  N   UNL A   1      41.547  30.605  32.732  1.00  0.00    -0.248 NA
ATOM     53  C   UNL A   1      41.484  32.072  30.919  1.00  0.00     0.031 C 
ATOM     54  C   UNL A   1      45.204  27.867  31.091  1.00  0.00     0.029 A 
ATOM     55  C   UNL A   1      44.639  29.117  31.345  1.00  0.00     0.049 A 
ATOM     56  H   UNL A   1      45.298  30.865  30.360  1.00  0.00     0.167 HD
ATOM     57  C   UNL A   1      42.789  30.570  32.114  1.00  0.00     0.074 A 
ATOM     58  C   UNL A   1      42.716  31.578  31.062  1.00  0.00     0.031 C 
ATOM     59  C   UNL A   1      43.671  29.551  32.332  1.00  0.00     0.037 A 
BRANCH  46  60
ATOM     60  C   UNL A   1      45.148  30.828  27.313  1.00  0.00     0.058 A 
ATOM     61  C   UNL A   1      46.460  30.911  26.805  1.00  0.00     0.135 A 
ATOM     62  C   UNL A   1      44.459  32.054  27.439  1.00  0.00     0.135 A 
ATOM     63  F   UNL A   1      47.203  29.806  26.636  1.00  0.00    -0.206 F 
ATOM     64  C   UNL A   1      47.080  32.132  26.547  1.00  0.00     0.059 A 
ATOM     65  C   UNL A   1      45.038  33.277  27.131  1.00  0.00     0.059 A 
ATOM     66  F   UNL A   1      43.231  32.137  27.966  1.00  0.00    -0.206 F 
ATOM     67  C   UNL A   1      46.366  33.311  26.741  1.00  0.00     0.060 A 
BRANCH  67  68
ATOM     68  S   UNL A   1      47.212  34.890  26.575  1.00  0.00     0.124 S 
ATOM     69  O   UNL A   1      48.214  34.789  27.630  1.00  0.00    -0.237 OA
ATOM     70  O   UNL A   1      47.712  34.824  25.206  1.00  0.00    -0.237 OA
ATOM     71  O   UNL A   1      46.148  35.863  26.800  1.00  0.00    -0.744 OA
ENDBRANCH  67  68
ENDBRANCH  46  60
BRANCH  47  72
ATOM     72  C   UNL A   1      38.291  32.053  31.876  1.00  0.00     0.058 A 
ATOM     73  C   UNL A   1      37.799  32.770  30.767  1.00  0.00     0.135 A 
ATOM     74  C   UNL A   1      37.548  32.176  33.067  1.00  0.00     0.135 A 
ATOM     75  F   UNL A   1      38.430  32.703  29.584  1.00  0.00    -0.206 F 
ATOM     76  C   UNL A   1      36.610  33.505  30.817  1.00  0.00     0.059 A 
ATOM     77  C   UNL A   1      36.367  32.914  33.143  1.00  0.00     0.059 A 
ATOM     78  F   UNL A   1      37.896  31.503  34.174  1.00  0.00    -0.206 F 
ATOM     79  C   UNL A   1      35.887  33.551  32.006  1.00  0.00     0.060 A 
BRANCH  79  80
ATOM     80  S   UNL A   1      34.262  34.344  32.028  1.00  0.00     0.124 S 
ATOM     81  O   UNL A   1      33.839  34.206  30.639  1.00  0.00    -0.237 OA
ATOM     82  O   UNL A   1      33.537  33.533  32.999  1.00  0.00    -0.237 OA
ATOM     83  O   UNL A   1      34.558  35.708  32.458  1.00  0.00    -0.744 OA
ENDBRANCH  79  80
ENDBRANCH  47  72
BRANCH  59  84
ATOM     84  C   UNL A   1      43.468  28.639  33.514  1.00  0.00     0.058 A 
ATOM     85  C   UNL A   1      44.071  28.823  34.770  1.00  0.00     0.135 A 
ATOM     86  C   UNL A   1      42.470  27.654  33.420  1.00  0.00     0.135 A 
ATOM     87  F   UNL A   1      44.965  29.802  34.971  1.00  0.00    -0.206 F 
ATOM     88  C   UNL A   1      43.708  28.052  35.877  1.00  0.00     0.059 A 
ATOM     89  C   UNL A   1      42.070  26.897  34.518  1.00  0.00     0.059 A 
ATOM     90  F   UNL A   1      41.818  27.463  32.260  1.00  0.00    -0.206 F 
ATOM     91  C   UNL A   1      42.694  27.101  35.745  1.00  0.00     0.060 A 
BRANCH  91  92
ATOM     92  S   UNL A   1      42.130  26.210  37.213  1.00  0.00     0.124 S 
ATOM     93  O   UNL A   1      40.807  26.782  37.434  1.00  0.00    -0.237 OA
ATOM     94  O   UNL A   1      42.155  24.820  36.769  1.00  0.00    -0.237 OA
ATOM     95  O   UNL A   1      43.132  26.547  38.224  1.00  0.00    -0.744 OA
ENDBRANCH  91  92
ENDBRANCH  59  84
ENDBRANCH  33  34
ENDBRANCH  26  28
ENDBRANCH  25  26
ENDBRANCH   1  25
TORSDOF 17
ENDMDL
MODEL 2
REMARK VINA RESULT:     -12.4      3.712      6.707
REMARK SMILES CCc1cccc2c3c([nH]c12)[C@](CC)(CC(=O)OCCOC(=O)c1ccc(-c2c4nc(c(-c5c(F)cc(S(=O)(=O)[O-])cc5F)c5ccc([nH]5)c(-c5c(F)cc(S(=O)(=O)[O-])cc5F)c5nc(c(-c6c(F)cc(S(=O)(=O)[O-])cc6F)c6ccc2[nH]6)C=C5)C=C4)cc1)OCC3
REMARK SMILES IDX 20 1 19 2 18 3 16 4 17 5 15 6 12 7 3 8 4 9 11 10 5 11 7 12
REMARK SMILES IDX 10 13 6 14 8 15 9 16 92 18 91 19 90 20 2 21 1 22 13 23 14 24
REMARK SMILES IDX 21 25 22 26 23 27 24 28 25 29 89 30 26 31 88 32 27 33 28 34
REMARK SMILES IDX 29 35 82 36 30 37 87 38 81 39 83 40 31 41 86 42 80 43 79 44
REMARK SMILES IDX 32 46 66 47 45 48 65 49 46 50 49 51 64 52 84 53 47 54 48 55
REMARK SMILES IDX 63 57 85 58 50 59 33 60 34 61 43 62 35 63 36 64 42 65 44 66
REMARK SMILES IDX 37 67 38 68 39 69 40 70 41 71 67 72 68 73 77 74 69 75 70 76
REMARK SMILES IDX 76 77 78 78 71 79 72 80 73 81 74 82 75 83 51 84 52 85 61 86
REMARK SMILES IDX 53 87 54 88 60 89 62 90 55 91 56 92 57 93 58 94 59 95
REMARK H PARENT 10 17 83 45 49 56
REMARK Flexibility Score: inf
ROOT
ATOM      1  C   UNL A   1      42.984  20.643  26.381  1.00  0.00     0.275 C 
ENDROOT
BRANCH   1   2
ATOM      2  C   UNL A   1      44.042  20.421  25.300  1.00  0.00     0.274 C 
BRANCH   2   3
ATOM      3  O   UNL A   1      45.094  21.413  25.405  1.00  0.00    -0.462 OA
BRANCH   3   4
ATOM      4  C   UNL A   1      45.164  22.313  24.402  1.00  0.00     0.309 C 
ATOM      5  O   UNL A   1      44.586  22.171  23.328  1.00  0.00    -0.252 OA
BRANCH   4   6
ATOM      6  C   UNL A   1      46.115  23.473  24.597  1.00  0.00     0.164 C 
BRANCH   6   7
ATOM      7  C   UNL A   1      45.827  24.846  25.245  1.00  0.00     0.118 C 
ATOM      8  C   UNL A   1      45.936  25.359  30.306  1.00  0.00    -0.024 A 
ATOM      9  C   UNL A   1      46.982  25.712  31.186  1.00  0.00     0.006 A 
ATOM     10  C   UNL A   1      46.269  25.358  28.928  1.00  0.00     0.049 A 
ATOM     11  C   UNL A   1      48.238  26.104  30.730  1.00  0.00     0.001 A 
ATOM     12  C   UNL A   1      47.524  25.745  28.446  1.00  0.00     0.003 A 
ATOM     13  N   UNL A   1      45.517  25.021  27.815  1.00  0.00    -0.356 N 
ATOM     14  C   UNL A   1      48.512  26.145  29.363  1.00  0.00     0.010 A 
ATOM     15  C   UNL A   1      47.474  25.661  27.027  1.00  0.00    -0.014 A 
ATOM     16  C   UNL A   1      46.273  25.090  26.665  1.00  0.00     0.052 A 
ATOM     17  H   UNL A   1      44.566  24.764  27.842  1.00  0.00     0.166 HD
ATOM     18  C   UNL A   1      48.435  26.145  26.006  1.00  0.00     0.066 C 
ATOM     19  C   UNL A   1      47.883  25.983  24.572  1.00  0.00     0.166 C 
ATOM     20  O   UNL A   1      46.451  25.911  24.474  1.00  0.00    -0.368 OA
BRANCH   8  21
ATOM     21  C   UNL A   1      44.587  24.951  30.859  1.00  0.00     0.034 C 
ATOM     22  C   UNL A   1      44.572  24.710  32.367  1.00  0.00     0.009 C 
ENDBRANCH   8  21
BRANCH   7  23
ATOM     23  C   UNL A   1      44.285  25.114  25.138  1.00  0.00     0.039 C 
ATOM     24  C   UNL A   1      43.864  26.577  25.268  1.00  0.00     0.007 C 
ENDBRANCH   7  23
ENDBRANCH   6   7
ENDBRANCH   4   6
ENDBRANCH   3   4
ENDBRANCH   2   3
ENDBRANCH   1   2
BRANCH   1  25
ATOM     25  O   UNL A   1      42.737  22.050  26.494  1.00  0.00    -0.458 OA
BRANCH  25  26
ATOM     26  C   UNL A   1      41.446  22.436  26.360  1.00  0.00     0.338 C 
ATOM     27  O   UNL A   1      40.492  21.727  26.097  1.00  0.00    -0.246 OA
BRANCH  26  28
ATOM     28  C   UNL A   1      41.361  23.807  26.900  1.00  0.00     0.060 A 
ATOM     29  C   UNL A   1      42.003  24.158  28.084  1.00  0.00     0.016 A 
ATOM     30  C   UNL A   1      40.455  24.686  26.295  1.00  0.00     0.016 A 
ATOM     31  C   UNL A   1      41.659  25.353  28.701  1.00  0.00     0.010 A 
ATOM     32  C   UNL A   1      40.081  25.866  26.928  1.00  0.00     0.010 A 
ATOM     33  C   UNL A   1      40.669  26.185  28.147  1.00  0.00    -0.014 A 
BRANCH  33  34
ATOM     34  C   UNL A   1      40.547  27.518  28.715  1.00  0.00     0.031 A 
ATOM     35  C   UNL A   1      41.539  28.456  28.145  1.00  0.00     0.074 A 
ATOM     36  C   UNL A   1      39.700  27.987  29.648  1.00  0.00     0.049 A 
ATOM     37  N   UNL A   1      42.676  28.774  28.664  1.00  0.00    -0.248 NA
ATOM     38  C   UNL A   1      41.319  28.972  26.790  1.00  0.00     0.031 C 
ATOM     39  C   UNL A   1      38.469  27.417  30.183  1.00  0.00     0.029 A 
ATOM     40  N   UNL A   1      39.810  29.181  30.305  1.00  0.00    -0.354 N 
ATOM     41  C   UNL A   1      43.252  29.683  27.793  1.00  0.00     0.074 A 
ATOM     42  C   UNL A   1      42.451  29.653  26.594  1.00  0.00     0.031 C 
ATOM     43  C   UNL A   1      37.856  28.346  30.961  1.00  0.00     0.029 A 
ATOM     44  C   UNL A   1      38.724  29.508  31.099  1.00  0.00     0.049 A 
ATOM     45  H   UNL A   1      40.598  29.763  30.220  1.00  0.00     0.167 HD
ATOM     46  C   UNL A   1      44.235  30.527  28.208  1.00  0.00     0.037 A 
ATOM     47  C   UNL A   1      38.566  30.664  31.793  1.00  0.00     0.037 A 
ATOM     48  C   UNL A   1      44.804  30.099  29.465  1.00  0.00     0.049 A 
ATOM     49  C   UNL A   1      39.928  31.201  32.075  1.00  0.00     0.074 A 
ATOM     50  C   UNL A   1      45.401  28.935  29.912  1.00  0.00     0.029 A 
ATOM     51  N   UNL A   1      44.481  30.804  30.601  1.00  0.00    -0.354 N 
ATOM     52  N   UNL A   1      40.783  30.644  32.889  1.00  0.00    -0.248 NA
ATOM     53  C   UNL A   1      40.491  32.185  31.162  1.00  0.00     0.031 C 
ATOM     54  C   UNL A   1      44.960  28.783  31.261  1.00  0.00     0.029 A 
ATOM     55  C   UNL A   1      44.152  29.880  31.560  1.00  0.00     0.049 A 
ATOM     56  H   UNL A   1      44.485  31.783  30.707  1.00  0.00     0.167 HD
ATOM     57  C   UNL A   1      42.027  30.891  32.327  1.00  0.00     0.074 A 
ATOM     58  C   UNL A   1      41.791  31.931  31.332  1.00  0.00     0.031 C 
ATOM     59  C   UNL A   1      43.086  30.052  32.526  1.00  0.00     0.037 A 
BRANCH  46  60
ATOM     60  C   UNL A   1      44.445  31.914  27.659  1.00  0.00     0.058 A 
ATOM     61  C   UNL A   1      45.565  32.161  26.840  1.00  0.00     0.135 A 
ATOM     62  C   UNL A   1      43.770  33.059  28.137  1.00  0.00     0.135 A 
ATOM     63  F   UNL A   1      46.276  31.145  26.324  1.00  0.00    -0.206 F 
ATOM     64  C   UNL A   1      46.045  33.448  26.606  1.00  0.00     0.059 A 
ATOM     65  C   UNL A   1      44.197  34.352  27.866  1.00  0.00     0.059 A 
ATOM     66  F   UNL A   1      42.730  32.981  28.976  1.00  0.00    -0.206 F 
ATOM     67  C   UNL A   1      45.367  34.535  27.149  1.00  0.00     0.060 A 
BRANCH  67  68
ATOM     68  S   UNL A   1      46.075  36.182  26.994  1.00  0.00     0.124 S 
ATOM     69  O   UNL A   1      44.874  37.010  27.006  1.00  0.00    -0.237 OA
ATOM     70  O   UNL A   1      46.921  36.261  28.179  1.00  0.00    -0.237 OA
ATOM     71  O   UNL A   1      46.789  36.119  25.723  1.00  0.00    -0.744 OA
ENDBRANCH  67  68
ENDBRANCH  46  60
BRANCH  47  72
ATOM     72  C   UNL A   1      37.335  31.481  31.972  1.00  0.00     0.058 A 
ATOM     73  C   UNL A   1      36.894  31.858  33.256  1.00  0.00     0.135 A 
ATOM     74  C   UNL A   1      36.732  32.155  30.892  1.00  0.00     0.135 A 
ATOM     75  F   UNL A   1      37.422  31.283  34.349  1.00  0.00    -0.206 F 
ATOM     76  C   UNL A   1      35.967  32.886  33.459  1.00  0.00     0.059 A 
ATOM     77  C   UNL A   1      35.795  33.173  31.069  1.00  0.00     0.059 A 
ATOM     78  F   UNL A   1      37.104  31.911  29.627  1.00  0.00    -0.206 F 
ATOM     79  C   UNL A   1      35.441  33.555  32.356  1.00  0.00     0.060 A 
BRANCH  79  80
ATOM     80  S   UNL A   1      34.385  35.000  32.616  1.00  0.00     0.124 S 
ATOM     81  O   UNL A   1      35.079  35.692  33.696  1.00  0.00    -0.237 OA
ATOM     82  O   UNL A   1      34.426  35.650  31.311  1.00  0.00    -0.237 OA
ATOM     83  O   UNL A   1      33.096  34.416  32.977  1.00  0.00    -0.744 OA
ENDBRANCH  79  80
ENDBRANCH  47  72
BRANCH  59  84
ATOM     84  C   UNL A   1      43.028  29.044  33.643  1.00  0.00     0.058 A 
ATOM     85  C   UNL A   1      43.401  29.310  34.972  1.00  0.00     0.135 A 
ATOM     86  C   UNL A   1      42.383  27.820  33.392  1.00  0.00     0.135 A 
ATOM     87  F   UNL A   1      43.936  30.491  35.316  1.00  0.00    -0.206 F 
ATOM     88  C   UNL A   1      43.159  28.395  35.999  1.00  0.00     0.059 A 
ATOM     89  C   UNL A   1      42.103  26.908  34.406  1.00  0.00     0.059 A 
ATOM     90  F   UNL A   1      41.955  27.527  32.152  1.00  0.00    -0.206 F 
ATOM     91  C   UNL A   1      42.494  27.202  35.709  1.00  0.00     0.060 A 
BRANCH  91  92
ATOM     92  S   UNL A   1      42.055  26.089  37.064  1.00  0.00     0.124 S 
ATOM     93  O   UNL A   1      43.043  26.434  38.080  1.00  0.00    -0.237 OA
ATOM     94  O   UNL A   1      40.679  26.475  37.360  1.00  0.00    -0.237 OA
ATOM     95  O   UNL A   1      42.204  24.758  36.476  1.00  0.00    -0.744 OA
ENDBRANCH  91  92
ENDBRANCH  59  84
ENDBRANCH  33  34
ENDBRANCH  26  28
ENDBRANCH  25  26
ENDBRANCH   1  25
TORSDOF 17
ENDMDL
MODEL 3
REMARK VINA RESULT:     -12.1      2.924      9.403
REMARK SMILES CCc1cccc2c3c([nH]c12)[C@](CC)(CC(=O)OCCOC(=O)c1ccc(-c2c4nc(c(-c5c(F)cc(S(=O)(=O)[O-])cc5F)c5ccc([nH]5)c(-c5c(F)cc(S(=O)(=O)[O-])cc5F)c5nc(c(-c6c(F)cc(S(=O)(=O)[O-])cc6F)c6ccc2[nH]6)C=C5)C=C4)cc1)OCC3
REMARK SMILES IDX 20 1 19 2 18 3 16 4 17 5 15 6 12 7 3 8 4 9 11 10 5 11 7 12
REMARK SMILES IDX 10 13 6 14 8 15 9 16 92 18 91 19 90 20 2 21 1 22 13 23 14 24
REMARK SMILES IDX 21 25 22 26 23 27 24 28 25 29 89 30 26 31 88 32 27 33 28 34
REMARK SMILES IDX 29 35 82 36 30 37 87 38 81 39 83 40 31 41 86 42 80 43 79 44
REMARK SMILES IDX 32 46 66 47 45 48 65 49 46 50 49 51 64 52 84 53 47 54 48 55
REMARK SMILES IDX 63 57 85 58 50 59 33 60 34 61 43 62 35 63 36 64 42 65 44 66
REMARK SMILES IDX 37 67 38 68 39 69 40 70 41 71 67 72 68 73 77 74 69 75 70 76
REMARK SMILES IDX 76 77 78 78 71 79 72 80 73 81 74 82 75 83 51 84 52 85 61 86
REMARK SMILES IDX 53 87 54 88 60 89 62 90 55 91 56 92 57 93 58 94 59 95
REMARK H PARENT 10 17 83 45 49 56
REMARK Flexibility Score: inf
ROOT
ATOM      1  C   UNL A   1      33.289  31.731  27.500  1.00  0.00     0.275 C 
ENDROOT
BRANCH   1   2
ATOM      2  C   UNL A   1      33.280  30.430  26.696  1.00  0.00     0.274 C 
BRANCH   2   3
ATOM      3  O   UNL A   1      32.933  29.308  27.545  1.00  0.00    -0.462 OA
BRANCH   3   4
ATOM      4  C   UNL A   1      31.929  28.520  27.109  1.00  0.00     0.309 C 
ATOM      5  O   UNL A   1      31.238  27.833  27.859  1.00  0.00    -0.252 OA
BRANCH   4   6
ATOM      6  C   UNL A   1      31.763  28.397  25.611  1.00  0.00     0.164 C 
BRANCH   6   7
ATOM      7  C   UNL A   1      31.901  27.133  24.735  1.00  0.00     0.118 C 
ATOM      8  C   UNL A   1      35.313  23.553  25.931  1.00  0.00    -0.024 A 
ATOM      9  C   UNL A   1      35.208  22.392  26.728  1.00  0.00     0.006 A 
ATOM     10  C   UNL A   1      34.121  24.305  25.785  1.00  0.00     0.049 A 
ATOM     11  C   UNL A   1      33.998  21.973  27.276  1.00  0.00     0.001 A 
ATOM     12  C   UNL A   1      32.895  23.907  26.328  1.00  0.00     0.003 A 
ATOM     13  N   UNL A   1      33.879  25.500  25.128  1.00  0.00    -0.356 N 
ATOM     14  C   UNL A   1      32.833  22.710  27.064  1.00  0.00     0.010 A 
ATOM     15  C   UNL A   1      31.928  24.876  25.942  1.00  0.00    -0.014 A 
ATOM     16  C   UNL A   1      32.578  25.915  25.312  1.00  0.00     0.052 A 
ATOM     17  H   UNL A   1      34.550  25.990  24.597  1.00  0.00     0.166 HD
ATOM     18  C   UNL A   1      30.449  24.850  26.057  1.00  0.00     0.066 C 
ATOM     19  C   UNL A   1      29.795  26.056  25.346  1.00  0.00     0.166 C 
ATOM     20  O   UNL A   1      30.590  26.661  24.314  1.00  0.00    -0.368 OA
BRANCH   8  21
ATOM     21  C   UNL A   1      36.653  23.954  25.352  1.00  0.00     0.034 C 
ATOM     22  C   UNL A   1      37.808  23.912  26.350  1.00  0.00     0.009 C 
ENDBRANCH   8  21
BRANCH   7  23
ATOM     23  C   UNL A   1      32.631  27.545  23.409  1.00  0.00     0.039 C 
ATOM     24  C   UNL A   1      33.788  28.529  23.576  1.00  0.00     0.007 C 
ENDBRANCH   7  23
ENDBRANCH   6   7
ENDBRANCH   4   6
ENDBRANCH   3   4
ENDBRANCH   2   3
ENDBRANCH   1   2
BRANCH   1  25
ATOM     25  O   UNL A   1      34.101  31.540  28.665  1.00  0.00    -0.458 OA
BRANCH  25  26
ATOM     26  C   UNL A   1      35.199  32.328  28.755  1.00  0.00     0.338 C 
ATOM     27  O   UNL A   1      35.233  33.506  29.059  1.00  0.00    -0.246 OA
BRANCH  26  28
ATOM     28  C   UNL A   1      36.366  31.425  28.729  1.00  0.00     0.060 A 
ATOM     29  C   UNL A   1      36.210  30.041  28.735  1.00  0.00     0.016 A 
ATOM     30  C   UNL A   1      37.632  31.997  28.900  1.00  0.00     0.016 A 
ATOM     31  C   UNL A   1      37.314  29.246  29.007  1.00  0.00     0.010 A 
ATOM     32  C   UNL A   1      38.733  31.207  29.208  1.00  0.00     0.010 A 
ATOM     33  C   UNL A   1      38.564  29.828  29.284  1.00  0.00    -0.014 A 
BRANCH  33  34
ATOM     34  C   UNL A   1      39.707  28.931  29.313  1.00  0.00     0.031 A 
ATOM     35  C   UNL A   1      40.194  28.698  30.692  1.00  0.00     0.074 A 
ATOM     36  C   UNL A   1      40.354  28.319  28.306  1.00  0.00     0.049 A 
ATOM     37  N   UNL A   1      41.169  29.312  31.271  1.00  0.00    -0.248 NA
ATOM     38  C   UNL A   1      39.425  27.807  31.566  1.00  0.00     0.031 C 
ATOM     39  C   UNL A   1      39.969  28.124  26.913  1.00  0.00     0.029 A 
ATOM     40  N   UNL A   1      41.566  27.692  28.391  1.00  0.00    -0.354 N 
ATOM     41  C   UNL A   1      41.268  28.759  32.537  1.00  0.00     0.074 A 
ATOM     42  C   UNL A   1      40.086  27.954  32.717  1.00  0.00     0.031 C 
ATOM     43  C   UNL A   1      40.854  27.277  26.326  1.00  0.00     0.029 A 
ATOM     44  C   UNL A   1      41.943  26.999  27.254  1.00  0.00     0.049 A 
ATOM     45  H   UNL A   1      42.126  27.729  29.199  1.00  0.00     0.167 HD
ATOM     46  C   UNL A   1      42.416  28.863  33.259  1.00  0.00     0.037 A 
ATOM     47  C   UNL A   1      43.062  26.244  27.117  1.00  0.00     0.037 A 
ATOM     48  C   UNL A   1      43.292  29.878  32.720  1.00  0.00     0.049 A 
ATOM     49  C   UNL A   1      44.072  26.771  28.078  1.00  0.00     0.074 A 
ATOM     50  C   UNL A   1      43.159  31.226  32.447  1.00  0.00     0.029 A 
ATOM     51  N   UNL A   1      44.413  29.474  32.033  1.00  0.00    -0.354 N 
ATOM     52  N   UNL A   1      44.653  27.936  27.970  1.00  0.00    -0.248 NA
ATOM     53  C   UNL A   1      44.180  26.144  29.388  1.00  0.00     0.031 C 
ATOM     54  C   UNL A   1      43.895  31.439  31.244  1.00  0.00     0.029 A 
ATOM     55  C   UNL A   1      44.458  30.215  30.879  1.00  0.00     0.049 A 
ATOM     56  H   UNL A   1      45.059  28.787  32.314  1.00  0.00     0.167 HD
ATOM     57  C   UNL A   1      44.836  28.368  29.275  1.00  0.00     0.074 A 
ATOM     58  C   UNL A   1      44.627  27.182  30.099  1.00  0.00     0.031 C 
ATOM     59  C   UNL A   1      44.877  29.695  29.593  1.00  0.00     0.037 A 
BRANCH  46  60
ATOM     60  C   UNL A   1      42.895  27.822  34.237  1.00  0.00     0.058 A 
ATOM     61  C   UNL A   1      43.053  28.179  35.591  1.00  0.00     0.135 A 
ATOM     62  C   UNL A   1      43.481  26.595  33.854  1.00  0.00     0.135 A 
ATOM     63  F   UNL A   1      42.529  29.321  36.065  1.00  0.00    -0.206 F 
ATOM     64  C   UNL A   1      43.829  27.428  36.472  1.00  0.00     0.059 A 
ATOM     65  C   UNL A   1      44.208  25.802  34.732  1.00  0.00     0.059 A 
ATOM     66  F   UNL A   1      43.469  26.157  32.589  1.00  0.00    -0.206 F 
ATOM     67  C   UNL A   1      44.425  26.255  36.021  1.00  0.00     0.060 A 
BRANCH  67  68
ATOM     68  S   UNL A   1      45.564  25.374  37.101  1.00  0.00     0.124 S 
ATOM     69  O   UNL A   1      46.104  24.373  36.189  1.00  0.00    -0.237 OA
ATOM     70  O   UNL A   1      46.480  26.435  37.506  1.00  0.00    -0.237 OA
ATOM     71  O   UNL A   1      44.695  24.867  38.158  1.00  0.00    -0.744 OA
ENDBRANCH  67  68
ENDBRANCH  46  60
BRANCH  47  72
ATOM     72  C   UNL A   1      43.222  24.931  26.435  1.00  0.00     0.058 A 
ATOM     73  C   UNL A   1      44.090  24.785  25.335  1.00  0.00     0.135 A 
ATOM     74  C   UNL A   1      42.761  23.734  27.019  1.00  0.00     0.135 A 
ATOM     75  F   UNL A   1      44.594  25.867  24.722  1.00  0.00    -0.206 F 
ATOM     76  C   UNL A   1      44.529  23.534  24.887  1.00  0.00     0.059 A 
ATOM     77  C   UNL A   1      43.174  22.477  26.581  1.00  0.00     0.059 A 
ATOM     78  F   UNL A   1      41.966  23.750  28.099  1.00  0.00    -0.206 F 
ATOM     79  C   UNL A   1      44.083  22.384  25.534  1.00  0.00     0.060 A 
BRANCH  79  80
ATOM     80  S   UNL A   1      44.786  20.781  25.081  1.00  0.00     0.124 S 
ATOM     81  O   UNL A   1      43.918  19.855  25.801  1.00  0.00    -0.237 OA
ATOM     82  O   UNL A   1      44.651  20.785  23.629  1.00  0.00    -0.237 OA
ATOM     83  O   UNL A   1      46.158  20.862  25.575  1.00  0.00    -0.744 OA
ENDBRANCH  79  80
ENDBRANCH  47  72
BRANCH  59  84
ATOM     84  C   UNL A   1      45.087  30.710  28.500  1.00  0.00     0.058 A 
ATOM     85  C   UNL A   1      44.082  31.148  27.621  1.00  0.00     0.135 A 
ATOM     86  C   UNL A   1      46.309  31.405  28.474  1.00  0.00     0.135 A 
ATOM     87  F   UNL A   1      42.857  30.602  27.645  1.00  0.00    -0.206 F 
ATOM     88  C   UNL A   1      44.288  32.217  26.746  1.00  0.00     0.059 A 
ATOM     89  C   UNL A   1      46.524  32.494  27.633  1.00  0.00     0.059 A 
ATOM     90  F   UNL A   1      47.293  31.069  29.325  1.00  0.00    -0.206 F 
ATOM     91  C   UNL A   1      45.508  32.896  26.771  1.00  0.00     0.060 A 
BRANCH  91  92
ATOM     92  S   UNL A   1      45.716  34.366  25.741  1.00  0.00     0.124 S 
ATOM     93  O   UNL A   1      45.276  35.433  26.633  1.00  0.00    -0.237 OA
ATOM     94  O   UNL A   1      47.143  34.342  25.437  1.00  0.00    -0.237 OA
ATOM     95  O   UNL A   1      44.842  34.110  24.597  1.00  0.00    -0.744 OA
ENDBRANCH  91  92
ENDBRANCH  59  84
ENDBRANCH  33  34
ENDBRANCH  26  28
ENDBRANCH  25  26
ENDBRANCH   1  25
TORSDOF 17
ENDMDL
