MODEL 1
REMARK VINA RESULT:     -10.3      0.000      0.000
REMARK SMILES CCN(CCC(=O)OCCOC(=O)c1ccc(-c2c3nc(c(-c4c(F)cc(S(=O)(=O)[O-])cc4F)c4ccc([nH]4)c(-c4c(F)cc(S(=O)(=O)[O-])cc4F)c4nc(c(-c5c(F)cc(S(=O)(=O)[O-])cc5F)c5ccc2[nH]5)C=C4)C=C3)cc1)S(=O)(=O)c1cn(CC)cn1
REMARK SMILES IDX 9 1 8 2 6 3 7 4 5 5 4 6 3 7 2 8 1 9 80 10 81 11 82 12 83 13
REMARK SMILES IDX 84 14 89 15 85 16 88 17 86 18 87 19 10 20 11 21 12 22 13 23
REMARK SMILES IDX 14 24 15 25 79 26 16 27 78 28 17 29 18 30 19 31 72 32 20 33
REMARK SMILES IDX 77 34 71 35 73 36 21 37 76 38 70 39 69 40 22 42 56 43 35 44
REMARK SMILES IDX 55 45 36 46 39 47 54 48 74 49 37 50 38 51 53 53 75 54 40 55
REMARK SMILES IDX 23 56 24 57 33 58 25 59 26 60 32 61 34 62 27 63 28 64 29 65
REMARK SMILES IDX 30 66 31 67 57 68 58 69 67 70 59 71 60 72 66 73 68 74 61 75
REMARK SMILES IDX 62 76 63 77 64 78 65 79 41 80 42 81 51 82 43 83 44 84 50 85
REMARK SMILES IDX 52 86 45 87 46 88 47 89 48 90 49 91
REMARK H PARENT 73 41 39 52
REMARK Flexibility Score: inf
ROOT
ATOM      1  C   UNL A   1      39.809  21.373  26.164  1.00  0.00     0.274 C 
ENDROOT
BRANCH   1   2
ATOM      2  O   UNL A   1      38.658  21.922  25.493  1.00  0.00    -0.462 OA
BRANCH   2   3
ATOM      3  C   UNL A   1      37.627  21.087  25.251  1.00  0.00     0.307 C 
ATOM      4  O   UNL A   1      37.720  20.011  24.673  1.00  0.00    -0.252 OA
BRANCH   3   5
ATOM      5  C   UNL A   1      36.298  21.630  25.719  1.00  0.00     0.139 C 
BRANCH   5   6
ATOM      6  C   UNL A   1      35.053  21.159  24.966  1.00  0.00     0.114 C 
BRANCH   6   7
ATOM      7  N   UNL A   1      33.800  21.968  25.114  1.00  0.00    -0.196 NA
BRANCH   7   8
ATOM      8  C   UNL A   1      33.702  22.752  26.367  1.00  0.00     0.099 C 
ATOM      9  C   UNL A   1      33.271  24.194  26.197  1.00  0.00     0.022 C 
ENDBRANCH   7   8
BRANCH   7  10
ATOM     10  S   UNL A   1      32.361  21.329  24.430  1.00  0.00     0.262 S 
ATOM     11  O   UNL A   1      31.359  21.256  25.477  1.00  0.00    -0.205 OA
ATOM     12  O   UNL A   1      32.073  22.051  23.207  1.00  0.00    -0.205 OA
BRANCH  10  13
ATOM     13  C   UNL A   1      32.579  19.673  23.897  1.00  0.00     0.188 A 
ATOM     14  C   UNL A   1      33.195  18.664  24.615  1.00  0.00     0.129 A 
ATOM     15  N   UNL A   1      32.214  19.207  22.641  1.00  0.00    -0.224 NA
ATOM     16  N   UNL A   1      33.328  17.627  23.734  1.00  0.00    -0.336 N 
ATOM     17  C   UNL A   1      32.657  17.969  22.592  1.00  0.00     0.201 A 
BRANCH  16  18
ATOM     18  C   UNL A   1      34.193  16.476  23.898  1.00  0.00     0.120 C 
ATOM     19  C   UNL A   1      34.367  16.039  25.340  1.00  0.00     0.027 C 
ENDBRANCH  16  18
ENDBRANCH  10  13
ENDBRANCH   7  10
ENDBRANCH   6   7
ENDBRANCH   5   6
ENDBRANCH   3   5
ENDBRANCH   2   3
ENDBRANCH   1   2
BRANCH   1  20
ATOM     20  C   UNL A   1      40.325  22.322  27.248  1.00  0.00     0.275 C 
BRANCH  20  21
ATOM     21  O   UNL A   1      40.051  23.699  26.924  1.00  0.00    -0.458 OA
BRANCH  21  22
ATOM     22  C   UNL A   1      41.141  24.488  26.841  1.00  0.00     0.338 C 
ATOM     23  O   UNL A   1      42.069  24.397  26.062  1.00  0.00    -0.246 OA
BRANCH  22  24
ATOM     24  C   UNL A   1      41.068  25.592  27.789  1.00  0.00     0.060 A 
ATOM     25  C   UNL A   1      39.915  25.720  28.567  1.00  0.00     0.016 A 
ATOM     26  C   UNL A   1      42.080  26.548  27.819  1.00  0.00     0.016 A 
ATOM     27  C   UNL A   1      39.789  26.795  29.432  1.00  0.00     0.010 A 
ATOM     28  C   UNL A   1      41.962  27.618  28.700  1.00  0.00     0.010 A 
ATOM     29  C   UNL A   1      40.830  27.728  29.524  1.00  0.00    -0.014 A 
BRANCH  29  30
ATOM     30  C   UNL A   1      40.809  28.739  30.597  1.00  0.00     0.031 A 
ATOM     31  C   UNL A   1      41.680  28.592  31.801  1.00  0.00     0.074 A 
ATOM     32  C   UNL A   1      39.928  29.748  30.474  1.00  0.00     0.049 A 
ATOM     33  N   UNL A   1      41.677  29.295  32.901  1.00  0.00    -0.248 NA
ATOM     34  C   UNL A   1      42.681  27.515  31.772  1.00  0.00     0.031 C 
ATOM     35  C   UNL A   1      39.049  29.960  29.318  1.00  0.00     0.029 A 
ATOM     36  N   UNL A   1      39.602  30.763  31.331  1.00  0.00    -0.354 N 
ATOM     37  C   UNL A   1      42.656  28.736  33.709  1.00  0.00     0.074 A 
ATOM     38  C   UNL A   1      43.236  27.633  32.971  1.00  0.00     0.031 C 
ATOM     39  C   UNL A   1      38.267  31.024  29.551  1.00  0.00     0.029 A 
ATOM     40  C   UNL A   1      38.554  31.533  30.886  1.00  0.00     0.049 A 
ATOM     41  H   UNL A   1      40.069  30.926  32.182  1.00  0.00     0.167 HD
ATOM     42  C   UNL A   1      43.023  29.117  34.955  1.00  0.00     0.037 A 
ATOM     43  C   UNL A   1      37.870  32.510  31.508  1.00  0.00     0.037 A 
ATOM     44  C   UNL A   1      42.427  30.226  35.656  1.00  0.00     0.049 A 
ATOM     45  C   UNL A   1      38.273  32.884  32.903  1.00  0.00     0.074 A 
ATOM     46  C   UNL A   1      42.753  30.732  36.901  1.00  0.00     0.029 A 
ATOM     47  N   UNL A   1      41.373  30.991  35.174  1.00  0.00    -0.354 N 
ATOM     48  N   UNL A   1      39.225  32.372  33.646  1.00  0.00    -0.248 NA
ATOM     49  C   UNL A   1      37.508  33.957  33.550  1.00  0.00     0.031 C 
ATOM     50  C   UNL A   1      41.869  31.779  37.189  1.00  0.00     0.029 A 
ATOM     51  C   UNL A   1      41.016  31.947  36.109  1.00  0.00     0.049 A 
ATOM     52  H   UNL A   1      40.944  30.871  34.296  1.00  0.00     0.167 HD
ATOM     53  C   UNL A   1      39.181  33.062  34.848  1.00  0.00     0.074 A 
ATOM     54  C   UNL A   1      38.117  34.041  34.726  1.00  0.00     0.031 C 
ATOM     55  C   UNL A   1      39.947  32.903  35.955  1.00  0.00     0.037 A 
BRANCH  42  56
ATOM     56  C   UNL A   1      44.086  28.318  35.649  1.00  0.00     0.058 A 
ATOM     57  C   UNL A   1      45.449  28.622  35.512  1.00  0.00     0.135 A 
ATOM     58  C   UNL A   1      43.734  27.258  36.500  1.00  0.00     0.135 A 
ATOM     59  F   UNL A   1      45.841  29.615  34.697  1.00  0.00    -0.206 F 
ATOM     60  C   UNL A   1      46.428  27.894  36.183  1.00  0.00     0.059 A 
ATOM     61  C   UNL A   1      44.694  26.527  37.194  1.00  0.00     0.059 A 
ATOM     62  F   UNL A   1      42.445  26.920  36.661  1.00  0.00    -0.206 F 
ATOM     63  C   UNL A   1      46.040  26.846  37.020  1.00  0.00     0.060 A 
BRANCH  63  64
ATOM     64  S   UNL A   1      47.318  25.911  37.887  1.00  0.00     0.124 S 
ATOM     65  O   UNL A   1      48.224  26.977  38.305  1.00  0.00    -0.237 OA
ATOM     66  O   UNL A   1      46.565  25.264  38.957  1.00  0.00    -0.237 OA
ATOM     67  O   UNL A   1      47.838  25.014  36.860  1.00  0.00    -0.744 OA
ENDBRANCH  63  64
ENDBRANCH  42  56
BRANCH  43  68
ATOM     68  C   UNL A   1      36.721  33.155  30.824  1.00  0.00     0.058 A 
ATOM     69  C   UNL A   1      35.402  32.830  31.164  1.00  0.00     0.135 A 
ATOM     70  C   UNL A   1      36.925  34.142  29.847  1.00  0.00     0.135 A 
ATOM     71  F   UNL A   1      35.161  31.893  32.093  1.00  0.00    -0.206 F 
ATOM     72  C   UNL A   1      34.320  33.455  30.552  1.00  0.00     0.059 A 
ATOM     73  C   UNL A   1      35.859  34.796  29.237  1.00  0.00     0.059 A 
ATOM     74  F   UNL A   1      38.171  34.503  29.502  1.00  0.00    -0.206 F 
ATOM     75  C   UNL A   1      34.560  34.438  29.590  1.00  0.00     0.060 A 
BRANCH  75  76
ATOM     76  S   UNL A   1      33.151  35.282  28.837  1.00  0.00     0.124 S 
ATOM     77  O   UNL A   1      32.566  34.213  28.037  1.00  0.00    -0.237 OA
ATOM     78  O   UNL A   1      32.381  35.703  30.003  1.00  0.00    -0.237 OA
ATOM     79  O   UNL A   1      33.776  36.367  28.086  1.00  0.00    -0.744 OA
ENDBRANCH  75  76
ENDBRANCH  43  68
BRANCH  55  80
ATOM     80  C   UNL A   1      39.659  33.810  37.113  1.00  0.00     0.058 A 
ATOM     81  C   UNL A   1      38.826  33.403  38.164  1.00  0.00     0.135 A 
ATOM     82  C   UNL A   1      40.269  35.071  37.198  1.00  0.00     0.135 A 
ATOM     83  F   UNL A   1      38.211  32.211  38.119  1.00  0.00    -0.206 F 
ATOM     84  C   UNL A   1      38.598  34.223  39.263  1.00  0.00     0.059 A 
ATOM     85  C   UNL A   1      40.072  35.898  38.297  1.00  0.00     0.059 A 
ATOM     86  F   UNL A   1      41.078  35.498  36.216  1.00  0.00    -0.206 F 
ATOM     87  C   UNL A   1      39.229  35.468  39.322  1.00  0.00     0.060 A 
BRANCH  87  88
ATOM     88  S   UNL A   1      38.971  36.503  40.778  1.00  0.00     0.124 S 
ATOM     89  O   UNL A   1      37.996  35.716  41.526  1.00  0.00    -0.237 OA
ATOM     90  O   UNL A   1      40.310  36.571  41.357  1.00  0.00    -0.237 OA
ATOM     91  O   UNL A   1      38.473  37.756  40.218  1.00  0.00    -0.744 OA
ENDBRANCH  87  88
ENDBRANCH  55  80
ENDBRANCH  29  30
ENDBRANCH  22  24
ENDBRANCH  21  22
ENDBRANCH  20  21
ENDBRANCH   1  20
TORSDOF 20
ENDMDL
MODEL 2
REMARK VINA RESULT:     -10.1      3.067      4.499
REMARK SMILES CCN(CCC(=O)OCCOC(=O)c1ccc(-c2c3nc(c(-c4c(F)cc(S(=O)(=O)[O-])cc4F)c4ccc([nH]4)c(-c4c(F)cc(S(=O)(=O)[O-])cc4F)c4nc(c(-c5c(F)cc(S(=O)(=O)[O-])cc5F)c5ccc2[nH]5)C=C4)C=C3)cc1)S(=O)(=O)c1cn(CC)cn1
REMARK SMILES IDX 9 1 8 2 6 3 7 4 5 5 4 6 3 7 2 8 1 9 80 10 81 11 82 12 83 13
REMARK SMILES IDX 84 14 89 15 85 16 88 17 86 18 87 19 10 20 11 21 12 22 13 23
REMARK SMILES IDX 14 24 15 25 79 26 16 27 78 28 17 29 18 30 19 31 72 32 20 33
REMARK SMILES IDX 77 34 71 35 73 36 21 37 76 38 70 39 69 40 22 42 56 43 35 44
REMARK SMILES IDX 55 45 36 46 39 47 54 48 74 49 37 50 38 51 53 53 75 54 40 55
REMARK SMILES IDX 23 56 24 57 33 58 25 59 26 60 32 61 34 62 27 63 28 64 29 65
REMARK SMILES IDX 30 66 31 67 57 68 58 69 67 70 59 71 60 72 66 73 68 74 61 75
REMARK SMILES IDX 62 76 63 77 64 78 65 79 41 80 42 81 51 82 43 83 44 84 50 85
REMARK SMILES IDX 52 86 45 87 46 88 47 89 48 90 49 91
REMARK H PARENT 73 41 39 52
REMARK Flexibility Score: inf
ROOT
ATOM      1  C   UNL A   1      36.232  21.775  25.964  1.00  0.00     0.274 C 
ENDROOT
BRANCH   1   2
ATOM      2  O   UNL A   1      35.600  23.027  26.294  1.00  0.00    -0.462 OA
BRANCH   2   3
ATOM      3  C   UNL A   1      34.411  22.973  26.927  1.00  0.00     0.307 C 
ATOM      4  O   UNL A   1      34.150  22.225  27.862  1.00  0.00    -0.252 OA
BRANCH   3   5
ATOM      5  C   UNL A   1      33.377  23.900  26.334  1.00  0.00     0.139 C 
BRANCH   5   6
ATOM      6  C   UNL A   1      33.891  25.035  25.448  1.00  0.00     0.114 C 
BRANCH   6   7
ATOM      7  N   UNL A   1      33.620  24.950  23.976  1.00  0.00    -0.196 NA
BRANCH   7   8
ATOM      8  C   UNL A   1      34.327  23.856  23.269  1.00  0.00     0.099 C 
ATOM      9  C   UNL A   1      33.435  22.796  22.657  1.00  0.00     0.022 C 
ENDBRANCH   7   8
BRANCH   7  10
ATOM     10  S   UNL A   1      33.334  26.419  23.138  1.00  0.00     0.262 S 
ATOM     11  O   UNL A   1      33.965  27.493  23.882  1.00  0.00    -0.205 OA
ATOM     12  O   UNL A   1      33.662  26.222  21.739  1.00  0.00    -0.205 OA
BRANCH  10  13
ATOM     13  C   UNL A   1      31.629  26.828  23.113  1.00  0.00     0.188 A 
ATOM     14  C   UNL A   1      31.037  27.793  22.319  1.00  0.00     0.129 A 
ATOM     15  N   UNL A   1      30.683  26.264  23.960  1.00  0.00    -0.224 NA
ATOM     16  N   UNL A   1      29.759  27.910  22.789  1.00  0.00    -0.336 N 
ATOM     17  C   UNL A   1      29.570  26.922  23.717  1.00  0.00     0.201 A 
BRANCH  16  18
ATOM     18  C   UNL A   1      28.847  29.002  22.515  1.00  0.00     0.120 C 
ATOM     19  C   UNL A   1      29.539  30.318  22.212  1.00  0.00     0.027 C 
ENDBRANCH  16  18
ENDBRANCH  10  13
ENDBRANCH   7  10
ENDBRANCH   6   7
ENDBRANCH   5   6
ENDBRANCH   3   5
ENDBRANCH   2   3
ENDBRANCH   1   2
BRANCH   1  20
ATOM     20  C   UNL A   1      37.484  21.992  25.112  1.00  0.00     0.275 C 
BRANCH  20  21
ATOM     21  O   UNL A   1      38.130  23.241  25.424  1.00  0.00    -0.458 OA
BRANCH  21  22
ATOM     22  C   UNL A   1      39.313  23.121  26.060  1.00  0.00     0.338 C 
ATOM     23  O   UNL A   1      40.098  22.194  26.006  1.00  0.00    -0.246 OA
BRANCH  22  24
ATOM     24  C   UNL A   1      39.633  24.326  26.813  1.00  0.00     0.060 A 
ATOM     25  C   UNL A   1      39.041  24.499  28.066  1.00  0.00     0.016 A 
ATOM     26  C   UNL A   1      40.417  25.320  26.232  1.00  0.00     0.016 A 
ATOM     27  C   UNL A   1      39.276  25.664  28.779  1.00  0.00     0.010 A 
ATOM     28  C   UNL A   1      40.667  26.481  26.955  1.00  0.00     0.010 A 
ATOM     29  C   UNL A   1      40.118  26.643  28.238  1.00  0.00    -0.014 A 
BRANCH  29  30
ATOM     30  C   UNL A   1      40.556  27.772  29.077  1.00  0.00     0.031 A 
ATOM     31  C   UNL A   1      41.794  27.673  29.906  1.00  0.00     0.074 A 
ATOM     32  C   UNL A   1      39.759  28.856  29.115  1.00  0.00     0.049 A 
ATOM     33  N   UNL A   1      42.238  28.501  30.814  1.00  0.00    -0.248 NA
ATOM     34  C   UNL A   1      42.642  26.490  29.697  1.00  0.00     0.031 C 
ATOM     35  C   UNL A   1      38.536  29.027  28.323  1.00  0.00     0.029 A 
ATOM     36  N   UNL A   1      39.835  29.999  29.862  1.00  0.00    -0.354 N 
ATOM     37  C   UNL A   1      43.405  27.933  31.304  1.00  0.00     0.074 A 
ATOM     38  C   UNL A   1      43.602  26.687  30.592  1.00  0.00     0.031 C 
ATOM     39  C   UNL A   1      37.964  30.196  28.646  1.00  0.00     0.029 A 
ATOM     40  C   UNL A   1      38.750  30.827  29.697  1.00  0.00     0.049 A 
ATOM     41  H   UNL A   1      40.590  30.209  30.458  1.00  0.00     0.167 HD
ATOM     42  C   UNL A   1      44.224  28.418  32.265  1.00  0.00     0.037 A 
ATOM     43  C   UNL A   1      38.406  31.946  30.358  1.00  0.00     0.037 A 
ATOM     44  C   UNL A   1      43.999  29.666  32.948  1.00  0.00     0.049 A 
ATOM     45  C   UNL A   1      39.312  32.439  31.447  1.00  0.00     0.074 A 
ATOM     46  C   UNL A   1      44.788  30.280  33.904  1.00  0.00     0.029 A 
ATOM     47  N   UNL A   1      42.895  30.486  32.753  1.00  0.00    -0.354 N 
ATOM     48  N   UNL A   1      40.434  31.912  31.879  1.00  0.00    -0.248 NA
ATOM     49  C   UNL A   1      38.908  33.665  32.144  1.00  0.00     0.031 C 
ATOM     50  C   UNL A   1      44.141  31.450  34.316  1.00  0.00     0.029 A 
ATOM     51  C   UNL A   1      42.966  31.585  33.591  1.00  0.00     0.049 A 
ATOM     52  H   UNL A   1      42.169  30.311  32.112  1.00  0.00     0.167 HD
ATOM     53  C   UNL A   1      40.876  32.745  32.896  1.00  0.00     0.074 A 
ATOM     54  C   UNL A   1      39.908  33.820  33.003  1.00  0.00     0.031 C 
ATOM     55  C   UNL A   1      41.980  32.633  33.674  1.00  0.00     0.037 A 
BRANCH  42  56
ATOM     56  C   UNL A   1      45.412  27.590  32.659  1.00  0.00     0.058 A 
ATOM     57  C   UNL A   1      45.350  26.653  33.701  1.00  0.00     0.135 A 
ATOM     58  C   UNL A   1      46.621  27.705  31.952  1.00  0.00     0.135 A 
ATOM     59  F   UNL A   1      44.224  26.516  34.419  1.00  0.00    -0.206 F 
ATOM     60  C   UNL A   1      46.449  25.868  34.040  1.00  0.00     0.059 A 
ATOM     61  C   UNL A   1      47.727  26.919  32.263  1.00  0.00     0.059 A 
ATOM     62  F   UNL A   1      46.736  28.591  30.951  1.00  0.00    -0.206 F 
ATOM     63  C   UNL A   1      47.634  26.011  33.316  1.00  0.00     0.060 A 
BRANCH  63  64
ATOM     64  S   UNL A   1      49.051  24.985  33.764  1.00  0.00     0.124 S 
ATOM     65  O   UNL A   1      49.680  24.775  32.463  1.00  0.00    -0.237 OA
ATOM     66  O   UNL A   1      49.782  25.845  34.689  1.00  0.00    -0.237 OA
ATOM     67  O   UNL A   1      48.438  23.804  34.363  1.00  0.00    -0.744 OA
ENDBRANCH  63  64
ENDBRANCH  42  56
BRANCH  43  68
ATOM     68  C   UNL A   1      37.132  32.633  30.029  1.00  0.00     0.058 A 
ATOM     69  C   UNL A   1      35.941  32.305  30.688  1.00  0.00     0.135 A 
ATOM     70  C   UNL A   1      37.094  33.665  29.077  1.00  0.00     0.135 A 
ATOM     71  F   UNL A   1      35.932  31.326  31.606  1.00  0.00    -0.206 F 
ATOM     72  C   UNL A   1      34.750  32.968  30.410  1.00  0.00     0.059 A 
ATOM     73  C   UNL A   1      35.920  34.357  28.797  1.00  0.00     0.059 A 
ATOM     74  F   UNL A   1      38.214  34.032  28.434  1.00  0.00    -0.206 F 
ATOM     75  C   UNL A   1      34.750  33.994  29.462  1.00  0.00     0.060 A 
BRANCH  75  76
ATOM     76  S   UNL A   1      33.212  34.885  29.143  1.00  0.00     0.124 S 
ATOM     77  O   UNL A   1      33.712  36.182  28.704  1.00  0.00    -0.237 OA
ATOM     78  O   UNL A   1      32.582  34.061  28.117  1.00  0.00    -0.237 OA
ATOM     79  O   UNL A   1      32.544  34.870  30.442  1.00  0.00    -0.744 OA
ENDBRANCH  75  76
ENDBRANCH  43  68
BRANCH  55  80
ATOM     80  C   UNL A   1      42.194  33.703  34.703  1.00  0.00     0.058 A 
ATOM     81  C   UNL A   1      41.843  33.501  36.045  1.00  0.00     0.135 A 
ATOM     82  C   UNL A   1      42.808  34.915  34.352  1.00  0.00     0.135 A 
ATOM     83  F   UNL A   1      41.242  32.362  36.423  1.00  0.00    -0.206 F 
ATOM     84  C   UNL A   1      42.087  34.472  37.009  1.00  0.00     0.059 A 
ATOM     85  C   UNL A   1      43.080  35.891  35.302  1.00  0.00     0.059 A 
ATOM     86  F   UNL A   1      43.165  35.149  33.079  1.00  0.00    -0.206 F 
ATOM     87  C   UNL A   1      42.709  35.663  36.628  1.00  0.00     0.060 A 
BRANCH  87  88
ATOM     88  S   UNL A   1      43.072  36.895  37.895  1.00  0.00     0.124 S 
ATOM     89  O   UNL A   1      41.733  37.225  38.374  1.00  0.00    -0.237 OA
ATOM     90  O   UNL A   1      43.912  36.149  38.829  1.00  0.00    -0.237 OA
ATOM     91  O   UNL A   1      43.754  37.952  37.155  1.00  0.00    -0.744 OA
ENDBRANCH  87  88
ENDBRANCH  55  80
ENDBRANCH  29  30
ENDBRANCH  22  24
ENDBRANCH  21  22
ENDBRANCH  20  21
ENDBRANCH   1  20
TORSDOF 20
ENDMDL
MODEL 3
REMARK VINA RESULT:     -10.1      2.320      3.793
REMARK SMILES CCN(CCC(=O)OCCOC(=O)c1ccc(-c2c3nc(c(-c4c(F)cc(S(=O)(=O)[O-])cc4F)c4ccc([nH]4)c(-c4c(F)cc(S(=O)(=O)[O-])cc4F)c4nc(c(-c5c(F)cc(S(=O)(=O)[O-])cc5F)c5ccc2[nH]5)C=C4)C=C3)cc1)S(=O)(=O)c1cn(CC)cn1
REMARK SMILES IDX 9 1 8 2 6 3 7 4 5 5 4 6 3 7 2 8 1 9 80 10 81 11 82 12 83 13
REMARK SMILES IDX 84 14 89 15 85 16 88 17 86 18 87 19 10 20 11 21 12 22 13 23
REMARK SMILES IDX 14 24 15 25 79 26 16 27 78 28 17 29 18 30 19 31 72 32 20 33
REMARK SMILES IDX 77 34 71 35 73 36 21 37 76 38 70 39 69 40 22 42 56 43 35 44
REMARK SMILES IDX 55 45 36 46 39 47 54 48 74 49 37 50 38 51 53 53 75 54 40 55
REMARK SMILES IDX 23 56 24 57 33 58 25 59 26 60 32 61 34 62 27 63 28 64 29 65
REMARK SMILES IDX 30 66 31 67 57 68 58 69 67 70 59 71 60 72 66 73 68 74 61 75
REMARK SMILES IDX 62 76 63 77 64 78 65 79 41 80 42 81 51 82 43 83 44 84 50 85
REMARK SMILES IDX 52 86 45 87 46 88 47 89 48 90 49 91
REMARK H PARENT 73 41 39 52
REMARK Flexibility Score: inf
ROOT
ATOM      1  C   UNL A   1      38.059  21.919  25.679  1.00  0.00     0.274 C 
ENDROOT
BRANCH   1   2
ATOM      2  O   UNL A   1      37.098  22.993  25.677  1.00  0.00    -0.462 OA
BRANCH   2   3
ATOM      3  C   UNL A   1      35.954  22.798  24.991  1.00  0.00     0.307 C 
ATOM      4  O   UNL A   1      35.436  21.705  24.791  1.00  0.00    -0.252 OA
BRANCH   3   5
ATOM      5  C   UNL A   1      35.373  24.071  24.424  1.00  0.00     0.139 C 
BRANCH   5   6
ATOM      6  C   UNL A   1      33.887  24.328  24.676  1.00  0.00     0.114 C 
BRANCH   6   7
ATOM      7  N   UNL A   1      33.363  25.707  24.412  1.00  0.00    -0.196 NA
BRANCH   7   8
ATOM      8  C   UNL A   1      32.910  26.449  25.613  1.00  0.00     0.099 C 
ATOM      9  C   UNL A   1      33.765  27.637  26.001  1.00  0.00     0.022 C 
ENDBRANCH   7   8
BRANCH   7  10
ATOM     10  S   UNL A   1      32.544  25.971  22.927  1.00  0.00     0.262 S 
ATOM     11  O   UNL A   1      33.520  26.405  21.945  1.00  0.00    -0.205 OA
ATOM     12  O   UNL A   1      31.707  24.819  22.652  1.00  0.00    -0.205 OA
BRANCH  10  13
ATOM     13  C   UNL A   1      31.402  27.297  23.046  1.00  0.00     0.188 A 
ATOM     14  C   UNL A   1      30.036  27.178  23.215  1.00  0.00     0.129 A 
ATOM     15  N   UNL A   1      31.748  28.634  22.905  1.00  0.00    -0.224 NA
ATOM     16  N   UNL A   1      29.540  28.439  23.034  1.00  0.00    -0.336 N 
ATOM     17  C   UNL A   1      30.607  29.288  22.929  1.00  0.00     0.201 A 
BRANCH  16  18
ATOM     18  C   UNL A   1      28.155  28.782  22.786  1.00  0.00     0.120 C 
ATOM     19  C   UNL A   1      27.836  30.249  23.009  1.00  0.00     0.027 C 
ENDBRANCH  16  18
ENDBRANCH  10  13
ENDBRANCH   7  10
ENDBRANCH   6   7
ENDBRANCH   5   6
ENDBRANCH   3   5
ENDBRANCH   2   3
ENDBRANCH   1   2
BRANCH   1  20
ATOM     20  C   UNL A   1      39.300  22.287  26.494  1.00  0.00     0.275 C 
BRANCH  20  21
ATOM     21  O   UNL A   1      39.309  23.683  26.850  1.00  0.00    -0.458 OA
BRANCH  21  22
ATOM     22  C   UNL A   1      40.534  24.243  26.908  1.00  0.00     0.338 C 
ATOM     23  O   UNL A   1      41.524  23.937  26.275  1.00  0.00    -0.246 OA
BRANCH  22  24
ATOM     24  C   UNL A   1      40.549  25.389  27.807  1.00  0.00     0.060 A 
ATOM     25  C   UNL A   1      39.493  25.534  28.710  1.00  0.00     0.016 A 
ATOM     26  C   UNL A   1      41.536  26.363  27.675  1.00  0.00     0.016 A 
ATOM     27  C   UNL A   1      39.446  26.647  29.536  1.00  0.00     0.010 A 
ATOM     28  C   UNL A   1      41.499  27.470  28.515  1.00  0.00     0.010 A 
ATOM     29  C   UNL A   1      40.470  27.600  29.462  1.00  0.00    -0.014 A 
BRANCH  29  30
ATOM     30  C   UNL A   1      40.553  28.660  30.484  1.00  0.00     0.031 A 
ATOM     31  C   UNL A   1      41.487  28.531  31.642  1.00  0.00     0.074 A 
ATOM     32  C   UNL A   1      39.709  29.700  30.362  1.00  0.00     0.049 A 
ATOM     33  N   UNL A   1      41.577  29.284  32.705  1.00  0.00    -0.248 NA
ATOM     34  C   UNL A   1      42.439  27.411  31.609  1.00  0.00     0.031 C 
ATOM     35  C   UNL A   1      38.773  29.896  29.249  1.00  0.00     0.029 A 
ATOM     36  N   UNL A   1      39.475  30.766  31.185  1.00  0.00    -0.354 N 
ATOM     37  C   UNL A   1      42.578  28.720  33.483  1.00  0.00     0.074 A 
ATOM     38  C   UNL A   1      43.068  27.560  32.768  1.00  0.00     0.031 C 
ATOM     39  C   UNL A   1      38.050  31.003  29.474  1.00  0.00     0.029 A 
ATOM     40  C   UNL A   1      38.436  31.560  30.763  1.00  0.00     0.049 A 
ATOM     41  H   UNL A   1      39.998  30.948  32.000  1.00  0.00     0.167 HD
ATOM     42  C   UNL A   1      43.033  29.142  34.685  1.00  0.00     0.037 A 
ATOM     43  C   UNL A   1      37.830  32.594  31.375  1.00  0.00     0.037 A 
ATOM     44  C   UNL A   1      42.525  30.307  35.364  1.00  0.00     0.049 A 
ATOM     45  C   UNL A   1      38.329  33.015  32.725  1.00  0.00     0.074 A 
ATOM     46  C   UNL A   1      42.944  30.857  36.562  1.00  0.00     0.029 A 
ATOM     47  N   UNL A   1      41.477  31.095  34.906  1.00  0.00    -0.354 N 
ATOM     48  N   UNL A   1      39.302  32.496  33.436  1.00  0.00    -0.248 NA
ATOM     49  C   UNL A   1      37.648  34.148  33.361  1.00  0.00     0.031 C 
ATOM     50  C   UNL A   1      42.122  31.953  36.848  1.00  0.00     0.029 A 
ATOM     51  C   UNL A   1      41.214  32.108  35.812  1.00  0.00     0.049 A 
ATOM     52  H   UNL A   1      40.993  30.953  34.061  1.00  0.00     0.167 HD
ATOM     53  C   UNL A   1      39.356  33.243  34.604  1.00  0.00     0.074 A 
ATOM     54  C   UNL A   1      38.328  34.260  34.494  1.00  0.00     0.031 C 
ATOM     55  C   UNL A   1      40.178  33.101  35.672  1.00  0.00     0.037 A 
BRANCH  42  56
ATOM     56  C   UNL A   1      44.102  28.331  35.356  1.00  0.00     0.058 A 
ATOM     57  C   UNL A   1      43.793  27.265  36.215  1.00  0.00     0.135 A 
ATOM     58  C   UNL A   1      45.457  28.596  35.102  1.00  0.00     0.135 A 
ATOM     59  F   UNL A   1      42.513  26.980  36.505  1.00  0.00    -0.206 F 
ATOM     60  C   UNL A   1      44.791  26.498  36.811  1.00  0.00     0.059 A 
ATOM     61  C   UNL A   1      46.471  27.832  35.673  1.00  0.00     0.059 A 
ATOM     62  F   UNL A   1      45.807  29.609  34.295  1.00  0.00    -0.206 F 
ATOM     63  C   UNL A   1      46.128  26.792  36.535  1.00  0.00     0.060 A 
BRANCH  63  64
ATOM     64  S   UNL A   1      47.412  25.788  37.311  1.00  0.00     0.124 S 
ATOM     65  O   UNL A   1      48.296  25.523  36.180  1.00  0.00    -0.237 OA
ATOM     66  O   UNL A   1      47.942  26.689  38.331  1.00  0.00    -0.237 OA
ATOM     67  O   UNL A   1      46.680  24.633  37.820  1.00  0.00    -0.744 OA
ENDBRANCH  63  64
ENDBRANCH  42  56
BRANCH  43  68
ATOM     68  C   UNL A   1      36.670  33.256  30.726  1.00  0.00     0.058 A 
ATOM     69  C   UNL A   1      35.368  33.068  31.207  1.00  0.00     0.135 A 
ATOM     70  C   UNL A   1      36.851  34.126  29.639  1.00  0.00     0.135 A 
ATOM     71  F   UNL A   1      35.150  32.246  32.244  1.00  0.00    -0.206 F 
ATOM     72  C   UNL A   1      34.281  33.711  30.626  1.00  0.00     0.059 A 
ATOM     73  C   UNL A   1      35.782  34.798  29.056  1.00  0.00     0.059 A 
ATOM     74  F   UNL A   1      38.083  34.355  29.156  1.00  0.00    -0.206 F 
ATOM     75  C   UNL A   1      34.498  34.576  29.551  1.00  0.00     0.060 A 
BRANCH  75  76
ATOM     76  S   UNL A   1      33.088  35.448  28.835  1.00  0.00     0.124 S 
ATOM     77  O   UNL A   1      33.751  36.505  28.081  1.00  0.00    -0.237 OA
ATOM     78  O   UNL A   1      32.445  34.404  28.044  1.00  0.00    -0.237 OA
ATOM     79  O   UNL A   1      32.335  35.883  30.009  1.00  0.00    -0.744 OA
ENDBRANCH  75  76
ENDBRANCH  43  68
BRANCH  55  80
ATOM     80  C   UNL A   1      39.997  34.073  36.799  1.00  0.00     0.058 A 
ATOM     81  C   UNL A   1      40.710  35.278  36.841  1.00  0.00     0.135 A 
ATOM     82  C   UNL A   1      39.059  33.820  37.812  1.00  0.00     0.135 A 
ATOM     83  F   UNL A   1      41.626  35.556  35.900  1.00  0.00    -0.206 F 
ATOM     84  C   UNL A   1      40.506  36.203  37.859  1.00  0.00     0.059 A 
ATOM     85  C   UNL A   1      38.824  34.738  38.828  1.00  0.00     0.059 A 
ATOM     86  F   UNL A   1      38.350  32.679  37.809  1.00  0.00    -0.206 F 
ATOM     87  C   UNL A   1      39.558  35.925  38.846  1.00  0.00     0.060 A 
BRANCH  87  88
ATOM     88  S   UNL A   1      39.261  37.155  40.133  1.00  0.00     0.124 S 
ATOM     89  O   UNL A   1      38.533  36.371  41.124  1.00  0.00    -0.237 OA
ATOM     90  O   UNL A   1      40.615  37.552  40.509  1.00  0.00    -0.237 OA
ATOM     91  O   UNL A   1      38.482  38.181  39.446  1.00  0.00    -0.744 OA
ENDBRANCH  87  88
ENDBRANCH  55  80
ENDBRANCH  29  30
ENDBRANCH  22  24
ENDBRANCH  21  22
ENDBRANCH  20  21
ENDBRANCH   1  20
TORSDOF 20
ENDMDL
