MODEL 1
REMARK VINA RESULT:     -10.7      0.000      0.000
REMARK SMILES Cc1cc(Cl)c(C)c2c1O[C@H](C(F)(F)F)C(C(=O)OCCOC(=O)c1ccc(-c3c4nc(c(-c5c(F)cc(S(=O)(=O)[O-])cc5F)c5ccc([nH]5)c(-c5c(F)cc(S(=O)(=O)[O-])cc5F)c5nc(c(-c6c(F)cc(S(=O)(=O)[O-])cc6F)c6ccc3[nH]6)C=C5)C=C4)cc1)=C2
REMARK SMILES IDX 21 1 20 2 19 3 17 4 18 5 16 6 1 7 2 8 3 9 9 10 4 11 8 12
REMARK SMILES IDX 10 13 5 14 6 15 91 16 11 17 7 18 12 19 13 20 14 21 15 22
REMARK SMILES IDX 22 23 23 24 24 25 25 26 26 27 90 28 27 29 89 30 28 31 29 32
REMARK SMILES IDX 30 33 83 34 31 35 88 36 82 37 84 38 32 39 87 40 81 41 80 42
REMARK SMILES IDX 33 44 67 45 46 46 66 47 47 48 50 49 65 50 85 51 48 52 49 53
REMARK SMILES IDX 64 55 86 56 51 57 34 58 35 59 44 60 36 61 37 62 43 63 45 64
REMARK SMILES IDX 38 65 39 66 40 67 41 68 42 69 68 70 69 71 78 72 70 73 71 74
REMARK SMILES IDX 77 75 79 76 72 77 73 78 74 79 75 80 76 81 52 82 53 83 62 84
REMARK SMILES IDX 54 85 55 86 61 87 63 88 56 89 57 90 58 91 59 92 60 93
REMARK H PARENT 84 43 50 54
REMARK Flexibility Score: inf
ROOT
ATOM      1  C   UNL A   1      33.579  33.703  28.186  1.00  0.00     0.275 C 
ENDROOT
BRANCH   1   2
ATOM      2  C   UNL A   1      34.292  34.902  28.809  1.00  0.00     0.275 C 
BRANCH   2   3
ATOM      3  O   UNL A   1      34.212  34.869  30.250  1.00  0.00    -0.459 OA
BRANCH   3   4
ATOM      4  C   UNL A   1      34.791  33.800  30.846  1.00  0.00     0.338 C 
ATOM      5  O   UNL A   1      34.391  32.647  30.816  1.00  0.00    -0.246 OA
BRANCH   4   6
ATOM      6  C   UNL A   1      36.002  34.210  31.581  1.00  0.00     0.087 C 
ATOM      7  C   UNL A   1      39.338  35.360  35.308  1.00  0.00     0.048 C 
ATOM      8  C   UNL A   1      39.422  34.986  33.855  1.00  0.00    -0.007 A 
ATOM      9  C   UNL A   1      40.687  34.789  33.291  1.00  0.00     0.028 A 
ATOM     10  C   UNL A   1      38.285  34.767  33.067  1.00  0.00     0.131 A 
ATOM     11  C   UNL A   1      40.829  34.419  31.952  1.00  0.00     0.045 A 
ATOM     12  C   UNL A   1      38.414  34.380  31.721  1.00  0.00     0.022 A 
ATOM     13  O   UNL A   1      37.078  34.975  33.680  1.00  0.00    -0.475 OA
ATOM     14  Cl  UNL A   1      42.449  34.208  31.382  1.00  0.00    -0.084 Cl
ATOM     15  C   UNL A   1      39.701  34.219  31.139  1.00  0.00    -0.021 A 
ATOM     16  C   UNL A   1      37.188  34.124  30.967  1.00  0.00     0.027 C 
ATOM     17  C   UNL A   1      35.854  34.563  33.025  1.00  0.00     0.316 C 
ATOM     18  C   UNL A   1      39.848  33.846  29.683  1.00  0.00     0.047 C 
BRANCH  17  19
ATOM     19  C   UNL A   1      35.221  33.414  33.825  1.00  0.00     0.430 C 
ATOM     20  F   UNL A   1      33.873  33.404  33.693  1.00  0.00    -0.167 F 
ATOM     21  F   UNL A   1      35.654  32.205  33.388  1.00  0.00    -0.167 F 
ATOM     22  F   UNL A   1      35.498  33.491  35.145  1.00  0.00    -0.167 F 
ENDBRANCH  17  19
ENDBRANCH   4   6
ENDBRANCH   3   4
ENDBRANCH   2   3
ENDBRANCH   1   2
BRANCH   1  23
ATOM     23  O   UNL A   1      34.514  32.898  27.448  1.00  0.00    -0.458 OA
BRANCH  23  24
ATOM     24  C   UNL A   1      34.396  31.565  27.643  1.00  0.00     0.338 C 
ATOM     25  O   UNL A   1      33.396  30.882  27.489  1.00  0.00    -0.246 OA
BRANCH  24  26
ATOM     26  C   UNL A   1      35.699  30.979  27.991  1.00  0.00     0.060 A 
ATOM     27  C   UNL A   1      35.733  29.693  28.511  1.00  0.00     0.016 A 
ATOM     28  C   UNL A   1      36.841  31.775  28.029  1.00  0.00     0.016 A 
ATOM     29  C   UNL A   1      36.840  29.270  29.239  1.00  0.00     0.010 A 
ATOM     30  C   UNL A   1      38.005  31.282  28.633  1.00  0.00     0.010 A 
ATOM     31  C   UNL A   1      37.999  30.052  29.319  1.00  0.00    -0.014 A 
BRANCH  31  32
ATOM     32  C   UNL A   1      39.156  29.637  30.177  1.00  0.00     0.031 A 
ATOM     33  C   UNL A   1      40.212  28.703  29.622  1.00  0.00     0.074 A 
ATOM     34  C   UNL A   1      39.308  30.109  31.434  1.00  0.00     0.049 A 
ATOM     35  N   UNL A   1      41.126  28.013  30.257  1.00  0.00    -0.248 NA
ATOM     36  C   UNL A   1      40.230  28.506  28.162  1.00  0.00     0.031 C 
ATOM     37  C   UNL A   1      38.439  31.085  32.093  1.00  0.00     0.029 A 
ATOM     38  N   UNL A   1      40.266  29.837  32.384  1.00  0.00    -0.354 N 
ATOM     39  C   UNL A   1      41.772  27.248  29.288  1.00  0.00     0.074 A 
ATOM     40  C   UNL A   1      41.142  27.555  28.023  1.00  0.00     0.031 C 
ATOM     41  C   UNL A   1      38.933  31.376  33.305  1.00  0.00     0.029 A 
ATOM     42  C   UNL A   1      40.069  30.505  33.571  1.00  0.00     0.049 A 
ATOM     43  H   UNL A   1      41.019  29.222  32.230  1.00  0.00     0.167 HD
ATOM     44  C   UNL A   1      42.794  26.371  29.442  1.00  0.00     0.037 A 
ATOM     45  C   UNL A   1      40.676  30.386  34.769  1.00  0.00     0.037 A 
ATOM     46  C   UNL A   1      43.468  26.133  30.694  1.00  0.00     0.049 A 
ATOM     47  C   UNL A   1      41.753  29.355  34.940  1.00  0.00     0.074 A 
ATOM     48  C   UNL A   1      44.516  25.267  30.957  1.00  0.00     0.029 A 
ATOM     49  N   UNL A   1      43.183  26.784  31.885  1.00  0.00    -0.354 N 
ATOM     50  N   UNL A   1      42.275  28.552  34.044  1.00  0.00    -0.248 NA
ATOM     51  C   UNL A   1      42.300  29.186  36.294  1.00  0.00     0.031 C 
ATOM     52  C   UNL A   1      44.833  25.361  32.316  1.00  0.00     0.029 A 
ATOM     53  C   UNL A   1      44.019  26.323  32.890  1.00  0.00     0.049 A 
ATOM     54  H   UNL A   1      42.487  27.472  32.000  1.00  0.00     0.167 HD
ATOM     55  C   UNL A   1      43.215  27.785  34.724  1.00  0.00     0.074 A 
ATOM     56  C   UNL A   1      43.211  28.242  36.100  1.00  0.00     0.031 C 
ATOM     57  C   UNL A   1      44.001  26.784  34.256  1.00  0.00     0.037 A 
BRANCH  44  58
ATOM     58  C   UNL A   1      43.238  25.573  28.243  1.00  0.00     0.058 A 
ATOM     59  C   UNL A   1      44.253  26.014  27.381  1.00  0.00     0.135 A 
ATOM     60  C   UNL A   1      42.675  24.309  27.991  1.00  0.00     0.135 A 
ATOM     61  F   UNL A   1      44.815  27.220  27.560  1.00  0.00    -0.206 F 
ATOM     62  C   UNL A   1      44.684  25.241  26.305  1.00  0.00     0.059 A 
ATOM     63  C   UNL A   1      43.110  23.506  26.940  1.00  0.00     0.059 A 
ATOM     64  F   UNL A   1      41.700  23.835  28.782  1.00  0.00    -0.206 F 
ATOM     65  C   UNL A   1      44.109  23.985  26.097  1.00  0.00     0.060 A 
BRANCH  65  66
ATOM     66  S   UNL A   1      44.695  22.988  24.710  1.00  0.00     0.124 S 
ATOM     67  O   UNL A   1      45.150  21.779  25.391  1.00  0.00    -0.237 OA
ATOM     68  O   UNL A   1      43.489  22.842  23.902  1.00  0.00    -0.237 OA
ATOM     69  O   UNL A   1      45.749  23.806  24.119  1.00  0.00    -0.744 OA
ENDBRANCH  65  66
ENDBRANCH  44  58
BRANCH  45  70
ATOM     70  C   UNL A   1      40.222  31.219  35.918  1.00  0.00     0.058 A 
ATOM     71  C   UNL A   1      41.046  32.219  36.454  1.00  0.00     0.135 A 
ATOM     72  C   UNL A   1      38.947  31.051  36.486  1.00  0.00     0.135 A 
ATOM     73  F   UNL A   1      42.280  32.407  35.961  1.00  0.00    -0.206 F 
ATOM     74  C   UNL A   1      40.622  33.025  37.506  1.00  0.00     0.059 A 
ATOM     75  C   UNL A   1      38.489  31.867  37.514  1.00  0.00     0.059 A 
ATOM     76  F   UNL A   1      38.116  30.111  36.009  1.00  0.00    -0.206 F 
ATOM     77  C   UNL A   1      39.337  32.848  38.023  1.00  0.00     0.060 A 
BRANCH  77  78
ATOM     78  S   UNL A   1      38.776  33.943  39.343  1.00  0.00     0.124 S 
ATOM     79  O   UNL A   1      37.416  33.466  39.564  1.00  0.00    -0.237 OA
ATOM     80  O   UNL A   1      39.735  33.655  40.405  1.00  0.00    -0.237 OA
ATOM     81  O   UNL A   1      38.890  35.272  38.750  1.00  0.00    -0.744 OA
ENDBRANCH  77  78
ENDBRANCH  45  70
BRANCH  57  82
ATOM     82  C   UNL A   1      44.930  26.122  35.235  1.00  0.00     0.058 A 
ATOM     83  C   UNL A   1      44.548  24.974  35.947  1.00  0.00     0.135 A 
ATOM     84  C   UNL A   1      46.229  26.616  35.434  1.00  0.00     0.135 A 
ATOM     85  F   UNL A   1      43.313  24.467  35.799  1.00  0.00    -0.206 F 
ATOM     86  C   UNL A   1      45.411  24.354  36.842  1.00  0.00     0.059 A 
ATOM     87  C   UNL A   1      47.121  25.993  36.302  1.00  0.00     0.059 A 
ATOM     88  F   UNL A   1      46.649  27.705  34.771  1.00  0.00    -0.206 F 
ATOM     89  C   UNL A   1      46.698  24.870  37.011  1.00  0.00     0.060 A 
BRANCH  89  90
ATOM     90  S   UNL A   1      47.812  24.040  38.163  1.00  0.00     0.124 S 
ATOM     91  O   UNL A   1      49.024  24.840  38.029  1.00  0.00    -0.237 OA
ATOM     92  O   UNL A   1      47.102  24.172  39.431  1.00  0.00    -0.237 OA
ATOM     93  O   UNL A   1      47.897  22.681  37.637  1.00  0.00    -0.744 OA
ENDBRANCH  89  90
ENDBRANCH  57  82
ENDBRANCH  31  32
ENDBRANCH  24  26
ENDBRANCH  23  24
ENDBRANCH   1  23
TORSDOF 15
ENDMDL
MODEL 2
REMARK VINA RESULT:     -10.7      5.633     11.080
REMARK SMILES Cc1cc(Cl)c(C)c2c1O[C@H](C(F)(F)F)C(C(=O)OCCOC(=O)c1ccc(-c3c4nc(c(-c5c(F)cc(S(=O)(=O)[O-])cc5F)c5ccc([nH]5)c(-c5c(F)cc(S(=O)(=O)[O-])cc5F)c5nc(c(-c6c(F)cc(S(=O)(=O)[O-])cc6F)c6ccc3[nH]6)C=C5)C=C4)cc1)=C2
REMARK SMILES IDX 21 1 20 2 19 3 17 4 18 5 16 6 1 7 2 8 3 9 9 10 4 11 8 12
REMARK SMILES IDX 10 13 5 14 6 15 91 16 11 17 7 18 12 19 13 20 14 21 15 22
REMARK SMILES IDX 22 23 23 24 24 25 25 26 26 27 90 28 27 29 89 30 28 31 29 32
REMARK SMILES IDX 30 33 83 34 31 35 88 36 82 37 84 38 32 39 87 40 81 41 80 42
REMARK SMILES IDX 33 44 67 45 46 46 66 47 47 48 50 49 65 50 85 51 48 52 49 53
REMARK SMILES IDX 64 55 86 56 51 57 34 58 35 59 44 60 36 61 37 62 43 63 45 64
REMARK SMILES IDX 38 65 39 66 40 67 41 68 42 69 68 70 69 71 78 72 70 73 71 74
REMARK SMILES IDX 77 75 79 76 72 77 73 78 74 79 75 80 76 81 52 82 53 83 62 84
REMARK SMILES IDX 54 85 55 86 61 87 63 88 56 89 57 90 58 91 59 92 60 93
REMARK H PARENT 84 43 50 54
REMARK Flexibility Score: inf
ROOT
ATOM      1  C   UNL A   1      33.089  29.305  27.440  1.00  0.00     0.275 C 
ENDROOT
BRANCH   1   2
ATOM      2  C   UNL A   1      32.412  28.822  26.158  1.00  0.00     0.275 C 
BRANCH   2   3
ATOM      3  O   UNL A   1      32.501  27.388  26.026  1.00  0.00    -0.459 OA
BRANCH   3   4
ATOM      4  C   UNL A   1      33.267  26.938  25.004  1.00  0.00     0.338 C 
ATOM      5  O   UNL A   1      33.786  27.617  24.131  1.00  0.00    -0.246 OA
BRANCH   4   6
ATOM      6  C   UNL A   1      33.395  25.470  25.060  1.00  0.00     0.087 C 
ATOM      7  C   UNL A   1      32.523  20.437  24.561  1.00  0.00     0.048 C 
ATOM      8  C   UNL A   1      33.722  21.312  24.788  1.00  0.00    -0.007 A 
ATOM      9  C   UNL A   1      34.988  20.716  24.798  1.00  0.00     0.028 A 
ATOM     10  C   UNL A   1      33.625  22.703  24.927  1.00  0.00     0.131 A 
ATOM     11  C   UNL A   1      36.143  21.479  24.982  1.00  0.00     0.045 A 
ATOM     12  C   UNL A   1      34.781  23.484  25.100  1.00  0.00     0.022 A 
ATOM     13  O   UNL A   1      32.359  23.223  24.907  1.00  0.00    -0.475 OA
ATOM     14  Cl  UNL A   1      37.643  20.617  24.973  1.00  0.00    -0.084 Cl
ATOM     15  C   UNL A   1      36.064  22.872  25.149  1.00  0.00    -0.021 A 
ATOM     16  C   UNL A   1      34.614  24.934  25.192  1.00  0.00     0.027 C 
ATOM     17  C   UNL A   1      32.166  24.655  24.818  1.00  0.00     0.316 C 
ATOM     18  C   UNL A   1      37.306  23.700  25.376  1.00  0.00     0.047 C 
BRANCH  17  19
ATOM     19  C   UNL A   1      31.524  24.990  23.463  1.00  0.00     0.430 C 
ATOM     20  F   UNL A   1      30.682  24.008  23.059  1.00  0.00    -0.167 F 
ATOM     21  F   UNL A   1      30.781  26.123  23.531  1.00  0.00    -0.167 F 
ATOM     22  F   UNL A   1      32.441  25.166  22.487  1.00  0.00    -0.167 F 
ENDBRANCH  17  19
ENDBRANCH   4   6
ENDBRANCH   3   4
ENDBRANCH   2   3
ENDBRANCH   1   2
BRANCH   1  23
ATOM     23  O   UNL A   1      33.711  30.583  27.222  1.00  0.00    -0.458 OA
BRANCH  23  24
ATOM     24  C   UNL A   1      34.516  31.003  28.225  1.00  0.00     0.338 C 
ATOM     25  O   UNL A   1      34.284  31.883  29.037  1.00  0.00    -0.246 OA
BRANCH  24  26
ATOM     26  C   UNL A   1      35.730  30.175  28.289  1.00  0.00     0.060 A 
ATOM     27  C   UNL A   1      36.159  29.721  29.528  1.00  0.00     0.016 A 
ATOM     28  C   UNL A   1      36.560  30.053  27.178  1.00  0.00     0.016 A 
ATOM     29  C   UNL A   1      37.481  29.324  29.698  1.00  0.00     0.010 A 
ATOM     30  C   UNL A   1      37.842  29.511  27.331  1.00  0.00     0.010 A 
ATOM     31  C   UNL A   1      38.354  29.211  28.608  1.00  0.00    -0.014 A 
BRANCH  31  32
ATOM     32  C   UNL A   1      39.800  28.872  28.805  1.00  0.00     0.031 A 
ATOM     33  C   UNL A   1      40.749  29.907  29.372  1.00  0.00     0.074 A 
ATOM     34  C   UNL A   1      40.280  27.640  28.525  1.00  0.00     0.049 A 
ATOM     35  N   UNL A   1      42.059  29.922  29.369  1.00  0.00    -0.248 NA
ATOM     36  C   UNL A   1      40.146  31.090  30.008  1.00  0.00     0.031 C 
ATOM     37  C   UNL A   1      39.491  26.498  28.062  1.00  0.00     0.029 A 
ATOM     38  N   UNL A   1      41.559  27.137  28.605  1.00  0.00    -0.354 N 
ATOM     39  C   UNL A   1      42.431  31.141  29.931  1.00  0.00     0.074 A 
ATOM     40  C   UNL A   1      41.208  31.842  30.259  1.00  0.00     0.031 C 
ATOM     41  C   UNL A   1      40.282  25.420  27.960  1.00  0.00     0.029 A 
ATOM     42  C   UNL A   1      41.659  25.823  28.208  1.00  0.00     0.049 A 
ATOM     43  H   UNL A   1      42.329  27.666  28.916  1.00  0.00     0.167 HD
ATOM     44  C   UNL A   1      43.676  31.630  30.151  1.00  0.00     0.037 A 
ATOM     45  C   UNL A   1      42.734  25.039  27.991  1.00  0.00     0.037 A 
ATOM     46  C   UNL A   1      44.887  30.890  29.896  1.00  0.00     0.049 A 
ATOM     47  C   UNL A   1      44.107  25.623  28.165  1.00  0.00     0.074 A 
ATOM     48  C   UNL A   1      46.198  31.292  30.086  1.00  0.00     0.029 A 
ATOM     49  N   UNL A   1      44.936  29.586  29.425  1.00  0.00    -0.354 N 
ATOM     50  N   UNL A   1      44.447  26.818  28.584  1.00  0.00    -0.248 NA
ATOM     51  C   UNL A   1      45.242  24.763  27.803  1.00  0.00     0.031 C 
ATOM     52  C   UNL A   1      47.039  30.249  29.688  1.00  0.00     0.029 A 
ATOM     53  C   UNL A   1      46.253  29.177  29.298  1.00  0.00     0.049 A 
ATOM     54  H   UNL A   1      44.149  29.033  29.212  1.00  0.00     0.167 HD
ATOM     55  C   UNL A   1      45.836  26.853  28.540  1.00  0.00     0.074 A 
ATOM     56  C   UNL A   1      46.273  25.549  28.083  1.00  0.00     0.031 C 
ATOM     57  C   UNL A   1      46.674  27.877  28.837  1.00  0.00     0.037 A 
BRANCH  44  58
ATOM     58  C   UNL A   1      43.810  33.040  30.667  1.00  0.00     0.058 A 
ATOM     59  C   UNL A   1      43.931  33.332  32.033  1.00  0.00     0.135 A 
ATOM     60  C   UNL A   1      43.882  34.115  29.763  1.00  0.00     0.135 A 
ATOM     61  F   UNL A   1      43.851  32.349  32.944  1.00  0.00    -0.206 F 
ATOM     62  C   UNL A   1      44.102  34.638  32.488  1.00  0.00     0.059 A 
ATOM     63  C   UNL A   1      44.083  35.424  30.192  1.00  0.00     0.059 A 
ATOM     64  F   UNL A   1      43.772  33.897  28.443  1.00  0.00    -0.206 F 
ATOM     65  C   UNL A   1      44.183  35.677  31.558  1.00  0.00     0.060 A 
BRANCH  65  66
ATOM     66  S   UNL A   1      44.427  37.360  32.164  1.00  0.00     0.124 S 
ATOM     67  O   UNL A   1      44.131  38.147  30.970  1.00  0.00    -0.237 OA
ATOM     68  O   UNL A   1      43.444  37.448  33.239  1.00  0.00    -0.237 OA
ATOM     69  O   UNL A   1      45.823  37.373  32.590  1.00  0.00    -0.744 OA
ENDBRANCH  65  66
ENDBRANCH  44  58
BRANCH  45  70
ATOM     70  C   UNL A   1      42.550  23.642  27.510  1.00  0.00     0.058 A 
ATOM     71  C   UNL A   1      42.526  23.347  26.139  1.00  0.00     0.135 A 
ATOM     72  C   UNL A   1      42.421  22.568  28.409  1.00  0.00     0.135 A 
ATOM     73  F   UNL A   1      42.625  24.337  25.239  1.00  0.00    -0.206 F 
ATOM     74  C   UNL A   1      42.387  22.042  25.677  1.00  0.00     0.059 A 
ATOM     75  C   UNL A   1      42.316  21.253  27.971  1.00  0.00     0.059 A 
ATOM     76  F   UNL A   1      42.441  22.793  29.732  1.00  0.00    -0.206 F 
ATOM     77  C   UNL A   1      42.294  21.000  26.602  1.00  0.00     0.060 A 
BRANCH  77  78
ATOM     78  S   UNL A   1      42.180  19.306  25.989  1.00  0.00     0.124 S 
ATOM     79  O   UNL A   1      43.019  19.366  24.798  1.00  0.00    -0.237 OA
ATOM     80  O   UNL A   1      42.716  18.541  27.111  1.00  0.00    -0.237 OA
ATOM     81  O   UNL A   1      40.752  19.130  25.747  1.00  0.00    -0.744 OA
ENDBRANCH  77  78
ENDBRANCH  45  70
BRANCH  57  82
ATOM     82  C   UNL A   1      48.149  27.625  28.690  1.00  0.00     0.058 A 
ATOM     83  C   UNL A   1      48.914  27.112  29.749  1.00  0.00     0.135 A 
ATOM     84  C   UNL A   1      48.797  27.862  27.467  1.00  0.00     0.135 A 
ATOM     85  F   UNL A   1      48.344  26.876  30.942  1.00  0.00    -0.206 F 
ATOM     86  C   UNL A   1      50.275  26.866  29.610  1.00  0.00     0.059 A 
ATOM     87  C   UNL A   1      50.152  27.595  27.296  1.00  0.00     0.059 A 
ATOM     88  F   UNL A   1      48.111  28.343  26.419  1.00  0.00    -0.206 F 
ATOM     89  C   UNL A   1      50.885  27.109  28.378  1.00  0.00     0.060 A 
BRANCH  89  90
ATOM     90  S   UNL A   1      52.648  26.766  28.209  1.00  0.00     0.124 S 
ATOM     91  O   UNL A   1      53.162  28.063  27.785  1.00  0.00    -0.237 OA
ATOM     92  O   UNL A   1      53.014  26.350  29.560  1.00  0.00    -0.237 OA
ATOM     93  O   UNL A   1      52.697  25.712  27.201  1.00  0.00    -0.744 OA
ENDBRANCH  89  90
ENDBRANCH  57  82
ENDBRANCH  31  32
ENDBRANCH  24  26
ENDBRANCH  23  24
ENDBRANCH   1  23
TORSDOF 15
ENDMDL
MODEL 3
REMARK VINA RESULT:     -10.5      4.874     12.860
REMARK SMILES Cc1cc(Cl)c(C)c2c1O[C@H](C(F)(F)F)C(C(=O)OCCOC(=O)c1ccc(-c3c4nc(c(-c5c(F)cc(S(=O)(=O)[O-])cc5F)c5ccc([nH]5)c(-c5c(F)cc(S(=O)(=O)[O-])cc5F)c5nc(c(-c6c(F)cc(S(=O)(=O)[O-])cc6F)c6ccc3[nH]6)C=C5)C=C4)cc1)=C2
REMARK SMILES IDX 21 1 20 2 19 3 17 4 18 5 16 6 1 7 2 8 3 9 9 10 4 11 8 12
REMARK SMILES IDX 10 13 5 14 6 15 91 16 11 17 7 18 12 19 13 20 14 21 15 22
REMARK SMILES IDX 22 23 23 24 24 25 25 26 26 27 90 28 27 29 89 30 28 31 29 32
REMARK SMILES IDX 30 33 83 34 31 35 88 36 82 37 84 38 32 39 87 40 81 41 80 42
REMARK SMILES IDX 33 44 67 45 46 46 66 47 47 48 50 49 65 50 85 51 48 52 49 53
REMARK SMILES IDX 64 55 86 56 51 57 34 58 35 59 44 60 36 61 37 62 43 63 45 64
REMARK SMILES IDX 38 65 39 66 40 67 41 68 42 69 68 70 69 71 78 72 70 73 71 74
REMARK SMILES IDX 77 75 79 76 72 77 73 78 74 79 75 80 76 81 52 82 53 83 62 84
REMARK SMILES IDX 54 85 55 86 61 87 63 88 56 89 57 90 58 91 59 92 60 93
REMARK H PARENT 84 43 50 54
REMARK Flexibility Score: inf
ROOT
ATOM      1  C   UNL A   1      40.829  20.314  26.387  1.00  0.00     0.275 C 
ENDROOT
BRANCH   1   2
ATOM      2  C   UNL A   1      42.202  20.102  27.022  1.00  0.00     0.275 C 
BRANCH   2   3
ATOM      3  O   UNL A   1      43.260  20.525  26.136  1.00  0.00    -0.459 OA
BRANCH   3   4
ATOM      4  C   UNL A   1      43.279  21.844  25.831  1.00  0.00     0.338 C 
ATOM      5  O   UNL A   1      42.485  22.437  25.116  1.00  0.00    -0.246 OA
BRANCH   4   6
ATOM      6  C   UNL A   1      44.426  22.509  26.477  1.00  0.00     0.087 C 
ATOM      7  C   UNL A   1      48.894  24.892  27.315  1.00  0.00     0.048 C 
ATOM      8  C   UNL A   1      47.596  24.730  28.054  1.00  0.00    -0.007 A 
ATOM      9  C   UNL A   1      47.419  25.435  29.249  1.00  0.00     0.028 A 
ATOM     10  C   UNL A   1      46.540  23.952  27.562  1.00  0.00     0.131 A 
ATOM     11  C   UNL A   1      46.226  25.344  29.970  1.00  0.00     0.045 A 
ATOM     12  C   UNL A   1      45.330  23.862  28.271  1.00  0.00     0.022 A 
ATOM     13  O   UNL A   1      46.778  23.288  26.388  1.00  0.00    -0.475 OA
ATOM     14  Cl  UNL A   1      46.139  26.268  31.430  1.00  0.00    -0.084 Cl
ATOM     15  C   UNL A   1      45.166  24.549  29.505  1.00  0.00    -0.021 A 
ATOM     16  C   UNL A   1      44.252  23.070  27.679  1.00  0.00     0.027 C 
ATOM     17  C   UNL A   1      45.687  22.645  25.687  1.00  0.00     0.316 C 
ATOM     18  C   UNL A   1      43.884  24.423  30.294  1.00  0.00     0.047 C 
BRANCH  17  19
ATOM     19  C   UNL A   1      45.444  23.378  24.358  1.00  0.00     0.430 C 
ATOM     20  F   UNL A   1      44.586  24.415  24.516  1.00  0.00    -0.167 F 
ATOM     21  F   UNL A   1      46.591  23.907  23.865  1.00  0.00    -0.167 F 
ATOM     22  F   UNL A   1      44.929  22.567  23.408  1.00  0.00    -0.167 F 
ENDBRANCH  17  19
ENDBRANCH   4   6
ENDBRANCH   3   4
ENDBRANCH   2   3
ENDBRANCH   1   2
BRANCH   1  23
ATOM     23  O   UNL A   1      40.043  21.210  27.193  1.00  0.00    -0.458 OA
BRANCH  23  24
ATOM     24  C   UNL A   1      39.438  22.208  26.510  1.00  0.00     0.338 C 
ATOM     25  O   UNL A   1      38.679  22.099  25.562  1.00  0.00    -0.246 OA
BRANCH  24  26
ATOM     26  C   UNL A   1      39.740  23.509  27.128  1.00  0.00     0.060 A 
ATOM     27  C   UNL A   1      39.351  24.665  26.467  1.00  0.00     0.016 A 
ATOM     28  C   UNL A   1      40.601  23.587  28.220  1.00  0.00     0.016 A 
ATOM     29  C   UNL A   1      39.969  25.874  26.768  1.00  0.00     0.010 A 
ATOM     30  C   UNL A   1      41.103  24.834  28.613  1.00  0.00     0.010 A 
ATOM     31  C   UNL A   1      40.859  25.989  27.843  1.00  0.00    -0.014 A 
BRANCH  31  32
ATOM     32  C   UNL A   1      41.592  27.268  28.110  1.00  0.00     0.031 A 
ATOM     33  C   UNL A   1      40.921  28.373  28.900  1.00  0.00     0.074 A 
ATOM     34  C   UNL A   1      42.864  27.453  27.695  1.00  0.00     0.049 A 
ATOM     35  N   UNL A   1      41.255  29.634  29.011  1.00  0.00    -0.248 NA
ATOM     36  C   UNL A   1      39.705  28.015  29.650  1.00  0.00     0.031 C 
ATOM     37  C   UNL A   1      43.692  26.462  27.004  1.00  0.00     0.029 A 
ATOM     38  N   UNL A   1      43.695  28.544  27.808  1.00  0.00    -0.354 N 
ATOM     39  C   UNL A   1      40.254  30.231  29.774  1.00  0.00     0.074 A 
ATOM     40  C   UNL A   1      39.298  29.195  30.096  1.00  0.00     0.031 C 
ATOM     41  C   UNL A   1      44.921  26.962  26.813  1.00  0.00     0.029 A 
ATOM     42  C   UNL A   1      44.932  28.356  27.233  1.00  0.00     0.049 A 
ATOM     43  H   UNL A   1      43.430  29.379  28.257  1.00  0.00     0.167 HD
ATOM     44  C   UNL A   1      40.144  31.524  30.168  1.00  0.00     0.037 A 
ATOM     45  C   UNL A   1      45.941  29.217  26.995  1.00  0.00     0.037 A 
ATOM     46  C   UNL A   1      41.144  32.531  29.911  1.00  0.00     0.049 A 
ATOM     47  C   UNL A   1      45.769  30.662  27.369  1.00  0.00     0.074 A 
ATOM     48  C   UNL A   1      41.130  33.868  30.268  1.00  0.00     0.029 A 
ATOM     49  N   UNL A   1      42.348  32.306  29.260  1.00  0.00    -0.354 N 
ATOM     50  N   UNL A   1      44.766  31.240  27.985  1.00  0.00    -0.248 NA
ATOM     51  C   UNL A   1      46.850  31.579  26.982  1.00  0.00     0.031 C 
ATOM     52  C   UNL A   1      42.304  34.461  29.794  1.00  0.00     0.029 A 
ATOM     53  C   UNL A   1      43.075  33.483  29.186  1.00  0.00     0.049 A 
ATOM     54  H   UNL A   1      42.643  31.437  28.902  1.00  0.00     0.167 HD
ATOM     55  C   UNL A   1      45.096  32.588  28.064  1.00  0.00     0.074 A 
ATOM     56  C   UNL A   1      46.405  32.733  27.460  1.00  0.00     0.031 C 
ATOM     57  C   UNL A   1      44.375  33.615  28.578  1.00  0.00     0.037 A 
BRANCH  44  58
ATOM     58  C   UNL A   1      38.893  31.946  30.894  1.00  0.00     0.058 A 
ATOM     59  C   UNL A   1      38.819  32.005  32.293  1.00  0.00     0.135 A 
ATOM     60  C   UNL A   1      37.764  32.361  30.165  1.00  0.00     0.135 A 
ATOM     61  F   UNL A   1      39.858  31.604  33.042  1.00  0.00    -0.206 F 
ATOM     62  C   UNL A   1      37.668  32.444  32.945  1.00  0.00     0.059 A 
ATOM     63  C   UNL A   1      36.614  32.832  30.794  1.00  0.00     0.059 A 
ATOM     64  F   UNL A   1      37.775  32.327  28.823  1.00  0.00    -0.206 F 
ATOM     65  C   UNL A   1      36.573  32.861  32.186  1.00  0.00     0.060 A 
BRANCH  65  66
ATOM     66  S   UNL A   1      35.099  33.447  33.049  1.00  0.00     0.124 S 
ATOM     67  O   UNL A   1      35.399  33.073  34.428  1.00  0.00    -0.237 OA
ATOM     68  O   UNL A   1      35.119  34.876  32.761  1.00  0.00    -0.237 OA
ATOM     69  O   UNL A   1      34.014  32.698  32.421  1.00  0.00    -0.744 OA
ENDBRANCH  65  66
ENDBRANCH  44  58
BRANCH  45  70
ATOM     70  C   UNL A   1      47.172  28.746  26.302  1.00  0.00     0.058 A 
ATOM     71  C   UNL A   1      48.395  28.660  26.983  1.00  0.00     0.135 A 
ATOM     72  C   UNL A   1      47.148  28.347  24.954  1.00  0.00     0.135 A 
ATOM     73  F   UNL A   1      48.479  29.047  28.265  1.00  0.00    -0.206 F 
ATOM     74  C   UNL A   1      49.546  28.192  26.355  1.00  0.00     0.059 A 
ATOM     75  C   UNL A   1      48.276  27.844  24.317  1.00  0.00     0.059 A 
ATOM     76  F   UNL A   1      46.002  28.406  24.256  1.00  0.00    -0.206 F 
ATOM     77  C   UNL A   1      49.473  27.775  25.025  1.00  0.00     0.060 A 
BRANCH  77  78
ATOM     78  S   UNL A   1      50.957  27.108  24.244  1.00  0.00     0.124 S 
ATOM     79  O   UNL A   1      51.194  25.908  25.036  1.00  0.00    -0.237 OA
ATOM     80  O   UNL A   1      50.507  26.890  22.873  1.00  0.00    -0.237 OA
ATOM     81  O   UNL A   1      51.936  28.178  24.410  1.00  0.00    -0.744 OA
ENDBRANCH  77  78
ENDBRANCH  45  70
BRANCH  57  82
ATOM     82  C   UNL A   1      44.990  34.985  28.520  1.00  0.00     0.058 A 
ATOM     83  C   UNL A   1      44.747  35.853  27.444  1.00  0.00     0.135 A 
ATOM     84  C   UNL A   1      45.798  35.452  29.569  1.00  0.00     0.135 A 
ATOM     85  F   UNL A   1      43.988  35.453  26.411  1.00  0.00    -0.206 F 
ATOM     86  C   UNL A   1      45.304  37.126  27.396  1.00  0.00     0.059 A 
ATOM     87  C   UNL A   1      46.342  36.733  29.557  1.00  0.00     0.059 A 
ATOM     88  F   UNL A   1      46.055  34.666  30.627  1.00  0.00    -0.206 F 
ATOM     89  C   UNL A   1      46.099  37.557  28.460  1.00  0.00     0.060 A 
BRANCH  89  90
ATOM     90  S   UNL A   1      46.799  39.219  28.391  1.00  0.00     0.124 S 
ATOM     91  O   UNL A   1      46.493  39.724  29.725  1.00  0.00    -0.237 OA
ATOM     92  O   UNL A   1      48.209  38.951  28.122  1.00  0.00    -0.237 OA
ATOM     93  O   UNL A   1      46.068  39.853  27.298  1.00  0.00    -0.744 OA
ENDBRANCH  89  90
ENDBRANCH  57  82
ENDBRANCH  31  32
ENDBRANCH  24  26
ENDBRANCH  23  24
ENDBRANCH   1  23
TORSDOF 15
ENDMDL
