MODEL 1
REMARK VINA RESULT:     -12.2      0.000      0.000
REMARK SMILES CSc1ccc(/C=C2\C(C)=C(CC(=O)OCCOC(=O)c3ccc(-c4c5nc(c(-c6c(F)cc(S(=O)(=O)[O-])cc6F)c6ccc([nH]6)c(-c6c(F)cc(S(=O)(=O)[O-])cc6F)c6nc(c(-c7c(F)cc(S(=O)(=O)[O-])cc7F)c7ccc4[nH]7)C=C6)C=C5)cc3)c3cc(F)ccc32)cc1
REMARK SMILES IDX 16 1 15 2 13 3 14 4 12 5 11 6 7 7 8 8 9 9 93 10 10 11 87 12
REMARK SMILES IDX 92 13 88 14 91 15 89 16 90 17 6 18 3 19 4 20 95 21 5 22
REMARK SMILES IDX 94 23 2 24 1 25 17 26 18 27 19 28 20 29 21 30 22 31 86 32
REMARK SMILES IDX 23 33 85 34 24 35 25 36 26 37 79 38 27 39 84 40 78 41 80 42
REMARK SMILES IDX 28 43 83 44 77 45 76 46 29 48 63 49 42 50 62 51 43 52 46 53
REMARK SMILES IDX 61 54 81 55 44 56 45 57 60 59 82 60 47 61 30 62 31 63 40 64
REMARK SMILES IDX 32 65 33 66 39 67 41 68 34 69 35 70 36 71 37 72 38 73 64 74
REMARK SMILES IDX 65 75 74 76 66 77 67 78 73 79 75 80 68 81 69 82 70 83 71 84
REMARK SMILES IDX 72 85 48 86 49 87 58 88 50 89 51 90 57 91 59 92 52 93 53 94
REMARK SMILES IDX 54 95 55 96 56 97
REMARK H PARENT 80 47 46 58
REMARK Flexibility Score: inf
ROOT
ATOM      1  C   UNL A   1      33.266  31.174  27.386  1.00  0.00     0.274 C 
ENDROOT
BRANCH   1   2
ATOM      2  O   UNL A   1      33.769  30.018  26.677  1.00  0.00    -0.462 OA
BRANCH   2   3
ATOM      3  C   UNL A   1      33.140  28.847  26.969  1.00  0.00     0.310 C 
ATOM      4  O   UNL A   1      32.099  28.766  27.617  1.00  0.00    -0.252 OA
BRANCH   3   5
ATOM      5  C   UNL A   1      33.812  27.630  26.347  1.00  0.00     0.159 C 
BRANCH   5   6
ATOM      6  C   UNL A   1      33.547  27.294  24.863  1.00  0.00    -0.025 C 
ATOM      7  C   UNL A   1      31.730  24.502  25.703  1.00  0.00     0.017 C 
ATOM      8  C   UNL A   1      32.088  25.604  25.025  1.00  0.00    -0.014 C 
ATOM      9  C   UNL A   1      33.448  25.974  24.546  1.00  0.00    -0.039 C 
ATOM     10  C   UNL A   1      31.249  26.754  24.626  1.00  0.00    -0.010 A 
ATOM     11  C   UNL A   1      33.651  25.510  23.103  1.00  0.00     0.045 C 
ATOM     12  C   UNL A   1      32.208  27.759  24.370  1.00  0.00    -0.011 A 
ATOM     13  C   UNL A   1      29.996  26.774  24.029  1.00  0.00     0.012 A 
ATOM     14  C   UNL A   1      31.967  28.732  23.411  1.00  0.00     0.048 A 
ATOM     15  C   UNL A   1      29.736  27.793  23.103  1.00  0.00     0.040 A 
ATOM     16  C   UNL A   1      30.724  28.739  22.788  1.00  0.00     0.123 A 
ATOM     17  F   UNL A   1      30.503  29.608  21.791  1.00  0.00    -0.207 F 
BRANCH   7  18
ATOM     18  C   UNL A   1      32.513  23.247  25.850  1.00  0.00    -0.025 A 
ATOM     19  C   UNL A   1      34.713  21.522  25.496  1.00  0.00     0.007 A 
ATOM     20  C   UNL A   1      34.564  22.234  26.678  1.00  0.00     0.015 A 
ATOM     21  C   UNL A   1      33.636  21.497  24.603  1.00  0.00     0.015 A 
ATOM     22  C   UNL A   1      33.447  23.044  26.869  1.00  0.00     0.009 A 
ATOM     23  C   UNL A   1      32.541  22.354  24.777  1.00  0.00     0.009 A 
BRANCH  19  24
ATOM     24  S   UNL A   1      36.233  20.699  25.045  1.00  0.00    -0.130 SA
ATOM     25  C   UNL A   1      37.480  21.991  25.362  1.00  0.00     0.091 C 
ENDBRANCH  19  24
ENDBRANCH   7  18
ENDBRANCH   5   6
ENDBRANCH   3   5
ENDBRANCH   2   3
ENDBRANCH   1   2
BRANCH   1  26
ATOM     26  C   UNL A   1      34.465  31.920  28.010  1.00  0.00     0.275 C 
BRANCH  26  27
ATOM     27  O   UNL A   1      35.771  31.274  27.964  1.00  0.00    -0.458 OA
BRANCH  27  28
ATOM     28  C   UNL A   1      36.352  30.987  29.147  1.00  0.00     0.338 C 
ATOM     29  O   UNL A   1      35.853  31.173  30.238  1.00  0.00    -0.246 OA
BRANCH  28  30
ATOM     30  C   UNL A   1      37.710  30.433  29.111  1.00  0.00     0.060 A 
ATOM     31  C   UNL A   1      38.141  30.003  27.843  1.00  0.00     0.016 A 
ATOM     32  C   UNL A   1      38.522  30.257  30.229  1.00  0.00     0.016 A 
ATOM     33  C   UNL A   1      39.385  29.426  27.677  1.00  0.00     0.010 A 
ATOM     34  C   UNL A   1      39.798  29.710  30.055  1.00  0.00     0.010 A 
ATOM     35  C   UNL A   1      40.240  29.321  28.776  1.00  0.00    -0.014 A 
BRANCH  35  36
ATOM     36  C   UNL A   1      41.643  28.938  28.534  1.00  0.00     0.031 A 
ATOM     37  C   UNL A   1      42.739  29.951  28.584  1.00  0.00     0.074 A 
ATOM     38  C   UNL A   1      41.900  27.640  28.281  1.00  0.00     0.049 A 
ATOM     39  N   UNL A   1      44.007  29.797  28.311  1.00  0.00    -0.248 NA
ATOM     40  C   UNL A   1      42.367  31.314  28.993  1.00  0.00     0.031 C 
ATOM     41  C   UNL A   1      40.892  26.573  28.258  1.00  0.00     0.029 A 
ATOM     42  N   UNL A   1      43.072  26.994  27.993  1.00  0.00    -0.354 N 
ATOM     43  C   UNL A   1      44.588  31.044  28.493  1.00  0.00     0.074 A 
ATOM     44  C   UNL A   1      43.529  31.948  28.895  1.00  0.00     0.031 C 
ATOM     45  C   UNL A   1      41.491  25.408  27.972  1.00  0.00     0.029 A 
ATOM     46  C   UNL A   1      42.906  25.656  27.730  1.00  0.00     0.049 A 
ATOM     47  H   UNL A   1      43.946  27.445  27.977  1.00  0.00     0.167 HD
ATOM     48  C   UNL A   1      45.888  31.389  28.331  1.00  0.00     0.037 A 
ATOM     49  C   UNL A   1      43.790  24.738  27.300  1.00  0.00     0.037 A 
ATOM     50  C   UNL A   1      46.918  30.465  27.930  1.00  0.00     0.049 A 
ATOM     51  C   UNL A   1      45.210  25.164  27.071  1.00  0.00     0.074 A 
ATOM     52  C   UNL A   1      48.268  30.709  27.741  1.00  0.00     0.029 A 
ATOM     53  N   UNL A   1      46.714  29.120  27.647  1.00  0.00    -0.354 N 
ATOM     54  N   UNL A   1      45.749  26.349  27.240  1.00  0.00    -0.248 NA
ATOM     55  C   UNL A   1      46.141  24.137  26.591  1.00  0.00     0.031 C 
ATOM     56  C   UNL A   1      48.869  29.524  27.302  1.00  0.00     0.029 A 
ATOM     57  C   UNL A   1      47.908  28.528  27.265  1.00  0.00     0.049 A 
ATOM     58  H   UNL A   1      45.848  28.656  27.708  1.00  0.00     0.167 HD
ATOM     59  C   UNL A   1      47.088  26.206  26.905  1.00  0.00     0.074 A 
ATOM     60  C   UNL A   1      47.279  24.817  26.537  1.00  0.00     0.031 C 
ATOM     61  C   UNL A   1      48.071  27.140  26.904  1.00  0.00     0.037 A 
BRANCH  48  62
ATOM     62  C   UNL A   1      46.260  32.829  28.551  1.00  0.00     0.058 A 
ATOM     63  C   UNL A   1      46.220  33.773  27.514  1.00  0.00     0.135 A 
ATOM     64  C   UNL A   1      46.630  33.278  29.830  1.00  0.00     0.135 A 
ATOM     65  F   UNL A   1      45.891  33.397  26.268  1.00  0.00    -0.206 F 
ATOM     66  C   UNL A   1      46.554  35.108  27.732  1.00  0.00     0.059 A 
ATOM     67  C   UNL A   1      46.943  34.612  30.076  1.00  0.00     0.059 A 
ATOM     68  F   UNL A   1      46.687  32.417  30.858  1.00  0.00    -0.206 F 
ATOM     69  C   UNL A   1      46.915  35.517  29.017  1.00  0.00     0.060 A 
BRANCH  69  70
ATOM     70  S   UNL A   1      47.347  37.250  29.284  1.00  0.00     0.124 S 
ATOM     71  O   UNL A   1      48.690  37.132  29.844  1.00  0.00    -0.237 OA
ATOM     72  O   UNL A   1      47.271  37.802  27.935  1.00  0.00    -0.237 OA
ATOM     73  O   UNL A   1      46.321  37.718  30.208  1.00  0.00    -0.744 OA
ENDBRANCH  69  70
ENDBRANCH  48  62
BRANCH  49  74
ATOM     74  C   UNL A   1      43.338  23.348  27.034  1.00  0.00     0.058 A 
ATOM     75  C   UNL A   1      43.214  22.867  25.724  1.00  0.00     0.135 A 
ATOM     76  C   UNL A   1      43.061  22.462  28.087  1.00  0.00     0.135 A 
ATOM     77  F   UNL A   1      43.467  23.677  24.685  1.00  0.00    -0.206 F 
ATOM     78  C   UNL A   1      42.819  21.559  25.465  1.00  0.00     0.059 A 
ATOM     79  C   UNL A   1      42.690  21.141  27.855  1.00  0.00     0.059 A 
ATOM     80  F   UNL A   1      43.186  22.869  29.360  1.00  0.00    -0.206 F 
ATOM     81  C   UNL A   1      42.561  20.702  26.538  1.00  0.00     0.060 A 
BRANCH  81  82
ATOM     82  S   UNL A   1      42.094  18.993  26.192  1.00  0.00     0.124 S 
ATOM     83  O   UNL A   1      43.016  18.651  25.115  1.00  0.00    -0.237 OA
ATOM     84  O   UNL A   1      42.340  18.342  27.476  1.00  0.00    -0.237 OA
ATOM     85  O   UNL A   1      40.689  19.100  25.812  1.00  0.00    -0.744 OA
ENDBRANCH  81  82
ENDBRANCH  49  74
BRANCH  61  86
ATOM     86  C   UNL A   1      49.449  26.676  26.523  1.00  0.00     0.058 A 
ATOM     87  C   UNL A   1      50.333  26.138  27.470  1.00  0.00     0.135 A 
ATOM     88  C   UNL A   1      49.870  26.733  25.186  1.00  0.00     0.135 A 
ATOM     89  F   UNL A   1      49.981  26.074  28.765  1.00  0.00    -0.206 F 
ATOM     90  C   UNL A   1      51.598  25.690  27.107  1.00  0.00     0.059 A 
ATOM     91  C   UNL A   1      51.121  26.266  24.795  1.00  0.00     0.059 A 
ATOM     92  F   UNL A   1      49.058  27.233  24.241  1.00  0.00    -0.206 F 
ATOM     93  C   UNL A   1      51.982  25.756  25.766  1.00  0.00     0.060 A 
BRANCH  93  94
ATOM     94  S   UNL A   1      53.611  25.134  25.300  1.00  0.00     0.124 S 
ATOM     95  O   UNL A   1      53.816  25.784  24.011  1.00  0.00    -0.237 OA
ATOM     96  O   UNL A   1      54.454  25.613  26.393  1.00  0.00    -0.237 OA
ATOM     97  O   UNL A   1      53.421  23.687  25.251  1.00  0.00    -0.744 OA
ENDBRANCH  93  94
ENDBRANCH  61  86
ENDBRANCH  35  36
ENDBRANCH  28  30
ENDBRANCH  27  28
ENDBRANCH  26  27
ENDBRANCH   1  26
TORSDOF 17
ENDMDL
MODEL 2
REMARK VINA RESULT:     -12.0      2.229      8.169
REMARK SMILES CSc1ccc(/C=C2\C(C)=C(CC(=O)OCCOC(=O)c3ccc(-c4c5nc(c(-c6c(F)cc(S(=O)(=O)[O-])cc6F)c6ccc([nH]6)c(-c6c(F)cc(S(=O)(=O)[O-])cc6F)c6nc(c(-c7c(F)cc(S(=O)(=O)[O-])cc7F)c7ccc4[nH]7)C=C6)C=C5)cc3)c3cc(F)ccc32)cc1
REMARK SMILES IDX 16 1 15 2 13 3 14 4 12 5 11 6 7 7 8 8 9 9 93 10 10 11 87 12
REMARK SMILES IDX 92 13 88 14 91 15 89 16 90 17 6 18 3 19 4 20 95 21 5 22
REMARK SMILES IDX 94 23 2 24 1 25 17 26 18 27 19 28 20 29 21 30 22 31 86 32
REMARK SMILES IDX 23 33 85 34 24 35 25 36 26 37 79 38 27 39 84 40 78 41 80 42
REMARK SMILES IDX 28 43 83 44 77 45 76 46 29 48 63 49 42 50 62 51 43 52 46 53
REMARK SMILES IDX 61 54 81 55 44 56 45 57 60 59 82 60 47 61 30 62 31 63 40 64
REMARK SMILES IDX 32 65 33 66 39 67 41 68 34 69 35 70 36 71 37 72 38 73 64 74
REMARK SMILES IDX 65 75 74 76 66 77 67 78 73 79 75 80 68 81 69 82 70 83 71 84
REMARK SMILES IDX 72 85 48 86 49 87 58 88 50 89 51 90 57 91 59 92 52 93 53 94
REMARK SMILES IDX 54 95 55 96 56 97
REMARK H PARENT 80 47 46 58
REMARK Flexibility Score: inf
ROOT
ATOM      1  C   UNL A   1      37.958  21.435  25.641  1.00  0.00     0.274 C 
ENDROOT
BRANCH   1   2
ATOM      2  O   UNL A   1      37.787  22.740  25.041  1.00  0.00    -0.462 OA
BRANCH   2   3
ATOM      3  C   UNL A   1      37.610  23.759  25.925  1.00  0.00     0.310 C 
ATOM      4  O   UNL A   1      38.520  24.464  26.358  1.00  0.00    -0.252 OA
BRANCH   3   5
ATOM      5  C   UNL A   1      36.149  24.002  26.280  1.00  0.00     0.159 C 
BRANCH   5   6
ATOM      6  C   UNL A   1      35.189  24.550  25.201  1.00  0.00    -0.025 C 
ATOM      7  C   UNL A   1      33.047  21.893  25.598  1.00  0.00     0.017 C 
ATOM      8  C   UNL A   1      33.445  23.157  25.383  1.00  0.00    -0.014 C 
ATOM      9  C   UNL A   1      34.516  23.626  24.461  1.00  0.00    -0.039 C 
ATOM     10  C   UNL A   1      32.973  24.397  26.034  1.00  0.00    -0.010 A 
ATOM     11  C   UNL A   1      33.922  24.009  23.104  1.00  0.00     0.045 C 
ATOM     12  C   UNL A   1      34.020  25.305  25.760  1.00  0.00    -0.011 A 
ATOM     13  C   UNL A   1      31.678  24.831  26.282  1.00  0.00     0.012 A 
ATOM     14  C   UNL A   1      33.754  26.658  25.607  1.00  0.00     0.048 A 
ATOM     15  C   UNL A   1      31.426  26.206  26.182  1.00  0.00     0.040 A 
ATOM     16  C   UNL A   1      32.451  27.094  25.825  1.00  0.00     0.123 A 
ATOM     17  F   UNL A   1      32.150  28.379  25.589  1.00  0.00    -0.207 F 
BRANCH   7  18
ATOM     18  C   UNL A   1      33.332  20.706  24.750  1.00  0.00    -0.025 A 
ATOM     19  C   UNL A   1      33.605  17.966  24.155  1.00  0.00     0.007 A 
ATOM     20  C   UNL A   1      32.451  18.649  23.797  1.00  0.00     0.015 A 
ATOM     21  C   UNL A   1      34.704  18.714  24.590  1.00  0.00     0.015 A 
ATOM     22  C   UNL A   1      32.344  20.015  24.045  1.00  0.00     0.009 A 
ATOM     23  C   UNL A   1      34.571  20.078  24.886  1.00  0.00     0.009 A 
BRANCH  19  24
ATOM     24  S   UNL A   1      33.718  16.183  24.145  1.00  0.00    -0.130 SA
ATOM     25  C   UNL A   1      35.120  15.880  25.271  1.00  0.00     0.091 C 
ENDBRANCH  19  24
ENDBRANCH   7  18
ENDBRANCH   5   6
ENDBRANCH   3   5
ENDBRANCH   2   3
ENDBRANCH   1   2
BRANCH   1  26
ATOM     26  C   UNL A   1      39.426  21.298  26.096  1.00  0.00     0.275 C 
BRANCH  26  27
ATOM     27  O   UNL A   1      40.045  19.981  26.020  1.00  0.00    -0.458 OA
BRANCH  27  28
ATOM     28  C   UNL A   1      41.392  19.936  26.069  1.00  0.00     0.338 C 
ATOM     29  O   UNL A   1      42.074  18.971  25.787  1.00  0.00    -0.246 OA
BRANCH  28  30
ATOM     30  C   UNL A   1      42.089  21.142  26.529  1.00  0.00     0.060 A 
ATOM     31  C   UNL A   1      42.526  22.001  25.503  1.00  0.00     0.016 A 
ATOM     32  C   UNL A   1      42.385  21.426  27.859  1.00  0.00     0.016 A 
ATOM     33  C   UNL A   1      43.230  23.153  25.797  1.00  0.00     0.010 A 
ATOM     34  C   UNL A   1      43.062  22.613  28.161  1.00  0.00     0.010 A 
ATOM     35  C   UNL A   1      43.458  23.489  27.133  1.00  0.00    -0.014 A 
BRANCH  35  36
ATOM     36  C   UNL A   1      43.984  24.834  27.433  1.00  0.00     0.031 A 
ATOM     37  C   UNL A   1      43.080  25.933  27.888  1.00  0.00     0.074 A 
ATOM     38  C   UNL A   1      45.309  25.030  27.294  1.00  0.00     0.049 A 
ATOM     39  N   UNL A   1      43.366  27.187  28.108  1.00  0.00    -0.248 NA
ATOM     40  C   UNL A   1      41.672  25.579  28.128  1.00  0.00     0.031 C 
ATOM     41  C   UNL A   1      46.275  23.997  26.898  1.00  0.00     0.029 A 
ATOM     42  N   UNL A   1      46.076  26.151  27.466  1.00  0.00    -0.354 N 
ATOM     43  C   UNL A   1      42.175  27.785  28.494  1.00  0.00     0.074 A 
ATOM     44  C   UNL A   1      41.158  26.753  28.470  1.00  0.00     0.031 C 
ATOM     45  C   UNL A   1      47.502  24.535  26.857  1.00  0.00     0.029 A 
ATOM     46  C   UNL A   1      47.402  25.956  27.160  1.00  0.00     0.049 A 
ATOM     47  H   UNL A   1      45.713  27.011  27.777  1.00  0.00     0.167 HD
ATOM     48  C   UNL A   1      41.963  29.080  28.829  1.00  0.00     0.037 A 
ATOM     49  C   UNL A   1      48.417  26.836  27.092  1.00  0.00     0.037 A 
ATOM     50  C   UNL A   1      42.997  30.084  28.842  1.00  0.00     0.049 A 
ATOM     51  C   UNL A   1      48.138  28.275  27.410  1.00  0.00     0.074 A 
ATOM     52  C   UNL A   1      42.892  31.425  29.170  1.00  0.00     0.029 A 
ATOM     53  N   UNL A   1      44.326  29.861  28.504  1.00  0.00    -0.354 N 
ATOM     54  N   UNL A   1      47.006  28.833  27.768  1.00  0.00    -0.248 NA
ATOM     55  C   UNL A   1      49.269  29.207  27.313  1.00  0.00     0.031 C 
ATOM     56  C   UNL A   1      44.146  32.020  28.989  1.00  0.00     0.029 A 
ATOM     57  C   UNL A   1      45.046  31.042  28.596  1.00  0.00     0.049 A 
ATOM     58  H   UNL A   1      44.702  28.991  28.238  1.00  0.00     0.167 HD
ATOM     59  C   UNL A   1      47.289  30.179  27.957  1.00  0.00     0.074 A 
ATOM     60  C   UNL A   1      48.705  30.347  27.688  1.00  0.00     0.031 C 
ATOM     61  C   UNL A   1      46.456  31.183  28.323  1.00  0.00     0.037 A 
BRANCH  48  62
ATOM     62  C   UNL A   1      40.558  29.492  29.171  1.00  0.00     0.058 A 
ATOM     63  C   UNL A   1      40.164  29.763  30.490  1.00  0.00     0.135 A 
ATOM     64  C   UNL A   1      39.600  29.653  28.156  1.00  0.00     0.135 A 
ATOM     65  F   UNL A   1      41.033  29.610  31.501  1.00  0.00    -0.206 F 
ATOM     66  C   UNL A   1      38.863  30.158  30.795  1.00  0.00     0.059 A 
ATOM     67  C   UNL A   1      38.301  30.070  28.435  1.00  0.00     0.059 A 
ATOM     68  F   UNL A   1      39.922  29.405  26.877  1.00  0.00    -0.206 F 
ATOM     69  C   UNL A   1      37.939  30.307  29.759  1.00  0.00     0.060 A 
BRANCH  69  70
ATOM     70  S   UNL A   1      36.256  30.819  30.169  1.00  0.00     0.124 S 
ATOM     71  O   UNL A   1      35.547  30.501  28.933  1.00  0.00    -0.237 OA
ATOM     72  O   UNL A   1      35.943  29.970  31.314  1.00  0.00    -0.237 OA
ATOM     73  O   UNL A   1      36.394  32.240  30.465  1.00  0.00    -0.744 OA
ENDBRANCH  69  70
ENDBRANCH  48  62
BRANCH  49  74
ATOM     74  C   UNL A   1      49.766  26.374  26.677  1.00  0.00     0.058 A 
ATOM     75  C   UNL A   1      50.704  25.939  27.622  1.00  0.00     0.135 A 
ATOM     76  C   UNL A   1      50.129  26.322  25.321  1.00  0.00     0.135 A 
ATOM     77  F   UNL A   1      50.404  25.973  28.930  1.00  0.00    -0.206 F 
ATOM     78  C   UNL A   1      51.960  25.480  27.241  1.00  0.00     0.059 A 
ATOM     79  C   UNL A   1      51.368  25.840  24.913  1.00  0.00     0.059 A 
ATOM     80  F   UNL A   1      49.257  26.707  24.376  1.00  0.00    -0.206 F 
ATOM     81  C   UNL A   1      52.282  25.431  25.883  1.00  0.00     0.060 A 
BRANCH  81  82
ATOM     82  S   UNL A   1      53.897  24.789  25.396  1.00  0.00     0.124 S 
ATOM     83  O   UNL A   1      54.230  25.657  24.273  1.00  0.00    -0.237 OA
ATOM     84  O   UNL A   1      54.684  24.983  26.610  1.00  0.00    -0.237 OA
ATOM     85  O   UNL A   1      53.616  23.397  25.057  1.00  0.00    -0.744 OA
ENDBRANCH  81  82
ENDBRANCH  49  74
BRANCH  61  86
ATOM     86  C   UNL A   1      47.064  32.547  28.485  1.00  0.00     0.058 A 
ATOM     87  C   UNL A   1      47.060  33.484  27.441  1.00  0.00     0.135 A 
ATOM     88  C   UNL A   1      47.619  32.934  29.715  1.00  0.00     0.135 A 
ATOM     89  F   UNL A   1      46.552  33.158  26.241  1.00  0.00    -0.206 F 
ATOM     90  C   UNL A   1      47.604  34.753  27.605  1.00  0.00     0.059 A 
ATOM     91  C   UNL A   1      48.145  34.206  29.910  1.00  0.00     0.059 A 
ATOM     92  F   UNL A   1      47.641  32.075  30.747  1.00  0.00    -0.206 F 
ATOM     93  C   UNL A   1      48.142  35.106  28.844  1.00  0.00     0.060 A 
BRANCH  93  94
ATOM     94  S   UNL A   1      48.810  36.769  29.056  1.00  0.00     0.124 S 
ATOM     95  O   UNL A   1      47.674  37.468  29.648  1.00  0.00    -0.237 OA
ATOM     96  O   UNL A   1      49.946  36.540  29.944  1.00  0.00    -0.237 OA
ATOM     97  O   UNL A   1      49.157  37.172  27.696  1.00  0.00    -0.744 OA
ENDBRANCH  93  94
ENDBRANCH  61  86
ENDBRANCH  35  36
ENDBRANCH  28  30
ENDBRANCH  27  28
ENDBRANCH  26  27
ENDBRANCH   1  26
TORSDOF 17
ENDMDL
MODEL 3
REMARK VINA RESULT:     -11.8      0.999      1.868
REMARK SMILES CSc1ccc(/C=C2\C(C)=C(CC(=O)OCCOC(=O)c3ccc(-c4c5nc(c(-c6c(F)cc(S(=O)(=O)[O-])cc6F)c6ccc([nH]6)c(-c6c(F)cc(S(=O)(=O)[O-])cc6F)c6nc(c(-c7c(F)cc(S(=O)(=O)[O-])cc7F)c7ccc4[nH]7)C=C6)C=C5)cc3)c3cc(F)ccc32)cc1
REMARK SMILES IDX 16 1 15 2 13 3 14 4 12 5 11 6 7 7 8 8 9 9 93 10 10 11 87 12
REMARK SMILES IDX 92 13 88 14 91 15 89 16 90 17 6 18 3 19 4 20 95 21 5 22
REMARK SMILES IDX 94 23 2 24 1 25 17 26 18 27 19 28 20 29 21 30 22 31 86 32
REMARK SMILES IDX 23 33 85 34 24 35 25 36 26 37 79 38 27 39 84 40 78 41 80 42
REMARK SMILES IDX 28 43 83 44 77 45 76 46 29 48 63 49 42 50 62 51 43 52 46 53
REMARK SMILES IDX 61 54 81 55 44 56 45 57 60 59 82 60 47 61 30 62 31 63 40 64
REMARK SMILES IDX 32 65 33 66 39 67 41 68 34 69 35 70 36 71 37 72 38 73 64 74
REMARK SMILES IDX 65 75 74 76 66 77 67 78 73 79 75 80 68 81 69 82 70 83 71 84
REMARK SMILES IDX 72 85 48 86 49 87 58 88 50 89 51 90 57 91 59 92 52 93 53 94
REMARK SMILES IDX 54 95 55 96 56 97
REMARK H PARENT 80 47 46 58
REMARK Flexibility Score: inf
ROOT
ATOM      1  C   UNL A   1      34.202  31.660  28.133  1.00  0.00     0.274 C 
ENDROOT
BRANCH   1   2
ATOM      2  O   UNL A   1      34.156  30.854  26.932  1.00  0.00    -0.462 OA
BRANCH   2   3
ATOM      3  C   UNL A   1      32.936  30.324  26.644  1.00  0.00     0.310 C 
ATOM      4  O   UNL A   1      31.870  30.910  26.817  1.00  0.00    -0.252 OA
BRANCH   3   5
ATOM      5  C   UNL A   1      33.015  28.943  26.004  1.00  0.00     0.159 C 
BRANCH   5   6
ATOM      6  C   UNL A   1      32.618  28.772  24.521  1.00  0.00    -0.025 C 
ATOM      7  C   UNL A   1      32.851  25.352  24.736  1.00  0.00     0.017 C 
ATOM      8  C   UNL A   1      32.384  26.552  24.357  1.00  0.00    -0.014 C 
ATOM      9  C   UNL A   1      33.169  27.715  23.862  1.00  0.00    -0.039 C 
ATOM     10  C   UNL A   1      30.993  27.050  24.383  1.00  0.00    -0.010 A 
ATOM     11  C   UNL A   1      33.229  27.707  22.334  1.00  0.00     0.045 C 
ATOM     12  C   UNL A   1      31.167  28.450  24.318  1.00  0.00    -0.011 A 
ATOM     13  C   UNL A   1      29.824  26.441  23.948  1.00  0.00     0.012 A 
ATOM     14  C   UNL A   1      30.217  29.248  23.698  1.00  0.00     0.048 A 
ATOM     15  C   UNL A   1      28.842  27.259  23.374  1.00  0.00     0.040 A 
ATOM     16  C   UNL A   1      29.057  28.638  23.233  1.00  0.00     0.123 A 
ATOM     17  F   UNL A   1      28.170  29.372  22.545  1.00  0.00    -0.207 F 
BRANCH   7  18
ATOM     18  C   UNL A   1      34.192  24.780  24.447  1.00  0.00    -0.025 A 
ATOM     19  C   UNL A   1      36.255  22.862  24.542  1.00  0.00     0.007 A 
ATOM     20  C   UNL A   1      35.429  22.950  23.430  1.00  0.00     0.015 A 
ATOM     21  C   UNL A   1      36.193  23.890  25.490  1.00  0.00     0.015 A 
ATOM     22  C   UNL A   1      34.447  23.934  23.365  1.00  0.00     0.009 A 
ATOM     23  C   UNL A   1      35.168  24.846  25.444  1.00  0.00     0.009 A 
BRANCH  19  24
ATOM     24  S   UNL A   1      37.334  21.471  24.842  1.00  0.00    -0.130 SA
ATOM     25  C   UNL A   1      38.573  22.181  25.976  1.00  0.00     0.091 C 
ENDBRANCH  19  24
ENDBRANCH   7  18
ENDBRANCH   5   6
ENDBRANCH   3   5
ENDBRANCH   2   3
ENDBRANCH   1   2
BRANCH   1  26
ATOM     26  C   UNL A   1      35.681  31.884  28.511  1.00  0.00     0.275 C 
BRANCH  26  27
ATOM     27  O   UNL A   1      36.112  31.492  29.846  1.00  0.00    -0.458 OA
BRANCH  27  28
ATOM     28  C   UNL A   1      36.605  30.245  29.988  1.00  0.00     0.338 C 
ATOM     29  O   UNL A   1      36.027  29.316  30.515  1.00  0.00    -0.246 OA
BRANCH  28  30
ATOM     30  C   UNL A   1      37.963  29.998  29.489  1.00  0.00     0.060 A 
ATOM     31  C   UNL A   1      38.979  30.117  30.455  1.00  0.00     0.016 A 
ATOM     32  C   UNL A   1      38.281  29.736  28.159  1.00  0.00     0.016 A 
ATOM     33  C   UNL A   1      40.306  29.948  30.109  1.00  0.00     0.010 A 
ATOM     34  C   UNL A   1      39.622  29.525  27.816  1.00  0.00     0.010 A 
ATOM     35  C   UNL A   1      40.629  29.602  28.796  1.00  0.00    -0.014 A 
BRANCH  35  36
ATOM     36  C   UNL A   1      42.014  29.183  28.506  1.00  0.00     0.031 A 
ATOM     37  C   UNL A   1      43.134  30.171  28.503  1.00  0.00     0.074 A 
ATOM     38  C   UNL A   1      42.230  27.877  28.259  1.00  0.00     0.049 A 
ATOM     39  N   UNL A   1      44.386  29.984  28.185  1.00  0.00    -0.248 NA
ATOM     40  C   UNL A   1      42.809  31.546  28.910  1.00  0.00     0.031 C 
ATOM     41  C   UNL A   1      41.197  26.833  28.287  1.00  0.00     0.029 A 
ATOM     42  N   UNL A   1      43.375  27.200  27.935  1.00  0.00    -0.354 N 
ATOM     43  C   UNL A   1      45.003  31.218  28.330  1.00  0.00     0.074 A 
ATOM     44  C   UNL A   1      43.981  32.151  28.761  1.00  0.00     0.031 C 
ATOM     45  C   UNL A   1      41.758  25.652  27.992  1.00  0.00     0.029 A 
ATOM     46  C   UNL A   1      43.168  25.864  27.694  1.00  0.00     0.049 A 
ATOM     47  H   UNL A   1      44.259  27.629  27.880  1.00  0.00     0.167 HD
ATOM     48  C   UNL A   1      46.303  31.531  28.116  1.00  0.00     0.037 A 
ATOM     49  C   UNL A   1      44.013  24.920  27.242  1.00  0.00     0.037 A 
ATOM     50  C   UNL A   1      47.296  30.578  27.686  1.00  0.00     0.049 A 
ATOM     51  C   UNL A   1      45.433  25.310  26.955  1.00  0.00     0.074 A 
ATOM     52  C   UNL A   1      48.642  30.787  27.444  1.00  0.00     0.029 A 
ATOM     53  N   UNL A   1      47.050  29.235  27.427  1.00  0.00    -0.354 N 
ATOM     54  N   UNL A   1      46.006  26.483  27.090  1.00  0.00    -0.248 NA
ATOM     55  C   UNL A   1      46.322  24.256  26.452  1.00  0.00     0.031 C 
ATOM     56  C   UNL A   1      49.199  29.584  26.997  1.00  0.00     0.029 A 
ATOM     57  C   UNL A   1      48.214  28.610  27.008  1.00  0.00     0.049 A 
ATOM     58  H   UNL A   1      46.176  28.793  27.527  1.00  0.00     0.167 HD
ATOM     59  C   UNL A   1      47.328  26.306  26.706  1.00  0.00     0.074 A 
ATOM     60  C   UNL A   1      47.472  24.908  26.347  1.00  0.00     0.031 C 
ATOM     61  C   UNL A   1      48.332  27.215  26.657  1.00  0.00     0.037 A 
BRANCH  48  62
ATOM     62  C   UNL A   1      46.717  32.964  28.305  1.00  0.00     0.058 A 
ATOM     63  C   UNL A   1      46.643  33.902  27.264  1.00  0.00     0.135 A 
ATOM     64  C   UNL A   1      47.163  33.412  29.559  1.00  0.00     0.135 A 
ATOM     65  F   UNL A   1      46.240  33.524  26.040  1.00  0.00    -0.206 F 
ATOM     66  C   UNL A   1      47.015  35.230  27.453  1.00  0.00     0.059 A 
ATOM     67  C   UNL A   1      47.517  34.741  29.778  1.00  0.00     0.059 A 
ATOM     68  F   UNL A   1      47.256  32.558  30.589  1.00  0.00    -0.206 F 
ATOM     69  C   UNL A   1      47.453  35.639  28.714  1.00  0.00     0.060 A 
BRANCH  69  70
ATOM     70  S   UNL A   1      47.934  37.365  28.945  1.00  0.00     0.124 S 
ATOM     71  O   UNL A   1      49.220  37.219  29.620  1.00  0.00    -0.237 OA
ATOM     72  O   UNL A   1      47.993  37.858  27.573  1.00  0.00    -0.237 OA
ATOM     73  O   UNL A   1      46.856  37.914  29.760  1.00  0.00    -0.744 OA
ENDBRANCH  69  70
ENDBRANCH  48  62
BRANCH  49  74
ATOM     74  C   UNL A   1      43.520  23.539  27.009  1.00  0.00     0.058 A 
ATOM     75  C   UNL A   1      43.345  22.644  28.072  1.00  0.00     0.135 A 
ATOM     76  C   UNL A   1      43.177  23.100  25.719  1.00  0.00     0.135 A 
ATOM     77  F   UNL A   1      43.662  23.017  29.322  1.00  0.00    -0.206 F 
ATOM     78  C   UNL A   1      42.858  21.358  27.867  1.00  0.00     0.059 A 
ATOM     79  C   UNL A   1      42.662  21.828  25.492  1.00  0.00     0.059 A 
ATOM     80  F   UNL A   1      43.306  23.927  24.670  1.00  0.00    -0.206 F 
ATOM     81  C   UNL A   1      42.516  20.959  26.573  1.00  0.00     0.060 A 
BRANCH  81  82
ATOM     82  S   UNL A   1      41.841  19.304  26.323  1.00  0.00     0.124 S 
ATOM     83  O   UNL A   1      40.537  19.605  25.743  1.00  0.00    -0.237 OA
ATOM     84  O   UNL A   1      42.820  18.706  25.420  1.00  0.00    -0.237 OA
ATOM     85  O   UNL A   1      41.820  18.744  27.670  1.00  0.00    -0.744 OA
ENDBRANCH  81  82
ENDBRANCH  49  74
BRANCH  61  86
ATOM     86  C   UNL A   1      49.683  26.715  26.230  1.00  0.00     0.058 A 
ATOM     87  C   UNL A   1      50.127  26.834  24.905  1.00  0.00     0.135 A 
ATOM     88  C   UNL A   1      50.558  26.151  27.171  1.00  0.00     0.135 A 
ATOM     89  F   UNL A   1      49.322  27.356  23.966  1.00  0.00    -0.206 F 
ATOM     90  C   UNL A   1      51.388  26.390  24.522  1.00  0.00     0.059 A 
ATOM     91  C   UNL A   1      51.833  25.724  26.816  1.00  0.00     0.059 A 
ATOM     92  F   UNL A   1      50.182  26.022  28.454  1.00  0.00    -0.206 F 
ATOM     93  C   UNL A   1      52.235  25.839  25.485  1.00  0.00     0.060 A 
BRANCH  93  94
ATOM     94  S   UNL A   1      53.884  25.303  24.984  1.00  0.00     0.124 S 
ATOM     95  O   UNL A   1      54.703  25.805  26.081  1.00  0.00    -0.237 OA
ATOM     96  O   UNL A   1      53.735  23.852  24.916  1.00  0.00    -0.237 OA
ATOM     97  O   UNL A   1      54.080  25.966  23.698  1.00  0.00    -0.744 OA
ENDBRANCH  93  94
ENDBRANCH  61  86
ENDBRANCH  35  36
ENDBRANCH  28  30
ENDBRANCH  27  28
ENDBRANCH  26  27
ENDBRANCH   1  26
TORSDOF 17
ENDMDL
