MODEL 1
REMARK VINA RESULT:     -10.7      0.000      0.000
REMARK SMILES CS(=O)(=O)c1ccc(/C=C(/C(=O)OCCOC(=O)c2ccc(-c3c4nc(c(-c5c(F)cc(S(=O)(=O)[O-])cc5F)c5ccc([nH]5)c(-c5c(F)cc(S(=O)(=O)[O-])cc5F)c5nc(c(-c6c(F)cc(S(=O)(=O)[O-])cc6F)c6ccc3[nH]6)C=C5)C=C4)cc2)c2cccc(-c3ccc(S(C)(=O)=O)cc3)c2)cc1
REMARK SMILES IDX 14 1 13 2 11 3 12 4 10 5 9 6 8 7 5 8 6 9 102 10 7 11 101 12
REMARK SMILES IDX 2 13 1 14 3 15 4 16 85 17 86 18 100 19 87 20 89 21 88 22
REMARK SMILES IDX 90 23 91 24 99 25 92 26 98 27 93 28 94 29 95 30 96 31 97 32
REMARK SMILES IDX 15 33 16 34 17 35 18 36 19 37 20 38 84 39 21 40 83 41 22 42
REMARK SMILES IDX 23 43 24 44 77 45 25 46 82 47 76 48 78 49 26 50 81 51 75 52
REMARK SMILES IDX 74 53 27 55 61 56 40 57 60 58 41 59 44 60 59 61 79 62 42 63
REMARK SMILES IDX 43 64 58 66 80 67 45 68 28 69 29 70 38 71 30 72 31 73 37 74
REMARK SMILES IDX 39 75 32 76 33 77 34 78 35 79 36 80 62 81 63 82 72 83 64 84
REMARK SMILES IDX 65 85 71 86 73 87 66 88 67 89 68 90 69 91 70 92 46 93 47 94
REMARK SMILES IDX 56 95 48 96 49 97 55 98 57 99 50 100 51 101 52 102 53 103
REMARK SMILES IDX 54 104
REMARK H PARENT 78 54 44 65
REMARK Flexibility Score: inf
ROOT
ATOM      1  C   UNL A   1      34.590  34.695  28.008  1.00  0.00     0.275 C 
ENDROOT
BRANCH   1   2
ATOM      2  O   UNL A   1      35.583  34.366  29.005  1.00  0.00    -0.458 OA
BRANCH   2   3
ATOM      3  C   UNL A   1      36.505  33.438  28.634  1.00  0.00     0.338 C 
ATOM      4  O   UNL A   1      37.685  33.674  28.412  1.00  0.00    -0.246 OA
BRANCH   3   5
ATOM      5  C   UNL A   1      35.931  32.056  28.546  1.00  0.00     0.067 C 
ATOM      6  C   UNL A   1      34.818  31.809  27.815  1.00  0.00     0.024 C 
BRANCH   6   7
ATOM      7  C   UNL A   1      34.288  30.463  27.488  1.00  0.00    -0.025 A 
ATOM      8  C   UNL A   1      33.168  28.169  26.334  1.00  0.00     0.067 A 
ATOM      9  C   UNL A   1      34.549  28.262  26.485  1.00  0.00     0.021 A 
ATOM     10  C   UNL A   1      32.332  29.153  26.867  1.00  0.00     0.021 A 
ATOM     11  C   UNL A   1      35.098  29.387  27.101  1.00  0.00     0.009 A 
ATOM     12  C   UNL A   1      32.897  30.298  27.442  1.00  0.00     0.009 A 
BRANCH   8  13
ATOM     13  S   UNL A   1      32.514  26.818  25.386  1.00  0.00     0.175 S 
ATOM     14  C   UNL A   1      30.953  26.415  26.111  1.00  0.00     0.163 C 
ATOM     15  O   UNL A   1      33.382  25.677  25.605  1.00  0.00    -0.224 OA
ATOM     16  O   UNL A   1      32.263  27.331  24.054  1.00  0.00    -0.224 OA
ENDBRANCH   8  13
ENDBRANCH   6   7
BRANCH   5  17
ATOM     17  C   UNL A   1      36.648  30.974  29.259  1.00  0.00    -0.010 A 
ATOM     18  C   UNL A   1      36.110  30.539  30.478  1.00  0.00     0.009 A 
ATOM     19  C   UNL A   1      37.727  30.273  28.694  1.00  0.00     0.017 A 
ATOM     20  C   UNL A   1      36.662  29.458  31.152  1.00  0.00     0.001 A 
ATOM     21  C   UNL A   1      38.255  29.135  29.332  1.00  0.00    -0.018 A 
ATOM     22  C   UNL A   1      37.741  28.783  30.594  1.00  0.00     0.009 A 
BRANCH  21  23
ATOM     23  C   UNL A   1      39.221  28.234  28.673  1.00  0.00    -0.018 A 
ATOM     24  C   UNL A   1      39.701  28.570  27.389  1.00  0.00     0.010 A 
ATOM     25  C   UNL A   1      39.701  27.056  29.264  1.00  0.00     0.010 A 
ATOM     26  C   UNL A   1      40.588  27.750  26.698  1.00  0.00     0.021 A 
ATOM     27  C   UNL A   1      40.597  26.221  28.578  1.00  0.00     0.021 A 
ATOM     28  C   UNL A   1      41.015  26.566  27.290  1.00  0.00     0.067 A 
BRANCH  28  29
ATOM     29  S   UNL A   1      42.087  25.499  26.362  1.00  0.00     0.175 S 
ATOM     30  C   UNL A   1      41.365  23.893  26.600  1.00  0.00     0.163 C 
ATOM     31  O   UNL A   1      41.950  25.857  24.962  1.00  0.00    -0.224 OA
ATOM     32  O   UNL A   1      43.390  25.507  27.000  1.00  0.00    -0.224 OA
ENDBRANCH  28  29
ENDBRANCH  21  23
ENDBRANCH   5  17
ENDBRANCH   3   5
ENDBRANCH   2   3
ENDBRANCH   1   2
BRANCH   1  33
ATOM     33  C   UNL A   1      33.400  35.426  28.629  1.00  0.00     0.275 C 
BRANCH  33  34
ATOM     34  O   UNL A   1      33.001  34.778  29.850  1.00  0.00    -0.458 OA
BRANCH  34  35
ATOM     35  C   UNL A   1      33.047  35.552  30.957  1.00  0.00     0.338 C 
ATOM     36  O   UNL A   1      32.468  36.610  31.141  1.00  0.00    -0.246 OA
BRANCH  35  37
ATOM     37  C   UNL A   1      33.848  34.910  32.013  1.00  0.00     0.060 A 
ATOM     38  C   UNL A   1      34.482  35.724  32.937  1.00  0.00     0.016 A 
ATOM     39  C   UNL A   1      34.195  33.561  31.924  1.00  0.00     0.016 A 
ATOM     40  C   UNL A   1      35.596  35.242  33.621  1.00  0.00     0.010 A 
ATOM     41  C   UNL A   1      35.244  33.054  32.712  1.00  0.00     0.010 A 
ATOM     42  C   UNL A   1      36.031  33.912  33.499  1.00  0.00    -0.014 A 
BRANCH  42  43
ATOM     43  C   UNL A   1      37.357  33.493  34.079  1.00  0.00     0.031 A 
ATOM     44  C   UNL A   1      37.548  33.384  35.583  1.00  0.00     0.074 A 
ATOM     45  C   UNL A   1      38.373  33.082  33.287  1.00  0.00     0.049 A 
ATOM     46  N   UNL A   1      38.647  33.172  36.269  1.00  0.00    -0.248 NA
ATOM     47  C   UNL A   1      36.351  33.531  36.427  1.00  0.00     0.031 C 
ATOM     48  C   UNL A   1      38.344  33.019  31.825  1.00  0.00     0.029 A 
ATOM     49  N   UNL A   1      39.622  32.594  33.603  1.00  0.00    -0.354 N 
ATOM     50  C   UNL A   1      38.286  33.231  37.613  1.00  0.00     0.074 A 
ATOM     51  C   UNL A   1      36.863  33.494  37.649  1.00  0.00     0.031 C 
ATOM     52  C   UNL A   1      39.467  32.440  31.380  1.00  0.00     0.029 A 
ATOM     53  C   UNL A   1      40.366  32.225  32.506  1.00  0.00     0.049 A 
ATOM     54  H   UNL A   1      39.951  32.517  34.528  1.00  0.00     0.167 HD
ATOM     55  C   UNL A   1      39.060  33.084  38.718  1.00  0.00     0.037 A 
ATOM     56  C   UNL A   1      41.647  31.819  32.391  1.00  0.00     0.037 A 
ATOM     57  C   UNL A   1      40.464  32.754  38.695  1.00  0.00     0.049 A 
ATOM     58  C   UNL A   1      42.509  31.733  33.619  1.00  0.00     0.074 A 
ATOM     59  C   UNL A   1      41.338  32.624  39.763  1.00  0.00     0.029 A 
ATOM     60  N   UNL A   1      41.196  32.473  37.552  1.00  0.00    -0.354 N 
ATOM     61  N   UNL A   1      42.180  31.923  34.874  1.00  0.00    -0.248 NA
ATOM     62  C   UNL A   1      43.926  31.405  33.412  1.00  0.00     0.031 C 
ATOM     63  C   UNL A   1      42.605  32.305  39.263  1.00  0.00     0.029 A 
ATOM     64  C   UNL A   1      42.510  32.181  37.887  1.00  0.00     0.049 A 
ATOM     65  H   UNL A   1      40.836  32.481  36.635  1.00  0.00     0.167 HD
ATOM     66  C   UNL A   1      43.346  31.720  35.605  1.00  0.00     0.074 A 
ATOM     67  C   UNL A   1      44.381  31.371  34.655  1.00  0.00     0.031 C 
ATOM     68  C   UNL A   1      43.538  31.820  36.944  1.00  0.00     0.037 A 
BRANCH  55  69
ATOM     69  C   UNL A   1      38.422  33.340  40.060  1.00  0.00     0.058 A 
ATOM     70  C   UNL A   1      38.480  34.588  40.699  1.00  0.00     0.135 A 
ATOM     71  C   UNL A   1      37.709  32.311  40.701  1.00  0.00     0.135 A 
ATOM     72  F   UNL A   1      39.157  35.602  40.141  1.00  0.00    -0.206 F 
ATOM     73  C   UNL A   1      37.886  34.796  41.942  1.00  0.00     0.059 A 
ATOM     74  C   UNL A   1      37.085  32.505  41.930  1.00  0.00     0.059 A 
ATOM     75  F   UNL A   1      37.615  31.098  40.133  1.00  0.00    -0.206 F 
ATOM     76  C   UNL A   1      37.195  33.747  42.553  1.00  0.00     0.060 A 
BRANCH  76  77
ATOM     77  S   UNL A   1      36.448  34.021  44.174  1.00  0.00     0.124 S 
ATOM     78  O   UNL A   1      36.499  35.477  44.273  1.00  0.00    -0.237 OA
ATOM     79  O   UNL A   1      35.118  33.445  44.007  1.00  0.00    -0.237 OA
ATOM     80  O   UNL A   1      37.332  33.299  45.084  1.00  0.00    -0.744 OA
ENDBRANCH  76  77
ENDBRANCH  55  69
BRANCH  56  81
ATOM     81  C   UNL A   1      42.224  31.545  31.044  1.00  0.00     0.058 A 
ATOM     82  C   UNL A   1      42.041  30.308  30.410  1.00  0.00     0.135 A 
ATOM     83  C   UNL A   1      42.987  32.516  30.373  1.00  0.00     0.135 A 
ATOM     84  F   UNL A   1      41.335  29.340  31.015  1.00  0.00    -0.206 F 
ATOM     85  C   UNL A   1      42.605  30.037  29.166  1.00  0.00     0.059 A 
ATOM     86  C   UNL A   1      43.526  32.283  29.114  1.00  0.00     0.059 A 
ATOM     87  F   UNL A   1      43.189  33.718  30.933  1.00  0.00    -0.206 F 
ATOM     88  C   UNL A   1      43.342  31.034  28.525  1.00  0.00     0.060 A 
BRANCH  88  89
ATOM     89  S   UNL A   1      44.040  30.692  26.896  1.00  0.00     0.124 S 
ATOM     90  O   UNL A   1      43.170  29.620  26.426  1.00  0.00    -0.237 OA
ATOM     91  O   UNL A   1      43.892  31.978  26.222  1.00  0.00    -0.237 OA
ATOM     92  O   UNL A   1      45.415  30.304  27.196  1.00  0.00    -0.744 OA
ENDBRANCH  88  89
ENDBRANCH  56  81
BRANCH  68  93
ATOM     93  C   UNL A   1      44.909  31.490  37.470  1.00  0.00     0.058 A 
ATOM     94  C   UNL A   1      45.277  30.181  37.819  1.00  0.00     0.135 A 
ATOM     95  C   UNL A   1      45.872  32.501  37.620  1.00  0.00     0.135 A 
ATOM     96  F   UNL A   1      44.394  29.177  37.701  1.00  0.00    -0.206 F 
ATOM     97  C   UNL A   1      46.536  29.893  38.337  1.00  0.00     0.059 A 
ATOM     98  C   UNL A   1      47.146  32.231  38.108  1.00  0.00     0.059 A 
ATOM     99  F   UNL A   1      45.577  33.770  37.292  1.00  0.00    -0.206 F 
ATOM    100  C   UNL A   1      47.463  30.927  38.482  1.00  0.00     0.060 A 
BRANCH 100 101
ATOM    101  S   UNL A   1      49.094  30.544  39.157  1.00  0.00     0.124 S 
ATOM    102  O   UNL A   1      48.812  30.482  40.588  1.00  0.00    -0.237 OA
ATOM    103  O   UNL A   1      49.407  29.270  38.518  1.00  0.00    -0.237 OA
ATOM    104  O   UNL A   1      49.913  31.672  38.727  1.00  0.00    -0.744 OA
ENDBRANCH 100 101
ENDBRANCH  68  93
ENDBRANCH  42  43
ENDBRANCH  35  37
ENDBRANCH  34  35
ENDBRANCH  33  34
ENDBRANCH   1  33
TORSDOF 19
ENDMDL
MODEL 2
REMARK VINA RESULT:     -10.3      4.575      8.899
REMARK SMILES CS(=O)(=O)c1ccc(/C=C(/C(=O)OCCOC(=O)c2ccc(-c3c4nc(c(-c5c(F)cc(S(=O)(=O)[O-])cc5F)c5ccc([nH]5)c(-c5c(F)cc(S(=O)(=O)[O-])cc5F)c5nc(c(-c6c(F)cc(S(=O)(=O)[O-])cc6F)c6ccc3[nH]6)C=C5)C=C4)cc2)c2cccc(-c3ccc(S(C)(=O)=O)cc3)c2)cc1
REMARK SMILES IDX 14 1 13 2 11 3 12 4 10 5 9 6 8 7 5 8 6 9 102 10 7 11 101 12
REMARK SMILES IDX 2 13 1 14 3 15 4 16 85 17 86 18 100 19 87 20 89 21 88 22
REMARK SMILES IDX 90 23 91 24 99 25 92 26 98 27 93 28 94 29 95 30 96 31 97 32
REMARK SMILES IDX 15 33 16 34 17 35 18 36 19 37 20 38 84 39 21 40 83 41 22 42
REMARK SMILES IDX 23 43 24 44 77 45 25 46 82 47 76 48 78 49 26 50 81 51 75 52
REMARK SMILES IDX 74 53 27 55 61 56 40 57 60 58 41 59 44 60 59 61 79 62 42 63
REMARK SMILES IDX 43 64 58 66 80 67 45 68 28 69 29 70 38 71 30 72 31 73 37 74
REMARK SMILES IDX 39 75 32 76 33 77 34 78 35 79 36 80 62 81 63 82 72 83 64 84
REMARK SMILES IDX 65 85 71 86 73 87 66 88 67 89 68 90 69 91 70 92 46 93 47 94
REMARK SMILES IDX 56 95 48 96 49 97 55 98 57 99 50 100 51 101 52 102 53 103
REMARK SMILES IDX 54 104
REMARK H PARENT 78 54 44 65
REMARK Flexibility Score: inf
ROOT
ATOM      1  C   UNL A   1      39.510  33.803  37.831  1.00  0.00     0.275 C 
ENDROOT
BRANCH   1   2
ATOM      2  O   UNL A   1      38.762  33.960  36.604  1.00  0.00    -0.458 OA
BRANCH   2   3
ATOM      3  C   UNL A   1      38.527  32.816  35.908  1.00  0.00     0.338 C 
ATOM      4  O   UNL A   1      38.941  31.708  36.222  1.00  0.00    -0.246 OA
BRANCH   3   5
ATOM      5  C   UNL A   1      37.665  33.041  34.703  1.00  0.00     0.067 C 
ATOM      6  C   UNL A   1      36.331  33.246  34.829  1.00  0.00     0.024 C 
BRANCH   6   7
ATOM      7  C   UNL A   1      35.425  33.683  33.739  1.00  0.00    -0.025 A 
ATOM      8  C   UNL A   1      34.228  34.650  31.397  1.00  0.00     0.067 A 
ATOM      9  C   UNL A   1      34.298  33.277  31.622  1.00  0.00     0.021 A 
ATOM     10  C   UNL A   1      34.637  35.547  32.386  1.00  0.00     0.021 A 
ATOM     11  C   UNL A   1      34.854  32.803  32.810  1.00  0.00     0.009 A 
ATOM     12  C   UNL A   1      35.235  35.059  33.554  1.00  0.00     0.009 A 
BRANCH   8  13
ATOM     13  S   UNL A   1      33.686  35.215  29.805  1.00  0.00     0.175 S 
ATOM     14  C   UNL A   1      35.028  34.921  28.692  1.00  0.00     0.163 C 
ATOM     15  O   UNL A   1      33.524  36.654  29.889  1.00  0.00    -0.224 OA
ATOM     16  O   UNL A   1      32.589  34.354  29.411  1.00  0.00    -0.224 OA
ENDBRANCH   8  13
ENDBRANCH   6   7
BRANCH   5  17
ATOM     17  C   UNL A   1      38.333  33.064  33.382  1.00  0.00    -0.010 A 
ATOM     18  C   UNL A   1      38.984  34.248  33.010  1.00  0.00     0.009 A 
ATOM     19  C   UNL A   1      38.476  31.919  32.579  1.00  0.00     0.017 A 
ATOM     20  C   UNL A   1      39.724  34.313  31.837  1.00  0.00     0.001 A 
ATOM     21  C   UNL A   1      39.277  31.950  31.422  1.00  0.00    -0.018 A 
ATOM     22  C   UNL A   1      39.844  33.181  31.040  1.00  0.00     0.009 A 
BRANCH  21  23
ATOM     23  C   UNL A   1      39.647  30.728  30.682  1.00  0.00    -0.018 A 
ATOM     24  C   UNL A   1      38.776  29.618  30.719  1.00  0.00     0.010 A 
ATOM     25  C   UNL A   1      40.824  30.612  29.927  1.00  0.00     0.010 A 
ATOM     26  C   UNL A   1      39.078  28.425  30.070  1.00  0.00     0.021 A 
ATOM     27  C   UNL A   1      41.140  29.415  29.267  1.00  0.00     0.021 A 
ATOM     28  C   UNL A   1      40.273  28.323  29.364  1.00  0.00     0.067 A 
BRANCH  28  29
ATOM     29  S   UNL A   1      40.673  26.770  28.606  1.00  0.00     0.175 S 
ATOM     30  C   UNL A   1      40.765  27.173  26.878  1.00  0.00     0.163 C 
ATOM     31  O   UNL A   1      42.002  26.396  29.058  1.00  0.00    -0.224 OA
ATOM     32  O   UNL A   1      39.551  25.872  28.800  1.00  0.00    -0.224 OA
ENDBRANCH  28  29
ENDBRANCH  21  23
ENDBRANCH   5  17
ENDBRANCH   3   5
ENDBRANCH   2   3
ENDBRANCH   1   2
BRANCH   1  33
ATOM     33  C   UNL A   1      39.193  34.922  38.822  1.00  0.00     0.275 C 
BRANCH  33  34
ATOM     34  O   UNL A   1      39.311  36.205  38.178  1.00  0.00    -0.458 OA
BRANCH  34  35
ATOM     35  C   UNL A   1      40.521  36.797  38.287  1.00  0.00     0.338 C 
ATOM     36  O   UNL A   1      40.982  37.356  39.268  1.00  0.00    -0.246 OA
BRANCH  35  37
ATOM     37  C   UNL A   1      41.305  36.615  37.053  1.00  0.00     0.060 A 
ATOM     38  C   UNL A   1      40.631  36.636  35.843  1.00  0.00     0.016 A 
ATOM     39  C   UNL A   1      42.621  36.155  37.106  1.00  0.00     0.016 A 
ATOM     40  C   UNL A   1      41.197  36.009  34.736  1.00  0.00     0.010 A 
ATOM     41  C   UNL A   1      43.228  35.635  35.949  1.00  0.00     0.010 A 
ATOM     42  C   UNL A   1      42.489  35.458  34.767  1.00  0.00    -0.014 A 
BRANCH  42  43
ATOM     43  C   UNL A   1      42.975  34.602  33.627  1.00  0.00     0.031 A 
ATOM     44  C   UNL A   1      42.849  33.088  33.681  1.00  0.00     0.074 A 
ATOM     45  C   UNL A   1      43.422  35.153  32.475  1.00  0.00     0.049 A 
ATOM     46  N   UNL A   1      43.332  32.183  32.862  1.00  0.00    -0.248 NA
ATOM     47  C   UNL A   1      42.081  32.516  34.799  1.00  0.00     0.031 C 
ATOM     48  C   UNL A   1      43.521  36.586  32.196  1.00  0.00     0.029 A 
ATOM     49  N   UNL A   1      43.837  34.569  31.298  1.00  0.00    -0.354 N 
ATOM     50  C   UNL A   1      42.988  30.945  33.401  1.00  0.00     0.074 A 
ATOM     51  C   UNL A   1      42.251  31.214  34.618  1.00  0.00     0.031 C 
ATOM     52  C   UNL A   1      43.872  36.769  30.916  1.00  0.00     0.029 A 
ATOM     53  C   UNL A   1      44.172  35.475  30.318  1.00  0.00     0.049 A 
ATOM     54  H   UNL A   1      43.890  33.593  31.171  1.00  0.00     0.167 HD
ATOM     55  C   UNL A   1      43.259  29.700  32.936  1.00  0.00     0.037 A 
ATOM     56  C   UNL A   1      44.719  35.308  29.097  1.00  0.00     0.037 A 
ATOM     57  C   UNL A   1      43.933  29.420  31.692  1.00  0.00     0.049 A 
ATOM     58  C   UNL A   1      45.079  33.926  28.630  1.00  0.00     0.074 A 
ATOM     59  C   UNL A   1      44.286  28.191  31.158  1.00  0.00     0.029 A 
ATOM     60  N   UNL A   1      44.331  30.377  30.771  1.00  0.00    -0.354 N 
ATOM     61  N   UNL A   1      44.865  32.773  29.217  1.00  0.00    -0.248 NA
ATOM     62  C   UNL A   1      45.784  33.824  27.344  1.00  0.00     0.031 C 
ATOM     63  C   UNL A   1      44.933  28.407  29.936  1.00  0.00     0.029 A 
ATOM     64  C   UNL A   1      44.933  29.768  29.680  1.00  0.00     0.049 A 
ATOM     65  H   UNL A   1      44.204  31.349  30.876  1.00  0.00     0.167 HD
ATOM     66  C   UNL A   1      45.392  31.810  28.363  1.00  0.00     0.074 A 
ATOM     67  C   UNL A   1      45.915  32.513  27.210  1.00  0.00     0.031 C 
ATOM     68  C   UNL A   1      45.442  30.465  28.526  1.00  0.00     0.037 A 
BRANCH  55  69
ATOM     69  C   UNL A   1      42.882  28.529  33.807  1.00  0.00     0.058 A 
ATOM     70  C   UNL A   1      41.618  27.921  33.753  1.00  0.00     0.135 A 
ATOM     71  C   UNL A   1      43.828  27.988  34.697  1.00  0.00     0.135 A 
ATOM     72  F   UNL A   1      40.671  28.403  32.934  1.00  0.00    -0.206 F 
ATOM     73  C   UNL A   1      41.293  26.843  34.575  1.00  0.00     0.059 A 
ATOM     74  C   UNL A   1      43.534  26.895  35.507  1.00  0.00     0.059 A 
ATOM     75  F   UNL A   1      45.055  28.525  34.787  1.00  0.00    -0.206 F 
ATOM     76  C   UNL A   1      42.257  26.341  35.453  1.00  0.00     0.060 A 
BRANCH  76  77
ATOM     77  S   UNL A   1      41.818  24.958  36.528  1.00  0.00     0.124 S 
ATOM     78  O   UNL A   1      41.750  23.858  35.572  1.00  0.00    -0.237 OA
ATOM     79  O   UNL A   1      42.940  24.918  37.461  1.00  0.00    -0.237 OA
ATOM     80  O   UNL A   1      40.541  25.367  37.106  1.00  0.00    -0.744 OA
ENDBRANCH  76  77
ENDBRANCH  55  69
BRANCH  56  81
ATOM     81  C   UNL A   1      45.043  36.496  28.257  1.00  0.00     0.058 A 
ATOM     82  C   UNL A   1      46.346  37.008  28.187  1.00  0.00     0.135 A 
ATOM     83  C   UNL A   1      44.044  37.153  27.518  1.00  0.00     0.135 A 
ATOM     84  F   UNL A   1      47.334  36.429  28.887  1.00  0.00    -0.206 F 
ATOM     85  C   UNL A   1      46.646  38.136  27.428  1.00  0.00     0.059 A 
ATOM     86  C   UNL A   1      44.326  38.256  26.721  1.00  0.00     0.059 A 
ATOM     87  F   UNL A   1      42.781  36.702  27.545  1.00  0.00    -0.206 F 
ATOM     88  C   UNL A   1      45.628  38.750  26.696  1.00  0.00     0.060 A 
BRANCH  88  89
ATOM     89  S   UNL A   1      46.029  40.189  25.684  1.00  0.00     0.124 S 
ATOM     90  O   UNL A   1      46.732  39.573  24.565  1.00  0.00    -0.237 OA
ATOM     91  O   UNL A   1      44.707  40.734  25.387  1.00  0.00    -0.237 OA
ATOM     92  O   UNL A   1      46.850  41.006  26.573  1.00  0.00    -0.744 OA
ENDBRANCH  88  89
ENDBRANCH  56  81
BRANCH  68  93
ATOM     93  C   UNL A   1      46.031  29.655  27.402  1.00  0.00     0.058 A 
ATOM     94  C   UNL A   1      45.235  29.093  26.392  1.00  0.00     0.135 A 
ATOM     95  C   UNL A   1      47.418  29.446  27.333  1.00  0.00     0.135 A 
ATOM     96  F   UNL A   1      43.902  29.257  26.413  1.00  0.00    -0.206 F 
ATOM     97  C   UNL A   1      45.788  28.318  25.378  1.00  0.00     0.059 A 
ATOM     98  C   UNL A   1      47.995  28.700  26.311  1.00  0.00     0.059 A 
ATOM     99  F   UNL A   1      48.229  29.970  28.267  1.00  0.00    -0.206 F 
ATOM    100  C   UNL A   1      47.169  28.122  25.349  1.00  0.00     0.060 A 
BRANCH 100 101
ATOM    101  S   UNL A   1      47.877  27.113  24.029  1.00  0.00     0.124 S 
ATOM    102  O   UNL A   1      47.183  25.845  24.225  1.00  0.00    -0.237 OA
ATOM    103  O   UNL A   1      47.508  27.859  22.830  1.00  0.00    -0.237 OA
ATOM    104  O   UNL A   1      49.304  27.102  24.337  1.00  0.00    -0.744 OA
ENDBRANCH 100 101
ENDBRANCH  68  93
ENDBRANCH  42  43
ENDBRANCH  35  37
ENDBRANCH  34  35
ENDBRANCH  33  34
ENDBRANCH   1  33
TORSDOF 19
ENDMDL
MODEL 3
REMARK VINA RESULT:     -10.2      4.819     10.432
REMARK SMILES CS(=O)(=O)c1ccc(/C=C(/C(=O)OCCOC(=O)c2ccc(-c3c4nc(c(-c5c(F)cc(S(=O)(=O)[O-])cc5F)c5ccc([nH]5)c(-c5c(F)cc(S(=O)(=O)[O-])cc5F)c5nc(c(-c6c(F)cc(S(=O)(=O)[O-])cc6F)c6ccc3[nH]6)C=C5)C=C4)cc2)c2cccc(-c3ccc(S(C)(=O)=O)cc3)c2)cc1
REMARK SMILES IDX 14 1 13 2 11 3 12 4 10 5 9 6 8 7 5 8 6 9 102 10 7 11 101 12
REMARK SMILES IDX 2 13 1 14 3 15 4 16 85 17 86 18 100 19 87 20 89 21 88 22
REMARK SMILES IDX 90 23 91 24 99 25 92 26 98 27 93 28 94 29 95 30 96 31 97 32
REMARK SMILES IDX 15 33 16 34 17 35 18 36 19 37 20 38 84 39 21 40 83 41 22 42
REMARK SMILES IDX 23 43 24 44 77 45 25 46 82 47 76 48 78 49 26 50 81 51 75 52
REMARK SMILES IDX 74 53 27 55 61 56 40 57 60 58 41 59 44 60 59 61 79 62 42 63
REMARK SMILES IDX 43 64 58 66 80 67 45 68 28 69 29 70 38 71 30 72 31 73 37 74
REMARK SMILES IDX 39 75 32 76 33 77 34 78 35 79 36 80 62 81 63 82 72 83 64 84
REMARK SMILES IDX 65 85 71 86 73 87 66 88 67 89 68 90 69 91 70 92 46 93 47 94
REMARK SMILES IDX 56 95 48 96 49 97 55 98 57 99 50 100 51 101 52 102 53 103
REMARK SMILES IDX 54 104
REMARK H PARENT 78 54 44 65
REMARK Flexibility Score: inf
ROOT
ATOM      1  C   UNL A   1      35.100  33.737  32.462  1.00  0.00     0.275 C 
ENDROOT
BRANCH   1   2
ATOM      2  O   UNL A   1      36.106  34.775  32.446  1.00  0.00    -0.458 OA
BRANCH   2   3
ATOM      3  C   UNL A   1      37.385  34.352  32.260  1.00  0.00     0.338 C 
ATOM      4  O   UNL A   1      37.929  34.227  31.171  1.00  0.00    -0.246 OA
BRANCH   3   5
ATOM      5  C   UNL A   1      38.094  34.072  33.550  1.00  0.00     0.067 C 
ATOM      6  C   UNL A   1      37.492  34.308  34.741  1.00  0.00     0.024 C 
BRANCH   6   7
ATOM      7  C   UNL A   1      38.009  33.877  36.063  1.00  0.00    -0.025 A 
ATOM      8  C   UNL A   1      38.614  33.490  38.771  1.00  0.00     0.067 A 
ATOM      9  C   UNL A   1      37.794  32.579  38.109  1.00  0.00     0.021 A 
ATOM     10  C   UNL A   1      39.236  34.521  38.065  1.00  0.00     0.021 A 
ATOM     11  C   UNL A   1      37.533  32.752  36.750  1.00  0.00     0.009 A 
ATOM     12  C   UNL A   1      38.930  34.711  36.712  1.00  0.00     0.009 A 
BRANCH   8  13
ATOM     13  S   UNL A   1      38.779  33.348  40.533  1.00  0.00     0.175 S 
ATOM     14  C   UNL A   1      37.143  33.466  41.193  1.00  0.00     0.163 C 
ATOM     15  O   UNL A   1      39.499  34.519  40.995  1.00  0.00    -0.224 OA
ATOM     16  O   UNL A   1      39.265  32.008  40.797  1.00  0.00    -0.224 OA
ENDBRANCH   8  13
ENDBRANCH   6   7
BRANCH   5  17
ATOM     17  C   UNL A   1      39.456  33.497  33.468  1.00  0.00    -0.010 A 
ATOM     18  C   UNL A   1      40.530  34.395  33.388  1.00  0.00     0.009 A 
ATOM     19  C   UNL A   1      39.716  32.126  33.630  1.00  0.00     0.017 A 
ATOM     20  C   UNL A   1      41.840  33.937  33.417  1.00  0.00     0.001 A 
ATOM     21  C   UNL A   1      41.039  31.654  33.728  1.00  0.00    -0.018 A 
ATOM     22  C   UNL A   1      42.087  32.577  33.558  1.00  0.00     0.009 A 
BRANCH  21  23
ATOM     23  C   UNL A   1      41.358  30.270  34.130  1.00  0.00    -0.018 A 
ATOM     24  C   UNL A   1      42.298  30.058  35.161  1.00  0.00     0.010 A 
ATOM     25  C   UNL A   1      40.764  29.142  33.543  1.00  0.00     0.010 A 
ATOM     26  C   UNL A   1      42.669  28.780  35.567  1.00  0.00     0.021 A 
ATOM     27  C   UNL A   1      41.128  27.848  33.944  1.00  0.00     0.021 A 
ATOM     28  C   UNL A   1      42.096  27.679  34.939  1.00  0.00     0.067 A 
BRANCH  28  29
ATOM     29  S   UNL A   1      42.637  26.059  35.419  1.00  0.00     0.175 S 
ATOM     30  C   UNL A   1      42.888  26.219  37.171  1.00  0.00     0.163 C 
ATOM     31  O   UNL A   1      41.528  25.148  35.200  1.00  0.00    -0.224 OA
ATOM     32  O   UNL A   1      43.925  25.813  34.800  1.00  0.00    -0.224 OA
ENDBRANCH  28  29
ENDBRANCH  21  23
ENDBRANCH   5  17
ENDBRANCH   3   5
ENDBRANCH   2   3
ENDBRANCH   1   2
BRANCH   1  33
ATOM     33  C   UNL A   1      34.793  33.239  31.050  1.00  0.00     0.275 C 
BRANCH  33  34
ATOM     34  O   UNL A   1      35.311  31.908  30.868  1.00  0.00    -0.458 OA
BRANCH  34  35
ATOM     35  C   UNL A   1      35.187  31.405  29.620  1.00  0.00     0.338 C 
ATOM     36  O   UNL A   1      34.347  31.702  28.786  1.00  0.00    -0.246 OA
BRANCH  35  37
ATOM     37  C   UNL A   1      36.284  30.469  29.321  1.00  0.00     0.060 A 
ATOM     38  C   UNL A   1      36.909  29.838  30.384  1.00  0.00     0.016 A 
ATOM     39  C   UNL A   1      36.864  30.431  28.053  1.00  0.00     0.016 A 
ATOM     40  C   UNL A   1      38.205  29.352  30.222  1.00  0.00     0.010 A 
ATOM     41  C   UNL A   1      38.122  29.827  27.876  1.00  0.00     0.010 A 
ATOM     42  C   UNL A   1      38.861  29.369  28.980  1.00  0.00    -0.014 A 
BRANCH  42  43
ATOM     43  C   UNL A   1      40.328  29.039  28.894  1.00  0.00     0.031 A 
ATOM     44  C   UNL A   1      41.379  30.047  29.331  1.00  0.00     0.074 A 
ATOM     45  C   UNL A   1      40.752  27.804  28.545  1.00  0.00     0.049 A 
ATOM     46  N   UNL A   1      42.684  29.997  29.204  1.00  0.00    -0.248 NA
ATOM     47  C   UNL A   1      40.903  31.269  30.000  1.00  0.00     0.031 C 
ATOM     48  C   UNL A   1      39.892  26.674  28.189  1.00  0.00     0.029 A 
ATOM     49  N   UNL A   1      42.022  27.273  28.474  1.00  0.00    -0.354 N 
ATOM     50  C   UNL A   1      43.173  31.200  29.708  1.00  0.00     0.074 A 
ATOM     51  C   UNL A   1      42.023  31.962  30.149  1.00  0.00     0.031 C 
ATOM     52  C   UNL A   1      40.640  25.574  28.033  1.00  0.00     0.029 A 
ATOM     53  C   UNL A   1      42.047  25.942  28.126  1.00  0.00     0.049 A 
ATOM     54  H   UNL A   1      42.835  27.798  28.656  1.00  0.00     0.167 HD
ATOM     55  C   UNL A   1      44.454  31.638  29.796  1.00  0.00     0.037 A 
ATOM     56  C   UNL A   1      43.071  25.110  27.847  1.00  0.00     0.037 A 
ATOM     57  C   UNL A   1      45.611  30.862  29.423  1.00  0.00     0.049 A 
ATOM     58  C   UNL A   1      44.479  25.635  27.880  1.00  0.00     0.074 A 
ATOM     59  C   UNL A   1      46.945  31.238  29.441  1.00  0.00     0.029 A 
ATOM     60  N   UNL A   1      45.580  29.544  28.994  1.00  0.00    -0.354 N 
ATOM     61  N   UNL A   1      44.911  26.821  28.233  1.00  0.00    -0.248 NA
ATOM     62  C   UNL A   1      45.539  24.713  27.446  1.00  0.00     0.031 C 
ATOM     63  C   UNL A   1      47.714  30.162  28.984  1.00  0.00     0.029 A 
ATOM     64  C   UNL A   1      46.867  29.097  28.734  1.00  0.00     0.049 A 
ATOM     65  H   UNL A   1      44.762  29.004  28.888  1.00  0.00     0.167 HD
ATOM     66  C   UNL A   1      46.293  26.781  28.081  1.00  0.00     0.074 A 
ATOM     67  C   UNL A   1      46.626  25.448  27.626  1.00  0.00     0.031 C 
ATOM     68  C   UNL A   1      47.201  27.766  28.295  1.00  0.00     0.037 A 
BRANCH  55  69
ATOM     69  C   UNL A   1      44.680  33.055  30.260  1.00  0.00     0.058 A 
ATOM     70  C   UNL A   1      45.047  33.370  31.578  1.00  0.00     0.135 A 
ATOM     71  C   UNL A   1      44.552  34.117  29.347  1.00  0.00     0.135 A 
ATOM     72  F   UNL A   1      45.170  32.400  32.496  1.00  0.00    -0.206 F 
ATOM     73  C   UNL A   1      45.243  34.689  31.982  1.00  0.00     0.059 A 
ATOM     74  C   UNL A   1      44.770  35.439  29.722  1.00  0.00     0.059 A 
ATOM     75  F   UNL A   1      44.210  33.874  28.072  1.00  0.00    -0.206 F 
ATOM     76  C   UNL A   1      45.097  35.717  31.048  1.00  0.00     0.060 A 
BRANCH  76  77
ATOM     77  S   UNL A   1      45.333  37.425  31.588  1.00  0.00     0.124 S 
ATOM     78  O   UNL A   1      46.320  37.259  32.650  1.00  0.00    -0.237 OA
ATOM     79  O   UNL A   1      45.812  38.074  30.373  1.00  0.00    -0.237 OA
ATOM     80  O   UNL A   1      44.001  37.830  32.029  1.00  0.00    -0.744 OA
ENDBRANCH  76  77
ENDBRANCH  55  69
BRANCH  56  81
ATOM     81  C   UNL A   1      42.799  23.707  27.425  1.00  0.00     0.058 A 
ATOM     82  C   UNL A   1      42.668  22.674  28.364  1.00  0.00     0.135 A 
ATOM     83  C   UNL A   1      42.681  23.371  26.066  1.00  0.00     0.135 A 
ATOM     84  F   UNL A   1      42.789  22.938  29.675  1.00  0.00    -0.206 F 
ATOM     85  C   UNL A   1      42.445  21.357  27.972  1.00  0.00     0.059 A 
ATOM     86  C   UNL A   1      42.418  22.071  25.651  1.00  0.00     0.059 A 
ATOM     87  F   UNL A   1      42.793  24.321  25.125  1.00  0.00    -0.206 F 
ATOM     88  C   UNL A   1      42.317  21.068  26.612  1.00  0.00     0.060 A 
BRANCH  88  89
ATOM     89  S   UNL A   1      41.990  19.365  26.110  1.00  0.00     0.124 S 
ATOM     90  O   UNL A   1      42.806  19.254  24.908  1.00  0.00    -0.237 OA
ATOM     91  O   UNL A   1      42.453  18.609  27.270  1.00  0.00    -0.237 OA
ATOM     92  O   UNL A   1      40.546  19.351  25.898  1.00  0.00    -0.744 OA
ENDBRANCH  88  89
ENDBRANCH  56  81
BRANCH  68  93
ATOM     93  C   UNL A   1      48.652  27.420  28.097  1.00  0.00     0.058 A 
ATOM     94  C   UNL A   1      49.467  26.991  29.156  1.00  0.00     0.135 A 
ATOM     95  C   UNL A   1      49.234  27.515  26.822  1.00  0.00     0.135 A 
ATOM     96  F   UNL A   1      48.964  26.888  30.397  1.00  0.00    -0.206 F 
ATOM     97  C   UNL A   1      50.816  26.707  28.967  1.00  0.00     0.059 A 
ATOM     98  C   UNL A   1      50.573  27.207  26.605  1.00  0.00     0.059 A 
ATOM     99  F   UNL A   1      48.499  27.910  25.770  1.00  0.00    -0.206 F 
ATOM    100  C   UNL A   1      51.362  26.823  27.687  1.00  0.00     0.060 A 
BRANCH 100 101
ATOM    101  S   UNL A   1      53.114  26.455  27.452  1.00  0.00     0.124 S 
ATOM    102  O   UNL A   1      53.589  27.683  26.822  1.00  0.00    -0.237 OA
ATOM    103  O   UNL A   1      53.573  26.226  28.819  1.00  0.00    -0.237 OA
ATOM    104  O   UNL A   1      53.102  25.273  26.596  1.00  0.00    -0.744 OA
ENDBRANCH 100 101
ENDBRANCH  68  93
ENDBRANCH  42  43
ENDBRANCH  35  37
ENDBRANCH  34  35
ENDBRANCH  33  34
ENDBRANCH   1  33
TORSDOF 19
ENDMDL
