MODEL 1
REMARK VINA RESULT:     -12.5      0.000      0.000
REMARK SMILES CC1(C)Cc2c(c(N3CCOCC3)nc3sc(C(=O)OCCOC(=O)c4ccc(-c5c6nc(c(-c7c(F)cc(S(=O)(=O)[O-])cc7F)c7ccc([nH]7)c(-c7c(F)cc(S(=O)(=O)[O-])cc7F)c7nc(c(-c8c(F)cc(S(=O)(=O)[O-])cc8F)c8ccc5[nH]8)C=C7)C=C6)cc4)c(N)c23)CS1
REMARK SMILES IDX 22 1 21 2 20 3 18 4 19 5 17 6 1 7 2 8 3 9 4 10 96 11 5 12
REMARK SMILES IDX 95 13 6 14 94 15 7 16 15 17 92 18 14 19 16 20 8 21 9 22
REMARK SMILES IDX 13 23 10 24 12 25 11 26 93 27 23 30 24 31 25 32 26 33 27 34
REMARK SMILES IDX 91 35 28 36 90 37 29 38 30 39 31 40 84 41 32 42 89 43 83 44
REMARK SMILES IDX 85 45 33 46 88 47 82 48 81 49 34 51 68 52 47 53 67 54 48 55
REMARK SMILES IDX 51 56 66 57 86 58 49 59 50 60 65 62 87 63 52 64 35 65 36 66
REMARK SMILES IDX 45 67 37 68 38 69 44 70 46 71 39 72 40 73 41 74 42 75 43 76
REMARK SMILES IDX 69 77 70 78 79 79 71 80 72 81 78 82 80 83 73 84 74 85 75 86
REMARK SMILES IDX 76 87 77 88 53 89 54 90 63 91 55 92 56 93 62 94 64 95 57 96
REMARK SMILES IDX 58 97 59 98 60 99 61 100
REMARK H PARENT 93 28 93 29 85 50 51 61
REMARK Flexibility Score: inf
ROOT
ATOM      1  C   UNL A   1      42.612  19.413  26.059  1.00  0.00     0.275 C 
ENDROOT
BRANCH   1   2
ATOM      2  C   UNL A   1      41.482  19.998  26.900  1.00  0.00     0.275 C 
BRANCH   2   3
ATOM      3  O   UNL A   1      40.295  20.222  26.116  1.00  0.00    -0.458 OA
BRANCH   3   4
ATOM      4  C   UNL A   1      39.888  21.523  25.978  1.00  0.00     0.350 C 
ATOM      5  O   UNL A   1      40.668  22.475  25.937  1.00  0.00    -0.245 OA
BRANCH   4   6
ATOM      6  C   UNL A   1      38.448  21.632  25.802  1.00  0.00     0.138 A 
ATOM      7  C   UNL A   1      33.589  16.956  23.815  1.00  0.00     0.023 C 
ATOM      8  C   UNL A   1      33.479  18.365  24.418  1.00  0.00     0.015 C 
ATOM      9  C   UNL A   1      32.787  18.260  25.788  1.00  0.00     0.023 C 
ATOM     10  C   UNL A   1      34.875  19.014  24.517  1.00  0.00     0.054 C 
ATOM     11  S   UNL A   1      32.492  19.353  23.245  1.00  0.00    -0.150 SA
ATOM     12  C   UNL A   1      34.959  20.485  24.886  1.00  0.00    -0.027 A 
ATOM     13  C   UNL A   1      32.519  20.906  24.148  1.00  0.00     0.109 C 
ATOM     14  C   UNL A   1      33.827  21.337  24.778  1.00  0.00     0.009 A 
ATOM     15  C   UNL A   1      36.191  21.098  25.288  1.00  0.00     0.039 A 
ATOM     16  C   UNL A   1      33.914  22.674  25.222  1.00  0.00     0.134 A 
ATOM     17  C   UNL A   1      36.126  22.433  25.669  1.00  0.00     0.128 A 
ATOM     18  C   UNL A   1      37.570  20.652  25.361  1.00  0.00     0.067 A 
ATOM     19  N   UNL A   1      35.045  23.229  25.667  1.00  0.00    -0.220 NA
ATOM     20  S   UNL A   1      37.619  23.081  26.156  1.00  0.00    -0.106 S 
BRANCH  16  21
ATOM     21  N   UNL A   1      32.821  23.504  25.107  1.00  0.00    -0.352 N 
ATOM     22  C   UNL A   1      32.093  23.998  26.274  1.00  0.00     0.146 C 
ATOM     23  C   UNL A   1      32.692  24.356  23.930  1.00  0.00     0.146 C 
ATOM     24  C   UNL A   1      30.606  24.082  25.880  1.00  0.00     0.181 C 
ATOM     25  C   UNL A   1      31.191  24.419  23.595  1.00  0.00     0.181 C 
ATOM     26  O   UNL A   1      30.411  24.905  24.709  1.00  0.00    -0.378 OA
ENDBRANCH  16  21
BRANCH  18  27
ATOM     27  N   UNL A   1      38.000  19.416  25.012  1.00  0.00    -0.397 N 
ATOM     28  H   UNL A   1      38.882  19.302  24.592  1.00  0.00     0.156 HD
ATOM     29  H   UNL A   1      37.429  18.631  25.179  1.00  0.00     0.156 HD
ENDBRANCH  18  27
ENDBRANCH   4   6
ENDBRANCH   3   4
ENDBRANCH   2   3
ENDBRANCH   1   2
BRANCH   1  30
ATOM     30  O   UNL A   1      42.965  20.296  24.997  1.00  0.00    -0.458 OA
BRANCH  30  31
ATOM     31  C   UNL A   1      44.293  20.481  24.829  1.00  0.00     0.338 C 
ATOM     32  O   UNL A   1      45.129  19.625  24.592  1.00  0.00    -0.246 OA
BRANCH  31  33
ATOM     33  C   UNL A   1      44.628  21.878  25.108  1.00  0.00     0.060 A 
ATOM     34  C   UNL A   1      45.651  22.124  26.032  1.00  0.00     0.016 A 
ATOM     35  C   UNL A   1      43.755  22.885  24.677  1.00  0.00     0.016 A 
ATOM     36  C   UNL A   1      45.677  23.343  26.675  1.00  0.00     0.010 A 
ATOM     37  C   UNL A   1      43.776  24.094  25.324  1.00  0.00     0.010 A 
ATOM     38  C   UNL A   1      44.678  24.270  26.373  1.00  0.00    -0.014 A 
BRANCH  38  39
ATOM     39  C   UNL A   1      44.531  25.432  27.222  1.00  0.00     0.031 A 
ATOM     40  C   UNL A   1      45.589  26.458  27.072  1.00  0.00     0.074 A 
ATOM     41  C   UNL A   1      43.400  25.593  27.936  1.00  0.00     0.049 A 
ATOM     42  N   UNL A   1      46.373  26.944  27.976  1.00  0.00    -0.248 NA
ATOM     43  C   UNL A   1      45.894  26.914  25.704  1.00  0.00     0.031 C 
ATOM     44  C   UNL A   1      42.188  24.765  27.915  1.00  0.00     0.029 A 
ATOM     45  N   UNL A   1      43.050  26.620  28.748  1.00  0.00    -0.354 N 
ATOM     46  C   UNL A   1      47.147  27.902  27.329  1.00  0.00     0.074 A 
ATOM     47  C   UNL A   1      46.926  27.728  25.917  1.00  0.00     0.031 C 
ATOM     48  C   UNL A   1      41.176  25.445  28.498  1.00  0.00     0.029 A 
ATOM     49  C   UNL A   1      41.692  26.696  29.024  1.00  0.00     0.049 A 
ATOM     50  H   UNL A   1      43.704  27.258  29.114  1.00  0.00     0.167 HD
ATOM     51  C   UNL A   1      47.771  28.912  27.994  1.00  0.00     0.037 A 
ATOM     52  C   UNL A   1      41.050  27.770  29.547  1.00  0.00     0.037 A 
ATOM     53  C   UNL A   1      47.871  28.648  29.403  1.00  0.00     0.049 A 
ATOM     54  C   UNL A   1      42.090  28.619  30.197  1.00  0.00     0.074 A 
ATOM     55  C   UNL A   1      48.512  27.678  30.149  1.00  0.00     0.029 A 
ATOM     56  N   UNL A   1      46.930  29.200  30.240  1.00  0.00    -0.354 N 
ATOM     57  N   UNL A   1      42.770  28.251  31.252  1.00  0.00    -0.248 NA
ATOM     58  C   UNL A   1      42.714  29.666  29.398  1.00  0.00     0.031 C 
ATOM     59  C   UNL A   1      47.615  27.371  31.213  1.00  0.00     0.029 A 
ATOM     60  C   UNL A   1      46.502  28.204  31.087  1.00  0.00     0.049 A 
ATOM     61  H   UNL A   1      46.619  30.134  30.233  1.00  0.00     0.167 HD
ATOM     62  C   UNL A   1      44.063  28.711  31.033  1.00  0.00     0.074 A 
ATOM     63  C   UNL A   1      43.947  29.644  29.914  1.00  0.00     0.031 C 
ATOM     64  C   UNL A   1      45.147  28.083  31.584  1.00  0.00     0.037 A 
BRANCH  51  65
ATOM     65  C   UNL A   1      48.043  30.251  27.370  1.00  0.00     0.058 A 
ATOM     66  C   UNL A   1      49.355  30.745  27.270  1.00  0.00     0.135 A 
ATOM     67  C   UNL A   1      47.012  31.168  27.057  1.00  0.00     0.135 A 
ATOM     68  F   UNL A   1      50.402  29.966  27.580  1.00  0.00    -0.206 F 
ATOM     69  C   UNL A   1      49.623  32.065  26.898  1.00  0.00     0.059 A 
ATOM     70  C   UNL A   1      47.257  32.465  26.627  1.00  0.00     0.059 A 
ATOM     71  F   UNL A   1      45.719  30.865  27.240  1.00  0.00    -0.206 F 
ATOM     72  C   UNL A   1      48.565  32.917  26.585  1.00  0.00     0.060 A 
BRANCH  72  73
ATOM     73  S   UNL A   1      48.899  34.644  26.191  1.00  0.00     0.124 S 
ATOM     74  O   UNL A   1      50.358  34.659  26.167  1.00  0.00    -0.237 OA
ATOM     75  O   UNL A   1      48.236  34.795  24.900  1.00  0.00    -0.237 OA
ATOM     76  O   UNL A   1      48.280  35.368  27.296  1.00  0.00    -0.744 OA
ENDBRANCH  72  73
ENDBRANCH  51  65
BRANCH  52  77
ATOM     77  C   UNL A   1      39.693  28.264  29.182  1.00  0.00     0.058 A 
ATOM     78  C   UNL A   1      38.643  28.276  30.114  1.00  0.00     0.135 A 
ATOM     79  C   UNL A   1      39.460  28.969  27.981  1.00  0.00     0.135 A 
ATOM     80  F   UNL A   1      38.785  27.657  31.297  1.00  0.00    -0.206 F 
ATOM     81  C   UNL A   1      37.450  28.975  29.888  1.00  0.00     0.059 A 
ATOM     82  C   UNL A   1      38.276  29.657  27.725  1.00  0.00     0.059 A 
ATOM     83  F   UNL A   1      40.413  29.095  27.047  1.00  0.00    -0.206 F 
ATOM     84  C   UNL A   1      37.284  29.679  28.696  1.00  0.00     0.060 A 
BRANCH  84  85
ATOM     85  S   UNL A   1      35.827  30.724  28.467  1.00  0.00     0.124 S 
ATOM     86  O   UNL A   1      36.357  31.810  27.651  1.00  0.00    -0.237 OA
ATOM     87  O   UNL A   1      34.902  29.814  27.799  1.00  0.00    -0.237 OA
ATOM     88  O   UNL A   1      35.455  31.093  29.831  1.00  0.00    -0.744 OA
ENDBRANCH  84  85
ENDBRANCH  52  77
BRANCH  64  89
ATOM     89  C   UNL A   1      44.881  26.998  32.603  1.00  0.00     0.058 A 
ATOM     90  C   UNL A   1      44.620  27.255  33.963  1.00  0.00     0.135 A 
ATOM     91  C   UNL A   1      44.753  25.669  32.179  1.00  0.00     0.135 A 
ATOM     92  F   UNL A   1      44.588  28.508  34.429  1.00  0.00    -0.206 F 
ATOM     93  C   UNL A   1      44.317  26.239  34.869  1.00  0.00     0.059 A 
ATOM     94  C   UNL A   1      44.416  24.640  33.059  1.00  0.00     0.059 A 
ATOM     95  F   UNL A   1      44.908  25.361  30.880  1.00  0.00    -0.206 F 
ATOM     96  C   UNL A   1      44.222  24.929  34.408  1.00  0.00     0.060 A 
BRANCH  96  97
ATOM     97  S   UNL A   1      43.780  23.623  35.574  1.00  0.00     0.124 S 
ATOM     98  O   UNL A   1      42.386  23.935  35.871  1.00  0.00    -0.237 OA
ATOM     99  O   UNL A   1      44.006  22.409  34.794  1.00  0.00    -0.237 OA
ATOM    100  O   UNL A   1      44.714  23.824  36.679  1.00  0.00    -0.744 OA
ENDBRANCH  96  97
ENDBRANCH  64  89
ENDBRANCH  38  39
ENDBRANCH  31  33
ENDBRANCH  30  31
ENDBRANCH   1  30
TORSDOF 16
ENDMDL
MODEL 2
REMARK VINA RESULT:     -12.1      3.492     10.001
REMARK SMILES CC1(C)Cc2c(c(N3CCOCC3)nc3sc(C(=O)OCCOC(=O)c4ccc(-c5c6nc(c(-c7c(F)cc(S(=O)(=O)[O-])cc7F)c7ccc([nH]7)c(-c7c(F)cc(S(=O)(=O)[O-])cc7F)c7nc(c(-c8c(F)cc(S(=O)(=O)[O-])cc8F)c8ccc5[nH]8)C=C7)C=C6)cc4)c(N)c23)CS1
REMARK SMILES IDX 22 1 21 2 20 3 18 4 19 5 17 6 1 7 2 8 3 9 4 10 96 11 5 12
REMARK SMILES IDX 95 13 6 14 94 15 7 16 15 17 92 18 14 19 16 20 8 21 9 22
REMARK SMILES IDX 13 23 10 24 12 25 11 26 93 27 23 30 24 31 25 32 26 33 27 34
REMARK SMILES IDX 91 35 28 36 90 37 29 38 30 39 31 40 84 41 32 42 89 43 83 44
REMARK SMILES IDX 85 45 33 46 88 47 82 48 81 49 34 51 68 52 47 53 67 54 48 55
REMARK SMILES IDX 51 56 66 57 86 58 49 59 50 60 65 62 87 63 52 64 35 65 36 66
REMARK SMILES IDX 45 67 37 68 38 69 44 70 46 71 39 72 40 73 41 74 42 75 43 76
REMARK SMILES IDX 69 77 70 78 79 79 71 80 72 81 78 82 80 83 73 84 74 85 75 86
REMARK SMILES IDX 76 87 77 88 53 89 54 90 63 91 55 92 56 93 62 94 64 95 57 96
REMARK SMILES IDX 58 97 59 98 60 99 61 100
REMARK H PARENT 93 28 93 29 85 50 51 61
REMARK Flexibility Score: inf
ROOT
ATOM      1  C   UNL A   1      34.114  34.332  29.720  1.00  0.00     0.275 C 
ENDROOT
BRANCH   1   2
ATOM      2  C   UNL A   1      34.408  33.793  28.324  1.00  0.00     0.275 C 
BRANCH   2   3
ATOM      3  O   UNL A   1      33.632  32.616  28.032  1.00  0.00    -0.458 OA
BRANCH   3   4
ATOM      4  C   UNL A   1      34.294  31.417  28.085  1.00  0.00     0.350 C 
ATOM      5  O   UNL A   1      35.182  31.169  28.901  1.00  0.00    -0.245 OA
BRANCH   4   6
ATOM      6  C   UNL A   1      33.767  30.457  27.127  1.00  0.00     0.138 A 
ATOM      7  C   UNL A   1      28.045  30.551  23.043  1.00  0.00     0.023 C 
ATOM      8  C   UNL A   1      29.273  29.628  23.077  1.00  0.00     0.015 C 
ATOM      9  C   UNL A   1      30.028  29.768  21.744  1.00  0.00     0.023 C 
ATOM     10  C   UNL A   1      30.162  29.967  24.291  1.00  0.00     0.054 C 
ATOM     11  S   UNL A   1      28.640  27.935  23.312  1.00  0.00    -0.150 SA
ATOM     12  C   UNL A   1      31.311  29.031  24.624  1.00  0.00    -0.027 A 
ATOM     13  C   UNL A   1      30.221  27.081  23.327  1.00  0.00     0.109 C 
ATOM     14  C   UNL A   1      31.359  27.709  24.104  1.00  0.00     0.009 A 
ATOM     15  C   UNL A   1      32.356  29.404  25.530  1.00  0.00     0.039 A 
ATOM     16  C   UNL A   1      32.487  26.900  24.353  1.00  0.00     0.134 A 
ATOM     17  C   UNL A   1      33.389  28.489  25.701  1.00  0.00     0.128 A 
ATOM     18  C   UNL A   1      32.593  30.549  26.391  1.00  0.00     0.067 A 
ATOM     19  N   UNL A   1      33.500  27.274  25.140  1.00  0.00    -0.220 NA
ATOM     20  S   UNL A   1      34.601  29.013  26.768  1.00  0.00    -0.106 S 
BRANCH  16  21
ATOM     21  N   UNL A   1      32.529  25.616  23.859  1.00  0.00    -0.352 N 
ATOM     22  C   UNL A   1      33.567  25.174  22.929  1.00  0.00     0.146 C 
ATOM     23  C   UNL A   1      31.933  24.532  24.633  1.00  0.00     0.146 C 
ATOM     24  C   UNL A   1      32.912  24.170  21.961  1.00  0.00     0.181 C 
ATOM     25  C   UNL A   1      31.314  23.556  23.617  1.00  0.00     0.181 C 
ATOM     26  O   UNL A   1      32.290  23.075  22.668  1.00  0.00    -0.378 OA
ENDBRANCH  16  21
BRANCH  18  27
ATOM     27  N   UNL A   1      31.758  31.607  26.513  1.00  0.00    -0.397 N 
ATOM     28  H   UNL A   1      30.810  31.464  26.735  1.00  0.00     0.156 HD
ATOM     29  H   UNL A   1      32.099  32.522  26.377  1.00  0.00     0.156 HD
ENDBRANCH  18  27
ENDBRANCH   4   6
ENDBRANCH   3   4
ENDBRANCH   2   3
ENDBRANCH   1   2
BRANCH   1  30
ATOM     30  O   UNL A   1      35.201  34.073  30.604  1.00  0.00    -0.458 OA
BRANCH  30  31
ATOM     31  C   UNL A   1      34.983  33.084  31.500  1.00  0.00     0.338 C 
ATOM     32  O   UNL A   1      33.909  32.734  31.958  1.00  0.00    -0.246 OA
BRANCH  31  33
ATOM     33  C   UNL A   1      36.267  32.555  31.961  1.00  0.00     0.060 A 
ATOM     34  C   UNL A   1      37.404  33.344  31.749  1.00  0.00     0.016 A 
ATOM     35  C   UNL A   1      36.355  31.204  32.324  1.00  0.00     0.016 A 
ATOM     36  C   UNL A   1      38.636  32.727  31.711  1.00  0.00     0.010 A 
ATOM     37  C   UNL A   1      37.579  30.590  32.277  1.00  0.00     0.010 A 
ATOM     38  C   UNL A   1      38.686  31.342  31.884  1.00  0.00    -0.014 A 
BRANCH  38  39
ATOM     39  C   UNL A   1      39.920  30.650  31.582  1.00  0.00     0.031 A 
ATOM     40  C   UNL A   1      40.831  30.457  32.734  1.00  0.00     0.074 A 
ATOM     41  C   UNL A   1      40.085  30.088  30.369  1.00  0.00     0.049 A 
ATOM     42  N   UNL A   1      42.059  30.834  32.861  1.00  0.00    -0.248 NA
ATOM     43  C   UNL A   1      40.252  29.870  33.956  1.00  0.00     0.031 C 
ATOM     44  C   UNL A   1      39.112  29.990  29.274  1.00  0.00     0.029 A 
ATOM     45  N   UNL A   1      41.134  29.366  29.905  1.00  0.00    -0.354 N 
ATOM     46  C   UNL A   1      42.469  30.370  34.107  1.00  0.00     0.074 A 
ATOM     47  C   UNL A   1      41.283  29.932  34.797  1.00  0.00     0.031 C 
ATOM     48  C   UNL A   1      39.539  29.069  28.382  1.00  0.00     0.029 A 
ATOM     49  C   UNL A   1      40.852  28.599  28.784  1.00  0.00     0.049 A 
ATOM     50  H   UNL A   1      42.024  29.386  30.327  1.00  0.00     0.167 HD
ATOM     51  C   UNL A   1      43.779  30.187  34.427  1.00  0.00     0.037 A 
ATOM     52  C   UNL A   1      41.614  27.581  28.310  1.00  0.00     0.037 A 
ATOM     53  C   UNL A   1      44.656  30.880  33.524  1.00  0.00     0.049 A 
ATOM     54  C   UNL A   1      42.977  27.757  28.888  1.00  0.00     0.074 A 
ATOM     55  C   UNL A   1      44.852  32.214  33.221  1.00  0.00     0.029 A 
ATOM     56  N   UNL A   1      45.213  30.175  32.483  1.00  0.00    -0.354 N 
ATOM     57  N   UNL A   1      43.765  28.759  28.594  1.00  0.00    -0.248 NA
ATOM     58  C   UNL A   1      43.275  27.093  30.151  1.00  0.00     0.031 C 
ATOM     59  C   UNL A   1      45.077  32.247  31.813  1.00  0.00     0.029 A 
ATOM     60  C   UNL A   1      45.055  30.932  31.345  1.00  0.00     0.049 A 
ATOM     61  H   UNL A   1      45.644  29.292  32.542  1.00  0.00     0.167 HD
ATOM     62  C   UNL A   1      44.380  29.105  29.791  1.00  0.00     0.074 A 
ATOM     63  C   UNL A   1      44.100  27.993  30.695  1.00  0.00     0.031 C 
ATOM     64  C   UNL A   1      44.813  30.382  30.028  1.00  0.00     0.037 A 
BRANCH  51  65
ATOM     65  C   UNL A   1      44.239  29.151  35.412  1.00  0.00     0.058 A 
ATOM     66  C   UNL A   1      44.089  27.781  35.138  1.00  0.00     0.135 A 
ATOM     67  C   UNL A   1      44.634  29.477  36.731  1.00  0.00     0.135 A 
ATOM     68  F   UNL A   1      43.683  27.368  33.927  1.00  0.00    -0.206 F 
ATOM     69  C   UNL A   1      44.304  26.802  36.112  1.00  0.00     0.059 A 
ATOM     70  C   UNL A   1      44.911  28.519  37.697  1.00  0.00     0.059 A 
ATOM     71  F   UNL A   1      44.684  30.746  37.159  1.00  0.00    -0.206 F 
ATOM     72  C   UNL A   1      44.709  27.184  37.390  1.00  0.00     0.060 A 
BRANCH  72  73
ATOM     73  S   UNL A   1      44.901  25.934  38.673  1.00  0.00     0.124 S 
ATOM     74  O   UNL A   1      46.345  25.950  38.882  1.00  0.00    -0.237 OA
ATOM     75  O   UNL A   1      44.091  26.483  39.756  1.00  0.00    -0.237 OA
ATOM     76  O   UNL A   1      44.367  24.726  38.051  1.00  0.00    -0.744 OA
ENDBRANCH  72  73
ENDBRANCH  51  65
BRANCH  52  77
ATOM     77  C   UNL A   1      41.127  26.303  27.721  1.00  0.00     0.058 A 
ATOM     78  C   UNL A   1      41.803  25.683  26.658  1.00  0.00     0.135 A 
ATOM     79  C   UNL A   1      40.129  25.529  28.352  1.00  0.00     0.135 A 
ATOM     80  F   UNL A   1      42.789  26.331  26.016  1.00  0.00    -0.206 F 
ATOM     81  C   UNL A   1      41.534  24.364  26.268  1.00  0.00     0.059 A 
ATOM     82  C   UNL A   1      39.831  24.222  27.972  1.00  0.00     0.059 A 
ATOM     83  F   UNL A   1      39.467  25.981  29.427  1.00  0.00    -0.206 F 
ATOM     84  C   UNL A   1      40.557  23.635  26.945  1.00  0.00     0.060 A 
BRANCH  84  85
ATOM     85  S   UNL A   1      40.323  21.883  26.567  1.00  0.00     0.124 S 
ATOM     86  O   UNL A   1      40.512  21.263  27.873  1.00  0.00    -0.237 OA
ATOM     87  O   UNL A   1      38.962  21.864  26.041  1.00  0.00    -0.237 OA
ATOM     88  O   UNL A   1      41.369  21.603  25.587  1.00  0.00    -0.744 OA
ENDBRANCH  84  85
ENDBRANCH  52  77
BRANCH  64  89
ATOM     89  C   UNL A   1      44.786  31.354  28.870  1.00  0.00     0.058 A 
ATOM     90  C   UNL A   1      45.771  31.394  27.864  1.00  0.00     0.135 A 
ATOM     91  C   UNL A   1      43.669  32.182  28.690  1.00  0.00     0.135 A 
ATOM     92  F   UNL A   1      46.804  30.545  27.884  1.00  0.00    -0.206 F 
ATOM     93  C   UNL A   1      45.689  32.260  26.774  1.00  0.00     0.059 A 
ATOM     94  C   UNL A   1      43.547  33.031  27.589  1.00  0.00     0.059 A 
ATOM     95  F   UNL A   1      42.652  32.138  29.567  1.00  0.00    -0.206 F 
ATOM     96  C   UNL A   1      44.573  33.082  26.646  1.00  0.00     0.060 A 
BRANCH  96  97
ATOM     97  S   UNL A   1      44.446  34.165  25.207  1.00  0.00     0.124 S 
ATOM     98  O   UNL A   1      43.189  34.863  25.458  1.00  0.00    -0.237 OA
ATOM     99  O   UNL A   1      45.655  34.978  25.313  1.00  0.00    -0.237 OA
ATOM    100  O   UNL A   1      44.430  33.234  24.082  1.00  0.00    -0.744 OA
ENDBRANCH  96  97
ENDBRANCH  64  89
ENDBRANCH  38  39
ENDBRANCH  31  33
ENDBRANCH  30  31
ENDBRANCH   1  30
TORSDOF 16
ENDMDL
MODEL 3
REMARK VINA RESULT:     -12.1      1.385      2.562
REMARK SMILES CC1(C)Cc2c(c(N3CCOCC3)nc3sc(C(=O)OCCOC(=O)c4ccc(-c5c6nc(c(-c7c(F)cc(S(=O)(=O)[O-])cc7F)c7ccc([nH]7)c(-c7c(F)cc(S(=O)(=O)[O-])cc7F)c7nc(c(-c8c(F)cc(S(=O)(=O)[O-])cc8F)c8ccc5[nH]8)C=C7)C=C6)cc4)c(N)c23)CS1
REMARK SMILES IDX 22 1 21 2 20 3 18 4 19 5 17 6 1 7 2 8 3 9 4 10 96 11 5 12
REMARK SMILES IDX 95 13 6 14 94 15 7 16 15 17 92 18 14 19 16 20 8 21 9 22
REMARK SMILES IDX 13 23 10 24 12 25 11 26 93 27 23 30 24 31 25 32 26 33 27 34
REMARK SMILES IDX 91 35 28 36 90 37 29 38 30 39 31 40 84 41 32 42 89 43 83 44
REMARK SMILES IDX 85 45 33 46 88 47 82 48 81 49 34 51 68 52 47 53 67 54 48 55
REMARK SMILES IDX 51 56 66 57 86 58 49 59 50 60 65 62 87 63 52 64 35 65 36 66
REMARK SMILES IDX 45 67 37 68 38 69 44 70 46 71 39 72 40 73 41 74 42 75 43 76
REMARK SMILES IDX 69 77 70 78 79 79 71 80 72 81 78 82 80 83 73 84 74 85 75 86
REMARK SMILES IDX 76 87 77 88 53 89 54 90 63 91 55 92 56 93 62 94 64 95 57 96
REMARK SMILES IDX 58 97 59 98 60 99 61 100
REMARK H PARENT 93 28 93 29 85 50 51 61
REMARK Flexibility Score: inf
ROOT
ATOM      1  C   UNL A   1      43.360  20.020  25.925  1.00  0.00     0.275 C 
ENDROOT
BRANCH   1   2
ATOM      2  C   UNL A   1      42.485  20.742  26.944  1.00  0.00     0.275 C 
BRANCH   2   3
ATOM      3  O   UNL A   1      41.093  20.694  26.580  1.00  0.00    -0.458 OA
BRANCH   3   4
ATOM      4  C   UNL A   1      40.537  21.862  26.127  1.00  0.00     0.350 C 
ATOM      5  O   UNL A   1      41.184  22.893  25.946  1.00  0.00    -0.245 OA
BRANCH   4   6
ATOM      6  C   UNL A   1      39.125  21.711  25.812  1.00  0.00     0.138 A 
ATOM      7  C   UNL A   1      33.853  26.352  25.501  1.00  0.00     0.023 C 
ATOM      8  C   UNL A   1      33.965  24.886  25.054  1.00  0.00     0.015 C 
ATOM      9  C   UNL A   1      33.786  24.824  23.527  1.00  0.00     0.023 C 
ATOM     10  C   UNL A   1      35.314  24.290  25.508  1.00  0.00     0.054 C 
ATOM     11  S   UNL A   1      32.641  23.979  25.919  1.00  0.00    -0.150 SA
ATOM     12  C   UNL A   1      35.528  22.795  25.351  1.00  0.00    -0.027 A 
ATOM     13  C   UNL A   1      32.985  22.346  25.253  1.00  0.00     0.109 C 
ATOM     14  C   UNL A   1      34.432  21.910  25.159  1.00  0.00     0.009 A 
ATOM     15  C   UNL A   1      36.826  22.198  25.463  1.00  0.00     0.039 A 
ATOM     16  C   UNL A   1      34.673  20.541  24.919  1.00  0.00     0.134 A 
ATOM     17  C   UNL A   1      36.903  20.829  25.230  1.00  0.00     0.128 A 
ATOM     18  C   UNL A   1      38.143  22.692  25.817  1.00  0.00     0.067 A 
ATOM     19  N   UNL A   1      35.892  19.992  24.950  1.00  0.00    -0.220 NA
ATOM     20  S   UNL A   1      38.476  20.200  25.355  1.00  0.00    -0.106 S 
BRANCH  16  21
ATOM     21  N   UNL A   1      33.613  19.681  24.744  1.00  0.00    -0.352 N 
ATOM     22  C   UNL A   1      32.922  19.058  25.872  1.00  0.00     0.146 C 
ATOM     23  C   UNL A   1      32.794  19.791  23.541  1.00  0.00     0.146 C 
ATOM     24  C   UNL A   1      32.502  17.645  25.423  1.00  0.00     0.181 C 
ATOM     25  C   UNL A   1      32.389  18.357  23.153  1.00  0.00     0.181 C 
ATOM     26  O   UNL A   1      31.696  17.684  24.225  1.00  0.00    -0.378 OA
ENDBRANCH  16  21
BRANCH  18  27
ATOM     27  N   UNL A   1      38.420  23.974  26.156  1.00  0.00    -0.397 N 
ATOM     28  H   UNL A   1      38.539  24.218  27.102  1.00  0.00     0.156 HD
ATOM     29  H   UNL A   1      38.502  24.661  25.455  1.00  0.00     0.156 HD
ENDBRANCH  18  27
ENDBRANCH   4   6
ENDBRANCH   3   4
ENDBRANCH   2   3
ENDBRANCH   1   2
BRANCH   1  30
ATOM     30  O   UNL A   1      43.540  20.815  24.755  1.00  0.00    -0.458 OA
BRANCH  30  31
ATOM     31  C   UNL A   1      44.827  21.109  24.461  1.00  0.00     0.338 C 
ATOM     32  O   UNL A   1      45.672  20.348  24.022  1.00  0.00    -0.246 OA
BRANCH  31  33
ATOM     33  C   UNL A   1      45.117  22.483  24.875  1.00  0.00     0.060 A 
ATOM     34  C   UNL A   1      46.073  22.665  25.882  1.00  0.00     0.016 A 
ATOM     35  C   UNL A   1      44.255  23.511  24.472  1.00  0.00     0.016 A 
ATOM     36  C   UNL A   1      46.035  23.826  26.623  1.00  0.00     0.010 A 
ATOM     37  C   UNL A   1      44.212  24.662  25.216  1.00  0.00     0.010 A 
ATOM     38  C   UNL A   1      45.041  24.762  26.333  1.00  0.00    -0.014 A 
BRANCH  38  39
ATOM     39  C   UNL A   1      44.818  25.848  27.263  1.00  0.00     0.031 A 
ATOM     40  C   UNL A   1      45.835  26.925  27.228  1.00  0.00     0.074 A 
ATOM     41  C   UNL A   1      43.660  25.906  27.949  1.00  0.00     0.049 A 
ATOM     42  N   UNL A   1      46.569  27.370  28.192  1.00  0.00    -0.248 NA
ATOM     43  C   UNL A   1      46.161  27.497  25.910  1.00  0.00     0.031 C 
ATOM     44  C   UNL A   1      42.486  25.033  27.824  1.00  0.00     0.029 A 
ATOM     45  N   UNL A   1      43.241  26.851  28.826  1.00  0.00    -0.354 N 
ATOM     46  C   UNL A   1      47.320  28.406  27.647  1.00  0.00     0.074 A 
ATOM     47  C   UNL A   1      47.149  28.334  26.219  1.00  0.00     0.031 C 
ATOM     48  C   UNL A   1      41.429  25.624  28.424  1.00  0.00     0.029 A 
ATOM     49  C   UNL A   1      41.874  26.850  29.060  1.00  0.00     0.049 A 
ATOM     50  H   UNL A   1      43.856  27.485  29.261  1.00  0.00     0.167 HD
ATOM     51  C   UNL A   1      47.879  29.386  28.408  1.00  0.00     0.037 A 
ATOM     52  C   UNL A   1      41.170  27.853  29.643  1.00  0.00     0.037 A 
ATOM     53  C   UNL A   1      47.948  29.018  29.795  1.00  0.00     0.049 A 
ATOM     54  C   UNL A   1      42.152  28.690  30.391  1.00  0.00     0.074 A 
ATOM     55  C   UNL A   1      48.608  28.019  30.485  1.00  0.00     0.029 A 
ATOM     56  N   UNL A   1      46.959  29.464  30.639  1.00  0.00    -0.354 N 
ATOM     57  N   UNL A   1      42.815  28.270  31.436  1.00  0.00    -0.248 NA
ATOM     58  C   UNL A   1      42.754  29.821  29.695  1.00  0.00     0.031 C 
ATOM     59  C   UNL A   1      47.693  27.594  31.492  1.00  0.00     0.029 A 
ATOM     60  C   UNL A   1      46.549  28.388  31.393  1.00  0.00     0.049 A 
ATOM     61  H   UNL A   1      46.608  30.382  30.693  1.00  0.00     0.167 HD
ATOM     62  C   UNL A   1      44.093  28.798  31.296  1.00  0.00     0.074 A 
ATOM     63  C   UNL A   1      43.971  29.809  30.249  1.00  0.00     0.031 C 
ATOM     64  C   UNL A   1      45.186  28.174  31.833  1.00  0.00     0.037 A 
BRANCH  51  65
ATOM     65  C   UNL A   1      48.111  30.780  27.898  1.00  0.00     0.058 A 
ATOM     66  C   UNL A   1      47.029  31.625  27.596  1.00  0.00     0.135 A 
ATOM     67  C   UNL A   1      49.386  31.239  27.491  1.00  0.00     0.135 A 
ATOM     68  F   UNL A   1      45.775  31.264  27.908  1.00  0.00    -0.206 F 
ATOM     69  C   UNL A   1      47.201  32.836  26.922  1.00  0.00     0.059 A 
ATOM     70  C   UNL A   1      49.587  32.467  26.874  1.00  0.00     0.059 A 
ATOM     71  F   UNL A   1      50.479  30.472  27.598  1.00  0.00    -0.206 F 
ATOM     72  C   UNL A   1      48.485  33.244  26.561  1.00  0.00     0.060 A 
BRANCH  72  73
ATOM     73  S   UNL A   1      48.703  34.761  25.614  1.00  0.00     0.124 S 
ATOM     74  O   UNL A   1      48.859  35.748  26.677  1.00  0.00    -0.237 OA
ATOM     75  O   UNL A   1      49.901  34.464  24.835  1.00  0.00    -0.237 OA
ATOM     76  O   UNL A   1      47.468  34.858  24.841  1.00  0.00    -0.744 OA
ENDBRANCH  72  73
ENDBRANCH  51  65
BRANCH  52  77
ATOM     77  C   UNL A   1      39.805  28.317  29.271  1.00  0.00     0.058 A 
ATOM     78  C   UNL A   1      38.744  28.283  30.191  1.00  0.00     0.135 A 
ATOM     79  C   UNL A   1      39.566  29.040  28.082  1.00  0.00     0.135 A 
ATOM     80  F   UNL A   1      38.889  27.645  31.363  1.00  0.00    -0.206 F 
ATOM     81  C   UNL A   1      37.536  28.955  29.964  1.00  0.00     0.059 A 
ATOM     82  C   UNL A   1      38.367  29.701  27.826  1.00  0.00     0.059 A 
ATOM     83  F   UNL A   1      40.526  29.209  27.161  1.00  0.00    -0.206 F 
ATOM     84  C   UNL A   1      37.364  29.678  28.784  1.00  0.00     0.060 A 
BRANCH  84  85
ATOM     85  S   UNL A   1      35.882  30.688  28.559  1.00  0.00     0.124 S 
ATOM     86  O   UNL A   1      36.366  31.744  27.677  1.00  0.00    -0.237 OA
ATOM     87  O   UNL A   1      34.952  29.734  27.964  1.00  0.00    -0.237 OA
ATOM     88  O   UNL A   1      35.550  31.113  29.917  1.00  0.00    -0.744 OA
ENDBRANCH  84  85
ENDBRANCH  52  77
BRANCH  64  89
ATOM     89  C   UNL A   1      44.937  27.002  32.757  1.00  0.00     0.058 A 
ATOM     90  C   UNL A   1      44.644  27.141  34.127  1.00  0.00     0.135 A 
ATOM     91  C   UNL A   1      44.859  25.708  32.225  1.00  0.00     0.135 A 
ATOM     92  F   UNL A   1      44.564  28.350  34.691  1.00  0.00    -0.206 F 
ATOM     93  C   UNL A   1      44.358  26.046  34.944  1.00  0.00     0.059 A 
ATOM     94  C   UNL A   1      44.539  24.602  33.013  1.00  0.00     0.059 A 
ATOM     95  F   UNL A   1      45.046  25.511  30.909  1.00  0.00    -0.206 F 
ATOM     96  C   UNL A   1      44.313  24.775  34.377  1.00  0.00     0.060 A 
BRANCH  96  97
ATOM     97  S   UNL A   1      43.892  23.367  35.426  1.00  0.00     0.124 S 
ATOM     98  O   UNL A   1      44.364  22.239  34.630  1.00  0.00    -0.237 OA
ATOM     99  O   UNL A   1      44.647  23.642  36.647  1.00  0.00    -0.237 OA
ATOM    100  O   UNL A   1      42.442  23.469  35.567  1.00  0.00    -0.744 OA
ENDBRANCH  96  97
ENDBRANCH  64  89
ENDBRANCH  38  39
ENDBRANCH  31  33
ENDBRANCH  30  31
ENDBRANCH   1  30
TORSDOF 16
ENDMDL
