MODEL 1
REMARK VINA RESULT:     -10.9      0.000      0.000
REMARK SMILES Cc1csc(NC(=O)[C@@H]2CC=CC[C@H]2C(=O)OCCOC(=O)c2ccc(-c3c4nc(c(-c5c(F)cc(S(=O)(=O)[O-])cc5F)c5ccc([nH]5)c(-c5c(F)cc(S(=O)(=O)[O-])cc5F)c5nc(c(-c6c(F)cc(S(=O)(=O)[O-])cc6F)c6ccc3[nH]6)C=C5)C=C4)cc2)n1
REMARK SMILES IDX 19 1 18 2 17 3 15 4 16 5 14 6 9 7 10 8 11 9 13 10 12 11 7 12
REMARK SMILES IDX 6 13 8 15 5 16 1 17 2 18 3 19 89 20 4 21 20 22 21 23 22 24
REMARK SMILES IDX 23 25 24 26 88 27 25 28 87 29 26 30 27 31 28 32 81 33 29 34
REMARK SMILES IDX 86 35 80 36 82 37 30 38 85 39 79 40 78 41 31 43 65 44 44 45
REMARK SMILES IDX 64 46 45 47 48 48 63 49 83 50 46 51 47 52 62 54 84 55 49 56
REMARK SMILES IDX 32 57 33 58 42 59 34 60 35 61 41 62 43 63 36 64 37 65 38 66
REMARK SMILES IDX 39 67 40 68 66 69 67 70 76 71 68 72 69 73 75 74 77 75 70 76
REMARK SMILES IDX 71 77 72 78 73 79 74 80 50 81 51 82 60 83 52 84 53 85 59 86
REMARK SMILES IDX 61 87 54 88 55 89 56 90 57 91 58 92
REMARK H PARENT 6 14 82 42 48 53
REMARK Flexibility Score: inf
ROOT
ATOM      1  C   UNL A   1      32.977  28.498  26.461  1.00  0.00     0.275 C 
ENDROOT
BRANCH   1   2
ATOM      2  C   UNL A   1      32.478  27.060  26.284  1.00  0.00     0.274 C 
BRANCH   2   3
ATOM      3  O   UNL A   1      33.462  26.174  25.713  1.00  0.00    -0.462 OA
BRANCH   3   4
ATOM      4  C   UNL A   1      33.026  24.927  25.434  1.00  0.00     0.310 C 
ATOM      5  O   UNL A   1      31.897  24.519  25.692  1.00  0.00    -0.252 OA
BRANCH   4   6
ATOM      6  C   UNL A   1      34.095  23.979  24.923  1.00  0.00     0.116 C 
ATOM      7  C   UNL A   1      34.431  23.945  23.414  1.00  0.00     0.097 C 
ATOM      8  C   UNL A   1      35.596  22.971  23.204  1.00  0.00     0.041 C 
ATOM      9  C   UNL A   1      36.765  23.184  24.114  1.00  0.00    -0.030 C 
ATOM     10  C   UNL A   1      35.332  24.333  25.785  1.00  0.00     0.043 C 
ATOM     11  C   UNL A   1      36.639  23.798  25.294  1.00  0.00    -0.030 C 
BRANCH   7  12
ATOM     12  C   UNL A   1      33.186  23.752  22.520  1.00  0.00     0.230 C 
ATOM     13  N   UNL A   1      32.523  24.711  21.825  1.00  0.00    -0.302 N 
ATOM     14  H   UNL A   1      32.259  24.465  20.909  1.00  0.00     0.172 HD
ATOM     15  O   UNL A   1      32.819  22.586  22.297  1.00  0.00    -0.274 OA
BRANCH  13  16
ATOM     16  C   UNL A   1      32.171  25.970  22.221  1.00  0.00     0.189 A 
ATOM     17  C   UNL A   1      29.887  28.412  23.514  1.00  0.00     0.068 C 
ATOM     18  C   UNL A   1      31.095  27.764  22.942  1.00  0.00     0.051 A 
ATOM     19  C   UNL A   1      32.348  28.318  22.762  1.00  0.00     0.092 A 
ATOM     20  N   UNL A   1      31.001  26.439  22.556  1.00  0.00    -0.225 NA
ATOM     21  S   UNL A   1      33.431  27.122  22.163  1.00  0.00    -0.105 S 
ENDBRANCH  13  16
ENDBRANCH   7  12
ENDBRANCH   4   6
ENDBRANCH   3   4
ENDBRANCH   2   3
ENDBRANCH   1   2
BRANCH   1  22
ATOM     22  O   UNL A   1      33.909  28.613  27.550  1.00  0.00    -0.458 OA
BRANCH  22  23
ATOM     23  C   UNL A   1      34.369  29.857  27.797  1.00  0.00     0.338 C 
ATOM     24  O   UNL A   1      33.745  30.909  27.788  1.00  0.00    -0.246 OA
BRANCH  23  25
ATOM     25  C   UNL A   1      35.790  29.814  28.149  1.00  0.00     0.060 A 
ATOM     26  C   UNL A   1      36.741  29.990  27.141  1.00  0.00     0.016 A 
ATOM     27  C   UNL A   1      36.176  29.428  29.434  1.00  0.00     0.016 A 
ATOM     28  C   UNL A   1      38.086  29.763  27.405  1.00  0.00     0.010 A 
ATOM     29  C   UNL A   1      37.528  29.211  29.702  1.00  0.00     0.010 A 
ATOM     30  C   UNL A   1      38.487  29.355  28.684  1.00  0.00    -0.014 A 
BRANCH  30  31
ATOM     31  C   UNL A   1      39.905  29.026  28.944  1.00  0.00     0.031 A 
ATOM     32  C   UNL A   1      40.820  30.073  29.512  1.00  0.00     0.074 A 
ATOM     33  C   UNL A   1      40.362  27.791  28.669  1.00  0.00     0.049 A 
ATOM     34  N   UNL A   1      42.113  30.027  29.695  1.00  0.00    -0.248 NA
ATOM     35  C   UNL A   1      40.194  31.338  29.929  1.00  0.00     0.031 C 
ATOM     36  C   UNL A   1      39.549  26.686  28.159  1.00  0.00     0.029 A 
ATOM     37  N   UNL A   1      41.622  27.263  28.770  1.00  0.00    -0.354 N 
ATOM     38  C   UNL A   1      42.465  31.266  30.218  1.00  0.00     0.074 A 
ATOM     39  C   UNL A   1      41.247  32.042  30.322  1.00  0.00     0.031 C 
ATOM     40  C   UNL A   1      40.332  25.610  27.988  1.00  0.00     0.029 A 
ATOM     41  C   UNL A   1      41.708  25.965  28.326  1.00  0.00     0.049 A 
ATOM     42  H   UNL A   1      42.391  27.763  29.127  1.00  0.00     0.167 HD
ATOM     43  C   UNL A   1      43.694  31.711  30.573  1.00  0.00     0.037 A 
ATOM     44  C   UNL A   1      42.781  25.168  28.174  1.00  0.00     0.037 A 
ATOM     45  C   UNL A   1      44.893  30.920  30.477  1.00  0.00     0.049 A 
ATOM     46  C   UNL A   1      44.140  25.697  28.533  1.00  0.00     0.074 A 
ATOM     47  C   UNL A   1      46.188  31.270  30.817  1.00  0.00     0.029 A 
ATOM     48  N   UNL A   1      44.944  29.616  30.004  1.00  0.00    -0.354 N 
ATOM     49  N   UNL A   1      44.464  26.878  29.004  1.00  0.00    -0.248 NA
ATOM     50  C   UNL A   1      45.280  24.793  28.331  1.00  0.00     0.031 C 
ATOM     51  C   UNL A   1      47.026  30.189  30.522  1.00  0.00     0.029 A 
ATOM     52  C   UNL A   1      46.248  29.152  30.030  1.00  0.00     0.049 A 
ATOM     53  H   UNL A   1      44.166  29.097  29.695  1.00  0.00     0.167 HD
ATOM     54  C   UNL A   1      45.845  26.857  29.165  1.00  0.00     0.074 A 
ATOM     55  C   UNL A   1      46.291  25.541  28.754  1.00  0.00     0.031 C 
ATOM     56  C   UNL A   1      46.667  27.837  29.612  1.00  0.00     0.037 A 
BRANCH  43  57
ATOM     57  C   UNL A   1      43.805  33.127  31.062  1.00  0.00     0.058 A 
ATOM     58  C   UNL A   1      43.637  33.459  32.415  1.00  0.00     0.135 A 
ATOM     59  C   UNL A   1      44.099  34.166  30.163  1.00  0.00     0.135 A 
ATOM     60  F   UNL A   1      43.336  32.507  33.312  1.00  0.00    -0.206 F 
ATOM     61  C   UNL A   1      43.735  34.775  32.857  1.00  0.00     0.059 A 
ATOM     62  C   UNL A   1      44.220  35.487  30.588  1.00  0.00     0.059 A 
ATOM     63  F   UNL A   1      44.264  33.904  28.857  1.00  0.00    -0.206 F 
ATOM     64  C   UNL A   1      44.021  35.783  31.935  1.00  0.00     0.060 A 
BRANCH  64  65
ATOM     65  S   UNL A   1      44.137  37.487  32.519  1.00  0.00     0.124 S 
ATOM     66  O   UNL A   1      45.510  37.532  33.013  1.00  0.00    -0.237 OA
ATOM     67  O   UNL A   1      43.877  38.255  31.305  1.00  0.00    -0.237 OA
ATOM     68  O   UNL A   1      43.098  37.568  33.541  1.00  0.00    -0.744 OA
ENDBRANCH  64  65
ENDBRANCH  43  57
BRANCH  44  69
ATOM     69  C   UNL A   1      42.604  23.796  27.634  1.00  0.00     0.058 A 
ATOM     70  C   UNL A   1      42.640  23.554  26.254  1.00  0.00     0.135 A 
ATOM     71  C   UNL A   1      42.437  22.695  28.490  1.00  0.00     0.135 A 
ATOM     72  F   UNL A   1      42.788  24.575  25.398  1.00  0.00    -0.206 F 
ATOM     73  C   UNL A   1      42.519  22.267  25.739  1.00  0.00     0.059 A 
ATOM     74  C   UNL A   1      42.335  21.398  28.000  1.00  0.00     0.059 A 
ATOM     75  F   UNL A   1      42.408  22.876  29.819  1.00  0.00    -0.206 F 
ATOM     76  C   UNL A   1      42.372  21.195  26.621  1.00  0.00     0.060 A 
BRANCH  76  77
ATOM     77  S   UNL A   1      42.290  19.519  25.950  1.00  0.00     0.124 S 
ATOM     78  O   UNL A   1      40.867  19.388  25.661  1.00  0.00    -0.237 OA
ATOM     79  O   UNL A   1      43.172  19.607  24.790  1.00  0.00    -0.237 OA
ATOM     80  O   UNL A   1      42.794  18.697  27.047  1.00  0.00    -0.744 OA
ENDBRANCH  76  77
ENDBRANCH  44  69
BRANCH  56  81
ATOM     81  C   UNL A   1      48.130  27.512  29.696  1.00  0.00     0.058 A 
ATOM     82  C   UNL A   1      48.994  27.739  28.614  1.00  0.00     0.135 A 
ATOM     83  C   UNL A   1      48.678  27.003  30.884  1.00  0.00     0.135 A 
ATOM     84  F   UNL A   1      48.514  28.217  27.455  1.00  0.00    -0.206 F 
ATOM     85  C   UNL A   1      50.352  27.453  28.700  1.00  0.00     0.059 A 
ATOM     86  C   UNL A   1      50.037  26.728  30.997  1.00  0.00     0.059 A 
ATOM     87  F   UNL A   1      47.893  26.777  31.948  1.00  0.00    -0.206 F 
ATOM     88  C   UNL A   1      50.864  26.946  29.896  1.00  0.00     0.060 A 
BRANCH  88  89
ATOM     89  S   UNL A   1      52.633  26.602  30.009  1.00  0.00     0.124 S 
ATOM     90  O   UNL A   1      52.662  25.543  31.012  1.00  0.00    -0.237 OA
ATOM     91  O   UNL A   1      52.964  26.196  28.646  1.00  0.00    -0.237 OA
ATOM     92  O   UNL A   1      53.199  27.882  30.427  1.00  0.00    -0.744 OA
ENDBRANCH  88  89
ENDBRANCH  56  81
ENDBRANCH  30  31
ENDBRANCH  23  25
ENDBRANCH  22  23
ENDBRANCH   1  22
TORSDOF 16
ENDMDL
MODEL 2
REMARK VINA RESULT:     -10.5      1.921      2.719
REMARK SMILES Cc1csc(NC(=O)[C@@H]2CC=CC[C@H]2C(=O)OCCOC(=O)c2ccc(-c3c4nc(c(-c5c(F)cc(S(=O)(=O)[O-])cc5F)c5ccc([nH]5)c(-c5c(F)cc(S(=O)(=O)[O-])cc5F)c5nc(c(-c6c(F)cc(S(=O)(=O)[O-])cc6F)c6ccc3[nH]6)C=C5)C=C4)cc2)n1
REMARK SMILES IDX 19 1 18 2 17 3 15 4 16 5 14 6 9 7 10 8 11 9 13 10 12 11 7 12
REMARK SMILES IDX 6 13 8 15 5 16 1 17 2 18 3 19 89 20 4 21 20 22 21 23 22 24
REMARK SMILES IDX 23 25 24 26 88 27 25 28 87 29 26 30 27 31 28 32 81 33 29 34
REMARK SMILES IDX 86 35 80 36 82 37 30 38 85 39 79 40 78 41 31 43 65 44 44 45
REMARK SMILES IDX 64 46 45 47 48 48 63 49 83 50 46 51 47 52 62 54 84 55 49 56
REMARK SMILES IDX 32 57 33 58 42 59 34 60 35 61 41 62 43 63 36 64 37 65 38 66
REMARK SMILES IDX 39 67 40 68 66 69 67 70 76 71 68 72 69 73 75 74 77 75 70 76
REMARK SMILES IDX 71 77 72 78 73 79 74 80 50 81 51 82 60 83 52 84 53 85 59 86
REMARK SMILES IDX 61 87 54 88 55 89 56 90 57 91 58 92
REMARK H PARENT 6 14 82 42 48 53
REMARK Flexibility Score: inf
ROOT
ATOM      1  C   UNL A   1      33.289  30.961  27.264  1.00  0.00     0.275 C 
ENDROOT
BRANCH   1   2
ATOM      2  C   UNL A   1      31.934  30.272  27.068  1.00  0.00     0.274 C 
BRANCH   2   3
ATOM      3  O   UNL A   1      31.865  29.464  25.877  1.00  0.00    -0.462 OA
BRANCH   3   4
ATOM      4  C   UNL A   1      31.666  28.143  26.083  1.00  0.00     0.310 C 
ATOM      5  O   UNL A   1      31.304  27.661  27.153  1.00  0.00    -0.252 OA
BRANCH   4   6
ATOM      6  C   UNL A   1      32.094  27.249  24.934  1.00  0.00     0.116 C 
ATOM      7  C   UNL A   1      31.036  26.731  23.933  1.00  0.00     0.097 C 
ATOM      8  C   UNL A   1      31.759  25.934  22.842  1.00  0.00     0.041 C 
ATOM      9  C   UNL A   1      32.931  26.631  22.227  1.00  0.00    -0.030 C 
ATOM     10  C   UNL A   1      33.203  28.070  24.233  1.00  0.00     0.043 C 
ATOM     11  C   UNL A   1      33.593  27.599  22.868  1.00  0.00    -0.030 C 
BRANCH   7  12
ATOM     12  C   UNL A   1      29.834  26.045  24.621  1.00  0.00     0.230 C 
ATOM     13  N   UNL A   1      29.870  25.231  25.707  1.00  0.00    -0.302 N 
ATOM     14  H   UNL A   1      29.170  25.391  26.380  1.00  0.00     0.172 HD
ATOM     15  O   UNL A   1      28.698  26.364  24.235  1.00  0.00    -0.274 OA
BRANCH  13  16
ATOM     16  C   UNL A   1      30.744  24.221  25.995  1.00  0.00     0.189 A 
ATOM     17  C   UNL A   1      33.042  22.465  28.112  1.00  0.00     0.068 C 
ATOM     18  C   UNL A   1      32.221  22.876  26.944  1.00  0.00     0.051 A 
ATOM     19  C   UNL A   1      32.025  22.186  25.763  1.00  0.00     0.092 A 
ATOM     20  N   UNL A   1      31.535  24.074  27.022  1.00  0.00    -0.225 NA
ATOM     21  S   UNL A   1      30.902  23.037  24.774  1.00  0.00    -0.105 S 
ENDBRANCH  13  16
ENDBRANCH   7  12
ENDBRANCH   4   6
ENDBRANCH   3   4
ENDBRANCH   2   3
ENDBRANCH   1   2
BRANCH   1  22
ATOM     22  O   UNL A   1      34.224  30.119  27.960  1.00  0.00    -0.458 OA
BRANCH  22  23
ATOM     23  C   UNL A   1      35.048  30.749  28.822  1.00  0.00     0.338 C 
ATOM     24  O   UNL A   1      34.787  31.675  29.579  1.00  0.00    -0.246 OA
BRANCH  23  25
ATOM     25  C   UNL A   1      36.379  30.138  28.795  1.00  0.00     0.060 A 
ATOM     26  C   UNL A   1      36.966  29.746  30.001  1.00  0.00     0.016 A 
ATOM     27  C   UNL A   1      37.108  30.115  27.606  1.00  0.00     0.016 A 
ATOM     28  C   UNL A   1      38.296  29.345  30.030  1.00  0.00     0.010 A 
ATOM     29  C   UNL A   1      38.441  29.701  27.633  1.00  0.00     0.010 A 
ATOM     30  C   UNL A   1      39.048  29.337  28.848  1.00  0.00    -0.014 A 
BRANCH  30  31
ATOM     31  C   UNL A   1      40.487  28.997  28.890  1.00  0.00     0.031 A 
ATOM     32  C   UNL A   1      41.490  30.050  29.266  1.00  0.00     0.074 A 
ATOM     33  C   UNL A   1      40.883  27.747  28.591  1.00  0.00     0.049 A 
ATOM     34  N   UNL A   1      42.796  29.993  29.242  1.00  0.00    -0.248 NA
ATOM     35  C   UNL A   1      40.950  31.338  29.730  1.00  0.00     0.031 C 
ATOM     36  C   UNL A   1      39.989  26.636  28.260  1.00  0.00     0.029 A 
ATOM     37  N   UNL A   1      42.139  27.204  28.509  1.00  0.00    -0.354 N 
ATOM     38  C   UNL A   1      43.237  31.244  29.655  1.00  0.00     0.074 A 
ATOM     39  C   UNL A   1      42.058  32.040  29.923  1.00  0.00     0.031 C 
ATOM     40  C   UNL A   1      40.726  25.544  28.005  1.00  0.00     0.029 A 
ATOM     41  C   UNL A   1      42.141  25.891  28.106  1.00  0.00     0.049 A 
ATOM     42  H   UNL A   1      42.959  27.706  28.720  1.00  0.00     0.167 HD
ATOM     43  C   UNL A   1      44.511  31.683  29.792  1.00  0.00     0.037 A 
ATOM     44  C   UNL A   1      43.169  25.073  27.814  1.00  0.00     0.037 A 
ATOM     45  C   UNL A   1      45.672  30.872  29.535  1.00  0.00     0.049 A 
ATOM     46  C   UNL A   1      44.573  25.595  27.931  1.00  0.00     0.074 A 
ATOM     47  C   UNL A   1      47.007  31.215  29.652  1.00  0.00     0.029 A 
ATOM     48  N   UNL A   1      45.635  29.551  29.109  1.00  0.00    -0.354 N 
ATOM     49  N   UNL A   1      44.978  26.787  28.301  1.00  0.00    -0.248 NA
ATOM     50  C   UNL A   1      45.658  24.669  27.584  1.00  0.00     0.031 C 
ATOM     51  C   UNL A   1      47.778  30.112  29.266  1.00  0.00     0.029 A 
ATOM     52  C   UNL A   1      46.923  29.070  28.944  1.00  0.00     0.049 A 
ATOM     53  H   UNL A   1      44.814  29.033  28.948  1.00  0.00     0.167 HD
ATOM     54  C   UNL A   1      46.366  26.752  28.240  1.00  0.00     0.074 A 
ATOM     55  C   UNL A   1      46.730  25.416  27.812  1.00  0.00     0.031 C 
ATOM     56  C   UNL A   1      47.258  27.735  28.514  1.00  0.00     0.037 A 
BRANCH  43  57
ATOM     57  C   UNL A   1      44.710  33.114  30.205  1.00  0.00     0.058 A 
ATOM     58  C   UNL A   1      44.859  33.483  31.550  1.00  0.00     0.135 A 
ATOM     59  C   UNL A   1      44.769  34.129  29.235  1.00  0.00     0.135 A 
ATOM     60  F   UNL A   1      44.791  32.555  32.518  1.00  0.00    -0.206 F 
ATOM     61  C   UNL A   1      45.037  34.813  31.923  1.00  0.00     0.059 A 
ATOM     62  C   UNL A   1      44.966  35.462  29.585  1.00  0.00     0.059 A 
ATOM     63  F   UNL A   1      44.629  33.830  27.934  1.00  0.00    -0.206 F 
ATOM     64  C   UNL A   1      45.083  35.796  30.933  1.00  0.00     0.060 A 
BRANCH  64  65
ATOM     65  S   UNL A   1      45.305  37.518  31.429  1.00  0.00     0.124 S 
ATOM     66  O   UNL A   1      46.361  37.397  32.429  1.00  0.00    -0.237 OA
ATOM     67  O   UNL A   1      45.692  38.159  30.176  1.00  0.00    -0.237 OA
ATOM     68  O   UNL A   1      43.992  37.895  31.942  1.00  0.00    -0.744 OA
ENDBRANCH  64  65
ENDBRANCH  43  57
BRANCH  44  69
ATOM     69  C   UNL A   1      42.896  23.686  27.360  1.00  0.00     0.058 A 
ATOM     70  C   UNL A   1      42.986  23.339  26.006  1.00  0.00     0.135 A 
ATOM     71  C   UNL A   1      42.581  22.671  28.279  1.00  0.00     0.135 A 
ATOM     72  F   UNL A   1      43.274  24.277  25.091  1.00  0.00    -0.206 F 
ATOM     73  C   UNL A   1      42.775  22.033  25.575  1.00  0.00     0.059 A 
ATOM     74  C   UNL A   1      42.387  21.356  27.875  1.00  0.00     0.059 A 
ATOM     75  F   UNL A   1      42.496  22.953  29.588  1.00  0.00    -0.206 F 
ATOM     76  C   UNL A   1      42.481  21.047  26.518  1.00  0.00     0.060 A 
BRANCH  76  77
ATOM     77  S   UNL A   1      42.282  19.340  25.961  1.00  0.00     0.124 S 
ATOM     78  O   UNL A   1      42.824  18.597  27.092  1.00  0.00    -0.237 OA
ATOM     79  O   UNL A   1      40.838  19.245  25.767  1.00  0.00    -0.237 OA
ATOM     80  O   UNL A   1      43.074  19.296  24.734  1.00  0.00    -0.744 OA
ENDBRANCH  76  77
ENDBRANCH  44  69
BRANCH  56  81
ATOM     81  C   UNL A   1      48.713  27.392  28.375  1.00  0.00     0.058 A 
ATOM     82  C   UNL A   1      49.378  27.506  27.144  1.00  0.00     0.135 A 
ATOM     83  C   UNL A   1      49.456  26.982  29.492  1.00  0.00     0.135 A 
ATOM     84  F   UNL A   1      48.706  27.887  26.046  1.00  0.00    -0.206 F 
ATOM     85  C   UNL A   1      50.729  27.204  27.022  1.00  0.00     0.059 A 
ATOM     86  C   UNL A   1      50.814  26.694  29.395  1.00  0.00     0.059 A 
ATOM     87  F   UNL A   1      48.866  26.866  30.691  1.00  0.00    -0.206 F 
ATOM     88  C   UNL A   1      51.439  26.797  28.153  1.00  0.00     0.060 A 
BRANCH  88  89
ATOM     89  S   UNL A   1      53.200  26.432  27.993  1.00  0.00     0.124 S 
ATOM     90  O   UNL A   1      53.188  25.354  27.010  1.00  0.00    -0.237 OA
ATOM     91  O   UNL A   1      53.745  27.706  27.531  1.00  0.00    -0.237 OA
ATOM     92  O   UNL A   1      53.590  26.048  29.346  1.00  0.00    -0.744 OA
ENDBRANCH  88  89
ENDBRANCH  56  81
ENDBRANCH  30  31
ENDBRANCH  23  25
ENDBRANCH  22  23
ENDBRANCH   1  22
TORSDOF 16
ENDMDL
MODEL 3
REMARK VINA RESULT:     -10.5      1.923      2.734
REMARK SMILES Cc1csc(NC(=O)[C@@H]2CC=CC[C@H]2C(=O)OCCOC(=O)c2ccc(-c3c4nc(c(-c5c(F)cc(S(=O)(=O)[O-])cc5F)c5ccc([nH]5)c(-c5c(F)cc(S(=O)(=O)[O-])cc5F)c5nc(c(-c6c(F)cc(S(=O)(=O)[O-])cc6F)c6ccc3[nH]6)C=C5)C=C4)cc2)n1
REMARK SMILES IDX 19 1 18 2 17 3 15 4 16 5 14 6 9 7 10 8 11 9 13 10 12 11 7 12
REMARK SMILES IDX 6 13 8 15 5 16 1 17 2 18 3 19 89 20 4 21 20 22 21 23 22 24
REMARK SMILES IDX 23 25 24 26 88 27 25 28 87 29 26 30 27 31 28 32 81 33 29 34
REMARK SMILES IDX 86 35 80 36 82 37 30 38 85 39 79 40 78 41 31 43 65 44 44 45
REMARK SMILES IDX 64 46 45 47 48 48 63 49 83 50 46 51 47 52 62 54 84 55 49 56
REMARK SMILES IDX 32 57 33 58 42 59 34 60 35 61 41 62 43 63 36 64 37 65 38 66
REMARK SMILES IDX 39 67 40 68 66 69 67 70 76 71 68 72 69 73 75 74 77 75 70 76
REMARK SMILES IDX 71 77 72 78 73 79 74 80 50 81 51 82 60 83 52 84 53 85 59 86
REMARK SMILES IDX 61 87 54 88 55 89 56 90 57 91 58 92
REMARK H PARENT 6 14 82 42 48 53
REMARK Flexibility Score: inf
ROOT
ATOM      1  C   UNL A   1      33.260  30.472  27.108  1.00  0.00     0.275 C 
ENDROOT
BRANCH   1   2
ATOM      2  C   UNL A   1      31.946  29.683  27.107  1.00  0.00     0.274 C 
BRANCH   2   3
ATOM      3  O   UNL A   1      31.627  29.095  25.831  1.00  0.00    -0.462 OA
BRANCH   3   4
ATOM      4  C   UNL A   1      31.344  27.774  25.855  1.00  0.00     0.310 C 
ATOM      5  O   UNL A   1      31.029  27.157  26.868  1.00  0.00    -0.252 OA
BRANCH   4   6
ATOM      6  C   UNL A   1      31.612  27.042  24.553  1.00  0.00     0.116 C 
ATOM      7  C   UNL A   1      30.841  27.447  23.275  1.00  0.00     0.097 C 
ATOM      8  C   UNL A   1      31.375  26.608  22.108  1.00  0.00     0.041 C 
ATOM      9  C   UNL A   1      32.865  26.591  21.976  1.00  0.00    -0.030 C 
ATOM     10  C   UNL A   1      33.144  27.177  24.373  1.00  0.00     0.043 C 
ATOM     11  C   UNL A   1      33.669  26.843  23.013  1.00  0.00    -0.030 C 
BRANCH   7  12
ATOM     12  C   UNL A   1      29.309  27.475  23.474  1.00  0.00     0.230 C 
ATOM     13  N   UNL A   1      28.410  28.222  22.784  1.00  0.00    -0.302 N 
ATOM     14  H   UNL A   1      27.586  27.754  22.517  1.00  0.00     0.172 HD
ATOM     15  O   UNL A   1      28.820  26.640  24.252  1.00  0.00    -0.274 OA
BRANCH  13  16
ATOM     16  C   UNL A   1      28.490  29.533  22.409  1.00  0.00     0.189 A 
ATOM     17  C   UNL A   1      28.013  32.259  20.131  1.00  0.00     0.068 C 
ATOM     18  C   UNL A   1      28.407  31.454  21.316  1.00  0.00     0.051 A 
ATOM     19  C   UNL A   1      28.900  31.911  22.522  1.00  0.00     0.092 A 
ATOM     20  N   UNL A   1      28.250  30.082  21.250  1.00  0.00    -0.225 NA
ATOM     21  S   UNL A   1      29.099  30.589  23.606  1.00  0.00    -0.105 S 
ENDBRANCH  13  16
ENDBRANCH   7  12
ENDBRANCH   4   6
ENDBRANCH   3   4
ENDBRANCH   2   3
ENDBRANCH   1   2
BRANCH   1  22
ATOM     22  O   UNL A   1      34.326  29.740  27.737  1.00  0.00    -0.458 OA
BRANCH  22  23
ATOM     23  C   UNL A   1      35.136  30.460  28.539  1.00  0.00     0.338 C 
ATOM     24  O   UNL A   1      34.854  31.442  29.212  1.00  0.00    -0.246 OA
BRANCH  23  25
ATOM     25  C   UNL A   1      36.479  29.877  28.564  1.00  0.00     0.060 A 
ATOM     26  C   UNL A   1      37.036  29.518  29.794  1.00  0.00     0.016 A 
ATOM     27  C   UNL A   1      37.246  29.851  27.399  1.00  0.00     0.016 A 
ATOM     28  C   UNL A   1      38.373  29.147  29.871  1.00  0.00     0.010 A 
ATOM     29  C   UNL A   1      38.586  29.466  27.474  1.00  0.00     0.010 A 
ATOM     30  C   UNL A   1      39.162  29.135  28.713  1.00  0.00    -0.014 A 
BRANCH  30  31
ATOM     31  C   UNL A   1      40.605  28.828  28.806  1.00  0.00     0.031 A 
ATOM     32  C   UNL A   1      41.572  29.904  29.210  1.00  0.00     0.074 A 
ATOM     33  C   UNL A   1      41.039  27.585  28.527  1.00  0.00     0.049 A 
ATOM     34  N   UNL A   1      42.878  29.875  29.231  1.00  0.00    -0.248 NA
ATOM     35  C   UNL A   1      40.988  31.182  29.650  1.00  0.00     0.031 C 
ATOM     36  C   UNL A   1      40.181  26.454  28.170  1.00  0.00     0.029 A 
ATOM     37  N   UNL A   1      42.308  27.070  28.490  1.00  0.00    -0.354 N 
ATOM     38  C   UNL A   1      43.278  31.137  29.653  1.00  0.00     0.074 A 
ATOM     39  C   UNL A   1      42.073  31.909  29.877  1.00  0.00     0.031 C 
ATOM     40  C   UNL A   1      40.950  25.377  27.946  1.00  0.00     0.029 A 
ATOM     41  C   UNL A   1      42.353  25.755  28.093  1.00  0.00     0.049 A 
ATOM     42  H   UNL A   1      43.109  27.591  28.727  1.00  0.00     0.167 HD
ATOM     43  C   UNL A   1      44.537  31.605  29.832  1.00  0.00     0.037 A 
ATOM     44  C   UNL A   1      43.408  24.959  27.841  1.00  0.00     0.037 A 
ATOM     45  C   UNL A   1      45.723  30.819  29.618  1.00  0.00     0.049 A 
ATOM     46  C   UNL A   1      44.795  25.513  28.003  1.00  0.00     0.074 A 
ATOM     47  C   UNL A   1      47.046  31.192  29.778  1.00  0.00     0.029 A 
ATOM     48  N   UNL A   1      45.730  29.496  29.197  1.00  0.00    -0.354 N 
ATOM     49  N   UNL A   1      45.162  26.715  28.380  1.00  0.00    -0.248 NA
ATOM     50  C   UNL A   1      45.911  24.609  27.697  1.00  0.00     0.031 C 
ATOM     51  C   UNL A   1      47.853  30.105  29.424  1.00  0.00     0.029 A 
ATOM     52  C   UNL A   1      47.033  29.042  29.078  1.00  0.00     0.049 A 
ATOM     53  H   UNL A   1      44.926  28.959  29.011  1.00  0.00     0.167 HD
ATOM     54  C   UNL A   1      46.551  26.710  28.367  1.00  0.00     0.074 A 
ATOM     55  C   UNL A   1      46.959  25.381  27.958  1.00  0.00     0.031 C 
ATOM     56  C   UNL A   1      47.412  27.714  28.666  1.00  0.00     0.037 A 
BRANCH  43  57
ATOM     57  C   UNL A   1      44.690  33.042  30.244  1.00  0.00     0.058 A 
ATOM     58  C   UNL A   1      44.705  33.428  31.592  1.00  0.00     0.135 A 
ATOM     59  C   UNL A   1      44.842  34.045  29.272  1.00  0.00     0.135 A 
ATOM     60  F   UNL A   1      44.544  32.511  32.560  1.00  0.00    -0.206 F 
ATOM     61  C   UNL A   1      44.841  34.763  31.964  1.00  0.00     0.059 A 
ATOM     62  C   UNL A   1      44.999  35.383  29.622  1.00  0.00     0.059 A 
ATOM     63  F   UNL A   1      44.831  33.730  27.968  1.00  0.00    -0.206 F 
ATOM     64  C   UNL A   1      44.982  35.734  30.972  1.00  0.00     0.060 A 
BRANCH  64  65
ATOM     65  S   UNL A   1      45.150  37.462  31.465  1.00  0.00     0.124 S 
ATOM     66  O   UNL A   1      46.589  37.664  31.330  1.00  0.00    -0.237 OA
ATOM     67  O   UNL A   1      44.319  38.153  30.483  1.00  0.00    -0.237 OA
ATOM     68  O   UNL A   1      44.638  37.476  32.832  1.00  0.00    -0.744 OA
ENDBRANCH  64  65
ENDBRANCH  43  57
BRANCH  44  69
ATOM     69  C   UNL A   1      43.181  23.565  27.384  1.00  0.00     0.058 A 
ATOM     70  C   UNL A   1      42.961  22.531  28.304  1.00  0.00     0.135 A 
ATOM     71  C   UNL A   1      43.137  23.247  26.017  1.00  0.00     0.135 A 
ATOM     72  F   UNL A   1      43.003  22.786  29.621  1.00  0.00    -0.206 F 
ATOM     73  C   UNL A   1      42.704  21.229  27.887  1.00  0.00     0.059 A 
ATOM     74  C   UNL A   1      42.861  21.959  25.575  1.00  0.00     0.059 A 
ATOM     75  F   UNL A   1      43.330  24.206  25.098  1.00  0.00    -0.206 F 
ATOM     76  C   UNL A   1      42.650  20.954  26.519  1.00  0.00     0.060 A 
BRANCH  76  77
ATOM     77  S   UNL A   1      42.241  19.278  25.983  1.00  0.00     0.124 S 
ATOM     78  O   UNL A   1      42.644  18.493  27.144  1.00  0.00    -0.237 OA
ATOM     79  O   UNL A   1      40.805  19.372  25.743  1.00  0.00    -0.237 OA
ATOM     80  O   UNL A   1      43.058  19.103  24.785  1.00  0.00    -0.744 OA
ENDBRANCH  76  77
ENDBRANCH  44  69
BRANCH  56  81
ATOM     81  C   UNL A   1      48.878  27.402  28.578  1.00  0.00     0.058 A 
ATOM     82  C   UNL A   1      49.588  27.556  27.378  1.00  0.00     0.135 A 
ATOM     83  C   UNL A   1      49.584  26.981  29.715  1.00  0.00     0.135 A 
ATOM     84  F   UNL A   1      48.953  27.949  26.262  1.00  0.00    -0.206 F 
ATOM     85  C   UNL A   1      50.949  27.284  27.303  1.00  0.00     0.059 A 
ATOM     86  C   UNL A   1      50.950  26.722  29.667  1.00  0.00     0.059 A 
ATOM     87  F   UNL A   1      48.949  26.828  30.887  1.00  0.00    -0.206 F 
ATOM     88  C   UNL A   1      51.622  26.865  28.453  1.00  0.00     0.060 A 
BRANCH  88  89
ATOM     89  S   UNL A   1      53.395  26.539  28.356  1.00  0.00     0.124 S 
ATOM     90  O   UNL A   1      53.923  27.872  28.086  1.00  0.00    -0.237 OA
ATOM     91  O   UNL A   1      53.689  25.995  29.679  1.00  0.00    -0.237 OA
ATOM     92  O   UNL A   1      53.502  25.584  27.257  1.00  0.00    -0.744 OA
ENDBRANCH  88  89
ENDBRANCH  56  81
ENDBRANCH  30  31
ENDBRANCH  23  25
ENDBRANCH  22  23
ENDBRANCH   1  22
TORSDOF 16
ENDMDL
