MODEL 1
REMARK VINA RESULT:     -11.4      0.000      0.000
REMARK SMILES O=Cc1cccc(-c2cc(F)ccc2C(=O)OCCOC(=O)c2ccc(-c3c4nc(c(-c5c(F)cc(S(=O)(=O)[O-])cc5F)c5ccc([nH]5)c(-c5c(F)cc(S(=O)(=O)[O-])cc5F)c5nc(c(-c6c(F)cc(S(=O)(=O)[O-])cc6F)c6ccc3[nH]6)C=C5)C=C4)cc2)c1
REMARK SMILES IDX 19 1 18 2 17 3 15 4 16 5 14 6 8 7 9 8 10 9 13 10 11 11 12 12
REMARK SMILES IDX 7 13 3 14 4 15 89 16 5 17 6 18 2 19 1 20 20 21 21 22 22 23
REMARK SMILES IDX 23 24 24 25 88 26 25 27 87 28 26 29 27 30 28 31 81 32 29 33
REMARK SMILES IDX 86 34 80 35 82 36 30 37 85 38 79 39 78 40 31 42 65 43 44 44
REMARK SMILES IDX 64 45 45 46 48 47 63 48 83 49 46 50 47 51 62 53 84 54 49 55
REMARK SMILES IDX 32 56 33 57 42 58 34 59 35 60 41 61 43 62 36 63 37 64 38 65
REMARK SMILES IDX 39 66 40 67 66 68 67 69 76 70 68 71 69 72 75 73 77 74 70 75
REMARK SMILES IDX 71 76 72 77 73 78 74 79 50 80 51 81 60 82 52 83 53 84 59 85
REMARK SMILES IDX 61 86 54 87 55 88 56 89 57 90 58 91
REMARK H PARENT 82 41 48 52
REMARK Flexibility Score: inf
ROOT
ATOM      1  C   UNL A   1      32.932  30.815  27.257  1.00  0.00     0.275 C 
ENDROOT
BRANCH   1   2
ATOM      2  C   UNL A   1      31.972  29.676  26.932  1.00  0.00     0.275 C 
BRANCH   2   3
ATOM      3  O   UNL A   1      32.684  28.557  26.365  1.00  0.00    -0.458 OA
BRANCH   3   4
ATOM      4  C   UNL A   1      32.061  27.352  26.418  1.00  0.00     0.338 C 
ATOM      5  O   UNL A   1      31.108  27.060  27.112  1.00  0.00    -0.246 OA
BRANCH   4   6
ATOM      6  C   UNL A   1      32.654  26.395  25.442  1.00  0.00     0.068 A 
ATOM      7  C   UNL A   1      32.081  26.118  24.179  1.00  0.00    -0.001 A 
ATOM      8  C   UNL A   1      32.760  25.211  23.338  1.00  0.00     0.048 A 
ATOM      9  C   UNL A   1      33.941  24.596  23.748  1.00  0.00     0.123 A 
ATOM     10  C   UNL A   1      33.871  25.793  25.819  1.00  0.00     0.019 A 
ATOM     11  F   UNL A   1      34.550  23.730  22.928  1.00  0.00    -0.207 F 
ATOM     12  C   UNL A   1      34.500  24.873  24.984  1.00  0.00     0.040 A 
BRANCH   7  13
ATOM     13  C   UNL A   1      30.807  26.710  23.726  1.00  0.00    -0.017 A 
ATOM     14  C   UNL A   1      29.545  28.567  22.795  1.00  0.00     0.015 A 
ATOM     15  C   UNL A   1      28.344  27.967  23.176  1.00  0.00     0.011 A 
ATOM     16  C   UNL A   1      30.767  27.929  23.030  1.00  0.00     0.020 A 
ATOM     17  C   UNL A   1      28.367  26.724  23.803  1.00  0.00     0.001 A 
ATOM     18  C   UNL A   1      29.587  26.107  24.083  1.00  0.00     0.009 A 
BRANCH  14  19
ATOM     19  C   UNL A   1      29.516  29.922  22.208  1.00  0.00     0.260 C 
ATOM     20  O   UNL A   1      28.858  30.191  21.213  1.00  0.00    -0.298 OA
ENDBRANCH  14  19
ENDBRANCH   7  13
ENDBRANCH   4   6
ENDBRANCH   3   4
ENDBRANCH   2   3
ENDBRANCH   1   2
BRANCH   1  21
ATOM     21  O   UNL A   1      34.239  30.278  27.510  1.00  0.00    -0.458 OA
BRANCH  21  22
ATOM     22  C   UNL A   1      34.900  30.842  28.544  1.00  0.00     0.338 C 
ATOM     23  O   UNL A   1      34.466  31.619  29.380  1.00  0.00    -0.246 OA
BRANCH  22  24
ATOM     24  C   UNL A   1      36.256  30.288  28.588  1.00  0.00     0.060 A 
ATOM     25  C   UNL A   1      36.796  29.978  29.834  1.00  0.00     0.016 A 
ATOM     26  C   UNL A   1      37.024  30.176  27.435  1.00  0.00     0.016 A 
ATOM     27  C   UNL A   1      38.136  29.632  29.949  1.00  0.00     0.010 A 
ATOM     28  C   UNL A   1      38.347  29.737  27.542  1.00  0.00     0.010 A 
ATOM     29  C   UNL A   1      38.927  29.488  28.803  1.00  0.00    -0.014 A 
BRANCH  29  30
ATOM     30  C   UNL A   1      40.361  29.107  28.913  1.00  0.00     0.031 A 
ATOM     31  C   UNL A   1      41.379  30.138  29.322  1.00  0.00     0.074 A 
ATOM     32  C   UNL A   1      40.756  27.847  28.641  1.00  0.00     0.049 A 
ATOM     33  N   UNL A   1      42.683  30.089  29.251  1.00  0.00    -0.248 NA
ATOM     34  C   UNL A   1      40.856  31.403  29.868  1.00  0.00     0.031 C 
ATOM     35  C   UNL A   1      39.869  26.734  28.291  1.00  0.00     0.029 A 
ATOM     36  N   UNL A   1      42.010  27.288  28.606  1.00  0.00    -0.354 N 
ATOM     37  C   UNL A   1      43.135  31.331  29.683  1.00  0.00     0.074 A 
ATOM     38  C   UNL A   1      41.965  32.114  30.015  1.00  0.00     0.031 C 
ATOM     39  C   UNL A   1      40.601  25.626  28.101  1.00  0.00     0.029 A 
ATOM     40  C   UNL A   1      42.013  25.969  28.215  1.00  0.00     0.049 A 
ATOM     41  H   UNL A   1      42.829  27.784  28.839  1.00  0.00     0.167 HD
ATOM     42  C   UNL A   1      44.411  31.774  29.786  1.00  0.00     0.037 A 
ATOM     43  C   UNL A   1      43.034  25.141  27.919  1.00  0.00     0.037 A 
ATOM     44  C   UNL A   1      45.567  30.962  29.501  1.00  0.00     0.049 A 
ATOM     45  C   UNL A   1      44.440  25.668  27.990  1.00  0.00     0.074 A 
ATOM     46  C   UNL A   1      46.905  31.305  29.593  1.00  0.00     0.029 A 
ATOM     47  N   UNL A   1      45.521  29.640  29.080  1.00  0.00    -0.354 N 
ATOM     48  N   UNL A   1      44.854  26.862  28.344  1.00  0.00    -0.248 NA
ATOM     49  C   UNL A   1      45.516  24.749  27.595  1.00  0.00     0.031 C 
ATOM     50  C   UNL A   1      47.667  30.203  29.189  1.00  0.00     0.029 A 
ATOM     51  C   UNL A   1      46.805  29.159  28.889  1.00  0.00     0.049 A 
ATOM     52  H   UNL A   1      44.697  29.121  28.939  1.00  0.00     0.167 HD
ATOM     53  C   UNL A   1      46.238  26.834  28.224  1.00  0.00     0.074 A 
ATOM     54  C   UNL A   1      46.593  25.500  27.782  1.00  0.00     0.031 C 
ATOM     55  C   UNL A   1      47.134  27.825  28.452  1.00  0.00     0.037 A 
BRANCH  42  56
ATOM     56  C   UNL A   1      44.629  33.207  30.190  1.00  0.00     0.058 A 
ATOM     57  C   UNL A   1      44.655  34.252  29.253  1.00  0.00     0.135 A 
ATOM     58  C   UNL A   1      44.776  33.543  31.546  1.00  0.00     0.135 A 
ATOM     59  F   UNL A   1      44.536  33.988  27.942  1.00  0.00    -0.206 F 
ATOM     60  C   UNL A   1      44.846  35.575  29.644  1.00  0.00     0.059 A 
ATOM     61  C   UNL A   1      44.942  34.861  31.962  1.00  0.00     0.059 A 
ATOM     62  F   UNL A   1      44.759  32.583  32.486  1.00  0.00    -0.206 F 
ATOM     63  C   UNL A   1      44.990  35.869  31.001  1.00  0.00     0.060 A 
BRANCH  63  64
ATOM     64  S   UNL A   1      45.235  37.589  31.493  1.00  0.00     0.124 S 
ATOM     65  O   UNL A   1      45.361  38.247  30.196  1.00  0.00    -0.237 OA
ATOM     66  O   UNL A   1      44.011  37.880  32.233  1.00  0.00    -0.237 OA
ATOM     67  O   UNL A   1      46.453  37.545  32.294  1.00  0.00    -0.744 OA
ENDBRANCH  63  64
ENDBRANCH  42  56
BRANCH  43  68
ATOM     68  C   UNL A   1      42.756  23.751  27.469  1.00  0.00     0.058 A 
ATOM     69  C   UNL A   1      42.660  23.437  26.106  1.00  0.00     0.135 A 
ATOM     70  C   UNL A   1      42.606  22.703  28.392  1.00  0.00     0.135 A 
ATOM     71  F   UNL A   1      42.783  24.405  25.184  1.00  0.00    -0.206 F 
ATOM     72  C   UNL A   1      42.423  22.136  25.673  1.00  0.00     0.059 A 
ATOM     73  C   UNL A   1      42.398  21.390  27.983  1.00  0.00     0.059 A 
ATOM     74  F   UNL A   1      42.698  22.947  29.710  1.00  0.00    -0.206 F 
ATOM     75  C   UNL A   1      42.299  21.118  26.621  1.00  0.00     0.060 A 
BRANCH  75  76
ATOM     76  S   UNL A   1      42.049  19.423  26.049  1.00  0.00     0.124 S 
ATOM     77  O   UNL A   1      42.426  18.656  27.231  1.00  0.00    -0.237 OA
ATOM     78  O   UNL A   1      40.629  19.418  25.710  1.00  0.00    -0.237 OA
ATOM     79  O   UNL A   1      42.957  19.316  24.910  1.00  0.00    -0.744 OA
ENDBRANCH  75  76
ENDBRANCH  43  68
BRANCH  55  80
ATOM     80  C   UNL A   1      48.587  27.498  28.251  1.00  0.00     0.058 A 
ATOM     81  C   UNL A   1      49.367  26.960  29.287  1.00  0.00     0.135 A 
ATOM     82  C   UNL A   1      49.187  27.666  26.993  1.00  0.00     0.135 A 
ATOM     83  F   UNL A   1      48.840  26.791  30.511  1.00  0.00    -0.206 F 
ATOM     84  C   UNL A   1      50.697  26.611  29.085  1.00  0.00     0.059 A 
ATOM     85  C   UNL A   1      50.509  27.302  26.763  1.00  0.00     0.059 A 
ATOM     86  F   UNL A   1      48.480  28.171  25.969  1.00  0.00    -0.206 F 
ATOM     87  C   UNL A   1      51.258  26.781  27.817  1.00  0.00     0.060 A 
BRANCH  87  88
ATOM     88  S   UNL A   1      52.971  26.276  27.556  1.00  0.00     0.124 S 
ATOM     89  O   UNL A   1      53.442  26.113  28.926  1.00  0.00    -0.237 OA
ATOM     90  O   UNL A   1      52.820  25.046  26.785  1.00  0.00    -0.237 OA
ATOM     91  O   UNL A   1      53.548  27.401  26.823  1.00  0.00    -0.744 OA
ENDBRANCH  87  88
ENDBRANCH  55  80
ENDBRANCH  29  30
ENDBRANCH  22  24
ENDBRANCH  21  22
ENDBRANCH   1  21
TORSDOF 16
ENDMDL
MODEL 2
REMARK VINA RESULT:     -11.3      1.652      3.027
REMARK SMILES O=Cc1cccc(-c2cc(F)ccc2C(=O)OCCOC(=O)c2ccc(-c3c4nc(c(-c5c(F)cc(S(=O)(=O)[O-])cc5F)c5ccc([nH]5)c(-c5c(F)cc(S(=O)(=O)[O-])cc5F)c5nc(c(-c6c(F)cc(S(=O)(=O)[O-])cc6F)c6ccc3[nH]6)C=C5)C=C4)cc2)c1
REMARK SMILES IDX 19 1 18 2 17 3 15 4 16 5 14 6 8 7 9 8 10 9 13 10 11 11 12 12
REMARK SMILES IDX 7 13 3 14 4 15 89 16 5 17 6 18 2 19 1 20 20 21 21 22 22 23
REMARK SMILES IDX 23 24 24 25 88 26 25 27 87 28 26 29 27 30 28 31 81 32 29 33
REMARK SMILES IDX 86 34 80 35 82 36 30 37 85 38 79 39 78 40 31 42 65 43 44 44
REMARK SMILES IDX 64 45 45 46 48 47 63 48 83 49 46 50 47 51 62 53 84 54 49 55
REMARK SMILES IDX 32 56 33 57 42 58 34 59 35 60 41 61 43 62 36 63 37 64 38 65
REMARK SMILES IDX 39 66 40 67 66 68 67 69 76 70 68 71 69 72 75 73 77 74 70 75
REMARK SMILES IDX 71 76 72 77 73 78 74 79 50 80 51 81 60 82 52 83 53 84 59 85
REMARK SMILES IDX 61 86 54 87 55 88 56 89 57 90 58 91
REMARK H PARENT 82 41 48 52
REMARK Flexibility Score: inf
ROOT
ATOM      1  C   UNL A   1      32.857  28.962  26.587  1.00  0.00     0.275 C 
ENDROOT
BRANCH   1   2
ATOM      2  C   UNL A   1      33.248  28.301  25.270  1.00  0.00     0.275 C 
BRANCH   2   3
ATOM      3  O   UNL A   1      32.654  28.999  24.155  1.00  0.00    -0.458 OA
BRANCH   3   4
ATOM      4  C   UNL A   1      32.160  28.231  23.152  1.00  0.00     0.338 C 
ATOM      5  O   UNL A   1      32.804  27.577  22.357  1.00  0.00    -0.246 OA
BRANCH   4   6
ATOM      6  C   UNL A   1      30.670  28.220  23.166  1.00  0.00     0.068 A 
ATOM      7  C   UNL A   1      29.906  27.162  23.710  1.00  0.00    -0.001 A 
ATOM      8  C   UNL A   1      28.501  27.290  23.684  1.00  0.00     0.048 A 
ATOM      9  C   UNL A   1      27.891  28.409  23.122  1.00  0.00     0.123 A 
ATOM     10  C   UNL A   1      30.033  29.361  22.640  1.00  0.00     0.019 A 
ATOM     11  F   UNL A   1      26.554  28.489  23.103  1.00  0.00    -0.207 F 
ATOM     12  C   UNL A   1      28.643  29.443  22.593  1.00  0.00     0.040 A 
BRANCH   7  13
ATOM     13  C   UNL A   1      30.510  25.938  24.270  1.00  0.00    -0.017 A 
ATOM     14  C   UNL A   1      31.353  23.674  23.998  1.00  0.00     0.015 A 
ATOM     15  C   UNL A   1      31.345  23.484  25.381  1.00  0.00     0.011 A 
ATOM     16  C   UNL A   1      30.978  24.902  23.445  1.00  0.00     0.020 A 
ATOM     17  C   UNL A   1      30.951  24.528  26.214  1.00  0.00     0.001 A 
ATOM     18  C   UNL A   1      30.529  25.739  25.663  1.00  0.00     0.009 A 
BRANCH  14  19
ATOM     19  C   UNL A   1      31.690  22.536  23.119  1.00  0.00     0.260 C 
ATOM     20  O   UNL A   1      32.838  22.140  22.971  1.00  0.00    -0.298 OA
ENDBRANCH  14  19
ENDBRANCH   7  13
ENDBRANCH   4   6
ENDBRANCH   3   4
ENDBRANCH   2   3
ENDBRANCH   1   2
BRANCH   1  21
ATOM     21  O   UNL A   1      33.957  28.879  27.506  1.00  0.00    -0.458 OA
BRANCH  21  22
ATOM     22  C   UNL A   1      34.453  30.068  27.916  1.00  0.00     0.338 C 
ATOM     23  O   UNL A   1      33.851  31.116  28.081  1.00  0.00    -0.246 OA
BRANCH  22  24
ATOM     24  C   UNL A   1      35.869  29.890  28.249  1.00  0.00     0.060 A 
ATOM     25  C   UNL A   1      36.806  30.056  27.233  1.00  0.00     0.016 A 
ATOM     26  C   UNL A   1      36.261  29.462  29.512  1.00  0.00     0.016 A 
ATOM     27  C   UNL A   1      38.136  29.716  27.444  1.00  0.00     0.010 A 
ATOM     28  C   UNL A   1      37.615  29.209  29.751  1.00  0.00     0.010 A 
ATOM     29  C   UNL A   1      38.563  29.305  28.713  1.00  0.00    -0.014 A 
BRANCH  29  30
ATOM     30  C   UNL A   1      39.988  28.948  28.954  1.00  0.00     0.031 A 
ATOM     31  C   UNL A   1      40.938  29.987  29.489  1.00  0.00     0.074 A 
ATOM     32  C   UNL A   1      40.436  27.705  28.688  1.00  0.00     0.049 A 
ATOM     33  N   UNL A   1      42.244  29.965  29.546  1.00  0.00    -0.248 NA
ATOM     34  C   UNL A   1      40.335  31.225  30.015  1.00  0.00     0.031 C 
ATOM     35  C   UNL A   1      39.613  26.586  28.223  1.00  0.00     0.029 A 
ATOM     36  N   UNL A   1      41.699  27.171  28.763  1.00  0.00    -0.354 N 
ATOM     37  C   UNL A   1      42.623  31.203  30.054  1.00  0.00     0.074 A 
ATOM     38  C   UNL A   1      41.409  31.953  30.291  1.00  0.00     0.031 C 
ATOM     39  C   UNL A   1      40.384  25.498  28.076  1.00  0.00     0.029 A 
ATOM     40  C   UNL A   1      41.770  25.865  28.339  1.00  0.00     0.049 A 
ATOM     41  H   UNL A   1      42.480  27.676  29.089  1.00  0.00     0.167 HD
ATOM     42  C   UNL A   1      43.873  31.667  30.296  1.00  0.00     0.037 A 
ATOM     43  C   UNL A   1      42.834  25.066  28.123  1.00  0.00     0.037 A 
ATOM     44  C   UNL A   1      45.068  30.886  30.104  1.00  0.00     0.049 A 
ATOM     45  C   UNL A   1      44.214  25.618  28.347  1.00  0.00     0.074 A 
ATOM     46  C   UNL A   1      46.382  31.253  30.337  1.00  0.00     0.029 A 
ATOM     47  N   UNL A   1      45.093  29.577  29.646  1.00  0.00    -0.354 N 
ATOM     48  N   UNL A   1      44.564  26.808  28.772  1.00  0.00    -0.248 NA
ATOM     49  C   UNL A   1      45.343  24.732  28.035  1.00  0.00     0.031 C 
ATOM     50  C   UNL A   1      47.205  30.178  29.981  1.00  0.00     0.029 A 
ATOM     51  C   UNL A   1      46.400  29.126  29.570  1.00  0.00     0.049 A 
ATOM     52  H   UNL A   1      44.299  29.046  29.409  1.00  0.00     0.167 HD
ATOM     53  C   UNL A   1      45.953  26.811  28.789  1.00  0.00     0.074 A 
ATOM     54  C   UNL A   1      46.380  25.498  28.348  1.00  0.00     0.031 C 
ATOM     55  C   UNL A   1      46.801  27.813  29.131  1.00  0.00     0.037 A 
BRANCH  42  56
ATOM     56  C   UNL A   1      44.017  33.092  30.757  1.00  0.00     0.058 A 
ATOM     57  C   UNL A   1      44.060  33.438  32.116  1.00  0.00     0.135 A 
ATOM     58  C   UNL A   1      44.152  34.127  29.816  1.00  0.00     0.135 A 
ATOM     59  F   UNL A   1      43.920  32.492  33.059  1.00  0.00    -0.206 F 
ATOM     60  C   UNL A   1      44.205  34.760  32.527  1.00  0.00     0.059 A 
ATOM     61  C   UNL A   1      44.324  35.453  30.203  1.00  0.00     0.059 A 
ATOM     62  F   UNL A   1      44.117  33.854  28.502  1.00  0.00    -0.206 F 
ATOM     63  C   UNL A   1      44.335  35.761  31.562  1.00  0.00     0.060 A 
BRANCH  63  64
ATOM     64  S   UNL A   1      44.525  37.472  32.110  1.00  0.00     0.124 S 
ATOM     65  O   UNL A   1      43.685  37.490  33.303  1.00  0.00    -0.237 OA
ATOM     66  O   UNL A   1      45.962  37.567  32.346  1.00  0.00    -0.237 OA
ATOM     67  O   UNL A   1      44.026  38.248  30.980  1.00  0.00    -0.744 OA
ENDBRANCH  63  64
ENDBRANCH  42  56
BRANCH  43  68
ATOM     68  C   UNL A   1      42.632  23.685  27.610  1.00  0.00     0.058 A 
ATOM     69  C   UNL A   1      42.608  23.419  26.233  1.00  0.00     0.135 A 
ATOM     70  C   UNL A   1      42.486  22.596  28.487  1.00  0.00     0.135 A 
ATOM     71  F   UNL A   1      42.730  24.426  25.354  1.00  0.00    -0.206 F 
ATOM     72  C   UNL A   1      42.442  22.128  25.743  1.00  0.00     0.059 A 
ATOM     73  C   UNL A   1      42.349  21.293  28.021  1.00  0.00     0.059 A 
ATOM     74  F   UNL A   1      42.512  22.793  29.815  1.00  0.00    -0.206 F 
ATOM     75  C   UNL A   1      42.319  21.070  26.647  1.00  0.00     0.060 A 
BRANCH  75  76
ATOM     76  S   UNL A   1      42.164  19.390  26.002  1.00  0.00     0.124 S 
ATOM     77  O   UNL A   1      42.654  18.598  27.125  1.00  0.00    -0.237 OA
ATOM     78  O   UNL A   1      40.733  19.296  25.730  1.00  0.00    -0.237 OA
ATOM     79  O   UNL A   1      43.019  19.404  24.818  1.00  0.00    -0.744 OA
ENDBRANCH  75  76
ENDBRANCH  43  68
BRANCH  55  80
ATOM     80  C   UNL A   1      48.272  27.520  29.067  1.00  0.00     0.058 A 
ATOM     81  C   UNL A   1      49.007  27.712  27.886  1.00  0.00     0.135 A 
ATOM     82  C   UNL A   1      48.966  27.102  30.214  1.00  0.00     0.135 A 
ATOM     83  F   UNL A   1      48.387  28.100  26.760  1.00  0.00    -0.206 F 
ATOM     84  C   UNL A   1      50.378  27.488  27.842  1.00  0.00     0.059 A 
ATOM     85  C   UNL A   1      50.341  26.895  30.199  1.00  0.00     0.059 A 
ATOM     86  F   UNL A   1      48.308  26.910  31.369  1.00  0.00    -0.206 F 
ATOM     87  C   UNL A   1      51.038  27.084  29.006  1.00  0.00     0.060 A 
BRANCH  87  88
ATOM     88  S   UNL A   1      52.826  26.847  28.947  1.00  0.00     0.124 S 
ATOM     89  O   UNL A   1      52.975  26.030  27.748  1.00  0.00    -0.237 OA
ATOM     90  O   UNL A   1      53.320  28.217  28.848  1.00  0.00    -0.237 OA
ATOM     91  O   UNL A   1      53.120  26.171  30.209  1.00  0.00    -0.744 OA
ENDBRANCH  87  88
ENDBRANCH  55  80
ENDBRANCH  29  30
ENDBRANCH  22  24
ENDBRANCH  21  22
ENDBRANCH   1  21
TORSDOF 16
ENDMDL
MODEL 3
REMARK VINA RESULT:     -11.2      1.358      3.010
REMARK SMILES O=Cc1cccc(-c2cc(F)ccc2C(=O)OCCOC(=O)c2ccc(-c3c4nc(c(-c5c(F)cc(S(=O)(=O)[O-])cc5F)c5ccc([nH]5)c(-c5c(F)cc(S(=O)(=O)[O-])cc5F)c5nc(c(-c6c(F)cc(S(=O)(=O)[O-])cc6F)c6ccc3[nH]6)C=C5)C=C4)cc2)c1
REMARK SMILES IDX 19 1 18 2 17 3 15 4 16 5 14 6 8 7 9 8 10 9 13 10 11 11 12 12
REMARK SMILES IDX 7 13 3 14 4 15 89 16 5 17 6 18 2 19 1 20 20 21 21 22 22 23
REMARK SMILES IDX 23 24 24 25 88 26 25 27 87 28 26 29 27 30 28 31 81 32 29 33
REMARK SMILES IDX 86 34 80 35 82 36 30 37 85 38 79 39 78 40 31 42 65 43 44 44
REMARK SMILES IDX 64 45 45 46 48 47 63 48 83 49 46 50 47 51 62 53 84 54 49 55
REMARK SMILES IDX 32 56 33 57 42 58 34 59 35 60 41 61 43 62 36 63 37 64 38 65
REMARK SMILES IDX 39 66 40 67 66 68 67 69 76 70 68 71 69 72 75 73 77 74 70 75
REMARK SMILES IDX 71 76 72 77 73 78 74 79 50 80 51 81 60 82 52 83 53 84 59 85
REMARK SMILES IDX 61 86 54 87 55 88 56 89 57 90 58 91
REMARK H PARENT 82 41 48 52
REMARK Flexibility Score: inf
ROOT
ATOM      1  C   UNL A   1      32.562  28.866  27.019  1.00  0.00     0.275 C 
ENDROOT
BRANCH   1   2
ATOM      2  C   UNL A   1      31.874  27.523  27.241  1.00  0.00     0.275 C 
BRANCH   2   3
ATOM      3  O   UNL A   1      32.531  26.485  26.485  1.00  0.00    -0.458 OA
BRANCH   3   4
ATOM      4  C   UNL A   1      31.730  25.546  25.920  1.00  0.00     0.338 C 
ATOM      5  O   UNL A   1      30.999  24.772  26.505  1.00  0.00    -0.246 OA
BRANCH   4   6
ATOM      6  C   UNL A   1      31.793  25.608  24.433  1.00  0.00     0.068 A 
ATOM      7  C   UNL A   1      32.645  24.788  23.656  1.00  0.00    -0.001 A 
ATOM      8  C   UNL A   1      32.586  24.929  22.254  1.00  0.00     0.048 A 
ATOM      9  C   UNL A   1      31.734  25.857  21.659  1.00  0.00     0.123 A 
ATOM     10  C   UNL A   1      30.910  26.510  23.808  1.00  0.00     0.019 A 
ATOM     11  F   UNL A   1      31.716  25.971  20.324  1.00  0.00    -0.207 F 
ATOM     12  C   UNL A   1      30.900  26.655  22.423  1.00  0.00     0.040 A 
BRANCH   7  13
ATOM     13  C   UNL A   1      33.597  23.828  24.248  1.00  0.00    -0.017 A 
ATOM     14  C   UNL A   1      35.839  23.246  24.983  1.00  0.00     0.015 A 
ATOM     15  C   UNL A   1      35.486  21.897  25.057  1.00  0.00     0.011 A 
ATOM     16  C   UNL A   1      34.895  24.212  24.621  1.00  0.00     0.020 A 
ATOM     17  C   UNL A   1      34.182  21.513  24.758  1.00  0.00     0.001 A 
ATOM     18  C   UNL A   1      33.250  22.468  24.349  1.00  0.00     0.009 A 
BRANCH  14  19
ATOM     19  C   UNL A   1      37.244  23.634  25.219  1.00  0.00     0.260 C 
ATOM     20  O   UNL A   1      37.641  24.034  26.304  1.00  0.00    -0.298 OA
ENDBRANCH  14  19
ENDBRANCH   7  13
ENDBRANCH   4   6
ENDBRANCH   3   4
ENDBRANCH   2   3
ENDBRANCH   1   2
BRANCH   1  21
ATOM     21  O   UNL A   1      33.875  28.830  27.598  1.00  0.00    -0.458 OA
BRANCH  21  22
ATOM     22  C   UNL A   1      34.369  30.030  27.974  1.00  0.00     0.338 C 
ATOM     23  O   UNL A   1      33.761  31.077  28.132  1.00  0.00    -0.246 OA
BRANCH  22  24
ATOM     24  C   UNL A   1      35.793  29.871  28.281  1.00  0.00     0.060 A 
ATOM     25  C   UNL A   1      36.711  30.090  27.257  1.00  0.00     0.016 A 
ATOM     26  C   UNL A   1      36.213  29.409  29.522  1.00  0.00     0.016 A 
ATOM     27  C   UNL A   1      38.051  29.771  27.438  1.00  0.00     0.010 A 
ATOM     28  C   UNL A   1      37.575  29.176  29.733  1.00  0.00     0.010 A 
ATOM     29  C   UNL A   1      38.505  29.326  28.685  1.00  0.00    -0.014 A 
BRANCH  29  30
ATOM     30  C   UNL A   1      39.941  28.991  28.894  1.00  0.00     0.031 A 
ATOM     31  C   UNL A   1      40.889  30.048  29.395  1.00  0.00     0.074 A 
ATOM     32  C   UNL A   1      40.399  27.752  28.628  1.00  0.00     0.049 A 
ATOM     33  N   UNL A   1      42.196  30.045  29.419  1.00  0.00    -0.248 NA
ATOM     34  C   UNL A   1      40.283  31.283  29.924  1.00  0.00     0.031 C 
ATOM     35  C   UNL A   1      39.580  26.617  28.194  1.00  0.00     0.029 A 
ATOM     36  N   UNL A   1      41.671  27.236  28.675  1.00  0.00    -0.354 N 
ATOM     37  C   UNL A   1      42.571  31.292  29.906  1.00  0.00     0.074 A 
ATOM     38  C   UNL A   1      41.353  32.028  30.166  1.00  0.00     0.031 C 
ATOM     39  C   UNL A   1      40.362  25.539  28.038  1.00  0.00     0.029 A 
ATOM     40  C   UNL A   1      41.749  25.927  28.262  1.00  0.00     0.049 A 
ATOM     41  H   UNL A   1      42.452  27.754  28.977  1.00  0.00     0.167 HD
ATOM     42  C   UNL A   1      43.820  31.775  30.112  1.00  0.00     0.037 A 
ATOM     43  C   UNL A   1      42.818  25.140  28.026  1.00  0.00     0.037 A 
ATOM     44  C   UNL A   1      45.020  31.009  29.897  1.00  0.00     0.049 A 
ATOM     45  C   UNL A   1      44.195  25.713  28.211  1.00  0.00     0.074 A 
ATOM     46  C   UNL A   1      46.335  31.395  30.093  1.00  0.00     0.029 A 
ATOM     47  N   UNL A   1      45.052  29.696  29.450  1.00  0.00    -0.354 N 
ATOM     48  N   UNL A   1      44.540  26.912  28.616  1.00  0.00    -0.248 NA
ATOM     49  C   UNL A   1      45.328  24.839  27.879  1.00  0.00     0.031 C 
ATOM     50  C   UNL A   1      47.163  30.329  29.727  1.00  0.00     0.029 A 
ATOM     51  C   UNL A   1      46.363  29.262  29.345  1.00  0.00     0.049 A 
ATOM     52  H   UNL A   1      44.259  29.152  29.239  1.00  0.00     0.167 HD
ATOM     53  C   UNL A   1      45.929  26.934  28.597  1.00  0.00     0.074 A 
ATOM     54  C   UNL A   1      46.362  25.622  28.158  1.00  0.00     0.031 C 
ATOM     55  C   UNL A   1      46.770  27.950  28.909  1.00  0.00     0.037 A 
BRANCH  42  56
ATOM     56  C   UNL A   1      43.956  33.207  30.556  1.00  0.00     0.058 A 
ATOM     57  C   UNL A   1      44.047  33.564  31.910  1.00  0.00     0.135 A 
ATOM     58  C   UNL A   1      44.034  34.236  29.603  1.00  0.00     0.135 A 
ATOM     59  F   UNL A   1      43.961  32.624  32.865  1.00  0.00    -0.206 F 
ATOM     60  C   UNL A   1      44.183  34.893  32.304  1.00  0.00     0.059 A 
ATOM     61  C   UNL A   1      44.197  35.568  29.972  1.00  0.00     0.059 A 
ATOM     62  F   UNL A   1      43.953  33.952  28.293  1.00  0.00    -0.206 F 
ATOM     63  C   UNL A   1      44.256  35.888  31.328  1.00  0.00     0.060 A 
BRANCH  63  64
ATOM     64  S   UNL A   1      44.436  37.606  31.854  1.00  0.00     0.124 S 
ATOM     65  O   UNL A   1      43.920  38.322  30.692  1.00  0.00    -0.237 OA
ATOM     66  O   UNL A   1      43.602  37.656  33.050  1.00  0.00    -0.237 OA
ATOM     67  O   UNL A   1      45.870  37.742  32.088  1.00  0.00    -0.744 OA
ENDBRANCH  63  64
ENDBRANCH  42  56
BRANCH  43  68
ATOM     68  C   UNL A   1      42.622  23.752  27.532  1.00  0.00     0.058 A 
ATOM     69  C   UNL A   1      42.636  23.463  26.160  1.00  0.00     0.135 A 
ATOM     70  C   UNL A   1      42.444  22.680  28.422  1.00  0.00     0.135 A 
ATOM     71  F   UNL A   1      42.790  24.454  25.267  1.00  0.00    -0.206 F 
ATOM     72  C   UNL A   1      42.477  22.164  25.687  1.00  0.00     0.059 A 
ATOM     73  C   UNL A   1      42.312  21.369  27.975  1.00  0.00     0.059 A 
ATOM     74  F   UNL A   1      42.433  22.899  29.747  1.00  0.00    -0.206 F 
ATOM     75  C   UNL A   1      42.321  21.122  26.604  1.00  0.00     0.060 A 
BRANCH  75  76
ATOM     76  S   UNL A   1      42.174  19.432  25.984  1.00  0.00     0.124 S 
ATOM     77  O   UNL A   1      43.039  19.475  24.810  1.00  0.00    -0.237 OA
ATOM     78  O   UNL A   1      42.666  18.647  27.112  1.00  0.00    -0.237 OA
ATOM     79  O   UNL A   1      40.746  19.298  25.712  1.00  0.00    -0.744 OA
ENDBRANCH  75  76
ENDBRANCH  43  68
BRANCH  55  80
ATOM     80  C   UNL A   1      48.244  27.677  28.810  1.00  0.00     0.058 A 
ATOM     81  C   UNL A   1      48.933  26.996  29.826  1.00  0.00     0.135 A 
ATOM     82  C   UNL A   1      48.960  28.044  27.660  1.00  0.00     0.135 A 
ATOM     83  F   UNL A   1      48.294  26.633  30.950  1.00  0.00    -0.206 F 
ATOM     84  C   UNL A   1      50.286  26.699  29.710  1.00  0.00     0.059 A 
ATOM     85  C   UNL A   1      50.308  27.737  27.512  1.00  0.00     0.059 A 
ATOM     86  F   UNL A   1      48.344  28.692  26.658  1.00  0.00    -0.206 F 
ATOM     87  C   UNL A   1      50.965  27.070  28.546  1.00  0.00     0.060 A 
BRANCH  87  88
ATOM     88  S   UNL A   1      52.709  26.634  28.387  1.00  0.00     0.124 S 
ATOM     89  O   UNL A   1      53.283  27.886  27.909  1.00  0.00    -0.237 OA
ATOM     90  O   UNL A   1      53.062  26.253  29.751  1.00  0.00    -0.237 OA
ATOM     91  O   UNL A   1      52.697  25.538  27.421  1.00  0.00    -0.744 OA
ENDBRANCH  87  88
ENDBRANCH  55  80
ENDBRANCH  29  30
ENDBRANCH  22  24
ENDBRANCH  21  22
ENDBRANCH   1  21
TORSDOF 16
ENDMDL
