MODEL 1
REMARK VINA RESULT:      -8.5      0.000      0.000
REMARK SMILES C[C@H](C(=O)OCCOC(=O)c1ccc(-c2c3nc(c(-c4c(F)cc(S(=O)(=O)[O-])cc4F)c4ccc([nH]4)c(-c4c(F)cc(S(=O)(=O)[O-])cc4F)c4nc(c(-c5c(F)cc(S(=O)(=O)[O-])cc5F)c5ccc2[nH]5)C=C4)C=C3)cc1)c1ccc(C[C@H]2CCC[C@@H]2O)cc1
REMARK SMILES IDX 6 1 5 2 3 3 4 4 2 5 1 6 77 7 78 8 89 9 79 10 88 11 80 12
REMARK SMILES IDX 81 13 82 14 83 15 86 16 84 17 85 18 87 19 7 21 8 22 9 23
REMARK SMILES IDX 10 24 11 25 12 26 76 27 13 28 75 29 14 30 15 31 16 32 69 33
REMARK SMILES IDX 17 34 74 35 68 36 70 37 18 38 73 39 67 40 66 41 19 43 53 44
REMARK SMILES IDX 32 45 52 46 33 47 36 48 51 49 71 50 34 51 35 52 50 54 72 55
REMARK SMILES IDX 37 56 20 57 21 58 30 59 22 60 23 61 29 62 31 63 24 64 25 65
REMARK SMILES IDX 26 66 27 67 28 68 54 69 55 70 64 71 56 72 57 73 63 74 65 75
REMARK SMILES IDX 58 76 59 77 60 78 61 79 62 80 38 81 39 82 48 83 40 84 41 85
REMARK SMILES IDX 47 86 49 87 42 88 43 89 44 90 45 91 46 92
REMARK H PARENT 87 20 70 42 36 53
REMARK Flexibility Score: inf
ROOT
ATOM      1  C   UNL A   1      34.285  33.608  29.452  1.00  0.00     0.274 C 
ENDROOT
BRANCH   1   2
ATOM      2  O   UNL A   1      34.730  32.886  30.617  1.00  0.00    -0.462 OA
BRANCH   2   3
ATOM      3  C   UNL A   1      36.067  32.856  30.864  1.00  0.00     0.313 C 
ATOM      4  O   UNL A   1      36.930  32.852  29.992  1.00  0.00    -0.252 OA
BRANCH   3   5
ATOM      5  C   UNL A   1      36.401  32.867  32.352  1.00  0.00     0.126 C 
ATOM      6  C   UNL A   1      35.159  32.903  33.243  1.00  0.00     0.025 C 
BRANCH   5   7
ATOM      7  C   UNL A   1      37.319  31.747  32.808  1.00  0.00    -0.034 A 
ATOM      8  C   UNL A   1      38.613  31.999  33.280  1.00  0.00     0.005 A 
ATOM      9  C   UNL A   1      36.915  30.416  32.625  1.00  0.00     0.005 A 
ATOM     10  C   UNL A   1      39.493  30.952  33.528  1.00  0.00     0.004 A 
ATOM     11  C   UNL A   1      37.815  29.371  32.828  1.00  0.00     0.004 A 
ATOM     12  C   UNL A   1      39.128  29.635  33.234  1.00  0.00    -0.048 A 
BRANCH  12  13
ATOM     13  C   UNL A   1      40.159  28.536  33.257  1.00  0.00     0.041 C 
BRANCH  13  14
ATOM     14  C   UNL A   1      41.622  29.014  33.347  1.00  0.00     0.022 C 
ATOM     15  C   UNL A   1      42.111  29.470  34.732  1.00  0.00     0.007 C 
ATOM     16  C   UNL A   1      42.684  28.005  32.901  1.00  0.00     0.117 C 
ATOM     17  C   UNL A   1      43.606  29.127  34.787  1.00  0.00     0.003 C 
ATOM     18  C   UNL A   1      43.973  28.645  33.391  1.00  0.00     0.032 C 
BRANCH  16  19
ATOM     19  O   UNL A   1      42.681  27.839  31.496  1.00  0.00    -0.393 OA
ATOM     20  H   UNL A   1      43.594  27.777  31.176  1.00  0.00     0.210 HD
ENDBRANCH  16  19
ENDBRANCH  13  14
ENDBRANCH  12  13
ENDBRANCH   5   7
ENDBRANCH   3   5
ENDBRANCH   2   3
ENDBRANCH   1   2
BRANCH   1  21
ATOM     21  C   UNL A   1      33.575  32.662  28.490  1.00  0.00     0.275 C 
BRANCH  21  22
ATOM     22  O   UNL A   1      34.556  31.979  27.695  1.00  0.00    -0.458 OA
BRANCH  22  23
ATOM     23  C   UNL A   1      34.482  30.630  27.712  1.00  0.00     0.338 C 
ATOM     24  O   UNL A   1      33.505  29.930  27.513  1.00  0.00    -0.246 OA
BRANCH  23  25
ATOM     25  C   UNL A   1      35.828  30.093  27.943  1.00  0.00     0.060 A 
ATOM     26  C   UNL A   1      36.124  29.549  29.191  1.00  0.00     0.016 A 
ATOM     27  C   UNL A   1      36.819  30.228  26.974  1.00  0.00     0.016 A 
ATOM     28  C   UNL A   1      37.436  29.227  29.516  1.00  0.00     0.010 A 
ATOM     29  C   UNL A   1      38.119  29.809  27.270  1.00  0.00     0.010 A 
ATOM     30  C   UNL A   1      38.447  29.336  28.554  1.00  0.00    -0.014 A 
BRANCH  30  31
ATOM     31  C   UNL A   1      39.849  28.979  28.897  1.00  0.00     0.031 A 
ATOM     32  C   UNL A   1      40.742  29.995  29.555  1.00  0.00     0.074 A 
ATOM     33  C   UNL A   1      40.318  27.746  28.623  1.00  0.00     0.049 A 
ATOM     34  N   UNL A   1      42.033  29.952  29.756  1.00  0.00    -0.248 NA
ATOM     35  C   UNL A   1      40.100  31.227  30.040  1.00  0.00     0.031 C 
ATOM     36  C   UNL A   1      39.541  26.654  28.031  1.00  0.00     0.029 A 
ATOM     37  N   UNL A   1      41.564  27.202  28.807  1.00  0.00    -0.354 N 
ATOM     38  C   UNL A   1      42.368  31.168  30.340  1.00  0.00     0.074 A 
ATOM     39  C   UNL A   1      41.143  31.928  30.464  1.00  0.00     0.031 C 
ATOM     40  C   UNL A   1      40.320  25.567  27.921  1.00  0.00     0.029 A 
ATOM     41  C   UNL A   1      41.669  25.907  28.358  1.00  0.00     0.049 A 
ATOM     42  H   UNL A   1      42.312  27.692  29.219  1.00  0.00     0.167 HD
ATOM     43  C   UNL A   1      43.588  31.609  30.730  1.00  0.00     0.037 A 
ATOM     44  C   UNL A   1      42.740  25.095  28.264  1.00  0.00     0.037 A 
ATOM     45  C   UNL A   1      44.794  30.827  30.644  1.00  0.00     0.049 A 
ATOM     46  C   UNL A   1      44.084  25.610  28.689  1.00  0.00     0.074 A 
ATOM     47  C   UNL A   1      46.082  31.183  31.005  1.00  0.00     0.029 A 
ATOM     48  N   UNL A   1      44.855  29.521  30.178  1.00  0.00    -0.354 N 
ATOM     49  N   UNL A   1      44.398  26.789  29.172  1.00  0.00    -0.248 NA
ATOM     50  C   UNL A   1      45.223  24.695  28.541  1.00  0.00     0.031 C 
ATOM     51  C   UNL A   1      46.925  30.097  30.739  1.00  0.00     0.029 A 
ATOM     52  C   UNL A   1      46.158  29.057  30.241  1.00  0.00     0.049 A 
ATOM     53  H   UNL A   1      44.086  29.002  29.851  1.00  0.00     0.167 HD
ATOM     54  C   UNL A   1      45.770  26.757  29.385  1.00  0.00     0.074 A 
ATOM     55  C   UNL A   1      46.224  25.436  29.000  1.00  0.00     0.031 C 
ATOM     56  C   UNL A   1      46.584  27.736  29.851  1.00  0.00     0.037 A 
BRANCH  43  57
ATOM     57  C   UNL A   1      43.682  33.014  31.253  1.00  0.00     0.058 A 
ATOM     58  C   UNL A   1      43.765  34.122  30.394  1.00  0.00     0.135 A 
ATOM     59  C   UNL A   1      43.673  33.257  32.636  1.00  0.00     0.135 A 
ATOM     60  F   UNL A   1      43.797  33.944  29.064  1.00  0.00    -0.206 F 
ATOM     61  C   UNL A   1      43.860  35.419  30.890  1.00  0.00     0.059 A 
ATOM     62  C   UNL A   1      43.747  34.547  33.153  1.00  0.00     0.059 A 
ATOM     63  F   UNL A   1      43.598  32.233  33.501  1.00  0.00    -0.206 F 
ATOM     64  C   UNL A   1      43.856  35.621  32.271  1.00  0.00     0.060 A 
BRANCH  64  65
ATOM     65  S   UNL A   1      43.988  37.307  32.904  1.00  0.00     0.124 S 
ATOM     66  O   UNL A   1      45.311  37.281  33.524  1.00  0.00    -0.237 OA
ATOM     67  O   UNL A   1      43.874  38.110  31.691  1.00  0.00    -0.237 OA
ATOM     68  O   UNL A   1      42.864  37.412  33.829  1.00  0.00    -0.744 OA
ENDBRANCH  64  65
ENDBRANCH  43  57
BRANCH  44  69
ATOM     69  C   UNL A   1      42.581  23.730  27.700  1.00  0.00     0.058 A 
ATOM     70  C   UNL A   1      42.614  23.511  26.316  1.00  0.00     0.135 A 
ATOM     71  C   UNL A   1      42.431  22.613  28.538  1.00  0.00     0.135 A 
ATOM     72  F   UNL A   1      42.746  24.549  25.476  1.00  0.00    -0.206 F 
ATOM     73  C   UNL A   1      42.503  22.233  25.779  1.00  0.00     0.059 A 
ATOM     74  C   UNL A   1      42.342  21.323  28.026  1.00  0.00     0.059 A 
ATOM     75  F   UNL A   1      42.408  22.770  29.870  1.00  0.00    -0.206 F 
ATOM     76  C   UNL A   1      42.371  21.144  26.644  1.00  0.00     0.060 A 
BRANCH  76  77
ATOM     77  S   UNL A   1      42.301  19.478  25.948  1.00  0.00     0.124 S 
ATOM     78  O   UNL A   1      40.877  19.342  25.661  1.00  0.00    -0.237 OA
ATOM     79  O   UNL A   1      43.177  19.588  24.786  1.00  0.00    -0.237 OA
ATOM     80  O   UNL A   1      42.812  18.644  27.031  1.00  0.00    -0.744 OA
ENDBRANCH  76  77
ENDBRANCH  44  69
BRANCH  56  81
ATOM     81  C   UNL A   1      48.041  27.405  29.984  1.00  0.00     0.058 A 
ATOM     82  C   UNL A   1      48.960  27.735  28.977  1.00  0.00     0.135 A 
ATOM     83  C   UNL A   1      48.527  26.785  31.145  1.00  0.00     0.135 A 
ATOM     84  F   UNL A   1      48.540  28.322  27.846  1.00  0.00    -0.206 F 
ATOM     85  C   UNL A   1      50.313  27.446  29.109  1.00  0.00     0.059 A 
ATOM     86  C   UNL A   1      49.879  26.502  31.306  1.00  0.00     0.059 A 
ATOM     87  F   UNL A   1      47.686  26.456  32.138  1.00  0.00    -0.206 F 
ATOM     88  C   UNL A   1      50.763  26.827  30.277  1.00  0.00     0.060 A 
BRANCH  88  89
ATOM     89  S   UNL A   1      52.526  26.480  30.455  1.00  0.00     0.124 S 
ATOM     90  O   UNL A   1      52.517  25.426  31.465  1.00  0.00    -0.237 OA
ATOM     91  O   UNL A   1      52.903  26.062  29.107  1.00  0.00    -0.237 OA
ATOM     92  O   UNL A   1      53.081  27.760  30.885  1.00  0.00    -0.744 OA
ENDBRANCH  88  89
ENDBRANCH  56  81
ENDBRANCH  30  31
ENDBRANCH  23  25
ENDBRANCH  22  23
ENDBRANCH  21  22
ENDBRANCH   1  21
TORSDOF 18
ENDMDL
MODEL 2
REMARK VINA RESULT:      -8.4      3.600      6.010
REMARK SMILES C[C@H](C(=O)OCCOC(=O)c1ccc(-c2c3nc(c(-c4c(F)cc(S(=O)(=O)[O-])cc4F)c4ccc([nH]4)c(-c4c(F)cc(S(=O)(=O)[O-])cc4F)c4nc(c(-c5c(F)cc(S(=O)(=O)[O-])cc5F)c5ccc2[nH]5)C=C4)C=C3)cc1)c1ccc(C[C@H]2CCC[C@@H]2O)cc1
REMARK SMILES IDX 6 1 5 2 3 3 4 4 2 5 1 6 77 7 78 8 89 9 79 10 88 11 80 12
REMARK SMILES IDX 81 13 82 14 83 15 86 16 84 17 85 18 87 19 7 21 8 22 9 23
REMARK SMILES IDX 10 24 11 25 12 26 76 27 13 28 75 29 14 30 15 31 16 32 69 33
REMARK SMILES IDX 17 34 74 35 68 36 70 37 18 38 73 39 67 40 66 41 19 43 53 44
REMARK SMILES IDX 32 45 52 46 33 47 36 48 51 49 71 50 34 51 35 52 50 54 72 55
REMARK SMILES IDX 37 56 20 57 21 58 30 59 22 60 23 61 29 62 31 63 24 64 25 65
REMARK SMILES IDX 26 66 27 67 28 68 54 69 55 70 64 71 56 72 57 73 63 74 65 75
REMARK SMILES IDX 58 76 59 77 60 78 61 79 62 80 38 81 39 82 48 83 40 84 41 85
REMARK SMILES IDX 47 86 49 87 42 88 43 89 44 90 45 91 46 92
REMARK H PARENT 87 20 70 42 36 53
REMARK Flexibility Score: inf
ROOT
ATOM      1  C   UNL A   1      33.905  29.268  27.256  1.00  0.00     0.274 C 
ENDROOT
BRANCH   1   2
ATOM      2  O   UNL A   1      32.590  29.251  26.664  1.00  0.00    -0.462 OA
BRANCH   2   3
ATOM      3  C   UNL A   1      31.793  28.183  26.938  1.00  0.00     0.313 C 
ATOM      4  O   UNL A   1      31.384  27.896  28.058  1.00  0.00    -0.252 OA
BRANCH   3   5
ATOM      5  C   UNL A   1      31.416  27.384  25.695  1.00  0.00     0.126 C 
ATOM      6  C   UNL A   1      31.184  28.264  24.466  1.00  0.00     0.025 C 
BRANCH   5   7
ATOM      7  C   UNL A   1      32.377  26.264  25.341  1.00  0.00    -0.034 A 
ATOM      8  C   UNL A   1      33.236  26.348  24.237  1.00  0.00     0.005 A 
ATOM      9  C   UNL A   1      32.311  25.057  26.052  1.00  0.00     0.005 A 
ATOM     10  C   UNL A   1      33.980  25.245  23.833  1.00  0.00     0.004 A 
ATOM     11  C   UNL A   1      33.021  23.940  25.616  1.00  0.00     0.004 A 
ATOM     12  C   UNL A   1      33.824  24.013  24.472  1.00  0.00    -0.048 A 
BRANCH  12  13
ATOM     13  C   UNL A   1      34.428  22.766  23.878  1.00  0.00     0.041 C 
BRANCH  13  14
ATOM     14  C   UNL A   1      35.555  22.124  24.713  1.00  0.00     0.022 C 
ATOM     15  C   UNL A   1      35.460  20.607  24.942  1.00  0.00     0.007 C 
ATOM     16  C   UNL A   1      36.977  22.323  24.182  1.00  0.00     0.117 C 
ATOM     17  C   UNL A   1      36.906  20.101  25.032  1.00  0.00     0.003 C 
ATOM     18  C   UNL A   1      37.782  21.345  25.022  1.00  0.00     0.032 C 
BRANCH  16  19
ATOM     19  O   UNL A   1      37.415  23.657  24.364  1.00  0.00    -0.393 OA
ATOM     20  H   UNL A   1      38.118  23.855  23.725  1.00  0.00     0.210 HD
ENDBRANCH  16  19
ENDBRANCH  13  14
ENDBRANCH  12  13
ENDBRANCH   5   7
ENDBRANCH   3   5
ENDBRANCH   2   3
ENDBRANCH   1   2
BRANCH   1  21
ATOM     21  C   UNL A   1      34.272  30.688  27.671  1.00  0.00     0.275 C 
BRANCH  21  22
ATOM     22  O   UNL A   1      35.703  30.814  27.693  1.00  0.00    -0.458 OA
BRANCH  22  23
ATOM     23  C   UNL A   1      36.277  30.702  28.911  1.00  0.00     0.338 C 
ATOM     24  O   UNL A   1      35.740  30.763  30.002  1.00  0.00    -0.246 OA
BRANCH  23  25
ATOM     25  C   UNL A   1      37.703  30.407  28.727  1.00  0.00     0.060 A 
ATOM     26  C   UNL A   1      38.122  29.871  27.511  1.00  0.00     0.016 A 
ATOM     27  C   UNL A   1      38.598  30.553  29.784  1.00  0.00     0.016 A 
ATOM     28  C   UNL A   1      39.416  29.384  27.374  1.00  0.00     0.010 A 
ATOM     29  C   UNL A   1      39.926  30.155  29.609  1.00  0.00     0.010 A 
ATOM     30  C   UNL A   1      40.339  29.536  28.415  1.00  0.00    -0.014 A 
BRANCH  30  31
ATOM     31  C   UNL A   1      41.728  29.028  28.265  1.00  0.00     0.031 A 
ATOM     32  C   UNL A   1      42.890  29.978  28.367  1.00  0.00     0.074 A 
ATOM     33  C   UNL A   1      41.948  27.717  28.041  1.00  0.00     0.049 A 
ATOM     34  N   UNL A   1      44.149  29.778  28.078  1.00  0.00    -0.248 NA
ATOM     35  C   UNL A   1      42.594  31.337  28.849  1.00  0.00     0.031 C 
ATOM     36  C   UNL A   1      40.912  26.684  27.967  1.00  0.00     0.029 A 
ATOM     37  N   UNL A   1      43.117  27.029  27.834  1.00  0.00    -0.354 N 
ATOM     38  C   UNL A   1      44.786  30.995  28.288  1.00  0.00     0.074 A 
ATOM     39  C   UNL A   1      43.775  31.929  28.734  1.00  0.00     0.031 C 
ATOM     40  C   UNL A   1      41.492  25.493  27.754  1.00  0.00     0.029 A 
ATOM     41  C   UNL A   1      42.928  25.688  27.596  1.00  0.00     0.049 A 
ATOM     42  H   UNL A   1      44.004  27.454  27.853  1.00  0.00     0.167 HD
ATOM     43  C   UNL A   1      46.095  31.302  28.120  1.00  0.00     0.037 A 
ATOM     44  C   UNL A   1      43.805  24.728  27.245  1.00  0.00     0.037 A 
ATOM     45  C   UNL A   1      47.101  30.353  27.720  1.00  0.00     0.049 A 
ATOM     46  C   UNL A   1      45.247  25.095  27.049  1.00  0.00     0.074 A 
ATOM     47  C   UNL A   1      48.453  30.564  27.513  1.00  0.00     0.029 A 
ATOM     48  N   UNL A   1      46.865  29.006  27.484  1.00  0.00    -0.354 N 
ATOM     49  N   UNL A   1      45.823  26.266  27.181  1.00  0.00    -0.248 NA
ATOM     50  C   UNL A   1      46.157  24.017  26.639  1.00  0.00     0.031 C 
ATOM     51  C   UNL A   1      49.031  29.347  27.132  1.00  0.00     0.029 A 
ATOM     52  C   UNL A   1      48.046  28.373  27.133  1.00  0.00     0.049 A 
ATOM     53  H   UNL A   1      45.988  28.566  27.556  1.00  0.00     0.167 HD
ATOM     54  C   UNL A   1      47.162  26.067  26.871  1.00  0.00     0.074 A 
ATOM     55  C   UNL A   1      47.316  24.658  26.565  1.00  0.00     0.031 C 
ATOM     56  C   UNL A   1      48.173  26.969  26.834  1.00  0.00     0.037 A 
BRANCH  43  57
ATOM     57  C   UNL A   1      46.504  32.732  28.333  1.00  0.00     0.058 A 
ATOM     58  C   UNL A   1      46.979  33.192  29.571  1.00  0.00     0.135 A 
ATOM     59  C   UNL A   1      46.434  33.653  27.275  1.00  0.00     0.135 A 
ATOM     60  F   UNL A   1      47.047  32.357  30.621  1.00  0.00    -0.206 F 
ATOM     61  C   UNL A   1      47.347  34.521  29.760  1.00  0.00     0.059 A 
ATOM     62  C   UNL A   1      46.816  34.982  27.436  1.00  0.00     0.059 A 
ATOM     63  F   UNL A   1      45.984  33.266  26.071  1.00  0.00    -0.206 F 
ATOM     64  C   UNL A   1      47.257  35.410  28.687  1.00  0.00     0.060 A 
BRANCH  64  65
ATOM     65  S   UNL A   1      47.730  37.134  28.944  1.00  0.00     0.124 S 
ATOM     66  O   UNL A   1      46.489  37.827  28.608  1.00  0.00    -0.237 OA
ATOM     67  O   UNL A   1      48.103  37.153  30.354  1.00  0.00    -0.237 OA
ATOM     68  O   UNL A   1      48.830  37.327  28.005  1.00  0.00    -0.744 OA
ENDBRANCH  64  65
ENDBRANCH  43  57
BRANCH  44  69
ATOM     69  C   UNL A   1      43.324  23.342  27.012  1.00  0.00     0.058 A 
ATOM     70  C   UNL A   1      43.140  22.850  25.712  1.00  0.00     0.135 A 
ATOM     71  C   UNL A   1      43.077  22.471  28.084  1.00  0.00     0.135 A 
ATOM     72  F   UNL A   1      43.355  23.649  24.656  1.00  0.00    -0.206 F 
ATOM     73  C   UNL A   1      42.725  21.542  25.482  1.00  0.00     0.059 A 
ATOM     74  C   UNL A   1      42.685  21.152  27.879  1.00  0.00     0.059 A 
ATOM     75  F   UNL A   1      43.253  22.891  29.346  1.00  0.00    -0.206 F 
ATOM     76  C   UNL A   1      42.504  20.699  26.573  1.00  0.00     0.060 A 
BRANCH  76  77
ATOM     77  S   UNL A   1      42.036  18.981  26.270  1.00  0.00     0.124 S 
ATOM     78  O   UNL A   1      42.248  18.385  27.585  1.00  0.00    -0.237 OA
ATOM     79  O   UNL A   1      40.647  19.106  25.843  1.00  0.00    -0.237 OA
ATOM     80  O   UNL A   1      42.969  18.562  25.228  1.00  0.00    -0.744 OA
ENDBRANCH  76  77
ENDBRANCH  44  69
BRANCH  56  81
ATOM     81  C   UNL A   1      49.533  26.454  26.467  1.00  0.00     0.058 A 
ATOM     82  C   UNL A   1      49.984  26.461  25.139  1.00  0.00     0.135 A 
ATOM     83  C   UNL A   1      50.407  25.983  27.459  1.00  0.00     0.135 A 
ATOM     84  F   UNL A   1      49.181  26.896  24.156  1.00  0.00    -0.206 F 
ATOM     85  C   UNL A   1      51.252  26.003  24.802  1.00  0.00     0.059 A 
ATOM     86  C   UNL A   1      51.686  25.535  27.147  1.00  0.00     0.059 A 
ATOM     87  F   UNL A   1      50.022  25.962  28.745  1.00  0.00    -0.206 F 
ATOM     88  C   UNL A   1      52.096  25.539  25.814  1.00  0.00     0.060 A 
BRANCH  88  89
ATOM     89  S   UNL A   1      53.752  24.970  25.374  1.00  0.00     0.124 S 
ATOM     90  O   UNL A   1      54.493  25.252  26.598  1.00  0.00    -0.237 OA
ATOM     91  O   UNL A   1      53.532  23.558  25.077  1.00  0.00    -0.237 OA
ATOM     92  O   UNL A   1      54.098  25.798  24.222  1.00  0.00    -0.744 OA
ENDBRANCH  88  89
ENDBRANCH  56  81
ENDBRANCH  30  31
ENDBRANCH  23  25
ENDBRANCH  22  23
ENDBRANCH  21  22
ENDBRANCH   1  21
TORSDOF 18
ENDMDL
MODEL 3
REMARK VINA RESULT:      -8.3      3.274     10.966
REMARK SMILES C[C@H](C(=O)OCCOC(=O)c1ccc(-c2c3nc(c(-c4c(F)cc(S(=O)(=O)[O-])cc4F)c4ccc([nH]4)c(-c4c(F)cc(S(=O)(=O)[O-])cc4F)c4nc(c(-c5c(F)cc(S(=O)(=O)[O-])cc5F)c5ccc2[nH]5)C=C4)C=C3)cc1)c1ccc(C[C@H]2CCC[C@@H]2O)cc1
REMARK SMILES IDX 6 1 5 2 3 3 4 4 2 5 1 6 77 7 78 8 89 9 79 10 88 11 80 12
REMARK SMILES IDX 81 13 82 14 83 15 86 16 84 17 85 18 87 19 7 21 8 22 9 23
REMARK SMILES IDX 10 24 11 25 12 26 76 27 13 28 75 29 14 30 15 31 16 32 69 33
REMARK SMILES IDX 17 34 74 35 68 36 70 37 18 38 73 39 67 40 66 41 19 43 53 44
REMARK SMILES IDX 32 45 52 46 33 47 36 48 51 49 71 50 34 51 35 52 50 54 72 55
REMARK SMILES IDX 37 56 20 57 21 58 30 59 22 60 23 61 29 62 31 63 24 64 25 65
REMARK SMILES IDX 26 66 27 67 28 68 54 69 55 70 64 71 56 72 57 73 63 74 65 75
REMARK SMILES IDX 58 76 59 77 60 78 61 79 62 80 38 81 39 82 48 83 40 84 41 85
REMARK SMILES IDX 47 86 49 87 42 88 43 89 44 90 45 91 46 92
REMARK H PARENT 87 20 70 42 36 53
REMARK Flexibility Score: inf
ROOT
ATOM      1  C   UNL A   1      41.032  19.935  26.289  1.00  0.00     0.274 C 
ENDROOT
BRANCH   1   2
ATOM      2  O   UNL A   1      42.188  20.340  25.529  1.00  0.00    -0.462 OA
BRANCH   2   3
ATOM      3  C   UNL A   1      43.243  19.482  25.489  1.00  0.00     0.313 C 
ATOM      4  O   UNL A   1      43.146  18.263  25.581  1.00  0.00    -0.252 OA
BRANCH   3   5
ATOM      5  C   UNL A   1      44.578  20.187  25.273  1.00  0.00     0.126 C 
ATOM      6  C   UNL A   1      45.240  19.822  23.945  1.00  0.00     0.025 C 
BRANCH   5   7
ATOM      7  C   UNL A   1      44.532  21.698  25.417  1.00  0.00    -0.034 A 
ATOM      8  C   UNL A   1      44.173  22.531  24.350  1.00  0.00     0.005 A 
ATOM      9  C   UNL A   1      44.992  22.285  26.606  1.00  0.00     0.005 A 
ATOM     10  C   UNL A   1      44.304  23.911  24.454  1.00  0.00     0.004 A 
ATOM     11  C   UNL A   1      45.168  23.665  26.689  1.00  0.00     0.004 A 
ATOM     12  C   UNL A   1      44.872  24.485  25.595  1.00  0.00    -0.048 A 
BRANCH  12  13
ATOM     13  C   UNL A   1      45.250  25.944  25.605  1.00  0.00     0.041 C 
BRANCH  13  14
ATOM     14  C   UNL A   1      44.216  26.883  26.256  1.00  0.00     0.022 C 
ATOM     15  C   UNL A   1      44.723  27.773  27.403  1.00  0.00     0.007 C 
ATOM     16  C   UNL A   1      43.520  27.868  25.313  1.00  0.00     0.117 C 
ATOM     17  C   UNL A   1      43.892  29.061  27.339  1.00  0.00     0.003 C 
ATOM     18  C   UNL A   1      42.828  28.817  26.279  1.00  0.00     0.032 C 
BRANCH  16  19
ATOM     19  O   UNL A   1      42.594  27.210  24.469  1.00  0.00    -0.393 OA
ATOM     20  H   UNL A   1      41.705  27.564  24.627  1.00  0.00     0.210 HD
ENDBRANCH  16  19
ENDBRANCH  13  14
ENDBRANCH  12  13
ENDBRANCH   5   7
ENDBRANCH   3   5
ENDBRANCH   2   3
ENDBRANCH   1   2
BRANCH   1  21
ATOM     21  C   UNL A   1      40.404  21.146  26.970  1.00  0.00     0.275 C 
BRANCH  21  22
ATOM     22  O   UNL A   1      40.349  22.234  26.033  1.00  0.00    -0.458 OA
BRANCH  22  23
ATOM     23  C   UNL A   1      39.189  22.928  26.017  1.00  0.00     0.338 C 
ATOM     24  O   UNL A   1      38.127  22.602  25.520  1.00  0.00    -0.246 OA
BRANCH  23  25
ATOM     25  C   UNL A   1      39.376  24.164  26.786  1.00  0.00     0.060 A 
ATOM     26  C   UNL A   1      40.270  25.119  26.306  1.00  0.00     0.016 A 
ATOM     27  C   UNL A   1      38.762  24.326  28.025  1.00  0.00     0.016 A 
ATOM     28  C   UNL A   1      40.632  26.196  27.106  1.00  0.00     0.010 A 
ATOM     29  C   UNL A   1      39.052  25.463  28.783  1.00  0.00     0.010 A 
ATOM     30  C   UNL A   1      40.014  26.392  28.346  1.00  0.00    -0.014 A 
BRANCH  30  31
ATOM     31  C   UNL A   1      40.391  27.552  29.196  1.00  0.00     0.031 A 
ATOM     32  C   UNL A   1      41.677  27.525  29.976  1.00  0.00     0.074 A 
ATOM     33  C   UNL A   1      39.584  28.629  29.265  1.00  0.00     0.049 A 
ATOM     34  N   UNL A   1      42.091  28.336  30.914  1.00  0.00    -0.248 NA
ATOM     35  C   UNL A   1      42.616  26.434  29.668  1.00  0.00     0.031 C 
ATOM     36  C   UNL A   1      38.333  28.802  28.522  1.00  0.00     0.029 A 
ATOM     37  N   UNL A   1      39.696  29.785  29.997  1.00  0.00    -0.354 N 
ATOM     38  C   UNL A   1      43.310  27.826  31.347  1.00  0.00     0.074 A 
ATOM     39  C   UNL A   1      43.571  26.635  30.566  1.00  0.00     0.031 C 
ATOM     40  C   UNL A   1      37.806  29.999  28.819  1.00  0.00     0.029 A 
ATOM     41  C   UNL A   1      38.635  30.644  29.830  1.00  0.00     0.049 A 
ATOM     42  H   UNL A   1      40.460  29.979  30.585  1.00  0.00     0.167 HD
ATOM     43  C   UNL A   1      44.131  28.307  32.310  1.00  0.00     0.037 A 
ATOM     44  C   UNL A   1      38.337  31.801  30.452  1.00  0.00     0.037 A 
ATOM     45  C   UNL A   1      43.885  29.517  33.050  1.00  0.00     0.049 A 
ATOM     46  C   UNL A   1      39.255  32.307  31.527  1.00  0.00     0.074 A 
ATOM     47  C   UNL A   1      44.649  30.088  34.053  1.00  0.00     0.029 A 
ATOM     48  N   UNL A   1      42.795  30.355  32.852  1.00  0.00    -0.354 N 
ATOM     49  N   UNL A   1      40.366  31.775  31.977  1.00  0.00    -0.248 NA
ATOM     50  C   UNL A   1      38.869  33.557  32.194  1.00  0.00     0.031 C 
ATOM     51  C   UNL A   1      44.011  31.261  34.474  1.00  0.00     0.029 A 
ATOM     52  C   UNL A   1      42.867  31.436  33.714  1.00  0.00     0.049 A 
ATOM     53  H   UNL A   1      42.078  30.201  32.195  1.00  0.00     0.167 HD
ATOM     54  C   UNL A   1      40.814  32.627  32.978  1.00  0.00     0.074 A 
ATOM     55  C   UNL A   1      39.865  33.719  33.055  1.00  0.00     0.031 C 
ATOM     56  C   UNL A   1      41.909  32.511  33.770  1.00  0.00     0.037 A 
BRANCH  43  57
ATOM     57  C   UNL A   1      45.355  27.501  32.644  1.00  0.00     0.058 A 
ATOM     58  C   UNL A   1      46.588  27.728  32.013  1.00  0.00     0.135 A 
ATOM     59  C   UNL A   1      45.295  26.496  33.623  1.00  0.00     0.135 A 
ATOM     60  F   UNL A   1      46.695  28.664  31.056  1.00  0.00    -0.206 F 
ATOM     61  C   UNL A   1      47.713  26.970  32.324  1.00  0.00     0.059 A 
ATOM     62  C   UNL A   1      46.412  25.740  33.964  1.00  0.00     0.059 A 
ATOM     63  F   UNL A   1      44.139  26.237  34.255  1.00  0.00    -0.206 F 
ATOM     64  C   UNL A   1      47.614  25.974  33.297  1.00  0.00     0.060 A 
BRANCH  64  65
ATOM     65  S   UNL A   1      49.077  24.990  33.688  1.00  0.00     0.124 S 
ATOM     66  O   UNL A   1      48.475  23.788  34.258  1.00  0.00    -0.237 OA
ATOM     67  O   UNL A   1      49.705  24.824  32.381  1.00  0.00    -0.237 OA
ATOM     68  O   UNL A   1      49.810  25.832  34.628  1.00  0.00    -0.744 OA
ENDBRANCH  64  65
ENDBRANCH  43  57
BRANCH  44  69
ATOM     69  C   UNL A   1      37.090  32.526  30.100  1.00  0.00     0.058 A 
ATOM     70  C   UNL A   1      35.896  32.291  30.797  1.00  0.00     0.135 A 
ATOM     71  C   UNL A   1      37.077  33.495  29.084  1.00  0.00     0.135 A 
ATOM     72  F   UNL A   1      35.858  31.368  31.770  1.00  0.00    -0.206 F 
ATOM     73  C   UNL A   1      34.731  32.990  30.499  1.00  0.00     0.059 A 
ATOM     74  C   UNL A   1      35.931  34.224  28.784  1.00  0.00     0.059 A 
ATOM     75  F   UNL A   1      38.198  33.765  28.398  1.00  0.00    -0.206 F 
ATOM     76  C   UNL A   1      34.760  33.959  29.493  1.00  0.00     0.060 A 
BRANCH  76  77
ATOM     77  S   UNL A   1      33.266  34.917  29.158  1.00  0.00     0.124 S 
ATOM     78  O   UNL A   1      33.827  36.191  28.722  1.00  0.00    -0.237 OA
ATOM     79  O   UNL A   1      32.610  34.122  28.125  1.00  0.00    -0.237 OA
ATOM     80  O   UNL A   1      32.586  34.933  30.450  1.00  0.00    -0.744 OA
ENDBRANCH  76  77
ENDBRANCH  44  69
BRANCH  56  81
ATOM     81  C   UNL A   1      42.144  33.603  34.771  1.00  0.00     0.058 A 
ATOM     82  C   UNL A   1      41.690  33.492  36.095  1.00  0.00     0.135 A 
ATOM     83  C   UNL A   1      42.861  34.755  34.414  1.00  0.00     0.135 A 
ATOM     84  F   UNL A   1      40.993  32.412  36.480  1.00  0.00    -0.206 F 
ATOM     85  C   UNL A   1      41.925  34.495  37.027  1.00  0.00     0.059 A 
ATOM     86  C   UNL A   1      43.123  35.763  35.335  1.00  0.00     0.059 A 
ATOM     87  F   UNL A   1      43.320  34.904  33.161  1.00  0.00    -0.206 F 
ATOM     88  C   UNL A   1      42.641  35.629  36.637  1.00  0.00     0.060 A 
BRANCH  88  89
ATOM     89  S   UNL A   1      42.967  36.915  37.861  1.00  0.00     0.124 S 
ATOM     90  O   UNL A   1      41.617  37.253  38.299  1.00  0.00    -0.237 OA
ATOM     91  O   UNL A   1      43.795  36.217  38.841  1.00  0.00    -0.237 OA
ATOM     92  O   UNL A   1      43.657  37.946  37.091  1.00  0.00    -0.744 OA
ENDBRANCH  88  89
ENDBRANCH  56  81
ENDBRANCH  30  31
ENDBRANCH  23  25
ENDBRANCH  22  23
ENDBRANCH  21  22
ENDBRANCH   1  21
TORSDOF 18
ENDMDL
