MODEL 1
REMARK VINA RESULT:     -13.2      0.000      0.000
REMARK SMILES Cc1ccccc1[C@@H](Cc1c(Cl)cccc1Cl)C(=O)OCCOC(=O)c1ccc(-c2c3nc(c(-c4c(F)cc(S(=O)(=O)[O-])cc4F)c4ccc([nH]4)c(-c4c(F)cc(S(=O)(=O)[O-])cc4F)c4nc(c(-c5c(F)cc(S(=O)(=O)[O-])cc5F)c5ccc2[nH]5)C=C4)C=C3)cc1
REMARK SMILES IDX 22 1 21 2 20 3 18 4 19 5 8 6 7 7 1 8 2 9 3 10 4 11 6 12 5 13
REMARK SMILES IDX 9 14 10 15 11 16 16 17 12 18 13 19 15 20 17 21 14 22 23 23
REMARK SMILES IDX 24 24 25 25 26 26 27 27 91 28 28 29 90 30 29 31 30 32 31 33
REMARK SMILES IDX 84 34 32 35 89 36 83 37 85 38 33 39 88 40 82 41 81 42 34 44
REMARK SMILES IDX 68 45 47 46 67 47 48 48 51 49 66 50 86 51 49 52 50 53 65 55
REMARK SMILES IDX 87 56 52 57 35 58 36 59 45 60 37 61 38 62 44 63 46 64 39 65
REMARK SMILES IDX 40 66 41 67 42 68 43 69 69 70 70 71 79 72 71 73 72 74 78 75
REMARK SMILES IDX 80 76 73 77 74 78 75 79 76 80 77 81 53 82 54 83 63 84 55 85
REMARK SMILES IDX 56 86 62 87 64 88 57 89 58 90 59 91 60 92 61 93
REMARK H PARENT 85 43 51 54
REMARK Flexibility Score: inf
ROOT
ATOM      1  C   UNL A   1      34.515  30.934  27.690  1.00  0.00     0.275 C 
ENDROOT
BRANCH   1   2
ATOM      2  C   UNL A   1      34.372  29.415  27.447  1.00  0.00     0.274 C 
BRANCH   2   3
ATOM      3  O   UNL A   1      33.646  29.079  26.262  1.00  0.00    -0.462 OA
BRANCH   3   4
ATOM      4  C   UNL A   1      32.371  28.608  26.443  1.00  0.00     0.313 C 
ATOM      5  O   UNL A   1      31.585  29.106  27.239  1.00  0.00    -0.252 OA
BRANCH   4   6
ATOM      6  C   UNL A   1      32.205  27.221  25.764  1.00  0.00     0.134 C 
BRANCH   6   7
ATOM      7  C   UNL A   1      31.308  27.545  24.548  1.00  0.00    -0.031 A 
ATOM      8  C   UNL A   1      29.914  25.400  24.730  1.00  0.00     0.044 C 
ATOM      9  C   UNL A   1      30.160  26.796  24.242  1.00  0.00    -0.047 A 
ATOM     10  C   UNL A   1      29.147  27.402  23.482  1.00  0.00     0.004 A 
ATOM     11  C   UNL A   1      29.277  28.707  23.004  1.00  0.00     0.000 A 
ATOM     12  C   UNL A   1      31.489  28.803  23.920  1.00  0.00     0.005 A 
ATOM     13  C   UNL A   1      30.463  29.398  23.198  1.00  0.00     0.000 A 
ENDBRANCH   6   7
BRANCH   6  14
ATOM     14  C   UNL A   1      33.510  26.467  25.343  1.00  0.00     0.058 C 
BRANCH  14  15
ATOM     15  C   UNL A   1      33.483  25.073  24.685  1.00  0.00    -0.010 A 
ATOM     16  C   UNL A   1      33.646  24.920  23.287  1.00  0.00     0.045 A 
ATOM     17  C   UNL A   1      33.172  23.879  25.370  1.00  0.00     0.045 A 
ATOM     18  Cl  UNL A   1      33.641  26.276  22.206  1.00  0.00    -0.084 Cl
ATOM     19  C   UNL A   1      33.735  23.656  22.670  1.00  0.00     0.021 A 
ATOM     20  C   UNL A   1      33.271  22.612  24.758  1.00  0.00     0.021 A 
ATOM     21  Cl  UNL A   1      32.541  23.854  26.973  1.00  0.00    -0.084 Cl
ATOM     22  C   UNL A   1      33.604  22.496  23.417  1.00  0.00     0.003 A 
ENDBRANCH  14  15
ENDBRANCH   6  14
ENDBRANCH   4   6
ENDBRANCH   3   4
ENDBRANCH   2   3
ENDBRANCH   1   2
BRANCH   1  23
ATOM     23  O   UNL A   1      35.739  31.464  28.268  1.00  0.00    -0.458 OA
BRANCH  23  24
ATOM     24  C   UNL A   1      36.430  30.944  29.323  1.00  0.00     0.338 C 
ATOM     25  O   UNL A   1      36.118  31.257  30.474  1.00  0.00    -0.246 OA
BRANCH  24  26
ATOM     26  C   UNL A   1      37.424  29.891  28.999  1.00  0.00     0.060 A 
ATOM     27  C   UNL A   1      38.239  30.036  27.870  1.00  0.00     0.016 A 
ATOM     28  C   UNL A   1      37.750  28.953  29.969  1.00  0.00     0.016 A 
ATOM     29  C   UNL A   1      39.492  29.417  27.845  1.00  0.00     0.010 A 
ATOM     30  C   UNL A   1      39.050  28.494  30.028  1.00  0.00     0.010 A 
ATOM     31  C   UNL A   1      39.946  28.738  28.974  1.00  0.00    -0.014 A 
BRANCH  31  32
ATOM     32  C   UNL A   1      41.175  27.941  29.032  1.00  0.00     0.031 A 
ATOM     33  C   UNL A   1      41.348  26.544  28.581  1.00  0.00     0.074 A 
ATOM     34  C   UNL A   1      42.213  28.679  29.472  1.00  0.00     0.049 A 
ATOM     35  N   UNL A   1      42.416  25.844  28.757  1.00  0.00    -0.248 NA
ATOM     36  C   UNL A   1      40.331  25.785  27.886  1.00  0.00     0.031 C 
ATOM     37  C   UNL A   1      43.631  28.403  29.524  1.00  0.00     0.029 A 
ATOM     38  N   UNL A   1      42.062  29.848  30.219  1.00  0.00    -0.354 N 
ATOM     39  C   UNL A   1      42.298  24.646  28.070  1.00  0.00     0.074 A 
ATOM     40  C   UNL A   1      40.969  24.664  27.531  1.00  0.00     0.031 C 
ATOM     41  C   UNL A   1      44.160  29.165  30.502  1.00  0.00     0.029 A 
ATOM     42  C   UNL A   1      43.058  29.838  31.187  1.00  0.00     0.049 A 
ATOM     43  H   UNL A   1      41.380  30.546  30.086  1.00  0.00     0.167 HD
ATOM     44  C   UNL A   1      43.380  23.815  28.009  1.00  0.00     0.037 A 
ATOM     45  C   UNL A   1      42.634  29.617  32.469  1.00  0.00     0.037 A 
ATOM     46  C   UNL A   1      44.380  24.277  28.973  1.00  0.00     0.049 A 
ATOM     47  C   UNL A   1      43.078  28.254  32.981  1.00  0.00     0.074 A 
ATOM     48  C   UNL A   1      45.464  25.135  28.896  1.00  0.00     0.029 A 
ATOM     49  N   UNL A   1      44.065  24.182  30.318  1.00  0.00    -0.354 N 
ATOM     50  N   UNL A   1      43.533  27.285  32.226  1.00  0.00    -0.248 NA
ATOM     51  C   UNL A   1      43.029  27.876  34.388  1.00  0.00     0.031 C 
ATOM     52  C   UNL A   1      45.720  25.633  30.212  1.00  0.00     0.029 A 
ATOM     53  C   UNL A   1      44.823  25.044  31.088  1.00  0.00     0.049 A 
ATOM     54  H   UNL A   1      43.383  23.573  30.682  1.00  0.00     0.167 HD
ATOM     55  C   UNL A   1      43.918  26.230  33.006  1.00  0.00     0.074 A 
ATOM     56  C   UNL A   1      43.516  26.624  34.348  1.00  0.00     0.031 C 
ATOM     57  C   UNL A   1      44.562  25.123  32.521  1.00  0.00     0.037 A 
BRANCH  44  58
ATOM     58  C   UNL A   1      43.623  22.724  26.974  1.00  0.00     0.058 A 
ATOM     59  C   UNL A   1      42.767  21.599  26.931  1.00  0.00     0.135 A 
ATOM     60  C   UNL A   1      44.709  22.651  26.075  1.00  0.00     0.135 A 
ATOM     61  F   UNL A   1      41.645  21.550  27.665  1.00  0.00    -0.206 F 
ATOM     62  C   UNL A   1      43.028  20.458  26.160  1.00  0.00     0.059 A 
ATOM     63  C   UNL A   1      45.012  21.508  25.316  1.00  0.00     0.059 A 
ATOM     64  F   UNL A   1      45.512  23.697  25.856  1.00  0.00    -0.206 F 
ATOM     65  C   UNL A   1      44.178  20.402  25.386  1.00  0.00     0.060 A 
BRANCH  65  66
ATOM     66  S   UNL A   1      44.568  18.876  24.504  1.00  0.00     0.124 S 
ATOM     67  O   UNL A   1      45.921  18.590  24.971  1.00  0.00    -0.237 OA
ATOM     68  O   UNL A   1      43.529  17.969  24.979  1.00  0.00    -0.237 OA
ATOM     69  O   UNL A   1      44.467  19.256  23.097  1.00  0.00    -0.744 OA
ENDBRANCH  65  66
ENDBRANCH  44  58
BRANCH  45  70
ATOM     70  C   UNL A   1      41.340  30.330  32.812  1.00  0.00     0.058 A 
ATOM     71  C   UNL A   1      40.203  29.551  33.157  1.00  0.00     0.135 A 
ATOM     72  C   UNL A   1      41.235  31.704  33.063  1.00  0.00     0.135 A 
ATOM     73  F   UNL A   1      40.200  28.223  32.936  1.00  0.00    -0.206 F 
ATOM     74  C   UNL A   1      39.103  30.074  33.833  1.00  0.00     0.059 A 
ATOM     75  C   UNL A   1      40.120  32.261  33.712  1.00  0.00     0.059 A 
ATOM     76  F   UNL A   1      42.244  32.530  32.751  1.00  0.00    -0.206 F 
ATOM     77  C   UNL A   1      39.079  31.431  34.128  1.00  0.00     0.060 A 
BRANCH  77  78
ATOM     78  S   UNL A   1      37.757  32.048  35.203  1.00  0.00     0.124 S 
ATOM     79  O   UNL A   1      36.616  32.054  34.295  1.00  0.00    -0.237 OA
ATOM     80  O   UNL A   1      37.724  31.028  36.250  1.00  0.00    -0.237 OA
ATOM     81  O   UNL A   1      38.254  33.359  35.604  1.00  0.00    -0.744 OA
ENDBRANCH  77  78
ENDBRANCH  45  70
BRANCH  57  82
ATOM     82  C   UNL A   1      45.046  24.004  33.405  1.00  0.00     0.058 A 
ATOM     83  C   UNL A   1      44.241  22.903  33.741  1.00  0.00     0.135 A 
ATOM     84  C   UNL A   1      46.306  24.064  34.041  1.00  0.00     0.135 A 
ATOM     85  F   UNL A   1      42.985  22.798  33.278  1.00  0.00    -0.206 F 
ATOM     86  C   UNL A   1      44.692  21.883  34.576  1.00  0.00     0.059 A 
ATOM     87  C   UNL A   1      46.747  23.096  34.935  1.00  0.00     0.059 A 
ATOM     88  F   UNL A   1      47.176  25.052  33.791  1.00  0.00    -0.206 F 
ATOM     89  C   UNL A   1      45.949  21.987  35.166  1.00  0.00     0.060 A 
BRANCH  89  90
ATOM     90  S   UNL A   1      46.531  20.669  36.244  1.00  0.00     0.124 S 
ATOM     91  O   UNL A   1      47.955  20.609  35.928  1.00  0.00    -0.237 OA
ATOM     92  O   UNL A   1      46.195  21.205  37.559  1.00  0.00    -0.237 OA
ATOM     93  O   UNL A   1      45.750  19.513  35.817  1.00  0.00    -0.744 OA
ENDBRANCH  89  90
ENDBRANCH  57  82
ENDBRANCH  31  32
ENDBRANCH  24  26
ENDBRANCH  23  24
ENDBRANCH   1  23
TORSDOF 17
ENDMDL
MODEL 2
REMARK VINA RESULT:     -13.0      4.902     11.475
REMARK SMILES Cc1ccccc1[C@@H](Cc1c(Cl)cccc1Cl)C(=O)OCCOC(=O)c1ccc(-c2c3nc(c(-c4c(F)cc(S(=O)(=O)[O-])cc4F)c4ccc([nH]4)c(-c4c(F)cc(S(=O)(=O)[O-])cc4F)c4nc(c(-c5c(F)cc(S(=O)(=O)[O-])cc5F)c5ccc2[nH]5)C=C4)C=C3)cc1
REMARK SMILES IDX 22 1 21 2 20 3 18 4 19 5 8 6 7 7 1 8 2 9 3 10 4 11 6 12 5 13
REMARK SMILES IDX 9 14 10 15 11 16 16 17 12 18 13 19 15 20 17 21 14 22 23 23
REMARK SMILES IDX 24 24 25 25 26 26 27 27 91 28 28 29 90 30 29 31 30 32 31 33
REMARK SMILES IDX 84 34 32 35 89 36 83 37 85 38 33 39 88 40 82 41 81 42 34 44
REMARK SMILES IDX 68 45 47 46 67 47 48 48 51 49 66 50 86 51 49 52 50 53 65 55
REMARK SMILES IDX 87 56 52 57 35 58 36 59 45 60 37 61 38 62 44 63 46 64 39 65
REMARK SMILES IDX 40 66 41 67 42 68 43 69 69 70 70 71 79 72 71 73 72 74 78 75
REMARK SMILES IDX 80 76 73 77 74 78 75 79 76 80 77 81 53 82 54 83 63 84 55 85
REMARK SMILES IDX 56 86 62 87 64 88 57 89 58 90 59 91 60 92 61 93
REMARK H PARENT 85 43 51 54
REMARK Flexibility Score: inf
ROOT
ATOM      1  C   UNL A   1      38.344  23.429  26.114  1.00  0.00     0.275 C 
ENDROOT
BRANCH   1   2
ATOM      2  C   UNL A   1      37.493  22.164  25.862  1.00  0.00     0.274 C 
BRANCH   2   3
ATOM      3  O   UNL A   1      36.083  22.381  25.958  1.00  0.00    -0.462 OA
BRANCH   3   4
ATOM      4  C   UNL A   1      35.284  21.487  25.292  1.00  0.00     0.313 C 
ATOM      5  O   UNL A   1      35.729  20.518  24.688  1.00  0.00    -0.252 OA
BRANCH   4   6
ATOM      6  C   UNL A   1      33.843  22.048  25.153  1.00  0.00     0.134 C 
BRANCH   6   7
ATOM      7  C   UNL A   1      33.016  20.783  24.832  1.00  0.00    -0.031 A 
ATOM      8  C   UNL A   1      32.256  21.600  22.522  1.00  0.00     0.044 C 
ATOM      9  C   UNL A   1      32.485  20.537  23.555  1.00  0.00    -0.047 A 
ATOM     10  C   UNL A   1      32.202  19.211  23.190  1.00  0.00     0.004 A 
ATOM     11  C   UNL A   1      32.405  18.153  24.077  1.00  0.00     0.000 A 
ATOM     12  C   UNL A   1      33.061  19.719  25.767  1.00  0.00     0.005 A 
ATOM     13  C   UNL A   1      32.807  18.410  25.379  1.00  0.00     0.000 A 
ENDBRANCH   6   7
BRANCH   6  14
ATOM     14  C   UNL A   1      33.258  22.835  26.372  1.00  0.00     0.058 C 
BRANCH  14  15
ATOM     15  C   UNL A   1      32.383  24.093  26.202  1.00  0.00    -0.010 A 
ATOM     16  C   UNL A   1      30.971  24.020  26.293  1.00  0.00     0.045 A 
ATOM     17  C   UNL A   1      32.878  25.358  25.821  1.00  0.00     0.045 A 
ATOM     18  Cl  UNL A   1      30.129  22.505  26.357  1.00  0.00    -0.084 Cl
ATOM     19  C   UNL A   1      30.152  25.167  26.251  1.00  0.00     0.021 A 
ATOM     20  C   UNL A   1      32.062  26.508  25.788  1.00  0.00     0.021 A 
ATOM     21  Cl  UNL A   1      34.487  25.603  25.257  1.00  0.00    -0.084 Cl
ATOM     22  C   UNL A   1      30.704  26.422  26.054  1.00  0.00     0.003 A 
ENDBRANCH  14  15
ENDBRANCH   6  14
ENDBRANCH   4   6
ENDBRANCH   3   4
ENDBRANCH   2   3
ENDBRANCH   1   2
BRANCH   1  23
ATOM     23  O   UNL A   1      39.736  23.298  26.513  1.00  0.00    -0.458 OA
BRANCH  23  24
ATOM     24  C   UNL A   1      40.621  24.316  26.715  1.00  0.00     0.338 C 
ATOM     25  O   UNL A   1      41.765  24.232  26.264  1.00  0.00    -0.246 OA
BRANCH  24  26
ATOM     26  C   UNL A   1      40.072  25.546  27.339  1.00  0.00     0.060 A 
ATOM     27  C   UNL A   1      39.500  25.475  28.614  1.00  0.00     0.016 A 
ATOM     28  C   UNL A   1      40.412  26.781  26.803  1.00  0.00     0.016 A 
ATOM     29  C   UNL A   1      39.498  26.611  29.429  1.00  0.00     0.010 A 
ATOM     30  C   UNL A   1      40.578  27.846  27.663  1.00  0.00     0.010 A 
ATOM     31  C   UNL A   1      40.141  27.769  28.995  1.00  0.00    -0.014 A 
BRANCH  31  32
ATOM     32  C   UNL A   1      40.100  29.058  29.692  1.00  0.00     0.031 A 
ATOM     33  C   UNL A   1      39.021  30.066  29.630  1.00  0.00     0.074 A 
ATOM     34  C   UNL A   1      41.158  29.199  30.516  1.00  0.00     0.049 A 
ATOM     35  N   UNL A   1      39.079  31.236  30.167  1.00  0.00    -0.248 NA
ATOM     36  C   UNL A   1      37.761  29.862  28.949  1.00  0.00     0.031 C 
ATOM     37  C   UNL A   1      41.458  30.186  31.528  1.00  0.00     0.029 A 
ATOM     38  N   UNL A   1      42.346  28.483  30.370  1.00  0.00    -0.354 N 
ATOM     39  C   UNL A   1      37.842  31.852  30.060  1.00  0.00     0.074 A 
ATOM     40  C   UNL A   1      37.045  30.939  29.292  1.00  0.00     0.031 C 
ATOM     41  C   UNL A   1      42.797  30.227  31.675  1.00  0.00     0.029 A 
ATOM     42  C   UNL A   1      43.383  29.363  30.652  1.00  0.00     0.049 A 
ATOM     43  H   UNL A   1      42.432  27.535  30.116  1.00  0.00     0.167 HD
ATOM     44  C   UNL A   1      37.647  33.047  30.691  1.00  0.00     0.037 A 
ATOM     45  C   UNL A   1      44.131  29.757  29.576  1.00  0.00     0.037 A 
ATOM     46  C   UNL A   1      38.946  33.565  31.125  1.00  0.00     0.049 A 
ATOM     47  C   UNL A   1      43.897  31.222  29.236  1.00  0.00     0.074 A 
ATOM     48  C   UNL A   1      39.681  33.457  32.292  1.00  0.00     0.029 A 
ATOM     49  N   UNL A   1      39.846  33.944  30.142  1.00  0.00    -0.354 N 
ATOM     50  N   UNL A   1      42.903  31.945  29.689  1.00  0.00    -0.248 NA
ATOM     51  C   UNL A   1      44.765  31.982  28.344  1.00  0.00     0.031 C 
ATOM     52  C   UNL A   1      41.056  33.674  31.962  1.00  0.00     0.029 A 
ATOM     53  C   UNL A   1      41.146  33.957  30.610  1.00  0.00     0.049 A 
ATOM     54  H   UNL A   1      39.589  34.176  29.221  1.00  0.00     0.167 HD
ATOM     55  C   UNL A   1      43.033  33.236  29.259  1.00  0.00     0.074 A 
ATOM     56  C   UNL A   1      44.178  33.191  28.361  1.00  0.00     0.031 C 
ATOM     57  C   UNL A   1      42.226  34.260  29.678  1.00  0.00     0.037 A 
BRANCH  44  58
ATOM     58  C   UNL A   1      36.305  33.652  31.084  1.00  0.00     0.058 A 
ATOM     59  C   UNL A   1      35.414  34.091  30.077  1.00  0.00     0.135 A 
ATOM     60  C   UNL A   1      35.866  33.928  32.397  1.00  0.00     0.135 A 
ATOM     61  F   UNL A   1      35.648  33.833  28.782  1.00  0.00    -0.206 F 
ATOM     62  C   UNL A   1      34.259  34.839  30.340  1.00  0.00     0.059 A 
ATOM     63  C   UNL A   1      34.730  34.704  32.687  1.00  0.00     0.059 A 
ATOM     64  F   UNL A   1      36.492  33.430  33.468  1.00  0.00    -0.206 F 
ATOM     65  C   UNL A   1      33.946  35.180  31.648  1.00  0.00     0.060 A 
BRANCH  65  66
ATOM     66  S   UNL A   1      32.529  36.255  31.958  1.00  0.00     0.124 S 
ATOM     67  O   UNL A   1      31.530  35.310  32.448  1.00  0.00    -0.237 OA
ATOM     68  O   UNL A   1      33.058  37.187  32.948  1.00  0.00    -0.237 OA
ATOM     69  O   UNL A   1      32.242  36.834  30.648  1.00  0.00    -0.744 OA
ENDBRANCH  65  66
ENDBRANCH  44  58
BRANCH  45  70
ATOM     70  C   UNL A   1      44.417  28.639  28.592  1.00  0.00     0.058 A 
ATOM     71  C   UNL A   1      43.903  28.744  27.272  1.00  0.00     0.135 A 
ATOM     72  C   UNL A   1      45.361  27.624  28.799  1.00  0.00     0.135 A 
ATOM     73  F   UNL A   1      42.977  29.676  26.979  1.00  0.00    -0.206 F 
ATOM     74  C   UNL A   1      44.394  27.994  26.205  1.00  0.00     0.059 A 
ATOM     75  C   UNL A   1      45.846  26.831  27.746  1.00  0.00     0.059 A 
ATOM     76  F   UNL A   1      45.890  27.426  30.015  1.00  0.00    -0.206 F 
ATOM     77  C   UNL A   1      45.385  27.052  26.447  1.00  0.00     0.060 A 
BRANCH  77  78
ATOM     78  S   UNL A   1      46.170  26.254  25.022  1.00  0.00     0.124 S 
ATOM     79  O   UNL A   1      45.181  25.242  24.668  1.00  0.00    -0.237 OA
ATOM     80  O   UNL A   1      46.294  27.370  24.086  1.00  0.00    -0.237 OA
ATOM     81  O   UNL A   1      47.419  25.750  25.583  1.00  0.00    -0.744 OA
ENDBRANCH  77  78
ENDBRANCH  45  70
BRANCH  57  82
ATOM     82  C   UNL A   1      42.429  35.690  29.251  1.00  0.00     0.058 A 
ATOM     83  C   UNL A   1      41.798  36.240  28.124  1.00  0.00     0.135 A 
ATOM     84  C   UNL A   1      43.365  36.524  29.903  1.00  0.00     0.135 A 
ATOM     85  F   UNL A   1      40.970  35.503  27.367  1.00  0.00    -0.206 F 
ATOM     86  C   UNL A   1      42.009  37.559  27.726  1.00  0.00     0.059 A 
ATOM     87  C   UNL A   1      43.646  37.818  29.480  1.00  0.00     0.059 A 
ATOM     88  F   UNL A   1      44.020  36.125  31.002  1.00  0.00    -0.206 F 
ATOM     89  C   UNL A   1      42.933  38.341  28.413  1.00  0.00     0.060 A 
BRANCH  89  90
ATOM     90  S   UNL A   1      43.205  40.044  27.900  1.00  0.00     0.124 S 
ATOM     91  O   UNL A   1      43.719  40.663  29.117  1.00  0.00    -0.237 OA
ATOM     92  O   UNL A   1      44.171  39.868  26.821  1.00  0.00    -0.237 OA
ATOM     93  O   UNL A   1      41.878  40.490  27.490  1.00  0.00    -0.744 OA
ENDBRANCH  89  90
ENDBRANCH  57  82
ENDBRANCH  31  32
ENDBRANCH  24  26
ENDBRANCH  23  24
ENDBRANCH   1  23
TORSDOF 17
ENDMDL
MODEL 3
REMARK VINA RESULT:     -12.8      4.821     11.412
REMARK SMILES Cc1ccccc1[C@@H](Cc1c(Cl)cccc1Cl)C(=O)OCCOC(=O)c1ccc(-c2c3nc(c(-c4c(F)cc(S(=O)(=O)[O-])cc4F)c4ccc([nH]4)c(-c4c(F)cc(S(=O)(=O)[O-])cc4F)c4nc(c(-c5c(F)cc(S(=O)(=O)[O-])cc5F)c5ccc2[nH]5)C=C4)C=C3)cc1
REMARK SMILES IDX 22 1 21 2 20 3 18 4 19 5 8 6 7 7 1 8 2 9 3 10 4 11 6 12 5 13
REMARK SMILES IDX 9 14 10 15 11 16 16 17 12 18 13 19 15 20 17 21 14 22 23 23
REMARK SMILES IDX 24 24 25 25 26 26 27 27 91 28 28 29 90 30 29 31 30 32 31 33
REMARK SMILES IDX 84 34 32 35 89 36 83 37 85 38 33 39 88 40 82 41 81 42 34 44
REMARK SMILES IDX 68 45 47 46 67 47 48 48 51 49 66 50 86 51 49 52 50 53 65 55
REMARK SMILES IDX 87 56 52 57 35 58 36 59 45 60 37 61 38 62 44 63 46 64 39 65
REMARK SMILES IDX 40 66 41 67 42 68 43 69 69 70 70 71 79 72 71 73 72 74 78 75
REMARK SMILES IDX 80 76 73 77 74 78 75 79 76 80 77 81 53 82 54 83 63 84 55 85
REMARK SMILES IDX 56 86 62 87 64 88 57 89 58 90 59 91 60 92 61 93
REMARK H PARENT 85 43 51 54
REMARK Flexibility Score: inf
ROOT
ATOM      1  C   UNL A   1      38.321  24.031  26.822  1.00  0.00     0.275 C 
ENDROOT
BRANCH   1   2
ATOM      2  C   UNL A   1      37.688  23.180  25.700  1.00  0.00     0.274 C 
BRANCH   2   3
ATOM      3  O   UNL A   1      36.922  23.934  24.756  1.00  0.00    -0.462 OA
BRANCH   3   4
ATOM      4  C   UNL A   1      36.140  23.212  23.892  1.00  0.00     0.313 C 
ATOM      5  O   UNL A   1      36.604  22.542  22.978  1.00  0.00    -0.252 OA
BRANCH   4   6
ATOM      6  C   UNL A   1      34.650  23.620  24.042  1.00  0.00     0.134 C 
BRANCH   6   7
ATOM      7  C   UNL A   1      33.956  22.269  24.331  1.00  0.00    -0.031 A 
ATOM      8  C   UNL A   1      31.904  22.763  22.873  1.00  0.00     0.044 C 
ATOM      9  C   UNL A   1      32.820  21.843  23.624  1.00  0.00    -0.047 A 
ATOM     10  C   UNL A   1      32.546  20.468  23.560  1.00  0.00     0.004 A 
ATOM     11  C   UNL A   1      33.356  19.534  24.208  1.00  0.00     0.000 A 
ATOM     12  C   UNL A   1      34.667  21.324  25.111  1.00  0.00     0.005 A 
ATOM     13  C   UNL A   1      34.401  19.965  25.010  1.00  0.00     0.000 A 
ENDBRANCH   6   7
BRANCH   6  14
ATOM     14  C   UNL A   1      34.304  24.697  25.124  1.00  0.00     0.058 C 
BRANCH  14  15
ATOM     15  C   UNL A   1      32.900  25.319  25.252  1.00  0.00    -0.010 A 
ATOM     16  C   UNL A   1      32.609  26.589  24.696  1.00  0.00     0.045 A 
ATOM     17  C   UNL A   1      31.854  24.764  26.020  1.00  0.00     0.045 A 
ATOM     18  Cl  UNL A   1      33.848  27.621  24.060  1.00  0.00    -0.084 Cl
ATOM     19  C   UNL A   1      31.309  27.135  24.701  1.00  0.00     0.021 A 
ATOM     20  C   UNL A   1      30.551  25.304  26.018  1.00  0.00     0.021 A 
ATOM     21  Cl  UNL A   1      32.086  23.452  27.110  1.00  0.00    -0.084 Cl
ATOM     22  C   UNL A   1      30.264  26.464  25.316  1.00  0.00     0.003 A 
ENDBRANCH  14  15
ENDBRANCH   6  14
ENDBRANCH   4   6
ENDBRANCH   3   4
ENDBRANCH   2   3
ENDBRANCH   1   2
BRANCH   1  23
ATOM     23  O   UNL A   1      39.628  23.677  27.351  1.00  0.00    -0.458 OA
BRANCH  23  24
ATOM     24  C   UNL A   1      40.832  24.168  26.939  1.00  0.00     0.338 C 
ATOM     25  O   UNL A   1      41.524  23.517  26.154  1.00  0.00    -0.246 OA
BRANCH  24  26
ATOM     26  C   UNL A   1      41.147  25.558  27.353  1.00  0.00     0.060 A 
ATOM     27  C   UNL A   1      40.739  26.627  26.547  1.00  0.00     0.016 A 
ATOM     28  C   UNL A   1      41.549  25.795  28.661  1.00  0.00     0.016 A 
ATOM     29  C   UNL A   1      40.510  27.877  27.130  1.00  0.00     0.010 A 
ATOM     30  C   UNL A   1      41.150  26.967  29.268  1.00  0.00     0.010 A 
ATOM     31  C   UNL A   1      40.605  28.018  28.513  1.00  0.00    -0.014 A 
BRANCH  31  32
ATOM     32  C   UNL A   1      40.518  29.293  29.230  1.00  0.00     0.031 A 
ATOM     33  C   UNL A   1      39.380  30.236  29.227  1.00  0.00     0.074 A 
ATOM     34  C   UNL A   1      41.597  29.486  30.013  1.00  0.00     0.049 A 
ATOM     35  N   UNL A   1      39.391  31.401  29.779  1.00  0.00    -0.248 NA
ATOM     36  C   UNL A   1      38.107  29.968  28.594  1.00  0.00     0.031 C 
ATOM     37  C   UNL A   1      41.881  30.476  31.029  1.00  0.00     0.029 A 
ATOM     38  N   UNL A   1      42.818  28.843  29.809  1.00  0.00    -0.354 N 
ATOM     39  C   UNL A   1      38.117  31.944  29.731  1.00  0.00     0.074 A 
ATOM     40  C   UNL A   1      37.344  30.996  28.981  1.00  0.00     0.031 C 
ATOM     41  C   UNL A   1      43.220  30.594  31.122  1.00  0.00     0.029 A 
ATOM     42  C   UNL A   1      43.813  29.779  30.064  1.00  0.00     0.049 A 
ATOM     43  H   UNL A   1      42.950  27.906  29.538  1.00  0.00     0.167 HD
ATOM     44  C   UNL A   1      37.877  33.117  30.387  1.00  0.00     0.037 A 
ATOM     45  C   UNL A   1      44.493  30.231  28.965  1.00  0.00     0.037 A 
ATOM     46  C   UNL A   1      39.161  33.705  30.777  1.00  0.00     0.049 A 
ATOM     47  C   UNL A   1      44.160  31.684  28.657  1.00  0.00     0.074 A 
ATOM     48  C   UNL A   1      39.948  33.626  31.913  1.00  0.00     0.029 A 
ATOM     49  N   UNL A   1      39.996  34.149  29.765  1.00  0.00    -0.354 N 
ATOM     50  N   UNL A   1      43.144  32.341  29.161  1.00  0.00    -0.248 NA
ATOM     51  C   UNL A   1      44.945  32.506  27.743  1.00  0.00     0.031 C 
ATOM     52  C   UNL A   1      41.293  33.928  31.532  1.00  0.00     0.029 A 
ATOM     53  C   UNL A   1      41.311  34.233  30.181  1.00  0.00     0.049 A 
ATOM     54  H   UNL A   1      39.689  34.378  28.859  1.00  0.00     0.167 HD
ATOM     55  C   UNL A   1      43.181  33.643  28.745  1.00  0.00     0.074 A 
ATOM     56  C   UNL A   1      44.289  33.677  27.803  1.00  0.00     0.031 C 
ATOM     57  C   UNL A   1      42.333  34.612  29.212  1.00  0.00     0.037 A 
BRANCH  44  58
ATOM     58  C   UNL A   1      36.520  33.637  30.843  1.00  0.00     0.058 A 
ATOM     59  C   UNL A   1      35.606  34.136  29.886  1.00  0.00     0.135 A 
ATOM     60  C   UNL A   1      36.083  33.775  32.178  1.00  0.00     0.135 A 
ATOM     61  F   UNL A   1      35.836  34.007  28.571  1.00  0.00    -0.206 F 
ATOM     62  C   UNL A   1      34.429  34.817  30.224  1.00  0.00     0.059 A 
ATOM     63  C   UNL A   1      34.925  34.481  32.546  1.00  0.00     0.059 A 
ATOM     64  F   UNL A   1      36.735  33.202  33.195  1.00  0.00    -0.206 F 
ATOM     65  C   UNL A   1      34.116  35.024  31.560  1.00  0.00     0.060 A 
BRANCH  65  66
ATOM     66  S   UNL A   1      32.666  36.017  31.977  1.00  0.00     0.124 S 
ATOM     67  O   UNL A   1      31.739  35.006  32.477  1.00  0.00    -0.237 OA
ATOM     68  O   UNL A   1      33.198  36.938  32.975  1.00  0.00    -0.237 OA
ATOM     69  O   UNL A   1      32.288  36.627  30.705  1.00  0.00    -0.744 OA
ENDBRANCH  65  66
ENDBRANCH  44  58
BRANCH  45  70
ATOM     70  C   UNL A   1      44.803  29.145  27.954  1.00  0.00     0.058 A 
ATOM     71  C   UNL A   1      45.794  28.178  28.273  1.00  0.00     0.135 A 
ATOM     72  C   UNL A   1      44.015  28.861  26.830  1.00  0.00     0.135 A 
ATOM     73  F   UNL A   1      46.612  28.371  29.324  1.00  0.00    -0.206 F 
ATOM     74  C   UNL A   1      45.900  26.955  27.614  1.00  0.00     0.059 A 
ATOM     75  C   UNL A   1      44.128  27.649  26.127  1.00  0.00     0.059 A 
ATOM     76  F   UNL A   1      43.068  29.721  26.430  1.00  0.00    -0.206 F 
ATOM     77  C   UNL A   1      45.045  26.688  26.553  1.00  0.00     0.060 A 
BRANCH  77  78
ATOM     78  S   UNL A   1      45.041  25.013  25.861  1.00  0.00     0.124 S 
ATOM     79  O   UNL A   1      44.007  25.118  24.838  1.00  0.00    -0.237 OA
ATOM     80  O   UNL A   1      46.410  24.893  25.363  1.00  0.00    -0.237 OA
ATOM     81  O   UNL A   1      44.707  24.188  27.017  1.00  0.00    -0.744 OA
ENDBRANCH  77  78
ENDBRANCH  45  70
BRANCH  57  82
ATOM     82  C   UNL A   1      42.435  36.057  28.800  1.00  0.00     0.058 A 
ATOM     83  C   UNL A   1      41.925  36.533  27.581  1.00  0.00     0.135 A 
ATOM     84  C   UNL A   1      43.158  36.991  29.574  1.00  0.00     0.135 A 
ATOM     85  F   UNL A   1      41.312  35.708  26.718  1.00  0.00    -0.206 F 
ATOM     86  C   UNL A   1      42.042  37.869  27.200  1.00  0.00     0.059 A 
ATOM     87  C   UNL A   1      43.352  38.310  29.179  1.00  0.00     0.059 A 
ATOM     88  F   UNL A   1      43.679  36.667  30.766  1.00  0.00    -0.206 F 
ATOM     89  C   UNL A   1      42.755  38.750  28.009  1.00  0.00     0.060 A 
BRANCH  89  90
ATOM     90  S   UNL A   1      42.906  40.474  27.517  1.00  0.00     0.124 S 
ATOM     91  O   UNL A   1      43.405  41.107  28.734  1.00  0.00    -0.237 OA
ATOM     92  O   UNL A   1      43.859  40.376  26.416  1.00  0.00    -0.237 OA
ATOM     93  O   UNL A   1      41.545  40.840  27.140  1.00  0.00    -0.744 OA
ENDBRANCH  89  90
ENDBRANCH  57  82
ENDBRANCH  31  32
ENDBRANCH  24  26
ENDBRANCH  23  24
ENDBRANCH   1  23
TORSDOF 17
ENDMDL
