MODEL 1
REMARK VINA RESULT:     -10.1      0.000      0.000
REMARK SMILES CC[C@H](C)Oc1ccc(NC(=O)/C=C/C(=O)OCCOC(=O)c2ccc(-c3c4nc(c(-c5c(F)cc(S(=O)(=O)[O-])cc5F)c5ccc([nH]5)c(-c5c(F)cc(S(=O)(=O)[O-])cc5F)c5nc(c(-c6c(F)cc(S(=O)(=O)[O-])cc6F)c6ccc3[nH]6)C=C5)C=C4)cc2)cc1
REMARK SMILES IDX 18 1 17 2 15 3 16 4 14 5 13 6 11 7 10 8 12 10 9 11 6 12 7 13
REMARK SMILES IDX 90 14 8 15 89 16 5 17 3 18 4 19 2 20 1 21 19 22 20 23 21 24
REMARK SMILES IDX 22 25 23 26 24 27 88 28 25 29 87 30 26 31 27 32 28 33 81 34
REMARK SMILES IDX 29 35 86 36 80 37 82 38 30 39 85 40 79 41 78 42 31 44 65 45
REMARK SMILES IDX 44 46 64 47 45 48 48 49 63 50 83 51 46 52 47 53 62 55 84 56
REMARK SMILES IDX 49 57 32 58 33 59 42 60 34 61 35 62 41 63 43 64 36 65 37 66
REMARK SMILES IDX 38 67 39 68 40 69 66 70 67 71 76 72 68 73 69 74 75 75 77 76
REMARK SMILES IDX 70 77 71 78 72 79 73 80 74 81 50 82 51 83 60 84 52 85 53 86
REMARK SMILES IDX 59 87 61 88 54 89 55 90 56 91 57 92 58 93
REMARK H PARENT 10 9 82 43 48 54
REMARK Flexibility Score: inf
ROOT
ATOM      1  C   UNL A   1      34.327  33.362  28.700  1.00  0.00     0.275 C 
ENDROOT
BRANCH   1   2
ATOM      2  O   UNL A   1      34.539  34.619  28.026  1.00  0.00    -0.459 OA
BRANCH   2   3
ATOM      3  C   UNL A   1      33.990  35.703  28.620  1.00  0.00     0.331 C 
ATOM      4  O   UNL A   1      34.164  36.869  28.295  1.00  0.00    -0.247 OA
BRANCH   3   5
ATOM      5  C   UNL A   1      33.085  35.363  29.739  1.00  0.00     0.099 C 
ATOM      6  C   UNL A   1      32.804  36.215  30.734  1.00  0.00     0.079 C 
BRANCH   6   7
ATOM      7  C   UNL A   1      32.175  35.715  31.972  1.00  0.00     0.248 C 
ATOM      8  N   UNL A   1      32.893  35.014  32.906  1.00  0.00    -0.323 N 
ATOM      9  H   UNL A   1      32.386  34.856  33.735  1.00  0.00     0.170 HD
ATOM     10  O   UNL A   1      30.998  36.001  32.193  1.00  0.00    -0.270 OA
BRANCH   8  11
ATOM     11  C   UNL A   1      34.195  34.468  32.945  1.00  0.00     0.041 A 
ATOM     12  C   UNL A   1      36.747  33.260  32.932  1.00  0.00     0.119 A 
ATOM     13  C   UNL A   1      36.590  34.568  33.349  1.00  0.00     0.048 A 
ATOM     14  C   UNL A   1      35.640  32.541  32.500  1.00  0.00     0.048 A 
ATOM     15  C   UNL A   1      35.322  35.133  33.409  1.00  0.00     0.030 A 
ATOM     16  C   UNL A   1      34.375  33.156  32.475  1.00  0.00     0.030 A 
BRANCH  12  17
ATOM     17  O   UNL A   1      37.927  32.686  33.276  1.00  0.00    -0.491 OA
BRANCH  17  18
ATOM     18  C   UNL A   1      39.061  32.816  32.417  1.00  0.00     0.170 C 
ATOM     19  C   UNL A   1      39.749  31.473  32.244  1.00  0.00     0.053 C 
BRANCH  18  20
ATOM     20  C   UNL A   1      38.804  33.609  31.128  1.00  0.00     0.041 C 
ATOM     21  C   UNL A   1      38.707  32.705  29.907  1.00  0.00     0.008 C 
ENDBRANCH  18  20
ENDBRANCH  17  18
ENDBRANCH  12  17
ENDBRANCH   8  11
ENDBRANCH   6   7
ENDBRANCH   3   5
ENDBRANCH   2   3
ENDBRANCH   1   2
BRANCH   1  22
ATOM     22  C   UNL A   1      35.313  32.289  28.229  1.00  0.00     0.275 C 
BRANCH  22  23
ATOM     23  O   UNL A   1      35.420  31.194  29.164  1.00  0.00    -0.458 OA
BRANCH  23  24
ATOM     24  C   UNL A   1      35.662  29.982  28.604  1.00  0.00     0.338 C 
ATOM     25  O   UNL A   1      34.855  29.303  27.994  1.00  0.00    -0.246 OA
BRANCH  24  26
ATOM     26  C   UNL A   1      37.099  29.619  28.716  1.00  0.00     0.060 A 
ATOM     27  C   UNL A   1      37.859  29.746  27.555  1.00  0.00     0.016 A 
ATOM     28  C   UNL A   1      37.713  29.150  29.884  1.00  0.00     0.016 A 
ATOM     29  C   UNL A   1      39.231  29.496  27.576  1.00  0.00     0.010 A 
ATOM     30  C   UNL A   1      39.096  28.865  29.892  1.00  0.00     0.010 A 
ATOM     31  C   UNL A   1      39.875  29.071  28.743  1.00  0.00    -0.014 A 
BRANCH  31  32
ATOM     32  C   UNL A   1      41.341  28.796  28.671  1.00  0.00     0.031 A 
ATOM     33  C   UNL A   1      41.806  27.454  28.175  1.00  0.00     0.074 A 
ATOM     34  C   UNL A   1      42.250  29.767  28.908  1.00  0.00     0.049 A 
ATOM     35  N   UNL A   1      43.019  27.036  27.915  1.00  0.00    -0.248 NA
ATOM     36  C   UNL A   1      40.760  26.446  27.937  1.00  0.00     0.031 C 
ATOM     37  C   UNL A   1      41.933  31.135  29.314  1.00  0.00     0.029 A 
ATOM     38  N   UNL A   1      43.623  29.771  28.775  1.00  0.00    -0.354 N 
ATOM     39  C   UNL A   1      42.888  25.707  27.532  1.00  0.00     0.074 A 
ATOM     40  C   UNL A   1      41.473  25.403  27.540  1.00  0.00     0.031 C 
ATOM     41  C   UNL A   1      43.066  31.863  29.324  1.00  0.00     0.029 A 
ATOM     42  C   UNL A   1      44.197  31.015  28.944  1.00  0.00     0.049 A 
ATOM     43  H   UNL A   1      44.146  28.961  28.576  1.00  0.00     0.167 HD
ATOM     44  C   UNL A   1      43.858  24.806  27.248  1.00  0.00     0.037 A 
ATOM     45  C   UNL A   1      45.474  31.427  28.768  1.00  0.00     0.037 A 
ATOM     46  C   UNL A   1      45.268  25.097  27.261  1.00  0.00     0.049 A 
ATOM     47  C   UNL A   1      46.535  30.407  28.411  1.00  0.00     0.074 A 
ATOM     48  C   UNL A   1      46.327  24.226  27.070  1.00  0.00     0.029 A 
ATOM     49  N   UNL A   1      45.818  26.350  27.481  1.00  0.00    -0.354 N 
ATOM     50  N   UNL A   1      46.397  29.143  28.087  1.00  0.00    -0.248 NA
ATOM     51  C   UNL A   1      47.934  30.867  28.432  1.00  0.00     0.031 C 
ATOM     52  C   UNL A   1      47.518  24.942  27.230  1.00  0.00     0.029 A 
ATOM     53  C   UNL A   1      47.201  26.271  27.454  1.00  0.00     0.049 A 
ATOM     54  H   UNL A   1      45.301  27.175  27.634  1.00  0.00     0.167 HD
ATOM     55  C   UNL A   1      47.687  28.657  27.887  1.00  0.00     0.074 A 
ATOM     56  C   UNL A   1      48.588  29.776  28.057  1.00  0.00     0.031 C 
ATOM     57  C   UNL A   1      48.093  27.391  27.623  1.00  0.00     0.037 A 
BRANCH  44  58
ATOM     58  C   UNL A   1      43.429  23.384  27.021  1.00  0.00     0.058 A 
ATOM     59  C   UNL A   1      43.019  22.543  28.065  1.00  0.00     0.135 A 
ATOM     60  C   UNL A   1      43.426  22.862  25.715  1.00  0.00     0.135 A 
ATOM     61  F   UNL A   1      43.030  22.984  29.333  1.00  0.00    -0.206 F 
ATOM     62  C   UNL A   1      42.644  21.224  27.826  1.00  0.00     0.059 A 
ATOM     63  C   UNL A   1      43.028  21.557  25.450  1.00  0.00     0.059 A 
ATOM     64  F   UNL A   1      43.818  23.624  24.682  1.00  0.00    -0.206 F 
ATOM     65  C   UNL A   1      42.653  20.741  26.515  1.00  0.00     0.060 A 
BRANCH  65  66
ATOM     66  S   UNL A   1      42.169  19.028  26.219  1.00  0.00     0.124 S 
ATOM     67  O   UNL A   1      42.414  18.426  27.527  1.00  0.00    -0.237 OA
ATOM     68  O   UNL A   1      40.767  19.162  25.836  1.00  0.00    -0.237 OA
ATOM     69  O   UNL A   1      43.068  18.598  25.153  1.00  0.00    -0.744 OA
ENDBRANCH  65  66
ENDBRANCH  44  58
BRANCH  45  70
ATOM     70  C   UNL A   1      45.860  32.868  28.902  1.00  0.00     0.058 A 
ATOM     71  C   UNL A   1      45.917  33.704  27.772  1.00  0.00     0.135 A 
ATOM     72  C   UNL A   1      46.230  33.430  30.133  1.00  0.00     0.135 A 
ATOM     73  F   UNL A   1      45.580  33.225  26.565  1.00  0.00    -0.206 F 
ATOM     74  C   UNL A   1      46.339  35.029  27.853  1.00  0.00     0.059 A 
ATOM     75  C   UNL A   1      46.622  34.763  30.245  1.00  0.00     0.059 A 
ATOM     76  F   UNL A   1      46.207  32.686  31.249  1.00  0.00    -0.206 F 
ATOM     77  C   UNL A   1      46.689  35.550  29.097  1.00  0.00     0.060 A 
BRANCH  77  78
ATOM     78  S   UNL A   1      47.206  37.279  29.207  1.00  0.00     0.124 S 
ATOM     79  O   UNL A   1      47.070  37.535  30.636  1.00  0.00    -0.237 OA
ATOM     80  O   UNL A   1      48.571  37.228  28.694  1.00  0.00    -0.237 OA
ATOM     81  O   UNL A   1      46.246  37.967  28.349  1.00  0.00    -0.744 OA
ENDBRANCH  77  78
ENDBRANCH  45  70
BRANCH  57  82
ATOM     82  C   UNL A   1      49.574  27.127  27.522  1.00  0.00     0.058 A 
ATOM     83  C   UNL A   1      50.335  26.778  28.651  1.00  0.00     0.135 A 
ATOM     84  C   UNL A   1      50.226  27.141  26.279  1.00  0.00     0.135 A 
ATOM     85  F   UNL A   1      49.767  26.747  29.867  1.00  0.00    -0.206 F 
ATOM     86  C   UNL A   1      51.690  26.474  28.553  1.00  0.00     0.059 A 
ATOM     87  C   UNL A   1      51.573  26.811  26.153  1.00  0.00     0.059 A 
ATOM     88  F   UNL A   1      49.546  27.454  25.163  1.00  0.00    -0.206 F 
ATOM     89  C   UNL A   1      52.300  26.488  27.298  1.00  0.00     0.060 A 
BRANCH  89  90
ATOM     90  S   UNL A   1      54.047  26.047  27.181  1.00  0.00     0.124 S 
ATOM     91  O   UNL A   1      54.593  27.188  26.455  1.00  0.00    -0.237 OA
ATOM     92  O   UNL A   1      54.436  25.943  28.584  1.00  0.00    -0.237 OA
ATOM     93  O   UNL A   1      54.031  24.785  26.446  1.00  0.00    -0.744 OA
ENDBRANCH  89  90
ENDBRANCH  57  82
ENDBRANCH  31  32
ENDBRANCH  24  26
ENDBRANCH  23  24
ENDBRANCH  22  23
ENDBRANCH   1  22
TORSDOF 19
ENDMDL
MODEL 2
REMARK VINA RESULT:     -10.0      2.104      8.551
REMARK SMILES CC[C@H](C)Oc1ccc(NC(=O)/C=C/C(=O)OCCOC(=O)c2ccc(-c3c4nc(c(-c5c(F)cc(S(=O)(=O)[O-])cc5F)c5ccc([nH]5)c(-c5c(F)cc(S(=O)(=O)[O-])cc5F)c5nc(c(-c6c(F)cc(S(=O)(=O)[O-])cc6F)c6ccc3[nH]6)C=C5)C=C4)cc2)cc1
REMARK SMILES IDX 18 1 17 2 15 3 16 4 14 5 13 6 11 7 10 8 12 10 9 11 6 12 7 13
REMARK SMILES IDX 90 14 8 15 89 16 5 17 3 18 4 19 2 20 1 21 19 22 20 23 21 24
REMARK SMILES IDX 22 25 23 26 24 27 88 28 25 29 87 30 26 31 27 32 28 33 81 34
REMARK SMILES IDX 29 35 86 36 80 37 82 38 30 39 85 40 79 41 78 42 31 44 65 45
REMARK SMILES IDX 44 46 64 47 45 48 48 49 63 50 83 51 46 52 47 53 62 55 84 56
REMARK SMILES IDX 49 57 32 58 33 59 42 60 34 61 35 62 41 63 43 64 36 65 37 66
REMARK SMILES IDX 38 67 39 68 40 69 66 70 67 71 76 72 68 73 69 74 75 75 77 76
REMARK SMILES IDX 70 77 71 78 72 79 73 80 74 81 50 82 51 83 60 84 52 85 53 86
REMARK SMILES IDX 59 87 61 88 54 89 55 90 56 91 57 92 58 93
REMARK H PARENT 10 9 82 43 48 54
REMARK Flexibility Score: inf
ROOT
ATOM      1  C   UNL A   1      33.657  33.885  28.227  1.00  0.00     0.275 C 
ENDROOT
BRANCH   1   2
ATOM      2  O   UNL A   1      34.352  35.142  28.094  1.00  0.00    -0.459 OA
BRANCH   2   3
ATOM      3  C   UNL A   1      33.769  36.202  28.700  1.00  0.00     0.331 C 
ATOM      4  O   UNL A   1      33.894  37.374  28.378  1.00  0.00    -0.247 OA
BRANCH   3   5
ATOM      5  C   UNL A   1      32.891  35.823  29.827  1.00  0.00     0.099 C 
ATOM      6  C   UNL A   1      32.908  36.454  31.008  1.00  0.00     0.079 C 
BRANCH   6   7
ATOM      7  C   UNL A   1      32.265  35.832  32.182  1.00  0.00     0.248 C 
ATOM      8  N   UNL A   1      32.932  34.929  32.969  1.00  0.00    -0.323 N 
ATOM      9  H   UNL A   1      32.434  34.695  33.785  1.00  0.00     0.170 HD
ATOM     10  O   UNL A   1      31.129  36.193  32.493  1.00  0.00    -0.270 OA
BRANCH   8  11
ATOM     11  C   UNL A   1      34.172  34.260  32.870  1.00  0.00     0.041 A 
ATOM     12  C   UNL A   1      36.700  33.005  32.797  1.00  0.00     0.119 A 
ATOM     13  C   UNL A   1      35.637  32.488  32.081  1.00  0.00     0.048 A 
ATOM     14  C   UNL A   1      36.516  34.143  33.570  1.00  0.00     0.048 A 
ATOM     15  C   UNL A   1      34.414  33.148  32.076  1.00  0.00     0.030 A 
ATOM     16  C   UNL A   1      35.247  34.747  33.632  1.00  0.00     0.030 A 
BRANCH  12  17
ATOM     17  O   UNL A   1      37.919  32.533  32.434  1.00  0.00    -0.491 OA
BRANCH  17  18
ATOM     18  C   UNL A   1      38.723  31.830  33.382  1.00  0.00     0.170 C 
ATOM     19  C   UNL A   1      39.778  32.753  33.968  1.00  0.00     0.053 C 
BRANCH  18  20
ATOM     20  C   UNL A   1      37.935  30.985  34.392  1.00  0.00     0.041 C 
ATOM     21  C   UNL A   1      38.402  31.219  35.823  1.00  0.00     0.008 C 
ENDBRANCH  18  20
ENDBRANCH  17  18
ENDBRANCH  12  17
ENDBRANCH   8  11
ENDBRANCH   6   7
ENDBRANCH   3   5
ENDBRANCH   2   3
ENDBRANCH   1   2
BRANCH   1  22
ATOM     22  C   UNL A   1      34.617  32.694  28.174  1.00  0.00     0.275 C 
BRANCH  22  23
ATOM     23  O   UNL A   1      34.009  31.476  28.654  1.00  0.00    -0.458 OA
BRANCH  23  24
ATOM     24  C   UNL A   1      34.372  30.351  27.989  1.00  0.00     0.338 C 
ATOM     25  O   UNL A   1      33.694  29.753  27.171  1.00  0.00    -0.246 OA
BRANCH  24  26
ATOM     26  C   UNL A   1      35.782  29.986  28.287  1.00  0.00     0.060 A 
ATOM     27  C   UNL A   1      36.679  30.071  27.225  1.00  0.00     0.016 A 
ATOM     28  C   UNL A   1      36.244  29.552  29.536  1.00  0.00     0.016 A 
ATOM     29  C   UNL A   1      38.036  29.816  27.422  1.00  0.00     0.010 A 
ATOM     30  C   UNL A   1      37.613  29.262  29.723  1.00  0.00     0.010 A 
ATOM     31  C   UNL A   1      38.529  29.427  28.672  1.00  0.00    -0.014 A 
BRANCH  31  32
ATOM     32  C   UNL A   1      39.990  29.144  28.790  1.00  0.00     0.031 A 
ATOM     33  C   UNL A   1      40.855  30.099  29.568  1.00  0.00     0.074 A 
ATOM     34  C   UNL A   1      40.522  27.989  28.334  1.00  0.00     0.049 A 
ATOM     35  N   UNL A   1      42.116  29.997  29.903  1.00  0.00    -0.248 NA
ATOM     36  C   UNL A   1      40.208  31.337  30.033  1.00  0.00     0.031 C 
ATOM     37  C   UNL A   1      39.781  26.940  27.637  1.00  0.00     0.029 A 
ATOM     38  N   UNL A   1      41.796  27.473  28.451  1.00  0.00    -0.354 N 
ATOM     39  C   UNL A   1      42.427  31.173  30.574  1.00  0.00     0.074 A 
ATOM     40  C   UNL A   1      41.209  31.952  30.646  1.00  0.00     0.031 C 
ATOM     41  C   UNL A   1      40.589  25.878  27.455  1.00  0.00     0.029 A 
ATOM     42  C   UNL A   1      41.914  26.172  28.004  1.00  0.00     0.049 A 
ATOM     43  H   UNL A   1      42.551  27.985  28.820  1.00  0.00     0.167 HD
ATOM     44  C   UNL A   1      43.626  31.593  31.042  1.00  0.00     0.037 A 
ATOM     45  C   UNL A   1      42.954  25.309  28.072  1.00  0.00     0.037 A 
ATOM     46  C   UNL A   1      44.845  30.833  30.952  1.00  0.00     0.049 A 
ATOM     47  C   UNL A   1      44.275  25.789  28.637  1.00  0.00     0.074 A 
ATOM     48  C   UNL A   1      46.124  31.213  31.322  1.00  0.00     0.029 A 
ATOM     49  N   UNL A   1      44.942  29.543  30.453  1.00  0.00    -0.354 N 
ATOM     50  N   UNL A   1      44.560  26.922  29.235  1.00  0.00    -0.248 NA
ATOM     51  C   UNL A   1      45.426  24.881  28.502  1.00  0.00     0.031 C 
ATOM     52  C   UNL A   1      47.002  30.174  30.996  1.00  0.00     0.029 A 
ATOM     53  C   UNL A   1      46.261  29.121  30.484  1.00  0.00     0.049 A 
ATOM     54  H   UNL A   1      44.184  29.006  30.125  1.00  0.00     0.167 HD
ATOM     55  C   UNL A   1      45.921  26.867  29.526  1.00  0.00     0.074 A 
ATOM     56  C   UNL A   1      46.390  25.565  29.104  1.00  0.00     0.031 C 
ATOM     57  C   UNL A   1      46.721  27.822  30.062  1.00  0.00     0.037 A 
BRANCH  44  58
ATOM     58  C   UNL A   1      43.701  32.992  31.584  1.00  0.00     0.058 A 
ATOM     59  C   UNL A   1      43.896  34.111  30.762  1.00  0.00     0.135 A 
ATOM     60  C   UNL A   1      43.564  33.208  32.967  1.00  0.00     0.135 A 
ATOM     61  F   UNL A   1      44.060  33.958  29.438  1.00  0.00    -0.206 F 
ATOM     62  C   UNL A   1      43.979  35.394  31.294  1.00  0.00     0.059 A 
ATOM     63  C   UNL A   1      43.614  34.483  33.517  1.00  0.00     0.059 A 
ATOM     64  F   UNL A   1      43.383  32.169  33.797  1.00  0.00    -0.206 F 
ATOM     65  C   UNL A   1      43.837  35.569  32.673  1.00  0.00     0.060 A 
BRANCH  65  66
ATOM     66  S   UNL A   1      43.951  37.237  33.352  1.00  0.00     0.124 S 
ATOM     67  O   UNL A   1      45.092  37.107  34.254  1.00  0.00    -0.237 OA
ATOM     68  O   UNL A   1      44.176  38.045  32.158  1.00  0.00    -0.237 OA
ATOM     69  O   UNL A   1      42.658  37.431  34.001  1.00  0.00    -0.744 OA
ENDBRANCH  65  66
ENDBRANCH  44  58
BRANCH  45  70
ATOM     70  C   UNL A   1      42.827  23.888  27.617  1.00  0.00     0.058 A 
ATOM     71  C   UNL A   1      42.969  23.553  26.258  1.00  0.00     0.135 A 
ATOM     72  C   UNL A   1      42.513  22.846  28.503  1.00  0.00     0.135 A 
ATOM     73  F   UNL A   1      43.264  24.505  25.359  1.00  0.00    -0.206 F 
ATOM     74  C   UNL A   1      42.789  22.252  25.794  1.00  0.00     0.059 A 
ATOM     75  C   UNL A   1      42.363  21.530  28.068  1.00  0.00     0.059 A 
ATOM     76  F   UNL A   1      42.356  23.097  29.811  1.00  0.00    -0.206 F 
ATOM     77  C   UNL A   1      42.486  21.245  26.710  1.00  0.00     0.060 A 
BRANCH  77  78
ATOM     78  S   UNL A   1      42.284  19.552  26.112  1.00  0.00     0.124 S 
ATOM     79  O   UNL A   1      43.226  19.519  25.000  1.00  0.00    -0.237 OA
ATOM     80  O   UNL A   1      42.652  18.764  27.284  1.00  0.00    -0.237 OA
ATOM     81  O   UNL A   1      40.872  19.495  25.746  1.00  0.00    -0.744 OA
ENDBRANCH  77  78
ENDBRANCH  45  70
BRANCH  57  82
ATOM     82  C   UNL A   1      48.191  27.518  30.206  1.00  0.00     0.058 A 
ATOM     83  C   UNL A   1      48.709  26.942  31.378  1.00  0.00     0.135 A 
ATOM     84  C   UNL A   1      49.077  27.726  29.137  1.00  0.00     0.135 A 
ATOM     85  F   UNL A   1      47.909  26.719  32.433  1.00  0.00    -0.206 F 
ATOM     86  C   UNL A   1      50.055  26.604  31.492  1.00  0.00     0.059 A 
ATOM     87  C   UNL A   1      50.421  27.368  29.218  1.00  0.00     0.059 A 
ATOM     88  F   UNL A   1      48.636  28.262  27.987  1.00  0.00    -0.206 F 
ATOM     89  C   UNL A   1      50.902  26.816  30.404  1.00  0.00     0.060 A 
BRANCH  89  90
ATOM     90  S   UNL A   1      52.635  26.329  30.551  1.00  0.00     0.124 S 
ATOM     91  O   UNL A   1      52.535  25.126  31.371  1.00  0.00    -0.237 OA
ATOM     92  O   UNL A   1      53.018  26.116  29.159  1.00  0.00    -0.237 OA
ATOM     93  O   UNL A   1      53.259  27.479  31.198  1.00  0.00    -0.744 OA
ENDBRANCH  89  90
ENDBRANCH  57  82
ENDBRANCH  31  32
ENDBRANCH  24  26
ENDBRANCH  23  24
ENDBRANCH  22  23
ENDBRANCH   1  22
TORSDOF 19
ENDMDL
MODEL 3
REMARK VINA RESULT:      -9.8      0.894      8.341
REMARK SMILES CC[C@H](C)Oc1ccc(NC(=O)/C=C/C(=O)OCCOC(=O)c2ccc(-c3c4nc(c(-c5c(F)cc(S(=O)(=O)[O-])cc5F)c5ccc([nH]5)c(-c5c(F)cc(S(=O)(=O)[O-])cc5F)c5nc(c(-c6c(F)cc(S(=O)(=O)[O-])cc6F)c6ccc3[nH]6)C=C5)C=C4)cc2)cc1
REMARK SMILES IDX 18 1 17 2 15 3 16 4 14 5 13 6 11 7 10 8 12 10 9 11 6 12 7 13
REMARK SMILES IDX 90 14 8 15 89 16 5 17 3 18 4 19 2 20 1 21 19 22 20 23 21 24
REMARK SMILES IDX 22 25 23 26 24 27 88 28 25 29 87 30 26 31 27 32 28 33 81 34
REMARK SMILES IDX 29 35 86 36 80 37 82 38 30 39 85 40 79 41 78 42 31 44 65 45
REMARK SMILES IDX 44 46 64 47 45 48 48 49 63 50 83 51 46 52 47 53 62 55 84 56
REMARK SMILES IDX 49 57 32 58 33 59 42 60 34 61 35 62 41 63 43 64 36 65 37 66
REMARK SMILES IDX 38 67 39 68 40 69 66 70 67 71 76 72 68 73 69 74 75 75 77 76
REMARK SMILES IDX 70 77 71 78 72 79 73 80 74 81 50 82 51 83 60 84 52 85 53 86
REMARK SMILES IDX 59 87 61 88 54 89 55 90 56 91 57 92 58 93
REMARK H PARENT 10 9 82 43 48 54
REMARK Flexibility Score: inf
ROOT
ATOM      1  C   UNL A   1      35.235  33.698  28.642  1.00  0.00     0.275 C 
ENDROOT
BRANCH   1   2
ATOM      2  O   UNL A   1      33.968  34.252  28.233  1.00  0.00    -0.459 OA
BRANCH   2   3
ATOM      3  C   UNL A   1      33.692  35.492  28.700  1.00  0.00     0.331 C 
ATOM      4  O   UNL A   1      34.016  36.548  28.176  1.00  0.00    -0.247 OA
BRANCH   3   5
ATOM      5  C   UNL A   1      32.897  35.486  29.946  1.00  0.00     0.099 C 
ATOM      6  C   UNL A   1      33.180  36.270  30.995  1.00  0.00     0.079 C 
BRANCH   6   7
ATOM      7  C   UNL A   1      32.570  35.987  32.309  1.00  0.00     0.248 C 
ATOM      8  N   UNL A   1      33.223  35.238  33.254  1.00  0.00    -0.323 N 
ATOM      9  H   UNL A   1      32.762  35.237  34.124  1.00  0.00     0.170 HD
ATOM     10  O   UNL A   1      31.482  36.498  32.577  1.00  0.00    -0.270 OA
BRANCH   8  11
ATOM     11  C   UNL A   1      34.408  34.468  33.258  1.00  0.00     0.041 A 
ATOM     12  C   UNL A   1      36.846  33.048  33.341  1.00  0.00     0.119 A 
ATOM     13  C   UNL A   1      35.664  32.398  33.041  1.00  0.00     0.048 A 
ATOM     14  C   UNL A   1      36.829  34.407  33.619  1.00  0.00     0.048 A 
ATOM     15  C   UNL A   1      34.479  33.118  32.943  1.00  0.00     0.030 A 
ATOM     16  C   UNL A   1      35.608  35.107  33.610  1.00  0.00     0.030 A 
BRANCH  12  17
ATOM     17  O   UNL A   1      37.973  32.359  33.030  1.00  0.00    -0.491 OA
BRANCH  17  18
ATOM     18  C   UNL A   1      39.250  32.987  33.154  1.00  0.00     0.170 C 
ATOM     19  C   UNL A   1      40.020  32.392  34.321  1.00  0.00     0.053 C 
BRANCH  18  20
ATOM     20  C   UNL A   1      40.029  33.127  31.839  1.00  0.00     0.041 C 
ATOM     21  C   UNL A   1      39.141  33.595  30.693  1.00  0.00     0.008 C 
ENDBRANCH  18  20
ENDBRANCH  17  18
ENDBRANCH  12  17
ENDBRANCH   8  11
ENDBRANCH   6   7
ENDBRANCH   3   5
ENDBRANCH   2   3
ENDBRANCH   1   2
BRANCH   1  22
ATOM     22  C   UNL A   1      35.090  32.264  29.156  1.00  0.00     0.275 C 
BRANCH  22  23
ATOM     23  O   UNL A   1      36.213  31.855  29.967  1.00  0.00    -0.458 OA
BRANCH  23  24
ATOM     24  C   UNL A   1      36.418  30.515  30.031  1.00  0.00     0.338 C 
ATOM     25  O   UNL A   1      35.616  29.688  30.429  1.00  0.00    -0.246 OA
BRANCH  24  26
ATOM     26  C   UNL A   1      37.725  30.146  29.428  1.00  0.00     0.060 A 
ATOM     27  C   UNL A   1      38.785  29.967  30.314  1.00  0.00     0.016 A 
ATOM     28  C   UNL A   1      37.952  29.992  28.055  1.00  0.00     0.016 A 
ATOM     29  C   UNL A   1      40.033  29.551  29.851  1.00  0.00     0.010 A 
ATOM     30  C   UNL A   1      39.227  29.604  27.587  1.00  0.00     0.010 A 
ATOM     31  C   UNL A   1      40.271  29.346  28.488  1.00  0.00    -0.014 A 
BRANCH  31  32
ATOM     32  C   UNL A   1      41.644  28.930  28.074  1.00  0.00     0.031 A 
ATOM     33  C   UNL A   1      42.790  29.880  28.296  1.00  0.00     0.074 A 
ATOM     34  C   UNL A   1      41.897  27.677  27.636  1.00  0.00     0.049 A 
ATOM     35  N   UNL A   1      44.074  29.691  28.129  1.00  0.00    -0.248 NA
ATOM     36  C   UNL A   1      42.438  31.228  28.774  1.00  0.00     0.031 C 
ATOM     37  C   UNL A   1      40.893  26.631  27.455  1.00  0.00     0.029 A 
ATOM     38  N   UNL A   1      43.088  27.050  27.330  1.00  0.00    -0.354 N 
ATOM     39  C   UNL A   1      44.678  30.905  28.432  1.00  0.00     0.074 A 
ATOM     40  C   UNL A   1      43.626  31.809  28.847  1.00  0.00     0.031 C 
ATOM     41  C   UNL A   1      41.514  25.477  27.144  1.00  0.00     0.029 A 
ATOM     42  C   UNL A   1      42.959  25.698  27.083  1.00  0.00     0.049 A 
ATOM     43  H   UNL A   1      43.950  27.524  27.293  1.00  0.00     0.167 HD
ATOM     44  C   UNL A   1      45.983  31.253  28.328  1.00  0.00     0.037 A 
ATOM     45  C   UNL A   1      43.900  24.747  26.879  1.00  0.00     0.037 A 
ATOM     46  C   UNL A   1      47.029  30.365  27.894  1.00  0.00     0.049 A 
ATOM     47  C   UNL A   1      45.357  25.156  26.806  1.00  0.00     0.074 A 
ATOM     48  C   UNL A   1      48.366  30.655  27.676  1.00  0.00     0.029 A 
ATOM     49  N   UNL A   1      46.861  29.020  27.607  1.00  0.00    -0.354 N 
ATOM     50  N   UNL A   1      45.908  26.319  27.061  1.00  0.00    -0.248 NA
ATOM     51  C   UNL A   1      46.317  24.123  26.381  1.00  0.00     0.031 C 
ATOM     52  C   UNL A   1      48.993  29.497  27.204  1.00  0.00     0.029 A 
ATOM     53  C   UNL A   1      48.063  28.471  27.191  1.00  0.00     0.049 A 
ATOM     54  H   UNL A   1      46.012  28.527  27.686  1.00  0.00     0.167 HD
ATOM     55  C   UNL A   1      47.269  26.160  26.808  1.00  0.00     0.074 A 
ATOM     56  C   UNL A   1      47.470  24.774  26.448  1.00  0.00     0.031 C 
ATOM     57  C   UNL A   1      48.258  27.088  26.835  1.00  0.00     0.037 A 
BRANCH  44  58
ATOM     58  C   UNL A   1      46.330  32.695  28.571  1.00  0.00     0.058 A 
ATOM     59  C   UNL A   1      46.732  33.173  29.826  1.00  0.00     0.135 A 
ATOM     60  C   UNL A   1      46.260  33.612  27.508  1.00  0.00     0.135 A 
ATOM     61  F   UNL A   1      46.789  32.344  30.880  1.00  0.00    -0.206 F 
ATOM     62  C   UNL A   1      47.030  34.518  30.025  1.00  0.00     0.059 A 
ATOM     63  C   UNL A   1      46.582  34.954  27.678  1.00  0.00     0.059 A 
ATOM     64  F   UNL A   1      45.873  33.206  26.289  1.00  0.00    -0.206 F 
ATOM     65  C   UNL A   1      46.951  35.400  28.944  1.00  0.00     0.060 A 
BRANCH  65  66
ATOM     66  S   UNL A   1      47.335  37.142  29.217  1.00  0.00     0.124 S 
ATOM     67  O   UNL A   1      46.012  37.751  29.113  1.00  0.00    -0.237 OA
ATOM     68  O   UNL A   1      47.923  37.127  30.552  1.00  0.00    -0.237 OA
ATOM     69  O   UNL A   1      48.259  37.462  28.132  1.00  0.00    -0.744 OA
ENDBRANCH  65  66
ENDBRANCH  44  58
BRANCH  45  70
ATOM     70  C   UNL A   1      43.538  23.301  26.739  1.00  0.00     0.058 A 
ATOM     71  C   UNL A   1      43.557  22.674  25.480  1.00  0.00     0.135 A 
ATOM     72  C   UNL A   1      43.119  22.528  27.832  1.00  0.00     0.135 A 
ATOM     73  F   UNL A   1      43.943  23.362  24.394  1.00  0.00    -0.206 F 
ATOM     74  C   UNL A   1      43.161  21.351  25.306  1.00  0.00     0.059 A 
ATOM     75  C   UNL A   1      42.752  21.190  27.689  1.00  0.00     0.059 A 
ATOM     76  F   UNL A   1      43.070  23.065  29.060  1.00  0.00    -0.206 F 
ATOM     77  C   UNL A   1      42.759  20.615  26.420  1.00  0.00     0.060 A 
BRANCH  77  78
ATOM     78  S   UNL A   1      42.275  18.888  26.200  1.00  0.00     0.124 S 
ATOM     79  O   UNL A   1      43.179  18.464  25.137  1.00  0.00    -0.237 OA
ATOM     80  O   UNL A   1      42.533  18.323  27.520  1.00  0.00    -0.237 OA
ATOM     81  O   UNL A   1      40.866  18.982  25.830  1.00  0.00    -0.744 OA
ENDBRANCH  77  78
ENDBRANCH  45  70
BRANCH  57  82
ATOM     82  C   UNL A   1      49.648  26.654  26.444  1.00  0.00     0.058 A 
ATOM     83  C   UNL A   1      50.500  26.014  27.360  1.00  0.00     0.135 A 
ATOM     84  C   UNL A   1      50.105  26.801  25.125  1.00  0.00     0.135 A 
ATOM     85  F   UNL A   1      50.117  25.844  28.636  1.00  0.00    -0.206 F 
ATOM     86  C   UNL A   1      51.761  25.557  26.988  1.00  0.00     0.059 A 
ATOM     87  C   UNL A   1      51.350  26.324  24.723  1.00  0.00     0.059 A 
ATOM     88  F   UNL A   1      49.328  27.392  24.202  1.00  0.00    -0.206 F 
ATOM     89  C   UNL A   1      52.176  25.712  25.665  1.00  0.00     0.060 A 
BRANCH  89  90
ATOM     90  S   UNL A   1      53.796  25.072  25.186  1.00  0.00     0.124 S 
ATOM     91  O   UNL A   1      53.576  23.631  25.254  1.00  0.00    -0.237 OA
ATOM     92  O   UNL A   1      53.965  25.625  23.846  1.00  0.00    -0.237 OA
ATOM     93  O   UNL A   1      54.692  25.619  26.200  1.00  0.00    -0.744 OA
ENDBRANCH  89  90
ENDBRANCH  57  82
ENDBRANCH  31  32
ENDBRANCH  24  26
ENDBRANCH  23  24
ENDBRANCH  22  23
ENDBRANCH   1  22
TORSDOF 19
ENDMDL
