MODEL 1
REMARK VINA RESULT:     -11.4      0.000      0.000
REMARK SMILES O=C(OCCOC(=O)c1cccc(N[C@H]2CCCC[C@@H]2O)c1)c1ccc(-c2c3nc(c(-c4c(F)cc(S(=O)(=O)[O-])cc4F)c4ccc([nH]4)c(-c4c(F)cc(S(=O)(=O)[O-])cc4F)c4nc(c(-c5c(F)cc(S(=O)(=O)[O-])cc5F)c5ccc2[nH]5)C=C4)C=C3)cc1
REMARK SMILES IDX 4 1 3 2 2 3 1 4 23 5 24 6 88 7 25 8 87 9 26 10 27 11 28 12
REMARK SMILES IDX 81 13 29 14 86 15 80 16 82 17 30 18 85 19 79 20 78 21 31 23
REMARK SMILES IDX 65 24 44 25 64 26 45 27 48 28 63 29 83 30 46 31 47 32 62 34
REMARK SMILES IDX 84 35 49 36 32 37 33 38 42 39 34 40 35 41 41 42 43 43 36 44
REMARK SMILES IDX 37 45 38 46 39 47 40 48 66 49 67 50 76 51 68 52 69 53 75 54
REMARK SMILES IDX 77 55 70 56 71 57 72 58 73 59 74 60 50 61 51 62 60 63 52 64
REMARK SMILES IDX 53 65 59 66 61 67 54 68 55 69 56 70 57 71 58 72 5 73 6 74
REMARK SMILES IDX 7 75 8 76 9 77 10 78 22 79 11 80 13 81 12 82 14 83 15 85
REMARK SMILES IDX 16 86 20 87 17 88 19 89 18 90 21 91
REMARK H PARENT 82 22 48 33 14 84 21 92
REMARK Flexibility Score: inf
ROOT
ATOM      1  C   UNL A   1      40.426  22.626  26.168  1.00  0.00     0.275 C 
ENDROOT
BRANCH   1   2
ATOM      2  O   UNL A   1      41.360  23.673  26.492  1.00  0.00    -0.458 OA
BRANCH   2   3
ATOM      3  C   UNL A   1      41.243  25.019  26.380  1.00  0.00     0.338 C 
ATOM      4  O   UNL A   1      41.477  25.536  25.287  1.00  0.00    -0.246 OA
BRANCH   3   5
ATOM      5  C   UNL A   1      40.974  25.931  27.536  1.00  0.00     0.060 A 
ATOM      6  C   UNL A   1      39.856  25.879  28.367  1.00  0.00     0.016 A 
ATOM      7  C   UNL A   1      41.937  26.929  27.793  1.00  0.00     0.016 A 
ATOM      8  C   UNL A   1      39.734  26.734  29.462  1.00  0.00     0.010 A 
ATOM      9  C   UNL A   1      41.824  27.787  28.894  1.00  0.00     0.010 A 
ATOM     10  C   UNL A   1      40.716  27.687  29.738  1.00  0.00    -0.014 A 
BRANCH  10  11
ATOM     11  C   UNL A   1      40.478  28.624  30.856  1.00  0.00     0.031 A 
ATOM     12  C   UNL A   1      41.275  28.461  32.115  1.00  0.00     0.074 A 
ATOM     13  C   UNL A   1      39.677  29.691  30.676  1.00  0.00     0.049 A 
ATOM     14  N   UNL A   1      41.329  29.242  33.160  1.00  0.00    -0.248 NA
ATOM     15  C   UNL A   1      42.169  27.292  32.188  1.00  0.00     0.031 C 
ATOM     16  C   UNL A   1      38.928  29.981  29.452  1.00  0.00     0.029 A 
ATOM     17  N   UNL A   1      39.360  30.731  31.509  1.00  0.00    -0.354 N 
ATOM     18  C   UNL A   1      42.302  28.696  33.985  1.00  0.00     0.074 A 
ATOM     19  C   UNL A   1      42.766  27.479  33.356  1.00  0.00     0.031 C 
ATOM     20  C   UNL A   1      38.193  31.091  29.634  1.00  0.00     0.029 A 
ATOM     21  C   UNL A   1      38.417  31.584  30.987  1.00  0.00     0.049 A 
ATOM     22  H   UNL A   1      39.767  30.856  32.397  1.00  0.00     0.167 HD
ATOM     23  C   UNL A   1      42.791  29.194  35.144  1.00  0.00     0.037 A 
ATOM     24  C   UNL A   1      37.780  32.623  31.557  1.00  0.00     0.037 A 
ATOM     25  C   UNL A   1      42.281  30.381  35.777  1.00  0.00     0.049 A 
ATOM     26  C   UNL A   1      38.209  33.053  32.930  1.00  0.00     0.074 A 
ATOM     27  C   UNL A   1      42.667  30.956  36.973  1.00  0.00     0.029 A 
ATOM     28  N   UNL A   1      41.256  31.166  35.267  1.00  0.00    -0.354 N 
ATOM     29  N   UNL A   1      39.133  32.531  33.700  1.00  0.00    -0.248 NA
ATOM     30  C   UNL A   1      37.535  34.226  33.498  1.00  0.00     0.031 C 
ATOM     31  C   UNL A   1      41.845  32.065  37.207  1.00  0.00     0.029 A 
ATOM     32  C   UNL A   1      40.981  32.210  36.134  1.00  0.00     0.049 A 
ATOM     33  H   UNL A   1      40.791  31.003  34.414  1.00  0.00     0.167 HD
ATOM     34  C   UNL A   1      39.181  33.333  34.831  1.00  0.00     0.074 A 
ATOM     35  C   UNL A   1      38.192  34.377  34.640  1.00  0.00     0.031 C 
ATOM     36  C   UNL A   1      39.981  33.226  35.922  1.00  0.00     0.037 A 
BRANCH  23  37
ATOM     37  C   UNL A   1      43.925  28.450  35.788  1.00  0.00     0.058 A 
ATOM     38  C   UNL A   1      45.262  28.766  35.497  1.00  0.00     0.135 A 
ATOM     39  C   UNL A   1      43.681  27.424  36.714  1.00  0.00     0.135 A 
ATOM     40  F   UNL A   1      45.552  29.721  34.598  1.00  0.00    -0.206 F 
ATOM     41  C   UNL A   1      46.319  28.082  36.091  1.00  0.00     0.059 A 
ATOM     42  C   UNL A   1      44.722  26.740  37.336  1.00  0.00     0.059 A 
ATOM     43  F   UNL A   1      42.422  27.074  37.018  1.00  0.00    -0.206 F 
ATOM     44  C   UNL A   1      46.038  27.072  37.012  1.00  0.00     0.060 A 
BRANCH  44  45
ATOM     45  S   UNL A   1      47.420  26.206  37.786  1.00  0.00     0.124 S 
ATOM     46  O   UNL A   1      47.266  26.600  39.183  1.00  0.00    -0.237 OA
ATOM     47  O   UNL A   1      47.119  24.809  37.485  1.00  0.00    -0.237 OA
ATOM     48  O   UNL A   1      48.589  26.752  37.105  1.00  0.00    -0.744 OA
ENDBRANCH  44  45
ENDBRANCH  23  37
BRANCH  24  49
ATOM     49  C   UNL A   1      36.645  33.284  30.862  1.00  0.00     0.058 A 
ATOM     50  C   UNL A   1      36.836  34.179  29.802  1.00  0.00     0.135 A 
ATOM     51  C   UNL A   1      35.329  33.039  31.285  1.00  0.00     0.135 A 
ATOM     52  F   UNL A   1      38.075  34.451  29.369  1.00  0.00    -0.206 F 
ATOM     53  C   UNL A   1      35.761  34.828  29.197  1.00  0.00     0.059 A 
ATOM     54  C   UNL A   1      34.238  33.657  30.684  1.00  0.00     0.059 A 
ATOM     55  F   UNL A   1      35.098  32.182  32.291  1.00  0.00    -0.206 F 
ATOM     56  C   UNL A   1      34.467  34.563  29.650  1.00  0.00     0.060 A 
BRANCH  56  57
ATOM     57  S   UNL A   1      33.074  35.391  28.851  1.00  0.00     0.124 S 
ATOM     58  O   UNL A   1      32.312  35.856  30.003  1.00  0.00    -0.237 OA
ATOM     59  O   UNL A   1      33.741  36.423  28.064  1.00  0.00    -0.237 OA
ATOM     60  O   UNL A   1      32.456  34.321  28.074  1.00  0.00    -0.744 OA
ENDBRANCH  56  57
ENDBRANCH  24  49
BRANCH  36  61
ATOM     61  C   UNL A   1      39.831  34.290  36.967  1.00  0.00     0.058 A 
ATOM     62  C   UNL A   1      40.462  35.538  36.845  1.00  0.00     0.135 A 
ATOM     63  C   UNL A   1      39.037  34.059  38.102  1.00  0.00     0.135 A 
ATOM     64  F   UNL A   1      41.241  35.800  35.784  1.00  0.00    -0.206 F 
ATOM     65  C   UNL A   1      40.344  36.507  37.834  1.00  0.00     0.059 A 
ATOM     66  C   UNL A   1      38.880  35.026  39.088  1.00  0.00     0.059 A 
ATOM     67  F   UNL A   1      38.407  32.884  38.260  1.00  0.00    -0.206 F 
ATOM     68  C   UNL A   1      39.553  36.240  38.953  1.00  0.00     0.060 A 
BRANCH  68  69
ATOM     69  S   UNL A   1      39.404  37.505  40.229  1.00  0.00     0.124 S 
ATOM     70  O   UNL A   1      38.478  38.442  39.604  1.00  0.00    -0.237 OA
ATOM     71  O   UNL A   1      38.876  36.748  41.360  1.00  0.00    -0.237 OA
ATOM     72  O   UNL A   1      40.773  37.986  40.390  1.00  0.00    -0.744 OA
ENDBRANCH  68  69
ENDBRANCH  36  61
ENDBRANCH  10  11
ENDBRANCH   3   5
ENDBRANCH   2   3
ENDBRANCH   1   2
BRANCH   1  73
ATOM     73  C   UNL A   1      38.951  22.965  26.413  1.00  0.00     0.275 C 
BRANCH  73  74
ATOM     74  O   UNL A   1      38.042  21.970  25.923  1.00  0.00    -0.458 OA
BRANCH  74  75
ATOM     75  C   UNL A   1      37.108  22.442  25.058  1.00  0.00     0.338 C 
ATOM     76  O   UNL A   1      37.301  22.815  23.911  1.00  0.00    -0.246 OA
BRANCH  75  77
ATOM     77  C   UNL A   1      35.760  22.283  25.635  1.00  0.00     0.062 A 
ATOM     78  C   UNL A   1      35.162  23.418  26.182  1.00  0.00     0.016 A 
ATOM     79  C   UNL A   1      35.096  21.048  25.660  1.00  0.00     0.041 A 
ATOM     80  C   UNL A   1      33.892  23.319  26.732  1.00  0.00     0.003 A 
ATOM     81  C   UNL A   1      33.817  20.923  26.235  1.00  0.00     0.035 A 
ATOM     82  C   UNL A   1      33.241  22.081  26.766  1.00  0.00     0.026 A 
BRANCH  81  83
ATOM     83  N   UNL A   1      33.237  19.675  26.302  1.00  0.00    -0.380 N 
ATOM     84  H   UNL A   1      33.038  19.360  27.213  1.00  0.00     0.160 HD
BRANCH  83  85
ATOM     85  C   UNL A   1      32.864  18.738  25.231  1.00  0.00     0.107 C 
ATOM     86  C   UNL A   1      32.610  19.485  23.913  1.00  0.00     0.027 C 
ATOM     87  C   UNL A   1      33.816  17.523  25.068  1.00  0.00     0.136 C 
ATOM     88  C   UNL A   1      32.214  18.541  22.782  1.00  0.00     0.002 C 
ATOM     89  C   UNL A   1      33.376  16.622  23.911  1.00  0.00     0.034 C 
ATOM     90  C   UNL A   1      33.222  17.409  22.617  1.00  0.00     0.003 C 
BRANCH  87  91
ATOM     91  O   UNL A   1      33.891  16.722  26.244  1.00  0.00    -0.391 OA
ATOM     92  H   UNL A   1      34.708  16.200  26.227  1.00  0.00     0.211 HD
ENDBRANCH  87  91
ENDBRANCH  83  85
ENDBRANCH  81  83
ENDBRANCH  75  77
ENDBRANCH  74  75
ENDBRANCH  73  74
ENDBRANCH   1  73
TORSDOF 17
ENDMDL
MODEL 2
REMARK VINA RESULT:     -11.3      1.462      2.408
REMARK SMILES O=C(OCCOC(=O)c1cccc(N[C@H]2CCCC[C@@H]2O)c1)c1ccc(-c2c3nc(c(-c4c(F)cc(S(=O)(=O)[O-])cc4F)c4ccc([nH]4)c(-c4c(F)cc(S(=O)(=O)[O-])cc4F)c4nc(c(-c5c(F)cc(S(=O)(=O)[O-])cc5F)c5ccc2[nH]5)C=C4)C=C3)cc1
REMARK SMILES IDX 4 1 3 2 2 3 1 4 23 5 24 6 88 7 25 8 87 9 26 10 27 11 28 12
REMARK SMILES IDX 81 13 29 14 86 15 80 16 82 17 30 18 85 19 79 20 78 21 31 23
REMARK SMILES IDX 65 24 44 25 64 26 45 27 48 28 63 29 83 30 46 31 47 32 62 34
REMARK SMILES IDX 84 35 49 36 32 37 33 38 42 39 34 40 35 41 41 42 43 43 36 44
REMARK SMILES IDX 37 45 38 46 39 47 40 48 66 49 67 50 76 51 68 52 69 53 75 54
REMARK SMILES IDX 77 55 70 56 71 57 72 58 73 59 74 60 50 61 51 62 60 63 52 64
REMARK SMILES IDX 53 65 59 66 61 67 54 68 55 69 56 70 57 71 58 72 5 73 6 74
REMARK SMILES IDX 7 75 8 76 9 77 10 78 22 79 11 80 13 81 12 82 14 83 15 85
REMARK SMILES IDX 16 86 20 87 17 88 19 89 18 90 21 91
REMARK H PARENT 82 22 48 33 14 84 21 92
REMARK Flexibility Score: inf
ROOT
ATOM      1  C   UNL A   1      43.150  23.073  27.099  1.00  0.00     0.275 C 
ENDROOT
BRANCH   1   2
ATOM      2  O   UNL A   1      43.177  24.214  26.221  1.00  0.00    -0.458 OA
BRANCH   2   3
ATOM      3  C   UNL A   1      42.360  25.294  26.160  1.00  0.00     0.338 C 
ATOM      4  O   UNL A   1      41.972  25.671  25.054  1.00  0.00    -0.246 OA
BRANCH   3   5
ATOM      5  C   UNL A   1      42.003  26.137  27.345  1.00  0.00     0.060 A 
ATOM      6  C   UNL A   1      40.896  25.947  28.171  1.00  0.00     0.016 A 
ATOM      7  C   UNL A   1      42.861  27.217  27.636  1.00  0.00     0.016 A 
ATOM      8  C   UNL A   1      40.690  26.750  29.293  1.00  0.00     0.010 A 
ATOM      9  C   UNL A   1      42.665  28.024  28.763  1.00  0.00     0.010 A 
ATOM     10  C   UNL A   1      41.574  27.787  29.602  1.00  0.00    -0.014 A 
BRANCH  10  11
ATOM     11  C   UNL A   1      41.245  28.659  30.748  1.00  0.00     0.031 A 
ATOM     12  C   UNL A   1      42.050  28.530  32.006  1.00  0.00     0.074 A 
ATOM     13  C   UNL A   1      40.346  29.651  30.599  1.00  0.00     0.049 A 
ATOM     14  N   UNL A   1      42.027  29.276  33.077  1.00  0.00    -0.248 NA
ATOM     15  C   UNL A   1      43.050  27.448  32.046  1.00  0.00     0.031 C 
ATOM     16  C   UNL A   1      39.576  29.910  29.381  1.00  0.00     0.029 A 
ATOM     17  N   UNL A   1      39.929  30.627  31.465  1.00  0.00    -0.354 N 
ATOM     18  C   UNL A   1      43.045  28.798  33.889  1.00  0.00     0.074 A 
ATOM     19  C   UNL A   1      43.624  27.652  33.223  1.00  0.00     0.031 C 
ATOM     20  C   UNL A   1      38.739  30.938  29.596  1.00  0.00     0.029 A 
ATOM     21  C   UNL A   1      38.911  31.404  30.966  1.00  0.00     0.049 A 
ATOM     22  H   UNL A   1      40.320  30.759  32.359  1.00  0.00     0.167 HD
ATOM     23  C   UNL A   1      43.481  29.300  35.067  1.00  0.00     0.037 A 
ATOM     24  C   UNL A   1      38.178  32.359  31.566  1.00  0.00     0.037 A 
ATOM     25  C   UNL A   1      42.859  30.411  35.736  1.00  0.00     0.049 A 
ATOM     26  C   UNL A   1      38.559  32.780  32.955  1.00  0.00     0.074 A 
ATOM     27  C   UNL A   1      43.185  30.980  36.953  1.00  0.00     0.029 A 
ATOM     28  N   UNL A   1      41.765  31.112  35.246  1.00  0.00    -0.354 N 
ATOM     29  N   UNL A   1      39.526  32.322  33.713  1.00  0.00    -0.248 NA
ATOM     30  C   UNL A   1      37.776  33.865  33.558  1.00  0.00     0.031 C 
ATOM     31  C   UNL A   1      42.261  31.998  37.219  1.00  0.00     0.029 A 
ATOM     32  C   UNL A   1      41.390  32.096  36.146  1.00  0.00     0.049 A 
ATOM     33  H   UNL A   1      41.321  30.935  34.385  1.00  0.00     0.167 HD
ATOM     34  C   UNL A   1      39.496  33.086  34.870  1.00  0.00     0.074 A 
ATOM     35  C   UNL A   1      38.412  34.038  34.708  1.00  0.00     0.031 C 
ATOM     36  C   UNL A   1      40.299  33.020  35.961  1.00  0.00     0.037 A 
BRANCH  23  37
ATOM     37  C   UNL A   1      44.679  28.645  35.693  1.00  0.00     0.058 A 
ATOM     38  C   UNL A   1      45.983  29.060  35.376  1.00  0.00     0.135 A 
ATOM     39  C   UNL A   1      44.529  27.608  36.625  1.00  0.00     0.135 A 
ATOM     40  F   UNL A   1      46.184  30.030  34.470  1.00  0.00    -0.206 F 
ATOM     41  C   UNL A   1      47.098  28.459  35.953  1.00  0.00     0.059 A 
ATOM     42  C   UNL A   1      45.628  27.007  37.230  1.00  0.00     0.059 A 
ATOM     43  F   UNL A   1      43.304  27.166  36.953  1.00  0.00    -0.206 F 
ATOM     44  C   UNL A   1      46.910  27.434  36.882  1.00  0.00     0.060 A 
BRANCH  44  45
ATOM     45  S   UNL A   1      48.366  26.677  37.633  1.00  0.00     0.124 S 
ATOM     46  O   UNL A   1      48.828  25.802  36.560  1.00  0.00    -0.237 OA
ATOM     47  O   UNL A   1      49.210  27.836  37.913  1.00  0.00    -0.237 OA
ATOM     48  O   UNL A   1      47.830  25.998  38.809  1.00  0.00    -0.744 OA
ENDBRANCH  44  45
ENDBRANCH  23  37
BRANCH  24  49
ATOM     49  C   UNL A   1      36.987  32.931  30.887  1.00  0.00     0.058 A 
ATOM     50  C   UNL A   1      35.691  32.451  31.116  1.00  0.00     0.135 A 
ATOM     51  C   UNL A   1      37.145  33.972  29.957  1.00  0.00     0.135 A 
ATOM     52  F   UNL A   1      35.491  31.453  31.989  1.00  0.00    -0.206 F 
ATOM     53  C   UNL A   1      34.594  32.967  30.431  1.00  0.00     0.059 A 
ATOM     54  C   UNL A   1      36.064  34.518  29.275  1.00  0.00     0.059 A 
ATOM     55  F   UNL A   1      38.367  34.469  29.712  1.00  0.00    -0.206 F 
ATOM     56  C   UNL A   1      34.792  33.997  29.509  1.00  0.00     0.060 A 
BRANCH  56  57
ATOM     57  S   UNL A   1      33.364  34.677  28.635  1.00  0.00     0.124 S 
ATOM     58  O   UNL A   1      32.465  34.982  29.740  1.00  0.00    -0.237 OA
ATOM     59  O   UNL A   1      33.945  35.824  27.944  1.00  0.00    -0.237 OA
ATOM     60  O   UNL A   1      32.953  33.575  27.769  1.00  0.00    -0.744 OA
ENDBRANCH  56  57
ENDBRANCH  24  49
BRANCH  36  61
ATOM     61  C   UNL A   1      40.046  34.029  37.041  1.00  0.00     0.058 A 
ATOM     62  C   UNL A   1      39.175  33.764  38.109  1.00  0.00     0.135 A 
ATOM     63  C   UNL A   1      40.690  35.277  37.006  1.00  0.00     0.135 A 
ATOM     64  F   UNL A   1      38.527  32.590  38.177  1.00  0.00    -0.206 F 
ATOM     65  C   UNL A   1      38.922  34.717  39.088  1.00  0.00     0.059 A 
ATOM     66  C   UNL A   1      40.475  36.233  37.992  1.00  0.00     0.059 A 
ATOM     67  F   UNL A   1      41.537  35.574  36.009  1.00  0.00    -0.206 F 
ATOM     68  C   UNL A   1      39.575  35.949  39.018  1.00  0.00     0.060 A 
BRANCH  68  69
ATOM     69  S   UNL A   1      39.240  37.178  40.295  1.00  0.00     0.124 S 
ATOM     70  O   UNL A   1      38.485  38.178  39.547  1.00  0.00    -0.237 OA
ATOM     71  O   UNL A   1      38.480  36.411  41.276  1.00  0.00    -0.237 OA
ATOM     72  O   UNL A   1      40.573  37.590  40.726  1.00  0.00    -0.744 OA
ENDBRANCH  68  69
ENDBRANCH  36  61
ENDBRANCH  10  11
ENDBRANCH   3   5
ENDBRANCH   2   3
ENDBRANCH   1   2
BRANCH   1  73
ATOM     73  C   UNL A   1      42.947  21.720  26.409  1.00  0.00     0.275 C 
BRANCH  73  74
ATOM     74  O   UNL A   1      41.668  21.583  25.776  1.00  0.00    -0.458 OA
BRANCH  74  75
ATOM     75  C   UNL A   1      40.660  21.235  26.617  1.00  0.00     0.338 C 
ATOM     76  O   UNL A   1      40.753  20.529  27.610  1.00  0.00    -0.246 OA
BRANCH  75  77
ATOM     77  C   UNL A   1      39.433  21.976  26.270  1.00  0.00     0.062 A 
ATOM     78  C   UNL A   1      39.347  23.302  26.694  1.00  0.00     0.016 A 
ATOM     79  C   UNL A   1      38.377  21.387  25.561  1.00  0.00     0.041 A 
ATOM     80  C   UNL A   1      38.214  24.042  26.386  1.00  0.00     0.003 A 
ATOM     81  C   UNL A   1      37.210  22.114  25.260  1.00  0.00     0.035 A 
ATOM     82  C   UNL A   1      37.158  23.444  25.690  1.00  0.00     0.026 A 
BRANCH  81  83
ATOM     83  N   UNL A   1      36.169  21.470  24.626  1.00  0.00    -0.380 N 
ATOM     84  H   UNL A   1      36.407  20.608  24.213  1.00  0.00     0.160 HD
BRANCH  83  85
ATOM     85  C   UNL A   1      34.760  21.861  24.469  1.00  0.00     0.107 C 
ATOM     86  C   UNL A   1      34.577  22.767  23.243  1.00  0.00     0.027 C 
ATOM     87  C   UNL A   1      33.749  20.684  24.513  1.00  0.00     0.136 C 
ATOM     88  C   UNL A   1      33.125  23.196  23.054  1.00  0.00     0.002 C 
ATOM     89  C   UNL A   1      32.314  21.175  24.305  1.00  0.00     0.034 C 
ATOM     90  C   UNL A   1      32.184  21.998  23.030  1.00  0.00     0.003 C 
BRANCH  87  91
ATOM     91  O   UNL A   1      33.794  19.967  25.743  1.00  0.00    -0.391 OA
ATOM     92  H   UNL A   1      32.959  19.489  25.869  1.00  0.00     0.211 HD
ENDBRANCH  87  91
ENDBRANCH  83  85
ENDBRANCH  81  83
ENDBRANCH  75  77
ENDBRANCH  74  75
ENDBRANCH  73  74
ENDBRANCH   1  73
TORSDOF 17
ENDMDL
MODEL 3
REMARK VINA RESULT:     -11.2      1.003      2.051
REMARK SMILES O=C(OCCOC(=O)c1cccc(N[C@H]2CCCC[C@@H]2O)c1)c1ccc(-c2c3nc(c(-c4c(F)cc(S(=O)(=O)[O-])cc4F)c4ccc([nH]4)c(-c4c(F)cc(S(=O)(=O)[O-])cc4F)c4nc(c(-c5c(F)cc(S(=O)(=O)[O-])cc5F)c5ccc2[nH]5)C=C4)C=C3)cc1
REMARK SMILES IDX 4 1 3 2 2 3 1 4 23 5 24 6 88 7 25 8 87 9 26 10 27 11 28 12
REMARK SMILES IDX 81 13 29 14 86 15 80 16 82 17 30 18 85 19 79 20 78 21 31 23
REMARK SMILES IDX 65 24 44 25 64 26 45 27 48 28 63 29 83 30 46 31 47 32 62 34
REMARK SMILES IDX 84 35 49 36 32 37 33 38 42 39 34 40 35 41 41 42 43 43 36 44
REMARK SMILES IDX 37 45 38 46 39 47 40 48 66 49 67 50 76 51 68 52 69 53 75 54
REMARK SMILES IDX 77 55 70 56 71 57 72 58 73 59 74 60 50 61 51 62 60 63 52 64
REMARK SMILES IDX 53 65 59 66 61 67 54 68 55 69 56 70 57 71 58 72 5 73 6 74
REMARK SMILES IDX 7 75 8 76 9 77 10 78 22 79 11 80 13 81 12 82 14 83 15 85
REMARK SMILES IDX 16 86 20 87 17 88 19 89 18 90 21 91
REMARK H PARENT 82 22 48 33 14 84 21 92
REMARK Flexibility Score: inf
ROOT
ATOM      1  C   UNL A   1      41.694  22.753  26.347  1.00  0.00     0.275 C 
ENDROOT
BRANCH   1   2
ATOM      2  O   UNL A   1      42.404  23.997  26.489  1.00  0.00    -0.458 OA
BRANCH   2   3
ATOM      3  C   UNL A   1      41.965  25.275  26.380  1.00  0.00     0.338 C 
ATOM      4  O   UNL A   1      41.930  25.788  25.261  1.00  0.00    -0.246 OA
BRANCH   3   5
ATOM      5  C   UNL A   1      41.641  26.149  27.552  1.00  0.00     0.060 A 
ATOM      6  C   UNL A   1      40.548  25.991  28.404  1.00  0.00     0.016 A 
ATOM      7  C   UNL A   1      42.519  27.223  27.803  1.00  0.00     0.016 A 
ATOM      8  C   UNL A   1      40.375  26.821  29.511  1.00  0.00     0.010 A 
ATOM      9  C   UNL A   1      42.356  28.056  28.917  1.00  0.00     0.010 A 
ATOM     10  C   UNL A   1      41.278  27.852  29.781  1.00  0.00    -0.014 A 
BRANCH  10  11
ATOM     11  C   UNL A   1      40.982  28.752  30.914  1.00  0.00     0.031 A 
ATOM     12  C   UNL A   1      41.788  28.617  32.171  1.00  0.00     0.074 A 
ATOM     13  C   UNL A   1      40.116  29.771  30.753  1.00  0.00     0.049 A 
ATOM     14  N   UNL A   1      41.794  29.381  33.230  1.00  0.00    -0.248 NA
ATOM     15  C   UNL A   1      42.752  27.504  32.225  1.00  0.00     0.031 C 
ATOM     16  C   UNL A   1      39.350  30.035  29.534  1.00  0.00     0.029 A 
ATOM     17  N   UNL A   1      39.736  30.774  31.604  1.00  0.00    -0.354 N 
ATOM     18  C   UNL A   1      42.799  28.882  34.046  1.00  0.00     0.074 A 
ATOM     19  C   UNL A   1      43.337  27.708  33.396  1.00  0.00     0.031 C 
ATOM     20  C   UNL A   1      38.548  31.094  29.735  1.00  0.00     0.029 A 
ATOM     21  C   UNL A   1      38.742  31.576  31.096  1.00  0.00     0.049 A 
ATOM     22  H   UNL A   1      40.134  30.908  32.494  1.00  0.00     0.167 HD
ATOM     23  C   UNL A   1      43.257  29.389  35.214  1.00  0.00     0.037 A 
ATOM     24  C   UNL A   1      38.042  32.564  31.683  1.00  0.00     0.037 A 
ATOM     25  C   UNL A   1      42.675  30.531  35.867  1.00  0.00     0.049 A 
ATOM     26  C   UNL A   1      38.443  32.995  33.064  1.00  0.00     0.074 A 
ATOM     27  C   UNL A   1      43.025  31.108  37.073  1.00  0.00     0.029 A 
ATOM     28  N   UNL A   1      41.602  31.260  35.370  1.00  0.00    -0.354 N 
ATOM     29  N   UNL A   1      39.398  32.518  33.826  1.00  0.00    -0.248 NA
ATOM     30  C   UNL A   1      37.699  34.114  33.652  1.00  0.00     0.031 C 
ATOM     31  C   UNL A   1      42.135  32.159  37.326  1.00  0.00     0.029 A 
ATOM     32  C   UNL A   1      41.264  32.269  36.255  1.00  0.00     0.049 A 
ATOM     33  H   UNL A   1      41.148  31.083  34.514  1.00  0.00     0.167 HD
ATOM     34  C   UNL A   1      39.397  33.301  34.970  1.00  0.00     0.074 A 
ATOM     35  C   UNL A   1      38.345  34.285  34.797  1.00  0.00     0.031 C 
ATOM     36  C   UNL A   1      40.202  33.225  36.060  1.00  0.00     0.037 A 
BRANCH  23  37
ATOM     37  C   UNL A   1      44.435  28.705  35.846  1.00  0.00     0.058 A 
ATOM     38  C   UNL A   1      44.262  27.631  36.734  1.00  0.00     0.135 A 
ATOM     39  C   UNL A   1      45.746  29.111  35.555  1.00  0.00     0.135 A 
ATOM     40  F   UNL A   1      43.028  27.219  37.068  1.00  0.00    -0.206 F 
ATOM     41  C   UNL A   1      45.349  26.991  37.323  1.00  0.00     0.059 A 
ATOM     42  C   UNL A   1      46.848  28.473  36.116  1.00  0.00     0.059 A 
ATOM     43  F   UNL A   1      45.965  30.141  34.722  1.00  0.00    -0.206 F 
ATOM     44  C   UNL A   1      46.639  27.418  37.005  1.00  0.00     0.060 A 
BRANCH  44  45
ATOM     45  S   UNL A   1      48.038  26.566  37.764  1.00  0.00     0.124 S 
ATOM     46  O   UNL A   1      47.542  25.195  37.836  1.00  0.00    -0.237 OA
ATOM     47  O   UNL A   1      49.107  26.803  36.799  1.00  0.00    -0.237 OA
ATOM     48  O   UNL A   1      48.194  27.244  39.047  1.00  0.00    -0.744 OA
ENDBRANCH  44  45
ENDBRANCH  23  37
BRANCH  24  49
ATOM     49  C   UNL A   1      36.868  33.165  30.999  1.00  0.00     0.058 A 
ATOM     50  C   UNL A   1      35.551  32.847  31.354  1.00  0.00     0.135 A 
ATOM     51  C   UNL A   1      37.061  34.063  29.937  1.00  0.00     0.135 A 
ATOM     52  F   UNL A   1      35.317  31.987  32.357  1.00  0.00    -0.206 F 
ATOM     53  C   UNL A   1      34.464  33.381  30.667  1.00  0.00     0.059 A 
ATOM     54  C   UNL A   1      35.993  34.626  29.249  1.00  0.00     0.059 A 
ATOM     55  F   UNL A   1      38.306  34.404  29.568  1.00  0.00    -0.206 F 
ATOM     56  C   UNL A   1      34.697  34.267  29.612  1.00  0.00     0.060 A 
BRANCH  56  57
ATOM     57  S   UNL A   1      33.285  34.973  28.734  1.00  0.00     0.124 S 
ATOM     58  O   UNL A   1      33.884  36.149  28.117  1.00  0.00    -0.237 OA
ATOM     59  O   UNL A   1      32.914  33.891  27.829  1.00  0.00    -0.237 OA
ATOM     60  O   UNL A   1      32.329  35.238  29.807  1.00  0.00    -0.744 OA
ENDBRANCH  56  57
ENDBRANCH  24  49
BRANCH  36  61
ATOM     61  C   UNL A   1      39.987  34.260  37.123  1.00  0.00     0.058 A 
ATOM     62  C   UNL A   1      39.100  34.048  38.189  1.00  0.00     0.135 A 
ATOM     63  C   UNL A   1      40.686  35.477  37.076  1.00  0.00     0.135 A 
ATOM     64  F   UNL A   1      38.400  32.905  38.269  1.00  0.00    -0.206 F 
ATOM     65  C   UNL A   1      38.882  35.025  39.153  1.00  0.00     0.059 A 
ATOM     66  C   UNL A   1      40.507  36.456  38.047  1.00  0.00     0.059 A 
ATOM     67  F   UNL A   1      41.551  35.724  36.080  1.00  0.00    -0.206 F 
ATOM     68  C   UNL A   1      39.589  36.226  39.072  1.00  0.00     0.060 A 
BRANCH  68  69
ATOM     69  S   UNL A   1      39.301  37.486  40.329  1.00  0.00     0.124 S 
ATOM     70  O   UNL A   1      40.611  38.122  40.411  1.00  0.00    -0.237 OA
ATOM     71  O   UNL A   1      38.241  38.291  39.728  1.00  0.00    -0.237 OA
ATOM     72  O   UNL A   1      38.903  36.711  41.500  1.00  0.00    -0.744 OA
ENDBRANCH  68  69
ENDBRANCH  36  61
ENDBRANCH  10  11
ENDBRANCH   3   5
ENDBRANCH   2   3
ENDBRANCH   1   2
BRANCH   1  73
ATOM     73  C   UNL A   1      40.433  22.616  27.208  1.00  0.00     0.275 C 
BRANCH  73  74
ATOM     74  O   UNL A   1      39.263  22.254  26.461  1.00  0.00    -0.458 OA
BRANCH  74  75
ATOM     75  C   UNL A   1      38.465  23.300  26.127  1.00  0.00     0.338 C 
ATOM     76  O   UNL A   1      38.742  24.486  26.225  1.00  0.00    -0.246 OA
BRANCH  75  77
ATOM     77  C   UNL A   1      37.249  22.812  25.451  1.00  0.00     0.062 A 
ATOM     78  C   UNL A   1      36.646  23.665  24.527  1.00  0.00     0.016 A 
ATOM     79  C   UNL A   1      36.692  21.554  25.725  1.00  0.00     0.041 A 
ATOM     80  C   UNL A   1      35.502  23.248  23.862  1.00  0.00     0.003 A 
ATOM     81  C   UNL A   1      35.519  21.123  25.077  1.00  0.00     0.035 A 
ATOM     82  C   UNL A   1      34.945  21.997  24.149  1.00  0.00     0.026 A 
BRANCH  81  83
ATOM     83  N   UNL A   1      34.970  19.910  25.433  1.00  0.00    -0.380 N 
ATOM     84  H   UNL A   1      35.097  19.660  26.378  1.00  0.00     0.160 HD
BRANCH  83  85
ATOM     85  C   UNL A   1      34.223  18.929  24.631  1.00  0.00     0.107 C 
ATOM     86  C   UNL A   1      35.107  17.726  24.275  1.00  0.00     0.027 C 
ATOM     87  C   UNL A   1      32.847  18.521  25.219  1.00  0.00     0.136 C 
ATOM     88  C   UNL A   1      34.363  16.691  23.437  1.00  0.00     0.002 C 
ATOM     89  C   UNL A   1      32.155  17.473  24.343  1.00  0.00     0.034 C 
ATOM     90  C   UNL A   1      33.055  16.269  24.096  1.00  0.00     0.003 C 
BRANCH  87  91
ATOM     91  O   UNL A   1      31.960  19.626  25.363  1.00  0.00    -0.391 OA
ATOM     92  H   UNL A   1      31.562  19.609  26.248  1.00  0.00     0.211 HD
ENDBRANCH  87  91
ENDBRANCH  83  85
ENDBRANCH  81  83
ENDBRANCH  75  77
ENDBRANCH  74  75
ENDBRANCH  73  74
ENDBRANCH   1  73
TORSDOF 17
ENDMDL
