MODEL 1
REMARK VINA RESULT:     -11.3      0.000      0.000
REMARK SMILES Cc1ccc(C)c(N2C(=O)S[C@H](CC(=O)Nc3ccc(C(=O)OCCOC(=O)c4ccc(-c5c6nc(c(-c7c(F)cc(S(=O)(=O)[O-])cc7F)c7ccc([nH]7)c(-c7c(F)cc(S(=O)(=O)[O-])cc7F)c7nc(c(-c8c(F)cc(S(=O)(=O)[O-])cc8F)c8ccc5[nH]8)C=C7)C=C6)cc4)c(O)c3)C2=O)c1
REMARK SMILES IDX 24 1 23 2 21 3 22 4 20 5 17 6 18 7 97 8 19 9 95 10 16 11
REMARK SMILES IDX 14 12 15 13 13 15 12 16 8 17 9 18 98 19 10 20 11 21 99 22
REMARK SMILES IDX 7 23 1 24 2 25 3 26 100 27 4 28 5 29 6 30 96 31 25 33 26 34
REMARK SMILES IDX 27 35 28 36 29 37 30 38 94 39 31 40 93 41 32 42 33 43 34 44
REMARK SMILES IDX 87 45 35 46 92 47 86 48 88 49 36 50 91 51 85 52 84 53 37 55
REMARK SMILES IDX 71 56 50 57 70 58 51 59 54 60 69 61 89 62 52 63 53 64 68 66
REMARK SMILES IDX 90 67 55 68 38 69 39 70 48 71 40 72 41 73 47 74 49 75 42 76
REMARK SMILES IDX 43 77 44 78 45 79 46 80 72 81 73 82 82 83 74 84 75 85 81 86
REMARK SMILES IDX 83 87 76 88 77 89 78 90 79 91 80 92 56 93 57 94 66 95 58 96
REMARK SMILES IDX 59 97 65 98 67 99 60 100 61 101 62 102 63 103 64 104
REMARK H PARENT 16 14 96 32 88 54 54 65
REMARK Flexibility Score: inf
ROOT
ATOM      1  C   UNL A   1      33.552  34.565  28.688  1.00  0.00     0.275 C 
ENDROOT
BRANCH   1   2
ATOM      2  O   UNL A   1      34.304  34.756  29.887  1.00  0.00    -0.458 OA
BRANCH   2   3
ATOM      3  C   UNL A   1      33.556  35.202  30.923  1.00  0.00     0.342 C 
ATOM      4  O   UNL A   1      32.599  35.954  30.881  1.00  0.00    -0.246 OA
BRANCH   3   5
ATOM      5  C   UNL A   1      34.213  34.829  32.171  1.00  0.00     0.101 A 
ATOM      6  C   UNL A   1      35.246  34.045  34.630  1.00  0.00     0.044 A 
ATOM      7  C   UNL A   1      35.062  35.395  34.330  1.00  0.00     0.027 A 
ATOM      8  C   UNL A   1      35.063  33.093  33.630  1.00  0.00     0.073 A 
ATOM      9  C   UNL A   1      34.499  35.794  33.127  1.00  0.00     0.022 A 
ATOM     10  C   UNL A   1      34.558  33.494  32.392  1.00  0.00     0.132 A 
BRANCH   6  11
ATOM     11  N   UNL A   1      35.651  33.656  35.916  1.00  0.00    -0.326 N 
ATOM     12  C   UNL A   1      36.944  33.513  36.375  1.00  0.00     0.226 C 
ATOM     13  O   UNL A   1      37.173  32.864  37.395  1.00  0.00    -0.275 OA
ATOM     14  H   UNL A   1      34.934  33.464  36.562  1.00  0.00     0.169 HD
BRANCH  12  15
ATOM     15  C   UNL A   1      38.031  34.363  35.730  1.00  0.00     0.125 C 
BRANCH  15  16
ATOM     16  C   UNL A   1      39.331  33.638  35.403  1.00  0.00     0.156 C 
ATOM     17  N   UNL A   1      39.637  33.480  33.027  1.00  0.00    -0.240 N 
ATOM     18  C   UNL A   1      39.162  32.203  33.246  1.00  0.00     0.293 C 
ATOM     19  C   UNL A   1      39.907  34.255  34.140  1.00  0.00     0.248 C 
ATOM     20  O   UNL A   1      38.860  31.346  32.455  1.00  0.00    -0.261 OA
ATOM     21  S   UNL A   1      39.129  31.889  34.980  1.00  0.00    -0.050 SA
ATOM     22  O   UNL A   1      40.514  35.324  34.157  1.00  0.00    -0.273 OA
BRANCH  17  23
ATOM     23  C   UNL A   1      40.140  33.835  31.754  1.00  0.00     0.056 A 
ATOM     24  C   UNL A   1      43.481  33.837  29.892  1.00  0.00     0.044 C 
ATOM     25  C   UNL A   1      42.024  33.999  30.212  1.00  0.00    -0.049 A 
ATOM     26  C   UNL A   1      41.174  34.572  29.260  1.00  0.00     0.004 A 
ATOM     27  C   UNL A   1      41.494  33.613  31.454  1.00  0.00     0.030 A 
ATOM     28  C   UNL A   1      39.826  34.781  29.550  1.00  0.00     0.006 A 
ATOM     29  C   UNL A   1      39.294  34.428  30.799  1.00  0.00    -0.027 A 
ATOM     30  C   UNL A   1      37.837  34.707  31.043  1.00  0.00     0.046 C 
ENDBRANCH  17  23
ENDBRANCH  15  16
ENDBRANCH  12  15
ENDBRANCH   6  11
BRANCH  10  31
ATOM     31  O   UNL A   1      34.403  32.533  31.432  1.00  0.00    -0.507 OA
ATOM     32  H   UNL A   1      34.877  31.727  31.496  1.00  0.00     0.293 HD
ENDBRANCH  10  31
ENDBRANCH   3   5
ENDBRANCH   2   3
ENDBRANCH   1   2
BRANCH   1  33
ATOM     33  C   UNL A   1      34.474  34.243  27.507  1.00  0.00     0.275 C 
BRANCH  33  34
ATOM     34  O   UNL A   1      35.532  33.252  27.686  1.00  0.00    -0.458 OA
BRANCH  34  35
ATOM     35  C   UNL A   1      35.339  31.922  27.906  1.00  0.00     0.338 C 
ATOM     36  O   UNL A   1      34.415  31.316  27.386  1.00  0.00    -0.246 OA
BRANCH  35  37
ATOM     37  C   UNL A   1      36.336  31.245  28.763  1.00  0.00     0.060 A 
ATOM     38  C   UNL A   1      36.142  29.907  29.131  1.00  0.00     0.016 A 
ATOM     39  C   UNL A   1      37.552  31.863  29.004  1.00  0.00     0.016 A 
ATOM     40  C   UNL A   1      37.235  29.130  29.515  1.00  0.00     0.010 A 
ATOM     41  C   UNL A   1      38.648  31.064  29.245  1.00  0.00     0.010 A 
ATOM     42  C   UNL A   1      38.513  29.695  29.509  1.00  0.00    -0.014 A 
BRANCH  42  43
ATOM     43  C   UNL A   1      39.711  28.880  29.743  1.00  0.00     0.031 A 
ATOM     44  C   UNL A   1      40.211  28.678  31.146  1.00  0.00     0.074 A 
ATOM     45  C   UNL A   1      40.271  28.143  28.760  1.00  0.00     0.049 A 
ATOM     46  N   UNL A   1      41.317  29.107  31.673  1.00  0.00    -0.248 NA
ATOM     47  C   UNL A   1      39.386  27.911  32.087  1.00  0.00     0.031 C 
ATOM     48  C   UNL A   1      39.848  27.963  27.362  1.00  0.00     0.029 A 
ATOM     49  N   UNL A   1      41.344  27.317  28.853  1.00  0.00    -0.354 N 
ATOM     50  C   UNL A   1      41.416  28.540  32.950  1.00  0.00     0.074 A 
ATOM     51  C   UNL A   1      40.143  27.909  33.189  1.00  0.00     0.031 C 
ATOM     52  C   UNL A   1      40.502  26.919  26.817  1.00  0.00     0.029 A 
ATOM     53  C   UNL A   1      41.543  26.521  27.740  1.00  0.00     0.049 A 
ATOM     54  H   UNL A   1      41.930  27.285  29.644  1.00  0.00     0.167 HD
ATOM     55  C   UNL A   1      42.589  28.508  33.655  1.00  0.00     0.037 A 
ATOM     56  C   UNL A   1      42.535  25.631  27.533  1.00  0.00     0.037 A 
ATOM     57  C   UNL A   1      43.577  29.371  33.059  1.00  0.00     0.049 A 
ATOM     58  C   UNL A   1      43.670  26.057  28.385  1.00  0.00     0.074 A 
ATOM     59  C   UNL A   1      43.676  30.729  32.828  1.00  0.00     0.029 A 
ATOM     60  N   UNL A   1      44.546  28.800  32.271  1.00  0.00    -0.354 N 
ATOM     61  N   UNL A   1      44.308  27.187  28.222  1.00  0.00    -0.248 NA
ATOM     62  C   UNL A   1      43.811  25.447  29.696  1.00  0.00     0.031 C 
ATOM     63  C   UNL A   1      44.295  30.832  31.545  1.00  0.00     0.029 A 
ATOM     64  C   UNL A   1      44.583  29.535  31.113  1.00  0.00     0.049 A 
ATOM     65  H   UNL A   1      45.103  28.019  32.493  1.00  0.00     0.167 HD
ATOM     66  C   UNL A   1      44.586  27.634  29.506  1.00  0.00     0.074 A 
ATOM     67  C   UNL A   1      44.342  26.475  30.364  1.00  0.00     0.031 C 
ATOM     68  C   UNL A   1      44.745  28.962  29.791  1.00  0.00     0.037 A 
BRANCH  55  69
ATOM     69  C   UNL A   1      42.983  27.515  34.736  1.00  0.00     0.058 A 
ATOM     70  C   UNL A   1      43.063  27.940  36.086  1.00  0.00     0.135 A 
ATOM     71  C   UNL A   1      43.543  26.248  34.476  1.00  0.00     0.135 A 
ATOM     72  F   UNL A   1      42.556  29.125  36.463  1.00  0.00    -0.206 F 
ATOM     73  C   UNL A   1      43.723  27.204  37.074  1.00  0.00     0.059 A 
ATOM     74  C   UNL A   1      44.164  25.474  35.459  1.00  0.00     0.059 A 
ATOM     75  F   UNL A   1      43.600  25.743  33.238  1.00  0.00    -0.206 F 
ATOM     76  C   UNL A   1      44.292  25.981  36.744  1.00  0.00     0.060 A 
BRANCH  76  77
ATOM     77  S   UNL A   1      45.265  25.096  37.981  1.00  0.00     0.124 S 
ATOM     78  O   UNL A   1      44.974  23.707  37.642  1.00  0.00    -0.237 OA
ATOM     79  O   UNL A   1      46.621  25.553  37.690  1.00  0.00    -0.237 OA
ATOM     80  O   UNL A   1      44.709  25.567  39.245  1.00  0.00    -0.744 OA
ENDBRANCH  76  77
ENDBRANCH  55  69
BRANCH  56  81
ATOM     81  C   UNL A   1      42.364  24.292  26.933  1.00  0.00     0.058 A 
ATOM     82  C   UNL A   1      43.322  23.750  26.068  1.00  0.00     0.135 A 
ATOM     83  C   UNL A   1      41.357  23.414  27.396  1.00  0.00     0.135 A 
ATOM     84  F   UNL A   1      44.316  24.519  25.598  1.00  0.00    -0.206 F 
ATOM     85  C   UNL A   1      43.311  22.399  25.711  1.00  0.00     0.059 A 
ATOM     86  C   UNL A   1      41.324  22.067  27.050  1.00  0.00     0.059 A 
ATOM     87  F   UNL A   1      40.423  23.830  28.266  1.00  0.00    -0.206 F 
ATOM     88  C   UNL A   1      42.320  21.561  26.225  1.00  0.00     0.060 A 
BRANCH  88  89
ATOM     89  S   UNL A   1      42.411  19.784  25.907  1.00  0.00     0.124 S 
ATOM     90  O   UNL A   1      41.082  19.507  25.372  1.00  0.00    -0.237 OA
ATOM     91  O   UNL A   1      43.514  19.699  24.956  1.00  0.00    -0.237 OA
ATOM     92  O   UNL A   1      42.684  19.217  27.225  1.00  0.00    -0.744 OA
ENDBRANCH  88  89
ENDBRANCH  56  81
BRANCH  68  93
ATOM     93  C   UNL A   1      44.837  29.949  28.649  1.00  0.00     0.058 A 
ATOM     94  C   UNL A   1      43.721  30.550  28.041  1.00  0.00     0.135 A 
ATOM     95  C   UNL A   1      46.095  30.458  28.298  1.00  0.00     0.135 A 
ATOM     96  F   UNL A   1      42.478  30.203  28.390  1.00  0.00    -0.206 F 
ATOM     97  C   UNL A   1      43.846  31.584  27.110  1.00  0.00     0.059 A 
ATOM     98  C   UNL A   1      46.246  31.508  27.392  1.00  0.00     0.059 A 
ATOM     99  F   UNL A   1      47.202  29.978  28.890  1.00  0.00    -0.206 F 
ATOM    100  C   UNL A   1      45.115  32.061  26.795  1.00  0.00     0.060 A 
BRANCH 100 101
ATOM    101  S   UNL A   1      45.267  33.462  25.664  1.00  0.00     0.124 S 
ATOM    102  O   UNL A   1      44.653  32.942  24.448  1.00  0.00    -0.237 OA
ATOM    103  O   UNL A   1      44.520  34.512  26.352  1.00  0.00    -0.237 OA
ATOM    104  O   UNL A   1      46.710  33.685  25.589  1.00  0.00    -0.744 OA
ENDBRANCH 100 101
ENDBRANCH  68  93
ENDBRANCH  42  43
ENDBRANCH  35  37
ENDBRANCH  34  35
ENDBRANCH  33  34
ENDBRANCH   1  33
TORSDOF 19
ENDMDL
MODEL 2
REMARK VINA RESULT:     -11.3      3.114     11.678
REMARK SMILES Cc1ccc(C)c(N2C(=O)S[C@H](CC(=O)Nc3ccc(C(=O)OCCOC(=O)c4ccc(-c5c6nc(c(-c7c(F)cc(S(=O)(=O)[O-])cc7F)c7ccc([nH]7)c(-c7c(F)cc(S(=O)(=O)[O-])cc7F)c7nc(c(-c8c(F)cc(S(=O)(=O)[O-])cc8F)c8ccc5[nH]8)C=C7)C=C6)cc4)c(O)c3)C2=O)c1
REMARK SMILES IDX 24 1 23 2 21 3 22 4 20 5 17 6 18 7 97 8 19 9 95 10 16 11
REMARK SMILES IDX 14 12 15 13 13 15 12 16 8 17 9 18 98 19 10 20 11 21 99 22
REMARK SMILES IDX 7 23 1 24 2 25 3 26 100 27 4 28 5 29 6 30 96 31 25 33 26 34
REMARK SMILES IDX 27 35 28 36 29 37 30 38 94 39 31 40 93 41 32 42 33 43 34 44
REMARK SMILES IDX 87 45 35 46 92 47 86 48 88 49 36 50 91 51 85 52 84 53 37 55
REMARK SMILES IDX 71 56 50 57 70 58 51 59 54 60 69 61 89 62 52 63 53 64 68 66
REMARK SMILES IDX 90 67 55 68 38 69 39 70 48 71 40 72 41 73 47 74 49 75 42 76
REMARK SMILES IDX 43 77 44 78 45 79 46 80 72 81 73 82 82 83 74 84 75 85 81 86
REMARK SMILES IDX 83 87 76 88 77 89 78 90 79 91 80 92 56 93 57 94 66 95 58 96
REMARK SMILES IDX 59 97 65 98 67 99 60 100 61 101 62 102 63 103 64 104
REMARK H PARENT 16 14 96 32 88 54 54 65
REMARK Flexibility Score: inf
ROOT
ATOM      1  C   UNL A   1      42.607  21.582  25.817  1.00  0.00     0.275 C 
ENDROOT
BRANCH   1   2
ATOM      2  O   UNL A   1      43.306  22.821  25.708  1.00  0.00    -0.458 OA
BRANCH   2   3
ATOM      3  C   UNL A   1      43.926  22.984  24.516  1.00  0.00     0.342 C 
ATOM      4  O   UNL A   1      43.745  22.352  23.490  1.00  0.00    -0.246 OA
BRANCH   3   5
ATOM      5  C   UNL A   1      45.045  23.904  24.690  1.00  0.00     0.101 A 
ATOM      6  C   UNL A   1      47.124  25.746  24.801  1.00  0.00     0.044 A 
ATOM      7  C   UNL A   1      47.379  24.394  24.568  1.00  0.00     0.027 A 
ATOM      8  C   UNL A   1      45.835  26.149  25.141  1.00  0.00     0.073 A 
ATOM      9  C   UNL A   1      46.345  23.476  24.459  1.00  0.00     0.022 A 
ATOM     10  C   UNL A   1      44.797  25.216  25.098  1.00  0.00     0.132 A 
BRANCH   6  11
ATOM     11  N   UNL A   1      48.167  26.683  24.732  1.00  0.00    -0.326 N 
ATOM     12  C   UNL A   1      48.782  27.323  25.788  1.00  0.00     0.226 C 
ATOM     13  O   UNL A   1      49.440  28.345  25.596  1.00  0.00    -0.275 OA
ATOM     14  H   UNL A   1      48.495  26.908  23.832  1.00  0.00     0.169 HD
BRANCH  12  15
ATOM     15  C   UNL A   1      48.818  26.612  27.134  1.00  0.00     0.125 C 
BRANCH  15  16
ATOM     16  C   UNL A   1      48.184  27.364  28.298  1.00  0.00     0.156 C 
ATOM     17  N   UNL A   1      46.262  26.183  29.120  1.00  0.00    -0.240 N 
ATOM     18  C   UNL A   1      45.600  27.123  28.355  1.00  0.00     0.293 C 
ATOM     19  C   UNL A   1      47.628  26.339  29.271  1.00  0.00     0.248 C 
ATOM     20  O   UNL A   1      44.430  27.208  28.081  1.00  0.00    -0.261 OA
ATOM     21  S   UNL A   1      46.743  28.364  27.849  1.00  0.00    -0.050 SA
ATOM     22  O   UNL A   1      48.350  25.735  30.062  1.00  0.00    -0.273 OA
BRANCH  17  23
ATOM     23  C   UNL A   1      45.528  25.327  29.973  1.00  0.00     0.056 A 
ATOM     24  C   UNL A   1      44.277  25.265  33.586  1.00  0.00     0.044 C 
ATOM     25  C   UNL A   1      44.545  24.881  32.161  1.00  0.00    -0.049 A 
ATOM     26  C   UNL A   1      44.122  23.631  31.698  1.00  0.00     0.004 A 
ATOM     27  C   UNL A   1      45.233  25.735  31.284  1.00  0.00     0.030 A 
ATOM     28  C   UNL A   1      44.402  23.228  30.392  1.00  0.00     0.006 A 
ATOM     29  C   UNL A   1      45.116  24.061  29.518  1.00  0.00    -0.027 A 
ATOM     30  C   UNL A   1      45.398  23.545  28.134  1.00  0.00     0.046 C 
ENDBRANCH  17  23
ENDBRANCH  15  16
ENDBRANCH  12  15
ENDBRANCH   6  11
BRANCH  10  31
ATOM     31  O   UNL A   1      43.547  25.646  25.449  1.00  0.00    -0.507 OA
ATOM     32  H   UNL A   1      42.861  25.023  25.591  1.00  0.00     0.293 HD
ENDBRANCH  10  31
ENDBRANCH   3   5
ENDBRANCH   2   3
ENDBRANCH   1   2
BRANCH   1  33
ATOM     33  C   UNL A   1      42.244  21.281  27.275  1.00  0.00     0.275 C 
BRANCH  33  34
ATOM     34  O   UNL A   1      40.999  21.817  27.819  1.00  0.00    -0.458 OA
BRANCH  34  35
ATOM     35  C   UNL A   1      40.238  22.787  27.240  1.00  0.00     0.338 C 
ATOM     36  O   UNL A   1      39.176  22.527  26.697  1.00  0.00    -0.246 OA
BRANCH  35  37
ATOM     37  C   UNL A   1      40.742  24.174  27.352  1.00  0.00     0.060 A 
ATOM     38  C   UNL A   1      40.179  25.183  26.560  1.00  0.00     0.016 A 
ATOM     39  C   UNL A   1      41.600  24.500  28.389  1.00  0.00     0.016 A 
ATOM     40  C   UNL A   1      40.287  26.516  26.959  1.00  0.00     0.010 A 
ATOM     41  C   UNL A   1      41.586  25.795  28.858  1.00  0.00     0.010 A 
ATOM     42  C   UNL A   1      40.940  26.821  28.157  1.00  0.00    -0.014 A 
BRANCH  42  43
ATOM     43  C   UNL A   1      40.936  28.183  28.704  1.00  0.00     0.031 A 
ATOM     44  C   UNL A   1      42.040  29.135  28.338  1.00  0.00     0.074 A 
ATOM     45  C   UNL A   1      39.872  28.677  29.373  1.00  0.00     0.049 A 
ATOM     46  N   UNL A   1      42.957  29.635  29.108  1.00  0.00    -0.248 NA
ATOM     47  C   UNL A   1      42.149  29.589  26.946  1.00  0.00     0.031 C 
ATOM     48  C   UNL A   1      38.571  28.052  29.661  1.00  0.00     0.029 A 
ATOM     49  N   UNL A   1      39.722  29.925  29.886  1.00  0.00    -0.354 N 
ATOM     50  C   UNL A   1      43.660  30.584  28.356  1.00  0.00     0.074 A 
ATOM     51  C   UNL A   1      43.191  30.426  27.003  1.00  0.00     0.031 C 
ATOM     52  C   UNL A   1      37.697  28.988  30.080  1.00  0.00     0.029 A 
ATOM     53  C   UNL A   1      38.438  30.210  30.310  1.00  0.00     0.049 A 
ATOM     54  H   UNL A   1      40.462  30.571  29.949  1.00  0.00     0.167 HD
ATOM     55  C   UNL A   1      44.469  31.529  28.929  1.00  0.00     0.037 A 
ATOM     56  C   UNL A   1      37.995  31.347  30.885  1.00  0.00     0.037 A 
ATOM     57  C   UNL A   1      44.724  31.223  30.313  1.00  0.00     0.049 A 
ATOM     58  C   UNL A   1      39.173  31.987  31.517  1.00  0.00     0.074 A 
ATOM     59  C   UNL A   1      45.343  30.189  30.988  1.00  0.00     0.029 A 
ATOM     60  N   UNL A   1      44.003  31.896  31.270  1.00  0.00    -0.354 N 
ATOM     61  N   UNL A   1      39.841  31.448  32.505  1.00  0.00    -0.248 NA
ATOM     62  C   UNL A   1      39.888  33.005  30.766  1.00  0.00     0.031 C 
ATOM     63  C   UNL A   1      44.537  29.983  32.149  1.00  0.00     0.029 A 
ATOM     64  C   UNL A   1      43.522  30.942  32.131  1.00  0.00     0.049 A 
ATOM     65  H   UNL A   1      43.861  32.869  31.326  1.00  0.00     0.167 HD
ATOM     66  C   UNL A   1      41.171  31.751  32.252  1.00  0.00     0.074 A 
ATOM     67  C   UNL A   1      41.126  32.791  31.223  1.00  0.00     0.031 C 
ATOM     68  C   UNL A   1      42.192  30.965  32.708  1.00  0.00     0.037 A 
BRANCH  55  69
ATOM     69  C   UNL A   1      44.843  32.886  28.356  1.00  0.00     0.058 A 
ATOM     70  C   UNL A   1      46.200  33.181  28.075  1.00  0.00     0.135 A 
ATOM     71  C   UNL A   1      43.973  33.995  28.326  1.00  0.00     0.135 A 
ATOM     72  F   UNL A   1      47.125  32.208  28.063  1.00  0.00    -0.206 F 
ATOM     73  C   UNL A   1      46.666  34.483  27.869  1.00  0.00     0.059 A 
ATOM     74  C   UNL A   1      44.409  35.298  28.074  1.00  0.00     0.059 A 
ATOM     75  F   UNL A   1      42.676  33.882  28.636  1.00  0.00    -0.206 F 
ATOM     76  C   UNL A   1      45.763  35.539  27.894  1.00  0.00     0.060 A 
BRANCH  76  77
ATOM     77  S   UNL A   1      46.379  37.231  27.769  1.00  0.00     0.124 S 
ATOM     78  O   UNL A   1      45.686  37.707  26.577  1.00  0.00    -0.237 OA
ATOM     79  O   UNL A   1      45.942  37.812  29.035  1.00  0.00    -0.237 OA
ATOM     80  O   UNL A   1      47.822  37.054  27.632  1.00  0.00    -0.744 OA
ENDBRANCH  76  77
ENDBRANCH  55  69
BRANCH  56  81
ATOM     81  C   UNL A   1      36.718  32.019  30.570  1.00  0.00     0.058 A 
ATOM     82  C   UNL A   1      35.825  32.404  31.578  1.00  0.00     0.135 A 
ATOM     83  C   UNL A   1      36.460  32.513  29.271  1.00  0.00     0.135 A 
ATOM     84  F   UNL A   1      36.013  31.984  32.838  1.00  0.00    -0.206 F 
ATOM     85  C   UNL A   1      34.757  33.267  31.325  1.00  0.00     0.059 A 
ATOM     86  C   UNL A   1      35.401  33.371  28.994  1.00  0.00     0.059 A 
ATOM     87  F   UNL A   1      37.287  32.238  28.250  1.00  0.00    -0.206 F 
ATOM     88  C   UNL A   1      34.566  33.763  30.034  1.00  0.00     0.060 A 
BRANCH  88  89
ATOM     89  S   UNL A   1      33.297  35.016  29.745  1.00  0.00     0.124 S 
ATOM     90  O   UNL A   1      32.544  34.432  28.640  1.00  0.00    -0.237 OA
ATOM     91  O   UNL A   1      32.611  35.059  31.032  1.00  0.00    -0.237 OA
ATOM     92  O   UNL A   1      34.068  36.212  29.413  1.00  0.00    -0.744 OA
ENDBRANCH  88  89
ENDBRANCH  56  81
BRANCH  68  93
ATOM     93  C   UNL A   1      41.881  29.862  33.694  1.00  0.00     0.058 A 
ATOM     94  C   UNL A   1      41.637  28.527  33.326  1.00  0.00     0.135 A 
ATOM     95  C   UNL A   1      42.036  30.119  35.064  1.00  0.00     0.135 A 
ATOM     96  F   UNL A   1      41.578  28.169  32.039  1.00  0.00    -0.206 F 
ATOM     97  C   UNL A   1      41.526  27.503  34.269  1.00  0.00     0.059 A 
ATOM     98  C   UNL A   1      41.956  29.109  36.023  1.00  0.00     0.059 A 
ATOM     99  F   UNL A   1      42.338  31.359  35.484  1.00  0.00    -0.206 F 
ATOM    100  C   UNL A   1      41.691  27.802  35.618  1.00  0.00     0.060 A 
BRANCH 100 101
ATOM    101  S   UNL A   1      41.641  26.460  36.826  1.00  0.00     0.124 S 
ATOM    102  O   UNL A   1      42.888  26.658  37.556  1.00  0.00    -0.237 OA
ATOM    103  O   UNL A   1      40.419  26.746  37.572  1.00  0.00    -0.237 OA
ATOM    104  O   UNL A   1      41.586  25.257  35.997  1.00  0.00    -0.744 OA
ENDBRANCH 100 101
ENDBRANCH  68  93
ENDBRANCH  42  43
ENDBRANCH  35  37
ENDBRANCH  34  35
ENDBRANCH  33  34
ENDBRANCH   1  33
TORSDOF 19
ENDMDL
MODEL 3
REMARK VINA RESULT:     -11.1      4.765     11.631
REMARK SMILES Cc1ccc(C)c(N2C(=O)S[C@H](CC(=O)Nc3ccc(C(=O)OCCOC(=O)c4ccc(-c5c6nc(c(-c7c(F)cc(S(=O)(=O)[O-])cc7F)c7ccc([nH]7)c(-c7c(F)cc(S(=O)(=O)[O-])cc7F)c7nc(c(-c8c(F)cc(S(=O)(=O)[O-])cc8F)c8ccc5[nH]8)C=C7)C=C6)cc4)c(O)c3)C2=O)c1
REMARK SMILES IDX 24 1 23 2 21 3 22 4 20 5 17 6 18 7 97 8 19 9 95 10 16 11
REMARK SMILES IDX 14 12 15 13 13 15 12 16 8 17 9 18 98 19 10 20 11 21 99 22
REMARK SMILES IDX 7 23 1 24 2 25 3 26 100 27 4 28 5 29 6 30 96 31 25 33 26 34
REMARK SMILES IDX 27 35 28 36 29 37 30 38 94 39 31 40 93 41 32 42 33 43 34 44
REMARK SMILES IDX 87 45 35 46 92 47 86 48 88 49 36 50 91 51 85 52 84 53 37 55
REMARK SMILES IDX 71 56 50 57 70 58 51 59 54 60 69 61 89 62 52 63 53 64 68 66
REMARK SMILES IDX 90 67 55 68 38 69 39 70 48 71 40 72 41 73 47 74 49 75 42 76
REMARK SMILES IDX 43 77 44 78 45 79 46 80 72 81 73 82 82 83 74 84 75 85 81 86
REMARK SMILES IDX 83 87 76 88 77 89 78 90 79 91 80 92 56 93 57 94 66 95 58 96
REMARK SMILES IDX 59 97 65 98 67 99 60 100 61 101 62 102 63 103 64 104
REMARK H PARENT 16 14 96 32 88 54 54 65
REMARK Flexibility Score: inf
ROOT
ATOM      1  C   UNL A   1      37.726  22.346  25.326  1.00  0.00     0.275 C 
ENDROOT
BRANCH   1   2
ATOM      2  O   UNL A   1      37.085  21.514  24.359  1.00  0.00    -0.458 OA
BRANCH   2   3
ATOM      3  C   UNL A   1      35.940  20.951  24.811  1.00  0.00     0.342 C 
ATOM      4  O   UNL A   1      35.671  19.766  24.884  1.00  0.00    -0.246 OA
BRANCH   3   5
ATOM      5  C   UNL A   1      34.944  22.001  24.997  1.00  0.00     0.101 A 
ATOM      6  C   UNL A   1      32.875  23.827  25.334  1.00  0.00     0.044 A 
ATOM      7  C   UNL A   1      33.566  23.745  24.125  1.00  0.00     0.027 A 
ATOM      8  C   UNL A   1      33.332  23.101  26.431  1.00  0.00     0.073 A 
ATOM      9  C   UNL A   1      34.564  22.802  23.930  1.00  0.00     0.022 A 
ATOM     10  C   UNL A   1      34.381  22.197  26.260  1.00  0.00     0.132 A 
BRANCH   6  11
ATOM     11  N   UNL A   1      31.755  24.664  25.453  1.00  0.00    -0.326 N 
ATOM     12  C   UNL A   1      31.686  25.875  26.108  1.00  0.00     0.226 C 
ATOM     13  O   UNL A   1      30.595  26.351  26.422  1.00  0.00    -0.275 OA
ATOM     14  H   UNL A   1      30.928  24.353  25.020  1.00  0.00     0.169 HD
BRANCH  12  15
ATOM     15  C   UNL A   1      32.959  26.703  26.221  1.00  0.00     0.125 C 
BRANCH  15  16
ATOM     16  C   UNL A   1      33.142  27.784  25.162  1.00  0.00     0.156 C 
ATOM     17  N   UNL A   1      31.144  28.033  23.854  1.00  0.00    -0.240 N 
ATOM     18  C   UNL A   1      31.863  27.259  22.965  1.00  0.00     0.293 C 
ATOM     19  C   UNL A   1      31.810  28.490  24.977  1.00  0.00     0.248 C 
ATOM     20  O   UNL A   1      31.516  26.753  21.928  1.00  0.00    -0.261 OA
ATOM     21  S   UNL A   1      33.536  27.157  23.510  1.00  0.00    -0.050 SA
ATOM     22  O   UNL A   1      31.409  29.341  25.769  1.00  0.00    -0.273 OA
BRANCH  17  23
ATOM     23  C   UNL A   1      29.914  28.603  23.455  1.00  0.00     0.056 A 
ATOM     24  C   UNL A   1      28.561  31.996  22.319  1.00  0.00     0.044 C 
ATOM     25  C   UNL A   1      28.648  30.545  22.692  1.00  0.00    -0.049 A 
ATOM     26  C   UNL A   1      27.483  29.772  22.709  1.00  0.00     0.004 A 
ATOM     27  C   UNL A   1      29.868  29.947  23.048  1.00  0.00     0.030 A 
ATOM     28  C   UNL A   1      27.527  28.433  23.100  1.00  0.00     0.006 A 
ATOM     29  C   UNL A   1      28.735  27.836  23.488  1.00  0.00    -0.027 A 
ATOM     30  C   UNL A   1      28.697  26.395  23.918  1.00  0.00     0.046 C 
ENDBRANCH  17  23
ENDBRANCH  15  16
ENDBRANCH  12  15
ENDBRANCH   6  11
BRANCH  10  31
ATOM     31  O   UNL A   1      34.809  21.510  27.363  1.00  0.00    -0.507 OA
ATOM     32  H   UNL A   1      35.247  21.965  28.056  1.00  0.00     0.293 HD
ENDBRANCH  10  31
ENDBRANCH   3   5
ENDBRANCH   2   3
ENDBRANCH   1   2
BRANCH   1  33
ATOM     33  C   UNL A   1      38.945  21.645  25.934  1.00  0.00     0.275 C 
BRANCH  33  34
ATOM     34  O   UNL A   1      39.436  22.085  27.237  1.00  0.00    -0.458 OA
BRANCH  34  35
ATOM     35  C   UNL A   1      40.722  22.432  27.519  1.00  0.00     0.338 C 
ATOM     36  O   UNL A   1      41.578  21.590  27.741  1.00  0.00    -0.246 OA
BRANCH  35  37
ATOM     37  C   UNL A   1      41.035  23.878  27.489  1.00  0.00     0.060 A 
ATOM     38  C   UNL A   1      40.101  24.781  26.964  1.00  0.00     0.016 A 
ATOM     39  C   UNL A   1      42.142  24.345  28.179  1.00  0.00     0.016 A 
ATOM     40  C   UNL A   1      40.151  26.124  27.339  1.00  0.00     0.010 A 
ATOM     41  C   UNL A   1      42.108  25.635  28.660  1.00  0.00     0.010 A 
ATOM     42  C   UNL A   1      41.125  26.544  28.249  1.00  0.00    -0.014 A 
BRANCH  42  43
ATOM     43  C   UNL A   1      41.118  27.904  28.801  1.00  0.00     0.031 A 
ATOM     44  C   UNL A   1      42.232  28.853  28.454  1.00  0.00     0.074 A 
ATOM     45  C   UNL A   1      40.046  28.400  29.455  1.00  0.00     0.049 A 
ATOM     46  N   UNL A   1      43.139  29.347  29.240  1.00  0.00    -0.248 NA
ATOM     47  C   UNL A   1      42.363  29.312  27.066  1.00  0.00     0.031 C 
ATOM     48  C   UNL A   1      38.739  27.780  29.722  1.00  0.00     0.029 A 
ATOM     49  N   UNL A   1      39.894  29.647  29.970  1.00  0.00    -0.354 N 
ATOM     50  C   UNL A   1      43.857  30.296  28.502  1.00  0.00     0.074 A 
ATOM     51  C   UNL A   1      43.408  30.144  27.141  1.00  0.00     0.031 C 
ATOM     52  C   UNL A   1      37.862  28.719  30.131  1.00  0.00     0.029 A 
ATOM     53  C   UNL A   1      38.605  29.936  30.376  1.00  0.00     0.049 A 
ATOM     54  H   UNL A   1      40.636  30.290  30.047  1.00  0.00     0.167 HD
ATOM     55  C   UNL A   1      44.662  31.235  29.090  1.00  0.00     0.037 A 
ATOM     56  C   UNL A   1      38.159  31.074  30.949  1.00  0.00     0.037 A 
ATOM     57  C   UNL A   1      44.895  30.923  30.477  1.00  0.00     0.049 A 
ATOM     58  C   UNL A   1      39.329  31.706  31.601  1.00  0.00     0.074 A 
ATOM     59  C   UNL A   1      45.499  29.884  31.157  1.00  0.00     0.029 A 
ATOM     60  N   UNL A   1      44.162  31.596  31.426  1.00  0.00    -0.354 N 
ATOM     61  N   UNL A   1      39.980  31.161  32.596  1.00  0.00    -0.248 NA
ATOM     62  C   UNL A   1      40.060  32.724  30.864  1.00  0.00     0.031 C 
ATOM     63  C   UNL A   1      44.675  29.678  32.306  1.00  0.00     0.029 A 
ATOM     64  C   UNL A   1      43.664  30.641  32.276  1.00  0.00     0.049 A 
ATOM     65  H   UNL A   1      44.023  32.569  31.483  1.00  0.00     0.167 HD
ATOM     66  C   UNL A   1      41.315  31.460  32.364  1.00  0.00     0.074 A 
ATOM     67  C   UNL A   1      41.290  32.503  31.339  1.00  0.00     0.031 C 
ATOM     68  C   UNL A   1      42.326  30.667  32.833  1.00  0.00     0.037 A 
BRANCH  55  69
ATOM     69  C   UNL A   1      45.050  32.593  28.528  1.00  0.00     0.058 A 
ATOM     70  C   UNL A   1      46.418  32.913  28.345  1.00  0.00     0.135 A 
ATOM     71  C   UNL A   1      44.162  33.682  28.417  1.00  0.00     0.135 A 
ATOM     72  F   UNL A   1      47.361  31.960  28.416  1.00  0.00    -0.206 F 
ATOM     73  C   UNL A   1      46.871  34.222  28.156  1.00  0.00     0.059 A 
ATOM     74  C   UNL A   1      44.589  34.991  28.180  1.00  0.00     0.059 A 
ATOM     75  F   UNL A   1      42.847  33.546  28.631  1.00  0.00    -0.206 F 
ATOM     76  C   UNL A   1      45.947  35.259  28.099  1.00  0.00     0.060 A 
BRANCH  76  77
ATOM     77  S   UNL A   1      46.536  36.962  27.997  1.00  0.00     0.124 S 
ATOM     78  O   UNL A   1      45.681  37.504  26.946  1.00  0.00    -0.237 OA
ATOM     79  O   UNL A   1      46.281  37.458  29.346  1.00  0.00    -0.237 OA
ATOM     80  O   UNL A   1      47.945  36.810  27.647  1.00  0.00    -0.744 OA
ENDBRANCH  76  77
ENDBRANCH  55  69
BRANCH  56  81
ATOM     81  C   UNL A   1      36.888  31.752  30.617  1.00  0.00     0.058 A 
ATOM     82  C   UNL A   1      35.908  31.984  31.589  1.00  0.00     0.135 A 
ATOM     83  C   UNL A   1      36.718  32.403  29.375  1.00  0.00     0.135 A 
ATOM     84  F   UNL A   1      36.009  31.410  32.797  1.00  0.00    -0.206 F 
ATOM     85  C   UNL A   1      34.835  32.849  31.360  1.00  0.00     0.059 A 
ATOM     86  C   UNL A   1      35.657  33.265  29.122  1.00  0.00     0.059 A 
ATOM     87  F   UNL A   1      37.632  32.280  28.398  1.00  0.00    -0.206 F 
ATOM     88  C   UNL A   1      34.730  33.502  30.130  1.00  0.00     0.060 A 
BRANCH  88  89
ATOM     89  S   UNL A   1      33.447  34.754  29.899  1.00  0.00     0.124 S 
ATOM     90  O   UNL A   1      32.843  34.812  31.226  1.00  0.00    -0.237 OA
ATOM     91  O   UNL A   1      34.227  35.921  29.500  1.00  0.00    -0.237 OA
ATOM     92  O   UNL A   1      32.602  34.186  28.853  1.00  0.00    -0.744 OA
ENDBRANCH  88  89
ENDBRANCH  56  81
BRANCH  68  93
ATOM     93  C   UNL A   1      41.995  29.562  33.811  1.00  0.00     0.058 A 
ATOM     94  C   UNL A   1      41.766  28.226  33.436  1.00  0.00     0.135 A 
ATOM     95  C   UNL A   1      42.117  29.818  35.184  1.00  0.00     0.135 A 
ATOM     96  F   UNL A   1      41.739  27.870  32.147  1.00  0.00    -0.206 F 
ATOM     97  C   UNL A   1      41.635  27.201  34.374  1.00  0.00     0.059 A 
ATOM     98  C   UNL A   1      42.018  28.807  36.140  1.00  0.00     0.059 A 
ATOM     99  F   UNL A   1      42.404  31.060  35.612  1.00  0.00    -0.206 F 
ATOM    100  C   UNL A   1      41.768  27.500  35.728  1.00  0.00     0.060 A 
BRANCH 100 101
ATOM    101  S   UNL A   1      41.694  26.156  36.932  1.00  0.00     0.124 S 
ATOM    102  O   UNL A   1      40.352  26.310  37.481  1.00  0.00    -0.237 OA
ATOM    103  O   UNL A   1      41.907  24.972  36.105  1.00  0.00    -0.237 OA
ATOM    104  O   UNL A   1      42.786  26.464  37.854  1.00  0.00    -0.744 OA
ENDBRANCH 100 101
ENDBRANCH  68  93
ENDBRANCH  42  43
ENDBRANCH  35  37
ENDBRANCH  34  35
ENDBRANCH  33  34
ENDBRANCH   1  33
TORSDOF 19
ENDMDL
