MODEL 1
REMARK VINA RESULT:     -11.8      0.000      0.000
REMARK SMILES O=C(OCCOC(=O)[C@H]1C=C[C@H](NS(=O)(=O)c2ccc(F)c(F)c2F)C1)c1ccc(-c2c3nc(c(-c4c(F)cc(S(=O)(=O)[O-])cc4F)c4ccc([nH]4)c(-c4c(F)cc(S(=O)(=O)[O-])cc4F)c4nc(c(-c5c(F)cc(S(=O)(=O)[O-])cc5F)c5ccc2[nH]5)C=C4)C=C3)cc1
REMARK SMILES IDX 4 1 3 2 2 3 1 4 27 5 28 6 92 7 29 8 91 9 30 10 31 11 32 12
REMARK SMILES IDX 85 13 33 14 90 15 84 16 86 17 34 18 89 19 83 20 82 21 35 23
REMARK SMILES IDX 69 24 48 25 68 26 49 27 52 28 67 29 87 30 50 31 51 32 66 34
REMARK SMILES IDX 88 35 53 36 36 37 37 38 46 39 38 40 39 41 45 42 47 43 40 44
REMARK SMILES IDX 41 45 42 46 43 47 44 48 70 49 71 50 80 51 72 52 73 53 79 54
REMARK SMILES IDX 81 55 74 56 75 57 76 58 77 59 78 60 54 61 55 62 64 63 56 64
REMARK SMILES IDX 57 65 63 66 65 67 58 68 59 69 60 70 61 71 62 72 5 73 6 74
REMARK SMILES IDX 7 75 8 76 9 77 10 78 26 79 11 80 12 81 13 82 14 84 15 85
REMARK SMILES IDX 16 86 17 87 18 88 24 89 19 90 22 91 25 92 20 93 23 94 21 95
REMARK H PARENT 86 22 52 33 13 83
REMARK Flexibility Score: inf
ROOT
ATOM      1  C   UNL A   1      40.771  22.011  26.155  1.00  0.00     0.275 C 
ENDROOT
BRANCH   1   2
ATOM      2  O   UNL A   1      41.133  23.039  27.086  1.00  0.00    -0.458 OA
BRANCH   2   3
ATOM      3  C   UNL A   1      41.411  24.340  26.825  1.00  0.00     0.338 C 
ATOM      4  O   UNL A   1      42.050  24.613  25.811  1.00  0.00    -0.246 OA
BRANCH   3   5
ATOM      5  C   UNL A   1      41.140  25.437  27.805  1.00  0.00     0.060 A 
ATOM      6  C   UNL A   1      39.955  25.640  28.520  1.00  0.00     0.016 A 
ATOM      7  C   UNL A   1      42.189  26.347  28.005  1.00  0.00     0.016 A 
ATOM      8  C   UNL A   1      39.860  26.643  29.495  1.00  0.00     0.010 A 
ATOM      9  C   UNL A   1      42.101  27.340  28.982  1.00  0.00     0.010 A 
ATOM     10  C   UNL A   1      40.943  27.481  29.758  1.00  0.00    -0.014 A 
BRANCH  10  11
ATOM     11  C   UNL A   1      40.851  28.588  30.746  1.00  0.00     0.031 A 
ATOM     12  C   UNL A   1      41.672  28.473  32.000  1.00  0.00     0.074 A 
ATOM     13  C   UNL A   1      40.009  29.625  30.559  1.00  0.00     0.049 A 
ATOM     14  N   UNL A   1      41.657  29.215  33.072  1.00  0.00    -0.248 NA
ATOM     15  C   UNL A   1      42.620  27.346  32.057  1.00  0.00     0.031 C 
ATOM     16  C   UNL A   1      39.168  29.826  29.379  1.00  0.00     0.029 A 
ATOM     17  N   UNL A   1      39.685  30.686  31.372  1.00  0.00    -0.354 N 
ATOM     18  C   UNL A   1      42.570  28.627  33.940  1.00  0.00     0.074 A 
ATOM     19  C   UNL A   1      43.071  27.435  33.295  1.00  0.00     0.031 C 
ATOM     20  C   UNL A   1      38.385  30.904  29.568  1.00  0.00     0.029 A 
ATOM     21  C   UNL A   1      38.653  31.464  30.888  1.00  0.00     0.049 A 
ATOM     22  H   UNL A   1      40.146  30.874  32.221  1.00  0.00     0.167 HD
ATOM     23  C   UNL A   1      42.984  29.059  35.154  1.00  0.00     0.037 A 
ATOM     24  C   UNL A   1      37.978  32.484  31.463  1.00  0.00     0.037 A 
ATOM     25  C   UNL A   1      42.467  30.239  35.784  1.00  0.00     0.049 A 
ATOM     26  C   UNL A   1      38.433  32.940  32.837  1.00  0.00     0.074 A 
ATOM     27  C   UNL A   1      42.812  30.798  36.999  1.00  0.00     0.029 A 
ATOM     28  N   UNL A   1      41.472  31.039  35.237  1.00  0.00    -0.354 N 
ATOM     29  N   UNL A   1      39.401  32.453  33.581  1.00  0.00    -0.248 NA
ATOM     30  C   UNL A   1      37.724  34.070  33.452  1.00  0.00     0.031 C 
ATOM     31  C   UNL A   1      42.018  31.936  37.189  1.00  0.00     0.029 A 
ATOM     32  C   UNL A   1      41.200  32.098  36.079  1.00  0.00     0.049 A 
ATOM     33  H   UNL A   1      41.025  30.874  34.375  1.00  0.00     0.167 HD
ATOM     34  C   UNL A   1      39.434  33.234  34.734  1.00  0.00     0.074 A 
ATOM     35  C   UNL A   1      38.404  34.242  34.577  1.00  0.00     0.031 C 
ATOM     36  C   UNL A   1      40.223  33.130  35.832  1.00  0.00     0.037 A 
BRANCH  23  37
ATOM     37  C   UNL A   1      44.057  28.248  35.828  1.00  0.00     0.058 A 
ATOM     38  C   UNL A   1      43.726  27.241  36.752  1.00  0.00     0.135 A 
ATOM     39  C   UNL A   1      45.417  28.517  35.616  1.00  0.00     0.135 A 
ATOM     40  F   UNL A   1      42.439  26.955  37.008  1.00  0.00    -0.206 F 
ATOM     41  C   UNL A   1      44.700  26.578  37.488  1.00  0.00     0.059 A 
ATOM     42  C   UNL A   1      46.412  27.842  36.321  1.00  0.00     0.059 A 
ATOM     43  F   UNL A   1      45.793  29.465  34.744  1.00  0.00    -0.206 F 
ATOM     44  C   UNL A   1      46.041  26.896  37.276  1.00  0.00     0.060 A 
BRANCH  44  45
ATOM     45  S   UNL A   1      47.291  26.064  38.278  1.00  0.00     0.124 S 
ATOM     46  O   UNL A   1      47.443  26.999  39.388  1.00  0.00    -0.237 OA
ATOM     47  O   UNL A   1      46.642  24.798  38.605  1.00  0.00    -0.237 OA
ATOM     48  O   UNL A   1      48.435  25.962  37.378  1.00  0.00    -0.744 OA
ENDBRANCH  44  45
ENDBRANCH  23  37
BRANCH  24  49
ATOM     49  C   UNL A   1      36.768  33.087  30.812  1.00  0.00     0.058 A 
ATOM     50  C   UNL A   1      36.855  33.934  29.697  1.00  0.00     0.135 A 
ATOM     51  C   UNL A   1      35.484  32.882  31.346  1.00  0.00     0.135 A 
ATOM     52  F   UNL A   1      38.043  34.153  29.112  1.00  0.00    -0.206 F 
ATOM     53  C   UNL A   1      35.740  34.608  29.191  1.00  0.00     0.059 A 
ATOM     54  C   UNL A   1      34.354  33.528  30.854  1.00  0.00     0.059 A 
ATOM     55  F   UNL A   1      35.302  32.018  32.353  1.00  0.00    -0.206 F 
ATOM     56  C   UNL A   1      34.494  34.407  29.787  1.00  0.00     0.060 A 
BRANCH  56  57
ATOM     57  S   UNL A   1      33.064  35.315  29.161  1.00  0.00     0.124 S 
ATOM     58  O   UNL A   1      33.688  36.511  28.607  1.00  0.00    -0.237 OA
ATOM     59  O   UNL A   1      32.515  34.371  28.195  1.00  0.00    -0.237 OA
ATOM     60  O   UNL A   1      32.253  35.527  30.358  1.00  0.00    -0.744 OA
ENDBRANCH  56  57
ENDBRANCH  24  49
BRANCH  36  61
ATOM     61  C   UNL A   1      40.089  34.191  36.886  1.00  0.00     0.058 A 
ATOM     62  C   UNL A   1      40.757  35.420  36.789  1.00  0.00     0.135 A 
ATOM     63  C   UNL A   1      39.197  34.004  37.953  1.00  0.00     0.135 A 
ATOM     64  F   UNL A   1      41.626  35.641  35.791  1.00  0.00    -0.206 F 
ATOM     65  C   UNL A   1      40.549  36.429  37.723  1.00  0.00     0.059 A 
ATOM     66  C   UNL A   1      38.957  35.007  38.886  1.00  0.00     0.059 A 
ATOM     67  F   UNL A   1      38.525  32.849  38.080  1.00  0.00    -0.206 F 
ATOM     68  C   UNL A   1      39.642  36.215  38.764  1.00  0.00     0.060 A 
BRANCH  68  69
ATOM     69  S   UNL A   1      39.334  37.553  39.936  1.00  0.00     0.124 S 
ATOM     70  O   UNL A   1      38.959  36.811  41.137  1.00  0.00    -0.237 OA
ATOM     71  O   UNL A   1      40.626  38.231  39.987  1.00  0.00    -0.237 OA
ATOM     72  O   UNL A   1      38.258  38.314  39.307  1.00  0.00    -0.744 OA
ENDBRANCH  68  69
ENDBRANCH  36  61
ENDBRANCH  10  11
ENDBRANCH   3   5
ENDBRANCH   2   3
ENDBRANCH   1   2
BRANCH   1  73
ATOM     73  C   UNL A   1      39.283  21.647  26.146  1.00  0.00     0.274 C 
BRANCH  73  74
ATOM     74  O   UNL A   1      38.431  22.766  25.849  1.00  0.00    -0.462 OA
BRANCH  74  75
ATOM     75  C   UNL A   1      37.162  22.470  25.443  1.00  0.00     0.312 C 
ATOM     76  O   UNL A   1      36.611  21.389  25.628  1.00  0.00    -0.252 OA
BRANCH  75  77
ATOM     77  C   UNL A   1      36.483  23.610  24.684  1.00  0.00     0.123 C 
ATOM     78  C   UNL A   1      35.722  23.172  23.485  1.00  0.00    -0.015 C 
ATOM     79  C   UNL A   1      35.420  24.341  25.528  1.00  0.00     0.043 C 
ATOM     80  C   UNL A   1      34.476  23.645  23.487  1.00  0.00    -0.011 C 
ATOM     81  C   UNL A   1      34.168  24.522  24.636  1.00  0.00     0.093 C 
BRANCH  81  82
ATOM     82  N   UNL A   1      33.997  25.901  24.213  1.00  0.00    -0.204 NA
ATOM     83  H   UNL A   1      34.287  25.920  23.235  1.00  0.00     0.142 HD
BRANCH  82  84
ATOM     84  S   UNL A   1      32.566  26.767  24.265  1.00  0.00     0.244 S 
ATOM     85  O   UNL A   1      32.524  27.468  22.997  1.00  0.00    -0.207 OA
ATOM     86  O   UNL A   1      31.483  25.870  24.602  1.00  0.00    -0.207 OA
BRANCH  84  87
ATOM     87  C   UNL A   1      32.730  27.999  25.523  1.00  0.00     0.121 A 
ATOM     88  C   UNL A   1      33.876  28.010  26.331  1.00  0.00     0.028 A 
ATOM     89  C   UNL A   1      31.860  29.089  25.552  1.00  0.00     0.181 A 
ATOM     90  C   UNL A   1      34.134  29.103  27.167  1.00  0.00     0.044 A 
ATOM     91  C   UNL A   1      32.137  30.185  26.363  1.00  0.00     0.195 A 
ATOM     92  F   UNL A   1      30.766  29.133  24.782  1.00  0.00    -0.202 F 
ATOM     93  C   UNL A   1      33.272  30.194  27.160  1.00  0.00     0.161 A 
ATOM     94  F   UNL A   1      31.334  31.256  26.327  1.00  0.00    -0.200 F 
ATOM     95  F   UNL A   1      33.576  31.271  27.894  1.00  0.00    -0.204 F 
ENDBRANCH  84  87
ENDBRANCH  82  84
ENDBRANCH  81  82
ENDBRANCH  75  77
ENDBRANCH  74  75
ENDBRANCH  73  74
ENDBRANCH   1  73
TORSDOF 17
ENDMDL
MODEL 2
REMARK VINA RESULT:     -11.7      6.555     12.201
REMARK SMILES O=C(OCCOC(=O)[C@H]1C=C[C@H](NS(=O)(=O)c2ccc(F)c(F)c2F)C1)c1ccc(-c2c3nc(c(-c4c(F)cc(S(=O)(=O)[O-])cc4F)c4ccc([nH]4)c(-c4c(F)cc(S(=O)(=O)[O-])cc4F)c4nc(c(-c5c(F)cc(S(=O)(=O)[O-])cc5F)c5ccc2[nH]5)C=C4)C=C3)cc1
REMARK SMILES IDX 4 1 3 2 2 3 1 4 27 5 28 6 92 7 29 8 91 9 30 10 31 11 32 12
REMARK SMILES IDX 85 13 33 14 90 15 84 16 86 17 34 18 89 19 83 20 82 21 35 23
REMARK SMILES IDX 69 24 48 25 68 26 49 27 52 28 67 29 87 30 50 31 51 32 66 34
REMARK SMILES IDX 88 35 53 36 36 37 37 38 46 39 38 40 39 41 45 42 47 43 40 44
REMARK SMILES IDX 41 45 42 46 43 47 44 48 70 49 71 50 80 51 72 52 73 53 79 54
REMARK SMILES IDX 81 55 74 56 75 57 76 58 77 59 78 60 54 61 55 62 64 63 56 64
REMARK SMILES IDX 57 65 63 66 65 67 58 68 59 69 60 70 61 71 62 72 5 73 6 74
REMARK SMILES IDX 7 75 8 76 9 77 10 78 26 79 11 80 12 81 13 82 14 84 15 85
REMARK SMILES IDX 16 86 17 87 18 88 24 89 19 90 22 91 25 92 20 93 23 94 21 95
REMARK H PARENT 86 22 52 33 13 83
REMARK Flexibility Score: inf
ROOT
ATOM      1  C   UNL A   1      34.554  32.091  29.025  1.00  0.00     0.275 C 
ENDROOT
BRANCH   1   2
ATOM      2  O   UNL A   1      35.849  32.125  29.639  1.00  0.00    -0.458 OA
BRANCH   2   3
ATOM      3  C   UNL A   1      36.480  31.131  30.310  1.00  0.00     0.338 C 
ATOM      4  O   UNL A   1      36.046  30.797  31.411  1.00  0.00    -0.246 OA
BRANCH   3   5
ATOM      5  C   UNL A   1      37.784  30.551  29.860  1.00  0.00     0.060 A 
ATOM      6  C   UNL A   1      38.123  30.180  28.555  1.00  0.00     0.016 A 
ATOM      7  C   UNL A   1      38.744  30.362  30.865  1.00  0.00     0.016 A 
ATOM      8  C   UNL A   1      39.419  29.748  28.238  1.00  0.00     0.010 A 
ATOM      9  C   UNL A   1      40.038  29.943  30.552  1.00  0.00     0.010 A 
ATOM     10  C   UNL A   1      40.398  29.658  29.227  1.00  0.00    -0.014 A 
BRANCH  10  11
ATOM     11  C   UNL A   1      41.763  29.151  28.930  1.00  0.00     0.031 A 
ATOM     12  C   UNL A   1      42.867  30.161  28.798  1.00  0.00     0.074 A 
ATOM     13  C   UNL A   1      41.991  27.839  28.716  1.00  0.00     0.049 A 
ATOM     14  N   UNL A   1      44.098  29.998  28.398  1.00  0.00    -0.248 NA
ATOM     15  C   UNL A   1      42.522  31.553  29.139  1.00  0.00     0.031 C 
ATOM     16  C   UNL A   1      40.986  26.781  28.817  1.00  0.00     0.029 A 
ATOM     17  N   UNL A   1      43.128  27.169  28.329  1.00  0.00    -0.354 N 
ATOM     18  C   UNL A   1      44.662  31.268  28.412  1.00  0.00     0.074 A 
ATOM     19  C   UNL A   1      43.624  32.196  28.797  1.00  0.00     0.031 C 
ATOM     20  C   UNL A   1      41.533  25.609  28.445  1.00  0.00     0.029 A 
ATOM     21  C   UNL A   1      42.924  25.831  28.062  1.00  0.00     0.049 A 
ATOM     22  H   UNL A   1      44.008  27.604  28.249  1.00  0.00     0.167 HD
ATOM     23  C   UNL A   1      45.943  31.629  28.163  1.00  0.00     0.037 A 
ATOM     24  C   UNL A   1      43.753  24.904  27.532  1.00  0.00     0.037 A 
ATOM     25  C   UNL A   1      46.958  30.695  27.771  1.00  0.00     0.049 A 
ATOM     26  C   UNL A   1      45.177  25.330  27.229  1.00  0.00     0.074 A 
ATOM     27  C   UNL A   1      48.294  30.923  27.506  1.00  0.00     0.029 A 
ATOM     28  N   UNL A   1      46.731  29.339  27.574  1.00  0.00    -0.354 N 
ATOM     29  N   UNL A   1      45.730  26.512  27.387  1.00  0.00    -0.248 NA
ATOM     30  C   UNL A   1      46.091  24.317  26.684  1.00  0.00     0.031 C 
ATOM     31  C   UNL A   1      48.875  29.702  27.143  1.00  0.00     0.029 A 
ATOM     32  C   UNL A   1      47.905  28.711  27.209  1.00  0.00     0.049 A 
ATOM     33  H   UNL A   1      45.861  28.890  27.680  1.00  0.00     0.167 HD
ATOM     34  C   UNL A   1      47.057  26.376  26.989  1.00  0.00     0.074 A 
ATOM     35  C   UNL A   1      47.232  24.989  26.606  1.00  0.00     0.031 C 
ATOM     36  C   UNL A   1      48.045  27.304  26.926  1.00  0.00     0.037 A 
BRANCH  23  37
ATOM     37  C   UNL A   1      46.280  33.084  28.342  1.00  0.00     0.058 A 
ATOM     38  C   UNL A   1      46.162  33.988  27.271  1.00  0.00     0.135 A 
ATOM     39  C   UNL A   1      46.791  33.571  29.553  1.00  0.00     0.135 A 
ATOM     40  F   UNL A   1      45.696  33.571  26.082  1.00  0.00    -0.206 F 
ATOM     41  C   UNL A   1      46.600  35.303  27.375  1.00  0.00     0.059 A 
ATOM     42  C   UNL A   1      47.207  34.895  29.689  1.00  0.00     0.059 A 
ATOM     43  F   UNL A   1      46.923  32.756  30.611  1.00  0.00    -0.206 F 
ATOM     44  C   UNL A   1      47.135  35.743  28.585  1.00  0.00     0.060 A 
BRANCH  44  45
ATOM     45  S   UNL A   1      47.748  37.438  28.687  1.00  0.00     0.124 S 
ATOM     46  O   UNL A   1      46.837  38.131  27.781  1.00  0.00    -0.237 OA
ATOM     47  O   UNL A   1      47.587  37.748  30.104  1.00  0.00    -0.237 OA
ATOM     48  O   UNL A   1      49.129  37.327  28.228  1.00  0.00    -0.744 OA
ENDBRANCH  44  45
ENDBRANCH  23  37
BRANCH  24  49
ATOM     49  C   UNL A   1      43.263  23.532  27.172  1.00  0.00     0.058 A 
ATOM     50  C   UNL A   1      43.007  22.546  28.136  1.00  0.00     0.135 A 
ATOM     51  C   UNL A   1      43.111  23.150  25.828  1.00  0.00     0.135 A 
ATOM     52  F   UNL A   1      43.101  22.844  29.442  1.00  0.00    -0.206 F 
ATOM     53  C   UNL A   1      42.697  21.230  27.785  1.00  0.00     0.059 A 
ATOM     54  C   UNL A   1      42.789  21.851  25.448  1.00  0.00     0.059 A 
ATOM     55  F   UNL A   1      43.249  24.054  24.850  1.00  0.00    -0.206 F 
ATOM     56  C   UNL A   1      42.604  20.889  26.434  1.00  0.00     0.060 A 
BRANCH  56  57
ATOM     57  S   UNL A   1      42.250  19.177  25.982  1.00  0.00     0.124 S 
ATOM     58  O   UNL A   1      42.670  18.458  27.179  1.00  0.00    -0.237 OA
ATOM     59  O   UNL A   1      40.814  19.229  25.734  1.00  0.00    -0.237 OA
ATOM     60  O   UNL A   1      43.081  18.966  24.799  1.00  0.00    -0.744 OA
ENDBRANCH  56  57
ENDBRANCH  24  49
BRANCH  36  61
ATOM     61  C   UNL A   1      49.418  26.831  26.544  1.00  0.00     0.058 A 
ATOM     62  C   UNL A   1      50.271  26.211  27.468  1.00  0.00     0.135 A 
ATOM     63  C   UNL A   1      49.836  26.912  25.207  1.00  0.00     0.135 A 
ATOM     64  F   UNL A   1      49.917  26.118  28.759  1.00  0.00    -0.206 F 
ATOM     65  C   UNL A   1      51.501  25.692  27.079  1.00  0.00     0.059 A 
ATOM     66  C   UNL A   1      51.052  26.381  24.791  1.00  0.00     0.059 A 
ATOM     67  F   UNL A   1      49.047  27.486  24.285  1.00  0.00    -0.206 F 
ATOM     68  C   UNL A   1      51.880  25.777  25.736  1.00  0.00     0.060 A 
BRANCH  68  69
ATOM     69  S   UNL A   1      53.451  25.047  25.230  1.00  0.00     0.124 S 
ATOM     70  O   UNL A   1      53.635  25.635  23.906  1.00  0.00    -0.237 OA
ATOM     71  O   UNL A   1      54.365  25.517  26.266  1.00  0.00    -0.237 OA
ATOM     72  O   UNL A   1      53.180  23.612  25.246  1.00  0.00    -0.744 OA
ENDBRANCH  68  69
ENDBRANCH  36  61
ENDBRANCH  10  11
ENDBRANCH   3   5
ENDBRANCH   2   3
ENDBRANCH   1   2
BRANCH   1  73
ATOM     73  C   UNL A   1      34.508  31.405  27.657  1.00  0.00     0.274 C 
BRANCH  73  74
ATOM     74  O   UNL A   1      33.594  30.296  27.613  1.00  0.00    -0.462 OA
BRANCH  74  75
ATOM     75  C   UNL A   1      32.414  30.510  26.962  1.00  0.00     0.312 C 
ATOM     76  O   UNL A   1      32.011  31.613  26.605  1.00  0.00    -0.252 OA
BRANCH  75  77
ATOM     77  C   UNL A   1      31.596  29.236  26.747  1.00  0.00     0.123 C 
ATOM     78  C   UNL A   1      31.542  28.782  25.333  1.00  0.00    -0.015 C 
ATOM     79  C   UNL A   1      32.183  28.017  27.486  1.00  0.00     0.043 C 
ATOM     80  C   UNL A   1      31.881  27.499  25.210  1.00  0.00    -0.011 C 
ATOM     81  C   UNL A   1      32.176  26.829  26.494  1.00  0.00     0.093 C 
BRANCH  81  82
ATOM     82  N   UNL A   1      31.152  25.853  26.823  1.00  0.00    -0.204 NA
ATOM     83  H   UNL A   1      30.270  26.281  26.542  1.00  0.00     0.142 HD
BRANCH  82  84
ATOM     84  S   UNL A   1      31.081  24.282  26.251  1.00  0.00     0.244 S 
ATOM     85  O   UNL A   1      30.259  23.583  27.218  1.00  0.00    -0.207 OA
ATOM     86  O   UNL A   1      30.664  24.302  24.866  1.00  0.00    -0.207 OA
BRANCH  84  87
ATOM     87  C   UNL A   1      32.706  23.593  26.372  1.00  0.00     0.121 A 
ATOM     88  C   UNL A   1      32.990  22.673  27.392  1.00  0.00     0.028 A 
ATOM     89  C   UNL A   1      33.618  23.765  25.331  1.00  0.00     0.181 A 
ATOM     90  C   UNL A   1      34.185  21.946  27.367  1.00  0.00     0.044 A 
ATOM     91  C   UNL A   1      34.791  23.017  25.296  1.00  0.00     0.195 A 
ATOM     92  F   UNL A   1      33.380  24.615  24.324  1.00  0.00    -0.202 F 
ATOM     93  C   UNL A   1      35.068  22.108  26.305  1.00  0.00     0.161 A 
ATOM     94  F   UNL A   1      35.623  23.138  24.254  1.00  0.00    -0.200 F 
ATOM     95  F   UNL A   1      36.164  21.342  26.245  1.00  0.00    -0.204 F 
ENDBRANCH  84  87
ENDBRANCH  82  84
ENDBRANCH  81  82
ENDBRANCH  75  77
ENDBRANCH  74  75
ENDBRANCH  73  74
ENDBRANCH   1  73
TORSDOF 17
ENDMDL
MODEL 3
REMARK VINA RESULT:     -11.6      2.957      9.538
REMARK SMILES O=C(OCCOC(=O)[C@H]1C=C[C@H](NS(=O)(=O)c2ccc(F)c(F)c2F)C1)c1ccc(-c2c3nc(c(-c4c(F)cc(S(=O)(=O)[O-])cc4F)c4ccc([nH]4)c(-c4c(F)cc(S(=O)(=O)[O-])cc4F)c4nc(c(-c5c(F)cc(S(=O)(=O)[O-])cc5F)c5ccc2[nH]5)C=C4)C=C3)cc1
REMARK SMILES IDX 4 1 3 2 2 3 1 4 27 5 28 6 92 7 29 8 91 9 30 10 31 11 32 12
REMARK SMILES IDX 85 13 33 14 90 15 84 16 86 17 34 18 89 19 83 20 82 21 35 23
REMARK SMILES IDX 69 24 48 25 68 26 49 27 52 28 67 29 87 30 50 31 51 32 66 34
REMARK SMILES IDX 88 35 53 36 36 37 37 38 46 39 38 40 39 41 45 42 47 43 40 44
REMARK SMILES IDX 41 45 42 46 43 47 44 48 70 49 71 50 80 51 72 52 73 53 79 54
REMARK SMILES IDX 81 55 74 56 75 57 76 58 77 59 78 60 54 61 55 62 64 63 56 64
REMARK SMILES IDX 57 65 63 66 65 67 58 68 59 69 60 70 61 71 62 72 5 73 6 74
REMARK SMILES IDX 7 75 8 76 9 77 10 78 26 79 11 80 12 81 13 82 14 84 15 85
REMARK SMILES IDX 16 86 17 87 18 88 24 89 19 90 22 91 25 92 20 93 23 94 21 95
REMARK H PARENT 86 22 52 33 13 83
REMARK Flexibility Score: inf
ROOT
ATOM      1  C   UNL A   1      44.674  25.980  26.093  1.00  0.00     0.275 C 
ENDROOT
BRANCH   1   2
ATOM      2  O   UNL A   1      43.473  26.135  25.326  1.00  0.00    -0.458 OA
BRANCH   2   3
ATOM      3  C   UNL A   1      42.195  26.165  25.776  1.00  0.00     0.338 C 
ATOM      4  O   UNL A   1      41.296  25.801  25.020  1.00  0.00    -0.246 OA
BRANCH   3   5
ATOM      5  C   UNL A   1      41.810  26.795  27.077  1.00  0.00     0.060 A 
ATOM      6  C   UNL A   1      41.053  26.206  28.095  1.00  0.00     0.016 A 
ATOM      7  C   UNL A   1      42.255  28.111  27.271  1.00  0.00     0.016 A 
ATOM      8  C   UNL A   1      40.850  26.859  29.319  1.00  0.00     0.010 A 
ATOM      9  C   UNL A   1      42.065  28.761  28.492  1.00  0.00     0.010 A 
ATOM     10  C   UNL A   1      41.382  28.129  29.541  1.00  0.00    -0.014 A 
BRANCH  10  11
ATOM     11  C   UNL A   1      41.136  28.867  30.807  1.00  0.00     0.031 A 
ATOM     12  C   UNL A   1      40.039  29.894  30.814  1.00  0.00     0.074 A 
ATOM     13  C   UNL A   1      41.915  28.674  31.892  1.00  0.00     0.049 A 
ATOM     14  N   UNL A   1      39.726  30.768  31.729  1.00  0.00    -0.248 NA
ATOM     15  C   UNL A   1      39.198  29.956  29.605  1.00  0.00     0.031 C 
ATOM     16  C   UNL A   1      43.007  27.704  31.985  1.00  0.00     0.029 A 
ATOM     17  N   UNL A   1      41.941  29.308  33.112  1.00  0.00    -0.354 N 
ATOM     18  C   UNL A   1      38.675  31.502  31.195  1.00  0.00     0.074 A 
ATOM     19  C   UNL A   1      38.446  31.013  29.854  1.00  0.00     0.031 C 
ATOM     20  C   UNL A   1      43.630  27.847  33.168  1.00  0.00     0.029 A 
ATOM     21  C   UNL A   1      42.998  28.929  33.915  1.00  0.00     0.049 A 
ATOM     22  H   UNL A   1      41.269  29.972  33.388  1.00  0.00     0.167 HD
ATOM     23  C   UNL A   1      37.936  32.475  31.780  1.00  0.00     0.037 A 
ATOM     24  C   UNL A   1      43.425  29.427  35.097  1.00  0.00     0.037 A 
ATOM     25  C   UNL A   1      38.186  32.955  33.108  1.00  0.00     0.049 A 
ATOM     26  C   UNL A   1      42.605  30.537  35.728  1.00  0.00     0.074 A 
ATOM     27  C   UNL A   1      37.505  33.919  33.825  1.00  0.00     0.029 A 
ATOM     28  N   UNL A   1      39.220  32.503  33.916  1.00  0.00    -0.354 N 
ATOM     29  N   UNL A   1      41.523  31.120  35.263  1.00  0.00    -0.248 NA
ATOM     30  C   UNL A   1      43.047  31.058  37.028  1.00  0.00     0.031 C 
ATOM     31  C   UNL A   1      38.134  34.054  35.069  1.00  0.00     0.029 A 
ATOM     32  C   UNL A   1      39.189  33.154  35.133  1.00  0.00     0.049 A 
ATOM     33  H   UNL A   1      39.880  31.819  33.659  1.00  0.00     0.167 HD
ATOM     34  C   UNL A   1      41.141  32.052  36.225  1.00  0.00     0.074 A 
ATOM     35  C   UNL A   1      42.096  31.937  37.310  1.00  0.00     0.031 C 
ATOM     36  C   UNL A   1      40.112  32.936  36.219  1.00  0.00     0.037 A 
BRANCH  23  37
ATOM     37  C   UNL A   1      36.796  33.032  30.973  1.00  0.00     0.058 A 
ATOM     38  C   UNL A   1      37.025  33.975  29.955  1.00  0.00     0.135 A 
ATOM     39  C   UNL A   1      35.466  32.689  31.256  1.00  0.00     0.135 A 
ATOM     40  F   UNL A   1      38.279  34.354  29.655  1.00  0.00    -0.206 F 
ATOM     41  C   UNL A   1      35.978  34.606  29.295  1.00  0.00     0.059 A 
ATOM     42  C   UNL A   1      34.400  33.286  30.584  1.00  0.00     0.059 A 
ATOM     43  F   UNL A   1      35.185  31.793  32.214  1.00  0.00    -0.206 F 
ATOM     44  C   UNL A   1      34.667  34.264  29.627  1.00  0.00     0.060 A 
BRANCH  44  45
ATOM     45  S   UNL A   1      33.318  35.131  28.798  1.00  0.00     0.124 S 
ATOM     46  O   UNL A   1      34.043  36.166  28.067  1.00  0.00    -0.237 OA
ATOM     47  O   UNL A   1      32.723  34.080  27.979  1.00  0.00    -0.237 OA
ATOM     48  O   UNL A   1      32.489  35.603  29.903  1.00  0.00    -0.744 OA
ENDBRANCH  44  45
ENDBRANCH  23  37
BRANCH  24  49
ATOM     49  C   UNL A   1      44.709  28.964  35.721  1.00  0.00     0.058 A 
ATOM     50  C   UNL A   1      44.757  27.935  36.673  1.00  0.00     0.135 A 
ATOM     51  C   UNL A   1      45.925  29.604  35.427  1.00  0.00     0.135 A 
ATOM     52  F   UNL A   1      43.641  27.256  36.983  1.00  0.00    -0.206 F 
ATOM     53  C   UNL A   1      45.932  27.614  37.357  1.00  0.00     0.059 A 
ATOM     54  C   UNL A   1      47.114  29.297  36.082  1.00  0.00     0.059 A 
ATOM     55  F   UNL A   1      45.983  30.535  34.466  1.00  0.00    -0.206 F 
ATOM     56  C   UNL A   1      47.104  28.312  37.062  1.00  0.00     0.060 A 
BRANCH  56  57
ATOM     57  S   UNL A   1      48.610  27.927  37.981  1.00  0.00     0.124 S 
ATOM     58  O   UNL A   1      49.509  27.496  36.917  1.00  0.00    -0.237 OA
ATOM     59  O   UNL A   1      48.915  29.214  38.598  1.00  0.00    -0.237 OA
ATOM     60  O   UNL A   1      48.181  26.879  38.904  1.00  0.00    -0.744 OA
ENDBRANCH  56  57
ENDBRANCH  24  49
BRANCH  36  61
ATOM     61  C   UNL A   1      39.895  33.756  37.458  1.00  0.00     0.058 A 
ATOM     62  C   UNL A   1      40.580  34.959  37.680  1.00  0.00     0.135 A 
ATOM     63  C   UNL A   1      38.909  33.375  38.382  1.00  0.00     0.135 A 
ATOM     64  F   UNL A   1      41.536  35.359  36.828  1.00  0.00    -0.206 F 
ATOM     65  C   UNL A   1      40.299  35.756  38.784  1.00  0.00     0.059 A 
ATOM     66  C   UNL A   1      38.596  34.166  39.481  1.00  0.00     0.059 A 
ATOM     67  F   UNL A   1      38.218  32.237  38.204  1.00  0.00    -0.206 F 
ATOM     68  C   UNL A   1      39.300  35.354  39.676  1.00  0.00     0.060 A 
BRANCH  68  69
ATOM     69  S   UNL A   1      38.902  36.425  41.073  1.00  0.00     0.124 S 
ATOM     70  O   UNL A   1      38.337  37.590  40.397  1.00  0.00    -0.237 OA
ATOM     71  O   UNL A   1      37.959  35.613  41.834  1.00  0.00    -0.237 OA
ATOM     72  O   UNL A   1      40.196  36.639  41.716  1.00  0.00    -0.744 OA
ENDBRANCH  68  69
ENDBRANCH  36  61
ENDBRANCH  10  11
ENDBRANCH   3   5
ENDBRANCH   2   3
ENDBRANCH   1   2
BRANCH   1  73
ATOM     73  C   UNL A   1      45.942  25.757  25.265  1.00  0.00     0.274 C 
BRANCH  73  74
ATOM     74  O   UNL A   1      45.903  24.547  24.489  1.00  0.00    -0.462 OA
BRANCH  74  75
ATOM     75  C   UNL A   1      45.836  23.379  25.193  1.00  0.00     0.312 C 
ATOM     76  O   UNL A   1      46.649  23.037  26.046  1.00  0.00    -0.252 OA
BRANCH  75  77
ATOM     77  C   UNL A   1      44.658  22.492  24.789  1.00  0.00     0.123 C 
ATOM     78  C   UNL A   1      45.020  21.068  24.565  1.00  0.00    -0.015 C 
ATOM     79  C   UNL A   1      43.570  22.411  25.879  1.00  0.00     0.043 C 
ATOM     80  C   UNL A   1      44.233  20.241  25.252  1.00  0.00    -0.011 C 
ATOM     81  C   UNL A   1      43.170  20.923  26.022  1.00  0.00     0.093 C 
BRANCH  81  82
ATOM     82  N   UNL A   1      41.860  20.655  25.457  1.00  0.00    -0.204 NA
ATOM     83  H   UNL A   1      41.987  19.843  24.853  1.00  0.00     0.142 HD
BRANCH  82  84
ATOM     84  S   UNL A   1      40.467  20.340  26.329  1.00  0.00     0.244 S 
ATOM     85  O   UNL A   1      39.943  19.122  25.744  1.00  0.00    -0.207 OA
ATOM     86  O   UNL A   1      40.779  20.358  27.741  1.00  0.00    -0.207 OA
BRANCH  84  87
ATOM     87  C   UNL A   1      39.303  21.621  25.963  1.00  0.00     0.121 A 
ATOM     88  C   UNL A   1      38.096  21.294  25.327  1.00  0.00     0.028 A 
ATOM     89  C   UNL A   1      39.464  22.892  26.513  1.00  0.00     0.181 A 
ATOM     90  C   UNL A   1      37.070  22.242  25.239  1.00  0.00     0.044 A 
ATOM     91  C   UNL A   1      38.430  23.821  26.449  1.00  0.00     0.195 A 
ATOM     92  F   UNL A   1      40.590  23.242  27.149  1.00  0.00    -0.202 F 
ATOM     93  C   UNL A   1      37.238  23.494  25.821  1.00  0.00     0.161 A 
ATOM     94  F   UNL A   1      38.570  25.011  27.046  1.00  0.00    -0.200 F 
ATOM     95  F   UNL A   1      36.218  24.360  25.811  1.00  0.00    -0.204 F 
ENDBRANCH  84  87
ENDBRANCH  82  84
ENDBRANCH  81  82
ENDBRANCH  75  77
ENDBRANCH  74  75
ENDBRANCH  73  74
ENDBRANCH   1  73
TORSDOF 17
ENDMDL
