MODEL 1
REMARK VINA RESULT:     -11.8      0.000      0.000
REMARK SMILES O=C(OCCOC(=O)c1cn(C2CN(C(=O)Nc3ccsc3)C2)nn1)c1ccc(-c2c3nc(c(-c4c(F)cc(S(=O)(=O)[O-])cc4F)c4ccc([nH]4)c(-c4c(F)cc(S(=O)(=O)[O-])cc4F)c4nc(c(-c5c(F)cc(S(=O)(=O)[O-])cc5F)c5ccc2[nH]5)C=C4)C=C3)cc1
REMARK SMILES IDX 4 1 3 2 2 3 1 4 26 5 27 6 91 7 28 8 90 9 29 10 30 11 31 12
REMARK SMILES IDX 84 13 32 14 89 15 83 16 85 17 33 18 88 19 82 20 81 21 34 23
REMARK SMILES IDX 68 24 47 25 67 26 48 27 51 28 66 29 86 30 49 31 50 32 65 34
REMARK SMILES IDX 87 35 52 36 35 37 36 38 45 39 37 40 38 41 44 42 46 43 39 44
REMARK SMILES IDX 40 45 41 46 42 47 43 48 69 49 70 50 79 51 71 52 72 53 78 54
REMARK SMILES IDX 80 55 73 56 74 57 75 58 76 59 77 60 53 61 54 62 63 63 55 64
REMARK SMILES IDX 56 65 62 66 64 67 57 68 58 69 59 70 60 71 61 72 5 73 6 74
REMARK SMILES IDX 7 75 8 76 9 77 10 78 25 79 11 80 24 81 12 82 13 83 23 84
REMARK SMILES IDX 14 85 15 86 16 87 17 88 18 90 19 91 22 92 20 93 21 94
REMARK H PARENT 85 22 51 33 17 89
REMARK Flexibility Score: inf
ROOT
ATOM      1  C   UNL A   1      41.239  20.526  27.043  1.00  0.00     0.275 C 
ENDROOT
BRANCH   1   2
ATOM      2  O   UNL A   1      40.032  21.271  27.309  1.00  0.00    -0.458 OA
BRANCH   2   3
ATOM      3  C   UNL A   1      39.656  22.301  26.516  1.00  0.00     0.338 C 
ATOM      4  O   UNL A   1      38.901  22.162  25.566  1.00  0.00    -0.246 OA
BRANCH   3   5
ATOM      5  C   UNL A   1      40.016  23.637  27.058  1.00  0.00     0.060 A 
ATOM      6  C   UNL A   1      41.194  23.871  27.773  1.00  0.00     0.016 A 
ATOM      7  C   UNL A   1      39.100  24.684  26.869  1.00  0.00     0.016 A 
ATOM      8  C   UNL A   1      41.409  25.101  28.374  1.00  0.00     0.010 A 
ATOM      9  C   UNL A   1      39.314  25.918  27.471  1.00  0.00     0.010 A 
ATOM     10  C   UNL A   1      40.442  26.104  28.266  1.00  0.00    -0.014 A 
BRANCH  10  11
ATOM     11  C   UNL A   1      40.701  27.369  28.945  1.00  0.00     0.031 A 
ATOM     12  C   UNL A   1      41.814  28.172  28.361  1.00  0.00     0.074 A 
ATOM     13  C   UNL A   1      39.923  27.827  29.947  1.00  0.00     0.049 A 
ATOM     14  N   UNL A   1      42.933  28.521  28.907  1.00  0.00    -0.248 NA
ATOM     15  C   UNL A   1      41.723  28.513  26.931  1.00  0.00     0.031 C 
ATOM     16  C   UNL A   1      38.651  27.273  30.422  1.00  0.00     0.029 A 
ATOM     17  N   UNL A   1      40.055  28.958  30.697  1.00  0.00    -0.354 N 
ATOM     18  C   UNL A   1      43.586  29.323  27.969  1.00  0.00     0.074 A 
ATOM     19  C   UNL A   1      42.886  29.132  26.728  1.00  0.00     0.031 C 
ATOM     20  C   UNL A   1      38.024  28.190  31.193  1.00  0.00     0.029 A 
ATOM     21  C   UNL A   1      38.902  29.331  31.379  1.00  0.00     0.049 A 
ATOM     22  H   UNL A   1      40.895  29.468  30.749  1.00  0.00     0.167 HD
ATOM     23  C   UNL A   1      44.505  30.257  28.347  1.00  0.00     0.037 A 
ATOM     24  C   UNL A   1      38.667  30.522  31.991  1.00  0.00     0.037 A 
ATOM     25  C   UNL A   1      45.020  29.972  29.664  1.00  0.00     0.049 A 
ATOM     26  C   UNL A   1      39.988  31.158  32.236  1.00  0.00     0.074 A 
ATOM     27  C   UNL A   1      45.691  28.909  30.238  1.00  0.00     0.029 A 
ATOM     28  N   UNL A   1      44.557  30.725  30.715  1.00  0.00    -0.354 N 
ATOM     29  N   UNL A   1      40.882  30.683  33.061  1.00  0.00    -0.248 NA
ATOM     30  C   UNL A   1      40.501  32.062  31.217  1.00  0.00     0.031 C 
ATOM     31  C   UNL A   1      45.164  28.812  31.560  1.00  0.00     0.029 A 
ATOM     32  C   UNL A   1      44.258  29.858  31.734  1.00  0.00     0.049 A 
ATOM     33  H   UNL A   1      44.458  31.705  30.734  1.00  0.00     0.167 HD
ATOM     34  C   UNL A   1      42.096  30.874  32.419  1.00  0.00     0.074 A 
ATOM     35  C   UNL A   1      41.805  31.800  31.325  1.00  0.00     0.031 C 
ATOM     36  C   UNL A   1      43.162  30.053  32.657  1.00  0.00     0.037 A 
BRANCH  23  37
ATOM     37  C   UNL A   1      44.637  31.632  27.714  1.00  0.00     0.058 A 
ATOM     38  C   UNL A   1      45.776  31.914  26.924  1.00  0.00     0.135 A 
ATOM     39  C   UNL A   1      43.882  32.764  28.098  1.00  0.00     0.135 A 
ATOM     40  F   UNL A   1      46.554  30.921  26.465  1.00  0.00    -0.206 F 
ATOM     41  C   UNL A   1      46.204  33.215  26.660  1.00  0.00     0.059 A 
ATOM     42  C   UNL A   1      44.265  34.067  27.804  1.00  0.00     0.059 A 
ATOM     43  F   UNL A   1      42.782  32.678  28.851  1.00  0.00    -0.206 F 
ATOM     44  C   UNL A   1      45.456  34.287  27.134  1.00  0.00     0.060 A 
BRANCH  44  45
ATOM     45  S   UNL A   1      46.081  35.963  26.934  1.00  0.00     0.124 S 
ATOM     46  O   UNL A   1      46.876  36.121  28.146  1.00  0.00    -0.237 OA
ATOM     47  O   UNL A   1      46.830  35.857  25.685  1.00  0.00    -0.237 OA
ATOM     48  O   UNL A   1      44.865  36.767  26.863  1.00  0.00    -0.744 OA
ENDBRANCH  44  45
ENDBRANCH  23  37
BRANCH  24  49
ATOM     49  C   UNL A   1      37.389  31.290  32.022  1.00  0.00     0.058 A 
ATOM     50  C   UNL A   1      36.844  31.768  33.227  1.00  0.00     0.135 A 
ATOM     51  C   UNL A   1      36.821  31.809  30.840  1.00  0.00     0.135 A 
ATOM     52  F   UNL A   1      37.338  31.351  34.404  1.00  0.00    -0.206 F 
ATOM     53  C   UNL A   1      35.826  32.731  33.259  1.00  0.00     0.059 A 
ATOM     54  C   UNL A   1      35.800  32.760  30.847  1.00  0.00     0.059 A 
ATOM     55  F   UNL A   1      37.305  31.476  29.635  1.00  0.00    -0.206 F 
ATOM     56  C   UNL A   1      35.323  33.236  32.061  1.00  0.00     0.060 A 
BRANCH  56  57
ATOM     57  S   UNL A   1      34.128  34.596  32.088  1.00  0.00     0.124 S 
ATOM     58  O   UNL A   1      33.730  34.677  30.687  1.00  0.00    -0.237 OA
ATOM     59  O   UNL A   1      33.113  34.098  33.011  1.00  0.00    -0.237 OA
ATOM     60  O   UNL A   1      34.911  35.726  32.580  1.00  0.00    -0.744 OA
ENDBRANCH  56  57
ENDBRANCH  24  49
BRANCH  36  61
ATOM     61  C   UNL A   1      43.098  29.115  33.833  1.00  0.00     0.058 A 
ATOM     62  C   UNL A   1      43.344  29.491  35.166  1.00  0.00     0.135 A 
ATOM     63  C   UNL A   1      42.602  27.820  33.617  1.00  0.00     0.135 A 
ATOM     64  F   UNL A   1      43.717  30.741  35.472  1.00  0.00    -0.206 F 
ATOM     65  C   UNL A   1      43.145  28.607  36.229  1.00  0.00     0.059 A 
ATOM     66  C   UNL A   1      42.365  26.933  34.663  1.00  0.00     0.059 A 
ATOM     67  F   UNL A   1      42.285  27.421  32.374  1.00  0.00    -0.206 F 
ATOM     68  C   UNL A   1      42.650  27.330  35.967  1.00  0.00     0.060 A 
BRANCH  68  69
ATOM     69  S   UNL A   1      42.311  26.217  37.348  1.00  0.00     0.124 S 
ATOM     70  O   UNL A   1      42.568  24.908  36.758  1.00  0.00    -0.237 OA
ATOM     71  O   UNL A   1      43.271  26.658  38.355  1.00  0.00    -0.237 OA
ATOM     72  O   UNL A   1      40.912  26.491  37.672  1.00  0.00    -0.744 OA
ENDBRANCH  68  69
ENDBRANCH  36  61
ENDBRANCH  10  11
ENDBRANCH   3   5
ENDBRANCH   2   3
ENDBRANCH   1   2
BRANCH   1  73
ATOM     73  C   UNL A   1      41.130  19.319  26.115  1.00  0.00     0.275 C 
BRANCH  73  74
ATOM     74  O   UNL A   1      42.256  19.290  25.227  1.00  0.00    -0.457 OA
BRANCH  74  75
ATOM     75  C   UNL A   1      43.416  18.791  25.744  1.00  0.00     0.360 C 
ATOM     76  O   UNL A   1      43.507  17.771  26.417  1.00  0.00    -0.244 OA
BRANCH  75  77
ATOM     77  C   UNL A   1      44.537  19.626  25.387  1.00  0.00     0.190 A 
ATOM     78  C   UNL A   1      44.515  20.970  25.066  1.00  0.00     0.147 A 
ATOM     79  N   UNL A   1      45.825  19.169  25.326  1.00  0.00    -0.123 NA
ATOM     80  N   UNL A   1      45.834  21.280  24.895  1.00  0.00    -0.245 N 
ATOM     81  N   UNL A   1      46.603  20.178  24.966  1.00  0.00    -0.066 NA
BRANCH  80  82
ATOM     82  C   UNL A   1      46.443  22.568  24.986  1.00  0.00     0.148 C 
ATOM     83  C   UNL A   1      45.913  23.732  24.146  1.00  0.00     0.150 C 
ATOM     84  C   UNL A   1      45.828  23.303  26.199  1.00  0.00     0.150 C 
ATOM     85  N   UNL A   1      45.941  24.499  25.399  1.00  0.00    -0.320 N 
ATOM     86  C   UNL A   1      45.677  25.817  25.562  1.00  0.00     0.322 C 
ATOM     87  O   UNL A   1      45.566  26.564  24.585  1.00  0.00    -0.248 OA
ATOM     88  N   UNL A   1      45.371  26.331  26.783  1.00  0.00    -0.307 N 
ATOM     89  H   UNL A   1      44.926  27.207  26.749  1.00  0.00     0.171 HD
BRANCH  88  90
ATOM     90  C   UNL A   1      45.569  25.851  28.065  1.00  0.00     0.053 A 
ATOM     91  C   UNL A   1      44.621  25.249  28.941  1.00  0.00     0.038 A 
ATOM     92  C   UNL A   1      46.829  25.837  28.630  1.00  0.00     0.091 A 
ATOM     93  C   UNL A   1      45.134  25.015  30.199  1.00  0.00     0.067 A 
ATOM     94  S   UNL A   1      46.806  25.355  30.273  1.00  0.00    -0.150 S 
ENDBRANCH  88  90
ENDBRANCH  80  82
ENDBRANCH  75  77
ENDBRANCH  74  75
ENDBRANCH  73  74
ENDBRANCH   1  73
TORSDOF 16
ENDMDL
MODEL 2
REMARK VINA RESULT:     -11.6      1.334      1.864
REMARK SMILES O=C(OCCOC(=O)c1cn(C2CN(C(=O)Nc3ccsc3)C2)nn1)c1ccc(-c2c3nc(c(-c4c(F)cc(S(=O)(=O)[O-])cc4F)c4ccc([nH]4)c(-c4c(F)cc(S(=O)(=O)[O-])cc4F)c4nc(c(-c5c(F)cc(S(=O)(=O)[O-])cc5F)c5ccc2[nH]5)C=C4)C=C3)cc1
REMARK SMILES IDX 4 1 3 2 2 3 1 4 26 5 27 6 91 7 28 8 90 9 29 10 30 11 31 12
REMARK SMILES IDX 84 13 32 14 89 15 83 16 85 17 33 18 88 19 82 20 81 21 34 23
REMARK SMILES IDX 68 24 47 25 67 26 48 27 51 28 66 29 86 30 49 31 50 32 65 34
REMARK SMILES IDX 87 35 52 36 35 37 36 38 45 39 37 40 38 41 44 42 46 43 39 44
REMARK SMILES IDX 40 45 41 46 42 47 43 48 69 49 70 50 79 51 71 52 72 53 78 54
REMARK SMILES IDX 80 55 73 56 74 57 75 58 76 59 77 60 53 61 54 62 63 63 55 64
REMARK SMILES IDX 56 65 62 66 64 67 57 68 58 69 59 70 60 71 61 72 5 73 6 74
REMARK SMILES IDX 7 75 8 76 9 77 10 78 25 79 11 80 24 81 12 82 13 83 23 84
REMARK SMILES IDX 14 85 15 86 16 87 17 88 18 90 19 91 22 92 20 93 21 94
REMARK H PARENT 85 22 51 33 17 89
REMARK Flexibility Score: inf
ROOT
ATOM      1  C   UNL A   1      40.684  19.963  26.407  1.00  0.00     0.275 C 
ENDROOT
BRANCH   1   2
ATOM      2  O   UNL A   1      40.906  21.389  26.355  1.00  0.00    -0.458 OA
BRANCH   2   3
ATOM      3  C   UNL A   1      39.872  22.260  26.401  1.00  0.00     0.338 C 
ATOM      4  O   UNL A   1      38.713  21.919  26.224  1.00  0.00    -0.246 OA
BRANCH   3   5
ATOM      5  C   UNL A   1      40.236  23.593  26.948  1.00  0.00     0.060 A 
ATOM      6  C   UNL A   1      41.405  23.818  27.680  1.00  0.00     0.016 A 
ATOM      7  C   UNL A   1      39.330  24.648  26.746  1.00  0.00     0.016 A 
ATOM      8  C   UNL A   1      41.621  25.046  28.284  1.00  0.00     0.010 A 
ATOM      9  C   UNL A   1      39.546  25.879  27.351  1.00  0.00     0.010 A 
ATOM     10  C   UNL A   1      40.665  26.057  28.162  1.00  0.00    -0.014 A 
BRANCH  10  11
ATOM     11  C   UNL A   1      40.924  27.320  28.845  1.00  0.00     0.031 A 
ATOM     12  C   UNL A   1      42.070  28.099  28.295  1.00  0.00     0.074 A 
ATOM     13  C   UNL A   1      40.121  27.796  29.818  1.00  0.00     0.049 A 
ATOM     14  N   UNL A   1      43.177  28.429  28.878  1.00  0.00    -0.248 NA
ATOM     15  C   UNL A   1      42.033  28.436  26.861  1.00  0.00     0.031 C 
ATOM     16  C   UNL A   1      38.824  27.268  30.253  1.00  0.00     0.029 A 
ATOM     17  N   UNL A   1      40.249  28.927  30.568  1.00  0.00    -0.354 N 
ATOM     18  C   UNL A   1      43.876  29.215  27.959  1.00  0.00     0.074 A 
ATOM     19  C   UNL A   1      43.214  29.032  26.696  1.00  0.00     0.031 C 
ATOM     20  C   UNL A   1      38.189  28.199  30.999  1.00  0.00     0.029 A 
ATOM     21  C   UNL A   1      39.082  29.325  31.210  1.00  0.00     0.049 A 
ATOM     22  H   UNL A   1      41.097  29.422  30.646  1.00  0.00     0.167 HD
ATOM     23  C   UNL A   1      44.799  30.134  28.364  1.00  0.00     0.037 A 
ATOM     24  C   UNL A   1      38.848  30.522  31.809  1.00  0.00     0.037 A 
ATOM     25  C   UNL A   1      45.264  29.845  29.698  1.00  0.00     0.049 A 
ATOM     26  C   UNL A   1      40.172  31.135  32.096  1.00  0.00     0.074 A 
ATOM     27  C   UNL A   1      45.896  28.773  30.298  1.00  0.00     0.029 A 
ATOM     28  N   UNL A   1      44.780  30.611  30.731  1.00  0.00    -0.354 N 
ATOM     29  N   UNL A   1      41.029  30.647  32.952  1.00  0.00    -0.248 NA
ATOM     30  C   UNL A   1      40.735  32.025  31.091  1.00  0.00     0.031 C 
ATOM     31  C   UNL A   1      45.324  28.691  31.602  1.00  0.00     0.029 A 
ATOM     32  C   UNL A   1      44.431  29.755  31.742  1.00  0.00     0.049 A 
ATOM     33  H   UNL A   1      44.699  31.593  30.742  1.00  0.00     0.167 HD
ATOM     34  C   UNL A   1      42.267  30.813  32.350  1.00  0.00     0.074 A 
ATOM     35  C   UNL A   1      42.030  31.739  31.244  1.00  0.00     0.031 C 
ATOM     36  C   UNL A   1      43.309  29.973  32.627  1.00  0.00     0.037 A 
BRANCH  23  37
ATOM     37  C   UNL A   1      44.978  31.504  27.730  1.00  0.00     0.058 A 
ATOM     38  C   UNL A   1      46.202  31.806  27.090  1.00  0.00     0.135 A 
ATOM     39  C   UNL A   1      44.151  32.619  27.994  1.00  0.00     0.135 A 
ATOM     40  F   UNL A   1      47.058  30.828  26.753  1.00  0.00    -0.206 F 
ATOM     41  C   UNL A   1      46.628  33.115  26.862  1.00  0.00     0.059 A 
ATOM     42  C   UNL A   1      44.536  33.929  27.731  1.00  0.00     0.059 A 
ATOM     43  F   UNL A   1      42.964  32.514  28.600  1.00  0.00    -0.206 F 
ATOM     44  C   UNL A   1      45.798  34.172  27.218  1.00  0.00     0.060 A 
BRANCH  44  45
ATOM     45  S   UNL A   1      46.401  35.862  27.072  1.00  0.00     0.124 S 
ATOM     46  O   UNL A   1      47.391  35.907  28.142  1.00  0.00    -0.237 OA
ATOM     47  O   UNL A   1      46.928  35.877  25.711  1.00  0.00    -0.237 OA
ATOM     48  O   UNL A   1      45.201  36.664  27.283  1.00  0.00    -0.744 OA
ENDBRANCH  44  45
ENDBRANCH  23  37
BRANCH  24  49
ATOM     49  C   UNL A   1      37.585  31.314  31.794  1.00  0.00     0.058 A 
ATOM     50  C   UNL A   1      36.939  31.696  32.985  1.00  0.00     0.135 A 
ATOM     51  C   UNL A   1      37.135  31.949  30.618  1.00  0.00     0.135 A 
ATOM     52  F   UNL A   1      37.317  31.164  34.158  1.00  0.00    -0.206 F 
ATOM     53  C   UNL A   1      35.937  32.675  33.012  1.00  0.00     0.059 A 
ATOM     54  C   UNL A   1      36.132  32.919  30.619  1.00  0.00     0.059 A 
ATOM     55  F   UNL A   1      37.722  31.714  29.436  1.00  0.00    -0.206 F 
ATOM     56  C   UNL A   1      35.553  33.296  31.823  1.00  0.00     0.060 A 
BRANCH  56  57
ATOM     57  S   UNL A   1      34.381  34.675  31.867  1.00  0.00     0.124 S 
ATOM     58  O   UNL A   1      35.128  35.683  32.613  1.00  0.00    -0.237 OA
ATOM     59  O   UNL A   1      34.177  34.953  30.449  1.00  0.00    -0.237 OA
ATOM     60  O   UNL A   1      33.223  34.117  32.561  1.00  0.00    -0.744 OA
ENDBRANCH  56  57
ENDBRANCH  24  49
BRANCH  36  61
ATOM     61  C   UNL A   1      43.188  29.042  33.804  1.00  0.00     0.058 A 
ATOM     62  C   UNL A   1      43.371  29.425  35.145  1.00  0.00     0.135 A 
ATOM     63  C   UNL A   1      42.703  27.746  33.571  1.00  0.00     0.135 A 
ATOM     64  F   UNL A   1      43.729  30.677  35.461  1.00  0.00    -0.206 F 
ATOM     65  C   UNL A   1      43.121  28.547  36.202  1.00  0.00     0.059 A 
ATOM     66  C   UNL A   1      42.415  26.865  34.610  1.00  0.00     0.059 A 
ATOM     67  F   UNL A   1      42.445  27.340  32.316  1.00  0.00    -0.206 F 
ATOM     68  C   UNL A   1      42.638  27.269  35.924  1.00  0.00     0.060 A 
BRANCH  68  69
ATOM     69  S   UNL A   1      42.232  26.163  37.292  1.00  0.00     0.124 S 
ATOM     70  O   UNL A   1      40.870  26.567  37.621  1.00  0.00    -0.237 OA
ATOM     71  O   UNL A   1      42.372  24.842  36.686  1.00  0.00    -0.237 OA
ATOM     72  O   UNL A   1      43.239  26.484  38.302  1.00  0.00    -0.744 OA
ENDBRANCH  68  69
ENDBRANCH  36  61
ENDBRANCH  10  11
ENDBRANCH   3   5
ENDBRANCH   2   3
ENDBRANCH   1   2
BRANCH   1  73
ATOM     73  C   UNL A   1      41.907  19.057  26.285  1.00  0.00     0.275 C 
BRANCH  73  74
ATOM     74  O   UNL A   1      42.640  19.393  25.100  1.00  0.00    -0.457 OA
BRANCH  74  75
ATOM     75  C   UNL A   1      43.992  19.224  25.162  1.00  0.00     0.360 C 
ATOM     76  O   UNL A   1      44.573  18.146  25.119  1.00  0.00    -0.244 OA
BRANCH  75  77
ATOM     77  C   UNL A   1      44.662  20.497  25.284  1.00  0.00     0.190 A 
ATOM     78  C   UNL A   1      44.084  21.733  25.499  1.00  0.00     0.147 A 
ATOM     79  N   UNL A   1      46.020  20.642  25.203  1.00  0.00    -0.123 NA
ATOM     80  N   UNL A   1      45.156  22.573  25.614  1.00  0.00    -0.245 N 
ATOM     81  N   UNL A   1      46.305  21.927  25.347  1.00  0.00    -0.066 NA
BRANCH  80  82
ATOM     82  C   UNL A   1      45.198  23.845  26.259  1.00  0.00     0.148 C 
ATOM     83  C   UNL A   1      46.006  24.031  27.545  1.00  0.00     0.150 C 
ATOM     84  C   UNL A   1      46.297  24.692  25.574  1.00  0.00     0.150 C 
ATOM     85  N   UNL A   1      46.560  25.224  26.889  1.00  0.00    -0.320 N 
ATOM     86  C   UNL A   1      47.398  26.143  27.426  1.00  0.00     0.322 C 
ATOM     87  O   UNL A   1      47.629  26.154  28.639  1.00  0.00    -0.248 OA
ATOM     88  N   UNL A   1      48.129  26.977  26.640  1.00  0.00    -0.307 N 
ATOM     89  H   UNL A   1      48.895  27.390  27.098  1.00  0.00     0.171 HD
BRANCH  88  90
ATOM     90  C   UNL A   1      47.997  27.353  25.316  1.00  0.00     0.053 A 
ATOM     91  C   UNL A   1      46.954  28.110  24.711  1.00  0.00     0.038 A 
ATOM     92  C   UNL A   1      48.990  27.074  24.397  1.00  0.00     0.091 A 
ATOM     93  C   UNL A   1      47.074  28.179  23.339  1.00  0.00     0.067 A 
ATOM     94  S   UNL A   1      48.538  27.486  22.798  1.00  0.00    -0.150 S 
ENDBRANCH  88  90
ENDBRANCH  80  82
ENDBRANCH  75  77
ENDBRANCH  74  75
ENDBRANCH  73  74
ENDBRANCH   1  73
TORSDOF 16
ENDMDL
MODEL 3
REMARK VINA RESULT:     -11.6      3.909      6.165
REMARK SMILES O=C(OCCOC(=O)c1cn(C2CN(C(=O)Nc3ccsc3)C2)nn1)c1ccc(-c2c3nc(c(-c4c(F)cc(S(=O)(=O)[O-])cc4F)c4ccc([nH]4)c(-c4c(F)cc(S(=O)(=O)[O-])cc4F)c4nc(c(-c5c(F)cc(S(=O)(=O)[O-])cc5F)c5ccc2[nH]5)C=C4)C=C3)cc1
REMARK SMILES IDX 4 1 3 2 2 3 1 4 26 5 27 6 91 7 28 8 90 9 29 10 30 11 31 12
REMARK SMILES IDX 84 13 32 14 89 15 83 16 85 17 33 18 88 19 82 20 81 21 34 23
REMARK SMILES IDX 68 24 47 25 67 26 48 27 51 28 66 29 86 30 49 31 50 32 65 34
REMARK SMILES IDX 87 35 52 36 35 37 36 38 45 39 37 40 38 41 44 42 46 43 39 44
REMARK SMILES IDX 40 45 41 46 42 47 43 48 69 49 70 50 79 51 71 52 72 53 78 54
REMARK SMILES IDX 80 55 73 56 74 57 75 58 76 59 77 60 53 61 54 62 63 63 55 64
REMARK SMILES IDX 56 65 62 66 64 67 57 68 58 69 59 70 60 71 61 72 5 73 6 74
REMARK SMILES IDX 7 75 8 76 9 77 10 78 25 79 11 80 24 81 12 82 13 83 23 84
REMARK SMILES IDX 14 85 15 86 16 87 17 88 18 90 19 91 22 92 20 93 21 94
REMARK H PARENT 85 22 51 33 17 89
REMARK Flexibility Score: inf
ROOT
ATOM      1  C   UNL A   1      42.431  19.414  26.509  1.00  0.00     0.275 C 
ENDROOT
BRANCH   1   2
ATOM      2  O   UNL A   1      42.751  19.993  25.227  1.00  0.00    -0.458 OA
BRANCH   2   3
ATOM      3  C   UNL A   1      43.895  20.690  25.039  1.00  0.00     0.338 C 
ATOM      4  O   UNL A   1      44.785  20.309  24.294  1.00  0.00    -0.246 OA
BRANCH   3   5
ATOM      5  C   UNL A   1      43.856  22.068  25.594  1.00  0.00     0.060 A 
ATOM      6  C   UNL A   1      44.677  22.483  26.646  1.00  0.00     0.016 A 
ATOM      7  C   UNL A   1      42.916  22.960  25.054  1.00  0.00     0.016 A 
ATOM      8  C   UNL A   1      44.498  23.734  27.215  1.00  0.00     0.010 A 
ATOM      9  C   UNL A   1      42.735  24.214  25.624  1.00  0.00     0.010 A 
ATOM     10  C   UNL A   1      43.491  24.575  26.736  1.00  0.00    -0.014 A 
BRANCH  10  11
ATOM     11  C   UNL A   1      43.321  25.868  27.392  1.00  0.00     0.031 A 
ATOM     12  C   UNL A   1      44.383  26.867  27.078  1.00  0.00     0.074 A 
ATOM     13  C   UNL A   1      42.233  26.170  28.129  1.00  0.00     0.049 A 
ATOM     14  N   UNL A   1      45.231  27.425  27.879  1.00  0.00    -0.248 NA
ATOM     15  C   UNL A   1      44.616  27.182  25.658  1.00  0.00     0.031 C 
ATOM     16  C   UNL A   1      41.005  25.384  28.283  1.00  0.00     0.029 A 
ATOM     17  N   UNL A   1      41.949  27.306  28.826  1.00  0.00    -0.354 N 
ATOM     18  C   UNL A   1      45.952  28.336  27.104  1.00  0.00     0.074 A 
ATOM     19  C   UNL A   1      45.657  28.012  25.735  1.00  0.00     0.031 C 
ATOM     20  C   UNL A   1      40.037  26.165  28.813  1.00  0.00     0.029 A 
ATOM     21  C   UNL A   1      40.608  27.454  29.162  1.00  0.00     0.049 A 
ATOM     22  H   UNL A   1      42.636  27.968  29.070  1.00  0.00     0.167 HD
ATOM     23  C   UNL A   1      46.548  29.430  27.659  1.00  0.00     0.037 A 
ATOM     24  C   UNL A   1      40.002  28.578  29.626  1.00  0.00     0.037 A 
ATOM     25  C   UNL A   1      46.735  29.251  29.078  1.00  0.00     0.049 A 
ATOM     26  C   UNL A   1      41.070  29.457  30.175  1.00  0.00     0.074 A 
ATOM     27  C   UNL A   1      47.412  28.337  29.864  1.00  0.00     0.029 A 
ATOM     28  N   UNL A   1      45.877  29.903  29.930  1.00  0.00    -0.354 N 
ATOM     29  N   UNL A   1      41.782  29.163  31.229  1.00  0.00    -0.248 NA
ATOM     30  C   UNL A   1      41.661  30.440  29.279  1.00  0.00     0.031 C 
ATOM     31  C   UNL A   1      46.578  28.144  31.005  1.00  0.00     0.029 A 
ATOM     32  C   UNL A   1      45.482  28.998  30.879  1.00  0.00     0.049 A 
ATOM     33  H   UNL A   1      45.599  30.846  29.870  1.00  0.00     0.167 HD
ATOM     34  C   UNL A   1      43.067  29.582  30.919  1.00  0.00     0.074 A 
ATOM     35  C   UNL A   1      42.914  30.432  29.739  1.00  0.00     0.031 C 
ATOM     36  C   UNL A   1      44.163  28.980  31.471  1.00  0.00     0.037 A 
BRANCH  23  37
ATOM     37  C   UNL A   1      46.589  30.804  27.011  1.00  0.00     0.058 A 
ATOM     38  C   UNL A   1      47.814  31.510  26.985  1.00  0.00     0.135 A 
ATOM     39  C   UNL A   1      45.446  31.578  26.709  1.00  0.00     0.135 A 
ATOM     40  F   UNL A   1      48.974  30.878  27.220  1.00  0.00    -0.206 F 
ATOM     41  C   UNL A   1      47.879  32.894  26.815  1.00  0.00     0.059 A 
ATOM     42  C   UNL A   1      45.495  32.950  26.488  1.00  0.00     0.059 A 
ATOM     43  F   UNL A   1      44.210  31.070  26.695  1.00  0.00    -0.206 F 
ATOM     44  C   UNL A   1      46.707  33.609  26.599  1.00  0.00     0.060 A 
BRANCH  44  45
ATOM     45  S   UNL A   1      46.763  35.407  26.534  1.00  0.00     0.124 S 
ATOM     46  O   UNL A   1      47.812  35.626  25.545  1.00  0.00    -0.237 OA
ATOM     47  O   UNL A   1      45.405  35.735  26.111  1.00  0.00    -0.237 OA
ATOM     48  O   UNL A   1      47.095  35.781  27.905  1.00  0.00    -0.744 OA
ENDBRANCH  44  45
ENDBRANCH  23  37
BRANCH  24  49
ATOM     49  C   UNL A   1      38.645  29.087  29.281  1.00  0.00     0.058 A 
ATOM     50  C   UNL A   1      37.680  29.350  30.271  1.00  0.00     0.135 A 
ATOM     51  C   UNL A   1      38.359  29.590  27.994  1.00  0.00     0.135 A 
ATOM     52  F   UNL A   1      37.878  28.934  31.532  1.00  0.00    -0.206 F 
ATOM     53  C   UNL A   1      36.524  30.099  30.011  1.00  0.00     0.059 A 
ATOM     54  C   UNL A   1      37.210  30.328  27.709  1.00  0.00     0.059 A 
ATOM     55  F   UNL A   1      39.236  29.458  26.989  1.00  0.00    -0.206 F 
ATOM     56  C   UNL A   1      36.307  30.600  28.728  1.00  0.00     0.060 A 
BRANCH  56  57
ATOM     57  S   UNL A   1      34.906  31.705  28.419  1.00  0.00     0.124 S 
ATOM     58  O   UNL A   1      35.508  32.724  27.566  1.00  0.00    -0.237 OA
ATOM     59  O   UNL A   1      33.948  30.816  27.771  1.00  0.00    -0.237 OA
ATOM     60  O   UNL A   1      34.527  32.156  29.756  1.00  0.00    -0.744 OA
ENDBRANCH  56  57
ENDBRANCH  24  49
BRANCH  36  61
ATOM     61  C   UNL A   1      43.960  28.050  32.637  1.00  0.00     0.058 A 
ATOM     62  C   UNL A   1      43.769  28.469  33.967  1.00  0.00     0.135 A 
ATOM     63  C   UNL A   1      43.786  26.684  32.368  1.00  0.00     0.135 A 
ATOM     64  F   UNL A   1      43.811  29.767  34.293  1.00  0.00    -0.206 F 
ATOM     65  C   UNL A   1      43.459  27.565  34.986  1.00  0.00     0.059 A 
ATOM     66  C   UNL A   1      43.445  25.770  33.361  1.00  0.00     0.059 A 
ATOM     67  F   UNL A   1      43.890  26.229  31.108  1.00  0.00    -0.206 F 
ATOM     68  C   UNL A   1      43.294  26.217  34.671  1.00  0.00     0.060 A 
BRANCH  68  69
ATOM     69  S   UNL A   1      42.809  25.062  35.972  1.00  0.00     0.124 S 
ATOM     70  O   UNL A   1      41.375  24.924  35.741  1.00  0.00    -0.237 OA
ATOM     71  O   UNL A   1      43.616  23.884  35.668  1.00  0.00    -0.237 OA
ATOM     72  O   UNL A   1      43.179  25.757  37.203  1.00  0.00    -0.744 OA
ENDBRANCH  68  69
ENDBRANCH  36  61
ENDBRANCH  10  11
ENDBRANCH   3   5
ENDBRANCH   2   3
ENDBRANCH   1   2
BRANCH   1  73
ATOM     73  C   UNL A   1      41.145  19.878  27.190  1.00  0.00     0.275 C 
BRANCH  73  74
ATOM     74  O   UNL A   1      40.366  20.655  26.270  1.00  0.00    -0.457 OA
BRANCH  74  75
ATOM     75  C   UNL A   1      39.851  21.821  26.755  1.00  0.00     0.360 C 
ATOM     76  O   UNL A   1      40.338  22.486  27.661  1.00  0.00    -0.244 OA
BRANCH  75  77
ATOM     77  C   UNL A   1      38.642  22.177  26.052  1.00  0.00     0.190 A 
ATOM     78  C   UNL A   1      37.950  21.415  25.130  1.00  0.00     0.147 A 
ATOM     79  N   UNL A   1      37.996  23.371  26.226  1.00  0.00    -0.123 NA
ATOM     80  N   UNL A   1      36.854  22.178  24.842  1.00  0.00    -0.245 N 
ATOM     81  N   UNL A   1      36.935  23.383  25.435  1.00  0.00    -0.066 NA
BRANCH  80  82
ATOM     82  C   UNL A   1      35.603  21.738  24.314  1.00  0.00     0.148 C 
ATOM     83  C   UNL A   1      34.969  20.438  24.815  1.00  0.00     0.150 C 
ATOM     84  C   UNL A   1      34.476  22.460  25.089  1.00  0.00     0.150 C 
ATOM     85  N   UNL A   1      33.738  21.227  24.956  1.00  0.00    -0.320 N 
ATOM     86  C   UNL A   1      32.508  20.777  25.304  1.00  0.00     0.322 C 
ATOM     87  O   UNL A   1      32.270  19.566  25.352  1.00  0.00    -0.248 OA
ATOM     88  N   UNL A   1      31.549  21.626  25.760  1.00  0.00    -0.307 N 
ATOM     89  H   UNL A   1      30.818  21.179  26.244  1.00  0.00     0.171 HD
BRANCH  88  90
ATOM     90  C   UNL A   1      31.408  22.998  25.670  1.00  0.00     0.053 A 
ATOM     91  C   UNL A   1      31.710  23.984  26.653  1.00  0.00     0.038 A 
ATOM     92  C   UNL A   1      31.006  23.594  24.492  1.00  0.00     0.091 A 
ATOM     93  C   UNL A   1      31.315  25.249  26.274  1.00  0.00     0.067 A 
ATOM     94  S   UNL A   1      30.745  25.278  24.664  1.00  0.00    -0.150 S 
ENDBRANCH  88  90
ENDBRANCH  80  82
ENDBRANCH  75  77
ENDBRANCH  74  75
ENDBRANCH  73  74
ENDBRANCH   1  73
TORSDOF 16
ENDMDL
