MODEL 1
REMARK VINA RESULT:     -13.0      0.000      0.000
REMARK SMILES O=C(OCCOC(=O)c1ccccc1-c1ccc(/C=C2\C(=O)N(c3cccc(Br)c3)C(=O)N=C2O)o1)c1ccc(-c2c3nc(c(-c4c(F)cc(S(=O)(=O)[O-])cc4F)c4ccc([nH]4)c(-c4c(F)cc(S(=O)(=O)[O-])cc4F)c4nc(c(-c5c(F)cc(S(=O)(=O)[O-])cc5F)c5ccc2[nH]5)C=C4)C=C3)cc1
REMARK SMILES IDX 4 1 3 2 2 3 1 4 37 5 38 6 102 7 39 8 101 9 40 10 41 11 42 12
REMARK SMILES IDX 95 13 43 14 100 15 94 16 96 17 44 18 99 19 93 20 92 21 45 23
REMARK SMILES IDX 79 24 58 25 78 26 59 27 62 28 77 29 97 30 60 31 61 32 76 34
REMARK SMILES IDX 98 35 63 36 46 37 47 38 56 39 48 40 49 41 55 42 57 43 50 44
REMARK SMILES IDX 51 45 52 46 53 47 54 48 80 49 81 50 90 51 82 52 83 53 89 54
REMARK SMILES IDX 91 55 84 56 85 57 86 58 87 59 88 60 64 61 65 62 74 63 66 64
REMARK SMILES IDX 67 65 73 66 75 67 68 68 69 69 70 70 71 71 72 72 5 73 6 74
REMARK SMILES IDX 7 75 8 76 9 77 10 78 14 79 11 80 13 81 12 82 15 83 16 84
REMARK SMILES IDX 36 85 17 86 18 87 19 88 20 89 21 90 34 91 22 92 23 93 33 94
REMARK SMILES IDX 31 95 32 96 35 97 24 99 25 100 30 101 26 102 28 103 27 104
REMARK SMILES IDX 29 105
REMARK H PARENT 96 22 62 33 35 98
REMARK Flexibility Score: inf
ROOT
ATOM      1  C   UNL A   1      46.798  38.820  25.365  1.00  0.00     0.275 C 
ENDROOT
BRANCH   1   2
ATOM      2  O   UNL A   1      47.818  38.532  26.348  1.00  0.00    -0.458 OA
BRANCH   2   3
ATOM      3  C   UNL A   1      47.986  37.487  27.198  1.00  0.00     0.338 C 
ATOM      4  O   UNL A   1      48.877  37.571  28.044  1.00  0.00    -0.246 OA
BRANCH   3   5
ATOM      5  C   UNL A   1      47.260  36.175  27.099  1.00  0.00     0.060 A 
ATOM      6  C   UNL A   1      46.819  35.593  25.927  1.00  0.00     0.016 A 
ATOM      7  C   UNL A   1      47.066  35.425  28.279  1.00  0.00     0.016 A 
ATOM      8  C   UNL A   1      46.368  34.274  25.914  1.00  0.00     0.010 A 
ATOM      9  C   UNL A   1      46.577  34.096  28.253  1.00  0.00     0.010 A 
ATOM     10  C   UNL A   1      46.277  33.473  27.044  1.00  0.00    -0.014 A 
BRANCH  10  11
ATOM     11  C   UNL A   1      45.704  32.106  26.967  1.00  0.00     0.031 A 
ATOM     12  C   UNL A   1      46.634  31.024  26.663  1.00  0.00     0.074 A 
ATOM     13  C   UNL A   1      44.601  31.567  27.518  1.00  0.00     0.049 A 
ATOM     14  N   UNL A   1      46.416  29.563  25.914  1.00  0.00    -0.248 NA
ATOM     15  C   UNL A   1      48.567  31.193  27.219  1.00  0.00     0.031 C 
ATOM     16  C   UNL A   1      43.776  32.263  28.455  1.00  0.00     0.029 A 
ATOM     17  N   UNL A   1      44.040  30.306  27.480  1.00  0.00    -0.354 N 
ATOM     18  C   UNL A   1      48.038  28.651  25.928  1.00  0.00     0.074 A 
ATOM     19  C   UNL A   1      49.278  29.813  26.827  1.00  0.00     0.031 C 
ATOM     20  C   UNL A   1      42.743  31.504  28.842  1.00  0.00     0.029 A 
ATOM     21  C   UNL A   1      42.853  30.217  28.171  1.00  0.00     0.049 A 
ATOM     22  H   UNL A   1      44.449  29.547  27.005  1.00  0.00     0.167 HD
ATOM     23  C   UNL A   1      48.341  27.432  25.408  1.00  0.00     0.037 A 
ATOM     24  C   UNL A   1      41.943  29.228  28.268  1.00  0.00     0.037 A 
ATOM     25  C   UNL A   1      47.388  26.344  25.366  1.00  0.00     0.049 A 
ATOM     26  C   UNL A   1      42.298  27.854  27.745  1.00  0.00     0.074 A 
ATOM     27  C   UNL A   1      47.683  25.010  25.572  1.00  0.00     0.029 A 
ATOM     28  N   UNL A   1      45.989  26.431  25.341  1.00  0.00    -0.354 N 
ATOM     29  N   UNL A   1      43.375  27.443  27.105  1.00  0.00    -0.248 NA
ATOM     30  C   UNL A   1      41.334  26.788  28.033  1.00  0.00     0.031 C 
ATOM     31  C   UNL A   1      46.499  24.375  25.966  1.00  0.00     0.029 A 
ATOM     32  C   UNL A   1      45.464  25.306  25.974  1.00  0.00     0.049 A 
ATOM     33  H   UNL A   1      45.466  27.164  24.944  1.00  0.00     0.167 HD
ATOM     34  C   UNL A   1      43.250  26.063  26.965  1.00  0.00     0.074 A 
ATOM     35  C   UNL A   1      41.969  25.721  27.566  1.00  0.00     0.031 C 
ATOM     36  C   UNL A   1      44.109  25.126  26.471  1.00  0.00     0.037 A 
BRANCH  23  37
ATOM     37  C   UNL A   1      49.776  27.174  25.087  1.00  0.00     0.058 A 
ATOM     38  C   UNL A   1      50.368  27.352  23.830  1.00  0.00     0.135 A 
ATOM     39  C   UNL A   1      50.602  26.731  26.134  1.00  0.00     0.135 A 
ATOM     40  F   UNL A   1      49.657  27.842  22.802  1.00  0.00    -0.206 F 
ATOM     41  C   UNL A   1      51.698  27.014  23.596  1.00  0.00     0.059 A 
ATOM     42  C   UNL A   1      51.946  26.440  25.939  1.00  0.00     0.059 A 
ATOM     43  F   UNL A   1      50.099  26.579  27.371  1.00  0.00    -0.206 F 
ATOM     44  C   UNL A   1      52.479  26.555  24.658  1.00  0.00     0.060 A 
BRANCH  44  45
ATOM     45  S   UNL A   1      54.213  26.159  24.360  1.00  0.00     0.124 S 
ATOM     46  O   UNL A   1      54.335  26.431  22.931  1.00  0.00    -0.237 OA
ATOM     47  O   UNL A   1      54.906  27.092  25.243  1.00  0.00    -0.237 OA
ATOM     48  O   UNL A   1      54.310  24.753  24.743  1.00  0.00    -0.744 OA
ENDBRANCH  44  45
ENDBRANCH  23  37
BRANCH  24  49
ATOM     49  C   UNL A   1      40.596  29.551  28.848  1.00  0.00     0.058 A 
ATOM     50  C   UNL A   1      39.435  29.720  28.080  1.00  0.00     0.135 A 
ATOM     51  C   UNL A   1      40.457  29.683  30.246  1.00  0.00     0.135 A 
ATOM     52  F   UNL A   1      39.486  29.577  26.747  1.00  0.00    -0.206 F 
ATOM     53  C   UNL A   1      38.209  30.061  28.662  1.00  0.00     0.059 A 
ATOM     54  C   UNL A   1      39.241  29.990  30.852  1.00  0.00     0.059 A 
ATOM     55  F   UNL A   1      41.518  29.492  31.047  1.00  0.00    -0.206 F 
ATOM     56  C   UNL A   1      38.126  30.205  30.049  1.00  0.00     0.060 A 
BRANCH  56  57
ATOM     57  S   UNL A   1      36.545  30.676  30.793  1.00  0.00     0.124 S 
ATOM     58  O   UNL A   1      36.903  31.907  31.488  1.00  0.00    -0.237 OA
ATOM     59  O   UNL A   1      35.689  30.830  29.620  1.00  0.00    -0.237 OA
ATOM     60  O   UNL A   1      36.222  29.540  31.651  1.00  0.00    -0.744 OA
ENDBRANCH  56  57
ENDBRANCH  24  49
BRANCH  36  61
ATOM     61  C   UNL A   1      43.642  23.701  26.586  1.00  0.00     0.058 A 
ATOM     62  C   UNL A   1      43.619  23.067  27.833  1.00  0.00     0.135 A 
ATOM     63  C   UNL A   1      43.161  22.996  25.469  1.00  0.00     0.135 A 
ATOM     64  F   UNL A   1      44.131  23.679  28.911  1.00  0.00    -0.206 F 
ATOM     65  C   UNL A   1      43.086  21.795  27.979  1.00  0.00     0.059 A 
ATOM     66  C   UNL A   1      42.587  21.739  25.599  1.00  0.00     0.059 A 
ATOM     67  F   UNL A   1      43.205  23.551  24.246  1.00  0.00    -0.206 F 
ATOM     68  C   UNL A   1      42.543  21.154  26.864  1.00  0.00     0.060 A 
BRANCH  68  69
ATOM     69  S   UNL A   1      41.703  19.577  27.115  1.00  0.00     0.124 S 
ATOM     70  O   UNL A   1      40.530  19.987  27.878  1.00  0.00    -0.237 OA
ATOM     71  O   UNL A   1      41.450  19.144  25.744  1.00  0.00    -0.237 OA
ATOM     72  O   UNL A   1      42.684  18.783  27.847  1.00  0.00    -0.744 OA
ENDBRANCH  68  69
ENDBRANCH  36  61
ENDBRANCH  10  11
ENDBRANCH   3   5
ENDBRANCH   2   3
ENDBRANCH   1   2
BRANCH   1  73
ATOM     73  C   UNL A   1      46.410  40.300  25.293  1.00  0.00     0.275 C 
BRANCH  73  74
ATOM     74  O   UNL A   1      45.253  40.592  26.077  1.00  0.00    -0.458 OA
BRANCH  74  75
ATOM     75  C   UNL A   1      44.368  41.455  25.526  1.00  0.00     0.338 C 
ATOM     76  O   UNL A   1      43.293  41.177  25.022  1.00  0.00    -0.246 OA
BRANCH  75  77
ATOM     77  C   UNL A   1      44.829  42.838  25.726  1.00  0.00     0.071 A 
ATOM     78  C   UNL A   1      45.130  43.202  27.054  1.00  0.00     0.016 A 
ATOM     79  C   UNL A   1      44.958  43.756  24.672  1.00  0.00     0.032 A 
ATOM     80  C   UNL A   1      45.601  44.478  27.345  1.00  0.00     0.001 A 
ATOM     81  C   UNL A   1      45.267  45.081  25.027  1.00  0.00     0.013 A 
ATOM     82  C   UNL A   1      45.650  45.426  26.333  1.00  0.00     0.001 A 
BRANCH  79  83
ATOM     83  C   UNL A   1      44.815  43.373  23.258  1.00  0.00     0.135 A 
ATOM     84  C   UNL A   1      45.652  42.754  22.364  1.00  0.00     0.051 A 
ATOM     85  O   UNL A   1      43.663  43.752  22.598  1.00  0.00    -0.457 OA
ATOM     86  C   UNL A   1      44.975  42.755  21.122  1.00  0.00     0.051 A 
ATOM     87  C   UNL A   1      43.731  43.370  21.272  1.00  0.00     0.128 A 
BRANCH  87  88
ATOM     88  C   UNL A   1      42.741  43.484  20.233  1.00  0.00     0.066 C 
ATOM     89  C   UNL A   1      42.628  44.291  19.154  1.00  0.00     0.106 C 
ATOM     90  C   UNL A   1      43.551  45.350  18.678  1.00  0.00     0.272 C 
ATOM     91  C   UNL A   1      41.462  44.118  18.283  1.00  0.00     0.228 C 
ATOM     92  O   UNL A   1      44.662  45.422  19.172  1.00  0.00    -0.268 OA
ATOM     93  N   UNL A   1      43.081  46.166  17.655  1.00  0.00    -0.226 N 
ATOM     94  N   UNL A   1      41.156  44.788  17.247  1.00  0.00    -0.156 NA
ATOM     95  C   UNL A   1      41.956  45.834  16.873  1.00  0.00     0.358 C 
ATOM     96  O   UNL A   1      41.668  46.425  15.833  1.00  0.00    -0.245 OA
BRANCH  91  97
ATOM     97  O   UNL A   1      40.624  43.117  18.582  1.00  0.00    -0.493 OA
ATOM     98  H   UNL A   1      40.909  42.228  18.505  1.00  0.00     0.295 HD
ENDBRANCH  91  97
BRANCH  93  99
ATOM     99  C   UNL A   1      43.671  47.478  17.447  1.00  0.00     0.055 A 
ATOM    100  C   UNL A   1      43.032  48.492  18.172  1.00  0.00     0.027 A 
ATOM    101  C   UNL A   1      44.912  47.753  16.730  1.00  0.00     0.042 A 
ATOM    102  C   UNL A   1      43.615  49.708  18.312  1.00  0.00     0.003 A 
ATOM    103  C   UNL A   1      45.655  49.110  16.715  1.00  0.00     0.020 A 
ATOM    104  C   UNL A   1      44.844  49.928  17.704  1.00  0.00     0.016 A 
ATOM    105  Br  UNL A   1      48.175  49.782  15.773  1.00  0.00    -0.051 Br
ENDBRANCH  93  99
ENDBRANCH  87  88
ENDBRANCH  79  83
ENDBRANCH  75  77
ENDBRANCH  74  75
ENDBRANCH  73  74
ENDBRANCH   1  73
TORSDOF 18
ENDMDL
MODEL 2
REMARK VINA RESULT:     -12.5      9.991     17.310
REMARK SMILES O=C(OCCOC(=O)c1ccccc1-c1ccc(/C=C2\C(=O)N(c3cccc(Br)c3)C(=O)N=C2O)o1)c1ccc(-c2c3nc(c(-c4c(F)cc(S(=O)(=O)[O-])cc4F)c4ccc([nH]4)c(-c4c(F)cc(S(=O)(=O)[O-])cc4F)c4nc(c(-c5c(F)cc(S(=O)(=O)[O-])cc5F)c5ccc2[nH]5)C=C4)C=C3)cc1
REMARK SMILES IDX 4 1 3 2 2 3 1 4 37 5 38 6 102 7 39 8 101 9 40 10 41 11 42 12
REMARK SMILES IDX 95 13 43 14 100 15 94 16 96 17 44 18 99 19 93 20 92 21 45 23
REMARK SMILES IDX 79 24 58 25 78 26 59 27 62 28 77 29 97 30 60 31 61 32 76 34
REMARK SMILES IDX 98 35 63 36 46 37 47 38 56 39 48 40 49 41 55 42 57 43 50 44
REMARK SMILES IDX 51 45 52 46 53 47 54 48 80 49 81 50 90 51 82 52 83 53 89 54
REMARK SMILES IDX 91 55 84 56 85 57 86 58 87 59 88 60 64 61 65 62 74 63 66 64
REMARK SMILES IDX 67 65 73 66 75 67 68 68 69 69 70 70 71 71 72 72 5 73 6 74
REMARK SMILES IDX 7 75 8 76 9 77 10 78 14 79 11 80 13 81 12 82 15 83 16 84
REMARK SMILES IDX 36 85 17 86 18 87 19 88 20 89 21 90 34 91 22 92 23 93 33 94
REMARK SMILES IDX 31 95 32 96 35 97 24 99 25 100 30 101 26 102 28 103 27 104
REMARK SMILES IDX 29 105
REMARK H PARENT 96 22 62 33 35 98
REMARK Flexibility Score: inf
ROOT
ATOM      1  C   UNL A   1      38.542  19.749  25.036  1.00  0.00     0.275 C 
ENDROOT
BRANCH   1   2
ATOM      2  O   UNL A   1      39.597  19.775  26.024  1.00  0.00    -0.458 OA
BRANCH   2   3
ATOM      3  C   UNL A   1      40.949  19.773  25.904  1.00  0.00     0.338 C 
ATOM      4  O   UNL A   1      41.491  18.734  25.525  1.00  0.00    -0.246 OA
BRANCH   3   5
ATOM      5  C   UNL A   1      41.850  20.898  26.331  1.00  0.00     0.060 A 
ATOM      6  C   UNL A   1      43.227  20.894  26.243  1.00  0.00     0.016 A 
ATOM      7  C   UNL A   1      41.257  22.093  26.794  1.00  0.00     0.016 A 
ATOM      8  C   UNL A   1      43.956  22.066  26.444  1.00  0.00     0.010 A 
ATOM      9  C   UNL A   1      42.014  23.267  27.022  1.00  0.00     0.010 A 
ATOM     10  C   UNL A   1      43.387  23.285  26.786  1.00  0.00    -0.014 A 
BRANCH  10  11
ATOM     11  C   UNL A   1      44.234  24.471  27.069  1.00  0.00     0.031 A 
ATOM     12  C   UNL A   1      44.255  24.944  28.448  1.00  0.00     0.074 A 
ATOM     13  C   UNL A   1      45.316  24.967  26.441  1.00  0.00     0.049 A 
ATOM     14  N   UNL A   1      44.507  26.449  29.091  1.00  0.00    -0.248 NA
ATOM     15  C   UNL A   1      43.960  23.630  29.952  1.00  0.00     0.031 C 
ATOM     16  C   UNL A   1      45.959  24.302  25.350  1.00  0.00     0.029 A 
ATOM     17  N   UNL A   1      46.133  26.054  26.674  1.00  0.00    -0.354 N 
ATOM     18  C   UNL A   1      44.458  26.308  30.947  1.00  0.00     0.074 A 
ATOM     19  C   UNL A   1      44.141  24.449  31.317  1.00  0.00     0.031 C 
ATOM     20  C   UNL A   1      47.003  25.011  24.905  1.00  0.00     0.029 A 
ATOM     21  C   UNL A   1      47.116  26.210  25.723  1.00  0.00     0.049 A 
ATOM     22  H   UNL A   1      46.024  26.657  27.444  1.00  0.00     0.167 HD
ATOM     23  C   UNL A   1      44.590  27.283  31.885  1.00  0.00     0.037 A 
ATOM     24  C   UNL A   1      48.014  27.193  25.513  1.00  0.00     0.037 A 
ATOM     25  C   UNL A   1      45.445  28.436  31.697  1.00  0.00     0.049 A 
ATOM     26  C   UNL A   1      48.206  28.247  26.580  1.00  0.00     0.074 A 
ATOM     27  C   UNL A   1      46.208  29.038  32.678  1.00  0.00     0.029 A 
ATOM     28  N   UNL A   1      45.843  29.017  30.484  1.00  0.00    -0.354 N 
ATOM     29  N   UNL A   1      47.564  28.431  27.715  1.00  0.00    -0.248 NA
ATOM     30  C   UNL A   1      49.312  29.185  26.364  1.00  0.00     0.031 C 
ATOM     31  C   UNL A   1      47.243  29.730  32.037  1.00  0.00     0.029 A 
ATOM     32  C   UNL A   1      47.104  29.585  30.660  1.00  0.00     0.049 A 
ATOM     33  H   UNL A   1      45.322  29.023  29.650  1.00  0.00     0.167 HD
ATOM     34  C   UNL A   1      48.219  29.465  28.379  1.00  0.00     0.074 A 
ATOM     35  C   UNL A   1      49.295  29.881  27.492  1.00  0.00     0.031 C 
ATOM     36  C   UNL A   1      48.038  29.994  29.624  1.00  0.00     0.037 A 
BRANCH  23  37
ATOM     37  C   UNL A   1      43.997  27.012  33.227  1.00  0.00     0.058 A 
ATOM     38  C   UNL A   1      44.653  26.374  34.288  1.00  0.00     0.135 A 
ATOM     39  C   UNL A   1      42.679  27.447  33.450  1.00  0.00     0.135 A 
ATOM     40  F   UNL A   1      45.937  25.998  34.171  1.00  0.00    -0.206 F 
ATOM     41  C   UNL A   1      44.000  26.091  35.484  1.00  0.00     0.059 A 
ATOM     42  C   UNL A   1      42.024  27.225  34.655  1.00  0.00     0.059 A 
ATOM     43  F   UNL A   1      42.012  28.099  32.483  1.00  0.00    -0.206 F 
ATOM     44  C   UNL A   1      42.683  26.519  35.657  1.00  0.00     0.060 A 
BRANCH  44  45
ATOM     45  S   UNL A   1      41.856  26.188  37.225  1.00  0.00     0.124 S 
ATOM     46  O   UNL A   1      41.390  24.819  37.028  1.00  0.00    -0.237 OA
ATOM     47  O   UNL A   1      42.935  26.355  38.193  1.00  0.00    -0.237 OA
ATOM     48  O   UNL A   1      40.811  27.206  37.279  1.00  0.00    -0.744 OA
ENDBRANCH  44  45
ENDBRANCH  23  37
BRANCH  24  49
ATOM     49  C   UNL A   1      48.746  27.223  24.202  1.00  0.00     0.058 A 
ATOM     50  C   UNL A   1      48.189  27.699  23.006  1.00  0.00     0.135 A 
ATOM     51  C   UNL A   1      50.080  26.767  24.142  1.00  0.00     0.135 A 
ATOM     52  F   UNL A   1      46.936  28.180  22.995  1.00  0.00    -0.206 F 
ATOM     53  C   UNL A   1      48.896  27.669  21.800  1.00  0.00     0.059 A 
ATOM     54  C   UNL A   1      50.816  26.757  22.960  1.00  0.00     0.059 A 
ATOM     55  F   UNL A   1      50.692  26.337  25.257  1.00  0.00    -0.206 F 
ATOM     56  C   UNL A   1      50.206  27.186  21.785  1.00  0.00     0.060 A 
BRANCH  56  57
ATOM     57  S   UNL A   1      51.105  27.122  20.216  1.00  0.00     0.124 S 
ATOM     58  O   UNL A   1      51.850  28.376  20.254  1.00  0.00    -0.237 OA
ATOM     59  O   UNL A   1      51.897  25.905  20.367  1.00  0.00    -0.237 OA
ATOM     60  O   UNL A   1      50.041  27.052  19.219  1.00  0.00    -0.744 OA
ENDBRANCH  56  57
ENDBRANCH  24  49
BRANCH  36  61
ATOM     61  C   UNL A   1      49.032  31.051  30.022  1.00  0.00     0.058 A 
ATOM     62  C   UNL A   1      50.282  30.684  30.534  1.00  0.00     0.135 A 
ATOM     63  C   UNL A   1      48.761  32.418  29.837  1.00  0.00     0.135 A 
ATOM     64  F   UNL A   1      50.554  29.396  30.789  1.00  0.00    -0.206 F 
ATOM     65  C   UNL A   1      51.253  31.637  30.801  1.00  0.00     0.059 A 
ATOM     66  C   UNL A   1      49.732  33.385  30.060  1.00  0.00     0.059 A 
ATOM     67  F   UNL A   1      47.558  32.816  29.389  1.00  0.00    -0.206 F 
ATOM     68  C   UNL A   1      50.981  32.980  30.529  1.00  0.00     0.060 A 
BRANCH  68  69
ATOM     69  S   UNL A   1      52.319  34.174  30.722  1.00  0.00     0.124 S 
ATOM     70  O   UNL A   1      53.332  33.628  29.827  1.00  0.00    -0.237 OA
ATOM     71  O   UNL A   1      51.685  35.414  30.284  1.00  0.00    -0.237 OA
ATOM     72  O   UNL A   1      52.632  34.105  32.146  1.00  0.00    -0.744 OA
ENDBRANCH  68  69
ENDBRANCH  36  61
ENDBRANCH  10  11
ENDBRANCH   3   5
ENDBRANCH   2   3
ENDBRANCH   1   2
BRANCH   1  73
ATOM     73  C   UNL A   1      37.670  21.008  25.029  1.00  0.00     0.275 C 
BRANCH  73  74
ATOM     74  O   UNL A   1      36.404  20.783  24.407  1.00  0.00    -0.458 OA
BRANCH  74  75
ATOM     75  C   UNL A   1      35.380  20.490  25.241  1.00  0.00     0.338 C 
ATOM     76  O   UNL A   1      35.081  21.078  26.267  1.00  0.00    -0.246 OA
BRANCH  75  77
ATOM     77  C   UNL A   1      34.567  19.404  24.671  1.00  0.00     0.071 A 
ATOM     78  C   UNL A   1      35.138  18.116  24.716  1.00  0.00     0.016 A 
ATOM     79  C   UNL A   1      33.300  19.620  24.104  1.00  0.00     0.032 A 
ATOM     80  C   UNL A   1      34.438  17.018  24.228  1.00  0.00     0.001 A 
ATOM     81  C   UNL A   1      32.701  18.519  23.468  1.00  0.00     0.013 A 
ATOM     82  C   UNL A   1      33.226  17.223  23.584  1.00  0.00     0.001 A 
BRANCH  79  83
ATOM     83  C   UNL A   1      32.600  20.912  24.186  1.00  0.00     0.135 A 
ATOM     84  C   UNL A   1      31.740  21.457  25.106  1.00  0.00     0.051 A 
ATOM     85  O   UNL A   1      32.711  21.778  23.117  1.00  0.00    -0.457 OA
ATOM     86  C   UNL A   1      31.325  22.700  24.574  1.00  0.00     0.051 A 
ATOM     87  C   UNL A   1      31.939  22.902  23.336  1.00  0.00     0.128 A 
BRANCH  87  88
ATOM     88  C   UNL A   1      31.806  24.093  22.539  1.00  0.00     0.066 C 
ATOM     89  C   UNL A   1      32.113  25.391  22.765  1.00  0.00     0.106 C 
ATOM     90  C   UNL A   1      32.733  26.010  23.961  1.00  0.00     0.272 C 
ATOM     91  C   UNL A   1      31.842  26.358  21.698  1.00  0.00     0.228 C 
ATOM     92  O   UNL A   1      33.223  25.283  24.806  1.00  0.00    -0.268 OA
ATOM     93  N   UNL A   1      32.743  27.399  24.003  1.00  0.00    -0.226 N 
ATOM     94  N   UNL A   1      32.027  27.616  21.720  1.00  0.00    -0.156 NA
ATOM     95  C   UNL A   1      32.500  28.197  22.865  1.00  0.00     0.358 C 
ATOM     96  O   UNL A   1      32.726  29.405  22.838  1.00  0.00    -0.245 OA
BRANCH  91  97
ATOM     97  O   UNL A   1      31.371  25.872  20.542  1.00  0.00    -0.493 OA
ATOM     98  H   UNL A   1      30.526  25.469  20.513  1.00  0.00     0.295 HD
ENDBRANCH  91  97
BRANCH  93  99
ATOM     99  C   UNL A   1      32.878  28.084  25.278  1.00  0.00     0.055 A 
ATOM    100  C   UNL A   1      31.692  28.098  26.024  1.00  0.00     0.027 A 
ATOM    101  C   UNL A   1      34.126  28.557  25.867  1.00  0.00     0.042 A 
ATOM    102  C   UNL A   1      31.709  28.442  27.335  1.00  0.00     0.003 A 
ATOM    103  C   UNL A   1      34.294  29.067  27.318  1.00  0.00     0.020 A 
ATOM    104  C   UNL A   1      32.923  28.800  27.911  1.00  0.00     0.016 A 
ATOM    105  Br  UNL A   1      36.580  29.648  28.778  1.00  0.00    -0.051 Br
ENDBRANCH  93  99
ENDBRANCH  87  88
ENDBRANCH  79  83
ENDBRANCH  75  77
ENDBRANCH  74  75
ENDBRANCH  73  74
ENDBRANCH   1  73
TORSDOF 18
ENDMDL
MODEL 3
REMARK VINA RESULT:     -12.5      9.164     14.836
REMARK SMILES O=C(OCCOC(=O)c1ccccc1-c1ccc(/C=C2\C(=O)N(c3cccc(Br)c3)C(=O)N=C2O)o1)c1ccc(-c2c3nc(c(-c4c(F)cc(S(=O)(=O)[O-])cc4F)c4ccc([nH]4)c(-c4c(F)cc(S(=O)(=O)[O-])cc4F)c4nc(c(-c5c(F)cc(S(=O)(=O)[O-])cc5F)c5ccc2[nH]5)C=C4)C=C3)cc1
REMARK SMILES IDX 4 1 3 2 2 3 1 4 37 5 38 6 102 7 39 8 101 9 40 10 41 11 42 12
REMARK SMILES IDX 95 13 43 14 100 15 94 16 96 17 44 18 99 19 93 20 92 21 45 23
REMARK SMILES IDX 79 24 58 25 78 26 59 27 62 28 77 29 97 30 60 31 61 32 76 34
REMARK SMILES IDX 98 35 63 36 46 37 47 38 56 39 48 40 49 41 55 42 57 43 50 44
REMARK SMILES IDX 51 45 52 46 53 47 54 48 80 49 81 50 90 51 82 52 83 53 89 54
REMARK SMILES IDX 91 55 84 56 85 57 86 58 87 59 88 60 64 61 65 62 74 63 66 64
REMARK SMILES IDX 67 65 73 66 75 67 68 68 69 69 70 70 71 71 72 72 5 73 6 74
REMARK SMILES IDX 7 75 8 76 9 77 10 78 14 79 11 80 13 81 12 82 15 83 16 84
REMARK SMILES IDX 36 85 17 86 18 87 19 88 20 89 21 90 34 91 22 92 23 93 33 94
REMARK SMILES IDX 31 95 32 96 35 97 24 99 25 100 30 101 26 102 28 103 27 104
REMARK SMILES IDX 29 105
REMARK H PARENT 96 22 62 33 35 98
REMARK Flexibility Score: inf
ROOT
ATOM      1  C   UNL A   1      43.092  23.594  25.375  1.00  0.00     0.275 C 
ENDROOT
BRANCH   1   2
ATOM      2  O   UNL A   1      41.929  24.399  25.674  1.00  0.00    -0.458 OA
BRANCH   2   3
ATOM      3  C   UNL A   1      40.977  24.290  26.635  1.00  0.00     0.338 C 
ATOM      4  O   UNL A   1      40.129  23.405  26.508  1.00  0.00    -0.246 OA
BRANCH   3   5
ATOM      5  C   UNL A   1      40.793  25.255  27.772  1.00  0.00     0.060 A 
ATOM      6  C   UNL A   1      41.739  26.157  28.214  1.00  0.00     0.016 A 
ATOM      7  C   UNL A   1      39.532  25.310  28.407  1.00  0.00     0.016 A 
ATOM      8  C   UNL A   1      41.395  27.164  29.116  1.00  0.00     0.010 A 
ATOM      9  C   UNL A   1      39.207  26.321  29.344  1.00  0.00     0.010 A 
ATOM     10  C   UNL A   1      40.130  27.313  29.668  1.00  0.00    -0.014 A 
BRANCH  10  11
ATOM     11  C   UNL A   1      39.860  28.357  30.689  1.00  0.00     0.031 A 
ATOM     12  C   UNL A   1      40.813  28.455  31.789  1.00  0.00     0.074 A 
ATOM     13  C   UNL A   1      39.173  29.512  30.626  1.00  0.00     0.049 A 
ATOM     14  N   UNL A   1      40.638  28.969  33.354  1.00  0.00    -0.248 NA
ATOM     15  C   UNL A   1      42.737  27.925  31.485  1.00  0.00     0.031 C 
ATOM     16  C   UNL A   1      38.628  30.031  29.411  1.00  0.00     0.029 A 
ATOM     17  N   UNL A   1      38.907  30.508  31.543  1.00  0.00    -0.354 N 
ATOM     18  C   UNL A   1      42.301  28.887  34.186  1.00  0.00     0.074 A 
ATOM     19  C   UNL A   1      43.519  28.243  32.846  1.00  0.00     0.031 C 
ATOM     20  C   UNL A   1      37.988  31.187  29.628  1.00  0.00     0.029 A 
ATOM     21  C   UNL A   1      38.103  31.507  31.043  1.00  0.00     0.049 A 
ATOM     22  H   UNL A   1      39.258  30.505  32.463  1.00  0.00     0.167 HD
ATOM     23  C   UNL A   1      42.633  29.186  35.470  1.00  0.00     0.037 A 
ATOM     24  C   UNL A   1      37.515  32.567  31.634  1.00  0.00     0.037 A 
ATOM     25  C   UNL A   1      41.975  30.233  36.222  1.00  0.00     0.049 A 
ATOM     26  C   UNL A   1      37.925  32.939  33.041  1.00  0.00     0.074 A 
ATOM     27  C   UNL A   1      42.590  31.087  37.117  1.00  0.00     0.029 A 
ATOM     28  N   UNL A   1      40.678  30.734  36.037  1.00  0.00    -0.354 N 
ATOM     29  N   UNL A   1      38.750  32.334  33.872  1.00  0.00    -0.248 NA
ATOM     30  C   UNL A   1      37.373  34.195  33.559  1.00  0.00     0.031 C 
ATOM     31  C   UNL A   1      41.790  32.231  37.220  1.00  0.00     0.029 A 
ATOM     32  C   UNL A   1      40.664  32.075  36.417  1.00  0.00     0.049 A 
ATOM     33  H   UNL A   1      39.908  30.225  35.696  1.00  0.00     0.167 HD
ATOM     34  C   UNL A   1      38.866  33.161  34.987  1.00  0.00     0.074 A 
ATOM     35  C   UNL A   1      37.995  34.298  34.726  1.00  0.00     0.031 C 
ATOM     36  C   UNL A   1      39.655  33.071  36.096  1.00  0.00     0.037 A 
BRANCH  23  37
ATOM     37  C   UNL A   1      43.868  28.549  36.013  1.00  0.00     0.058 A 
ATOM     38  C   UNL A   1      45.171  29.038  35.848  1.00  0.00     0.135 A 
ATOM     39  C   UNL A   1      43.710  27.371  36.763  1.00  0.00     0.135 A 
ATOM     40  F   UNL A   1      45.390  30.196  35.206  1.00  0.00    -0.206 F 
ATOM     41  C   UNL A   1      46.277  28.339  36.323  1.00  0.00     0.059 A 
ATOM     42  C   UNL A   1      44.794  26.685  37.295  1.00  0.00     0.059 A 
ATOM     43  F   UNL A   1      42.482  26.875  36.988  1.00  0.00    -0.206 F 
ATOM     44  C   UNL A   1      46.078  27.160  37.043  1.00  0.00     0.060 A 
BRANCH  44  45
ATOM     45  S   UNL A   1      47.513  26.281  37.693  1.00  0.00     0.124 S 
ATOM     46  O   UNL A   1      48.316  26.098  36.489  1.00  0.00    -0.237 OA
ATOM     47  O   UNL A   1      48.045  27.225  38.671  1.00  0.00    -0.237 OA
ATOM     48  O   UNL A   1      46.937  25.063  38.256  1.00  0.00    -0.744 OA
ENDBRANCH  44  45
ENDBRANCH  23  37
BRANCH  24  49
ATOM     49  C   UNL A   1      36.440  33.298  30.882  1.00  0.00     0.058 A 
ATOM     50  C   UNL A   1      36.686  34.133  29.782  1.00  0.00     0.135 A 
ATOM     51  C   UNL A   1      35.093  33.143  31.271  1.00  0.00     0.135 A 
ATOM     52  F   UNL A   1      37.940  34.301  29.335  1.00  0.00    -0.206 F 
ATOM     53  C   UNL A   1      35.657  34.827  29.138  1.00  0.00     0.059 A 
ATOM     54  C   UNL A   1      34.047  33.798  30.626  1.00  0.00     0.059 A 
ATOM     55  F   UNL A   1      34.779  32.325  32.289  1.00  0.00    -0.206 F 
ATOM     56  C   UNL A   1      34.341  34.660  29.575  1.00  0.00     0.060 A 
BRANCH  56  57
ATOM     57  S   UNL A   1      33.017  35.584  28.757  1.00  0.00     0.124 S 
ATOM     58  O   UNL A   1      32.382  34.541  27.957  1.00  0.00    -0.237 OA
ATOM     59  O   UNL A   1      32.243  36.078  29.891  1.00  0.00    -0.237 OA
ATOM     60  O   UNL A   1      33.734  36.607  28.001  1.00  0.00    -0.744 OA
ENDBRANCH  56  57
ENDBRANCH  24  49
BRANCH  36  61
ATOM     61  C   UNL A   1      39.563  34.235  37.044  1.00  0.00     0.058 A 
ATOM     62  C   UNL A   1      38.813  34.127  38.220  1.00  0.00     0.135 A 
ATOM     63  C   UNL A   1      40.271  35.428  36.810  1.00  0.00     0.135 A 
ATOM     64  F   UNL A   1      38.070  33.034  38.448  1.00  0.00    -0.206 F 
ATOM     65  C   UNL A   1      38.807  35.146  39.161  1.00  0.00     0.059 A 
ATOM     66  C   UNL A   1      40.312  36.442  37.757  1.00  0.00     0.059 A 
ATOM     67  F   UNL A   1      40.969  35.589  35.674  1.00  0.00    -0.206 F 
ATOM     68  C   UNL A   1      39.586  36.283  38.937  1.00  0.00     0.060 A 
BRANCH  68  69
ATOM     69  S   UNL A   1      39.695  37.512  40.253  1.00  0.00     0.124 S 
ATOM     70  O   UNL A   1      41.138  37.612  40.442  1.00  0.00    -0.237 OA
ATOM     71  O   UNL A   1      39.052  38.671  39.642  1.00  0.00    -0.237 OA
ATOM     72  O   UNL A   1      38.957  36.898  41.352  1.00  0.00    -0.744 OA
ENDBRANCH  68  69
ENDBRANCH  36  61
ENDBRANCH  10  11
ENDBRANCH   3   5
ENDBRANCH   2   3
ENDBRANCH   1   2
BRANCH   1  73
ATOM     73  C   UNL A   1      44.316  24.410  24.948  1.00  0.00     0.275 C 
BRANCH  73  74
ATOM     74  O   UNL A   1      44.957  25.040  26.058  1.00  0.00    -0.458 OA
BRANCH  74  75
ATOM     75  C   UNL A   1      45.715  24.234  26.837  1.00  0.00     0.338 C 
ATOM     76  O   UNL A   1      46.730  23.643  26.508  1.00  0.00    -0.246 OA
BRANCH  75  77
ATOM     77  C   UNL A   1      45.210  24.257  28.219  1.00  0.00     0.071 A 
ATOM     78  C   UNL A   1      44.676  23.044  28.701  1.00  0.00     0.016 A 
ATOM     79  C   UNL A   1      45.240  25.410  29.020  1.00  0.00     0.032 A 
ATOM     80  C   UNL A   1      44.198  22.954  30.004  1.00  0.00     0.001 A 
ATOM     81  C   UNL A   1      44.592  25.326  30.266  1.00  0.00     0.013 A 
ATOM     82  C   UNL A   1      44.137  24.102  30.781  1.00  0.00     0.001 A 
BRANCH  79  83
ATOM     83  C   UNL A   1      45.935  26.643  28.618  1.00  0.00     0.135 A 
ATOM     84  C   UNL A   1      47.239  27.060  28.714  1.00  0.00     0.051 A 
ATOM     85  O   UNL A   1      45.176  27.676  28.106  1.00  0.00    -0.457 OA
ATOM     86  C   UNL A   1      47.266  28.391  28.236  1.00  0.00     0.051 A 
ATOM     87  C   UNL A   1      45.979  28.770  27.849  1.00  0.00     0.128 A 
BRANCH  87  88
ATOM     88  C   UNL A   1      45.643  30.033  27.246  1.00  0.00     0.066 C 
ATOM     89  C   UNL A   1      45.200  31.206  27.751  1.00  0.00     0.106 C 
ATOM     90  C   UNL A   1      44.928  31.572  29.162  1.00  0.00     0.272 C 
ATOM     91  C   UNL A   1      44.965  32.313  26.820  1.00  0.00     0.228 C 
ATOM     92  O   UNL A   1      45.314  30.826  30.044  1.00  0.00    -0.268 OA
ATOM     93  N   UNL A   1      44.280  32.784  29.373  1.00  0.00    -0.226 N 
ATOM     94  N   UNL A   1      44.524  33.476  27.085  1.00  0.00    -0.156 NA
ATOM     95  C   UNL A   1      44.174  33.774  28.374  1.00  0.00     0.358 C 
ATOM     96  O   UNL A   1      43.807  34.924  28.612  1.00  0.00    -0.245 OA
BRANCH  91  97
ATOM     97  O   UNL A   1      45.278  32.103  25.535  1.00  0.00    -0.493 OA
ATOM     98  H   UNL A   1      44.600  32.053  24.890  1.00  0.00     0.295 HD
ENDBRANCH  91  97
BRANCH  93  99
ATOM     99  C   UNL A   1      43.561  33.014  30.616  1.00  0.00     0.055 A 
ATOM    100  C   UNL A   1      42.304  32.397  30.648  1.00  0.00     0.027 A 
ATOM    101  C   UNL A   1      44.107  33.642  31.814  1.00  0.00     0.042 A 
ATOM    102  C   UNL A   1      41.628  32.276  31.817  1.00  0.00     0.003 A 
ATOM    103  C   UNL A   1      43.420  33.670  33.201  1.00  0.00     0.020 A 
ATOM    104  C   UNL A   1      42.202  32.795  32.972  1.00  0.00     0.016 A 
ATOM    105  Br  UNL A   1      44.389  34.442  35.683  1.00  0.00    -0.051 Br
ENDBRANCH  93  99
ENDBRANCH  87  88
ENDBRANCH  79  83
ENDBRANCH  75  77
ENDBRANCH  74  75
ENDBRANCH  73  74
ENDBRANCH   1  73
TORSDOF 18
ENDMDL
