MODEL 1
REMARK VINA RESULT:      -9.8      0.000      0.000
REMARK SMILES O=C(Cc1ccc(-c2cccc(F)c2F)cc1)OCCOC(=O)c1ccc(-c2c3nc(c(-c4c(F)cc(S(=O)(=O)[O-])cc4F)c4ccc([nH]4)c(-c4c(F)cc(S(=O)(=O)[O-])cc4F)c4nc(c(-c5c(F)cc(S(=O)(=O)[O-])cc5F)c5ccc2[nH]5)C=C4)C=C3)cc1
REMARK SMILES IDX 20 1 19 2 18 3 2 4 1 5 3 6 4 7 5 8 17 9 6 10 16 11 7 12 8 13
REMARK SMILES IDX 9 14 14 15 10 16 12 17 15 18 11 19 13 20 21 21 22 22 23 23
REMARK SMILES IDX 24 24 25 25 89 26 26 27 88 28 27 29 28 30 29 31 82 32 30 33
REMARK SMILES IDX 87 34 81 35 83 36 31 37 86 38 80 39 79 40 32 42 66 43 45 44
REMARK SMILES IDX 65 45 46 46 49 47 64 48 84 49 47 50 48 51 63 53 85 54 50 55
REMARK SMILES IDX 33 56 34 57 43 58 35 59 36 60 42 61 44 62 37 63 38 64 39 65
REMARK SMILES IDX 40 66 41 67 67 68 68 69 77 70 69 71 70 72 76 73 78 74 71 75
REMARK SMILES IDX 72 76 73 77 74 78 75 79 51 80 52 81 61 82 53 83 54 84 60 85
REMARK SMILES IDX 62 86 55 87 56 88 57 89 58 90 59 91
REMARK H PARENT 83 41 49 52
REMARK Flexibility Score: inf
ROOT
ATOM      1  C   UNL A   1      34.007  33.453  28.027  1.00  0.00     0.275 C 
ENDROOT
BRANCH   1   2
ATOM      2  C   UNL A   1      33.768  34.592  29.022  1.00  0.00     0.274 C 
BRANCH   2   3
ATOM      3  O   UNL A   1      33.560  34.131  30.370  1.00  0.00    -0.462 OA
BRANCH   3   4
ATOM      4  C   UNL A   1      34.453  34.400  31.361  1.00  0.00     0.310 C 
ATOM      5  O   UNL A   1      34.428  35.483  31.940  1.00  0.00    -0.252 OA
BRANCH   4   6
ATOM      6  C   UNL A   1      35.543  33.379  31.617  1.00  0.00     0.158 C 
BRANCH   6   7
ATOM      7  C   UNL A   1      36.892  33.742  31.064  1.00  0.00    -0.037 A 
ATOM      8  C   UNL A   1      37.868  34.301  31.887  1.00  0.00     0.005 A 
ATOM      9  C   UNL A   1      37.181  33.541  29.709  1.00  0.00     0.005 A 
ATOM     10  C   UNL A   1      39.127  34.607  31.370  1.00  0.00     0.009 A 
ATOM     11  C   UNL A   1      38.450  33.813  29.206  1.00  0.00     0.009 A 
ATOM     12  C   UNL A   1      39.456  34.334  30.030  1.00  0.00    -0.015 A 
BRANCH  12  13
ATOM     13  C   UNL A   1      40.824  34.539  29.524  1.00  0.00     0.020 A 
ATOM     14  C   UNL A   1      41.114  35.655  28.713  1.00  0.00     0.012 A 
ATOM     15  C   UNL A   1      41.888  33.683  29.849  1.00  0.00     0.166 A 
ATOM     16  C   UNL A   1      42.406  35.898  28.239  1.00  0.00     0.004 A 
ATOM     17  C   UNL A   1      43.175  33.930  29.380  1.00  0.00     0.159 A 
ATOM     18  F   UNL A   1      41.686  32.608  30.631  1.00  0.00    -0.203 F 
ATOM     19  C   UNL A   1      43.441  35.031  28.575  1.00  0.00     0.042 A 
ATOM     20  F   UNL A   1      44.180  33.109  29.715  1.00  0.00    -0.204 F 
ENDBRANCH  12  13
ENDBRANCH   6   7
ENDBRANCH   4   6
ENDBRANCH   3   4
ENDBRANCH   2   3
ENDBRANCH   1   2
BRANCH   1  21
ATOM     21  O   UNL A   1      34.092  32.182  28.694  1.00  0.00    -0.458 OA
BRANCH  21  22
ATOM     22  C   UNL A   1      34.327  31.128  27.870  1.00  0.00     0.338 C 
ATOM     23  O   UNL A   1      33.677  30.826  26.883  1.00  0.00    -0.246 OA
BRANCH  22  24
ATOM     24  C   UNL A   1      35.620  30.490  28.218  1.00  0.00     0.060 A 
ATOM     25  C   UNL A   1      35.659  29.707  29.379  1.00  0.00     0.016 A 
ATOM     26  C   UNL A   1      36.769  30.630  27.430  1.00  0.00     0.016 A 
ATOM     27  C   UNL A   1      36.857  29.120  29.790  1.00  0.00     0.010 A 
ATOM     28  C   UNL A   1      37.971  30.042  27.845  1.00  0.00     0.010 A 
ATOM     29  C   UNL A   1      38.030  29.323  29.052  1.00  0.00    -0.014 A 
BRANCH  29  30
ATOM     30  C   UNL A   1      39.334  28.969  29.667  1.00  0.00     0.031 A 
ATOM     31  C   UNL A   1      39.744  29.685  30.928  1.00  0.00     0.074 A 
ATOM     32  C   UNL A   1      40.118  27.998  29.163  1.00  0.00     0.049 A 
ATOM     33  N   UNL A   1      40.777  29.479  31.703  1.00  0.00    -0.248 NA
ATOM     34  C   UNL A   1      38.866  30.779  31.375  1.00  0.00     0.031 C 
ATOM     35  C   UNL A   1      39.840  27.221  27.958  1.00  0.00     0.029 A 
ATOM     36  N   UNL A   1      41.314  27.497  29.619  1.00  0.00    -0.354 N 
ATOM     37  C   UNL A   1      40.667  30.407  32.732  1.00  0.00     0.074 A 
ATOM     38  C   UNL A   1      39.494  31.206  32.458  1.00  0.00     0.031 C 
ATOM     39  C   UNL A   1      40.836  26.335  27.772  1.00  0.00     0.029 A 
ATOM     40  C   UNL A   1      41.825  26.486  28.839  1.00  0.00     0.049 A 
ATOM     41  H   UNL A   1      41.763  27.831  30.429  1.00  0.00     0.167 HD
ATOM     42  C   UNL A   1      41.459  30.571  33.818  1.00  0.00     0.037 A 
ATOM     43  C   UNL A   1      42.955  25.765  28.978  1.00  0.00     0.037 A 
ATOM     44  C   UNL A   1      42.631  29.785  34.093  1.00  0.00     0.049 A 
ATOM     45  C   UNL A   1      43.851  25.998  30.170  1.00  0.00     0.074 A 
ATOM     46  C   UNL A   1      43.480  29.856  35.184  1.00  0.00     0.029 A 
ATOM     47  N   UNL A   1      43.130  28.792  33.263  1.00  0.00    -0.354 N 
ATOM     48  N   UNL A   1      43.696  26.832  31.172  1.00  0.00    -0.248 NA
ATOM     49  C   UNL A   1      45.071  25.180  30.255  1.00  0.00     0.031 C 
ATOM     50  C   UNL A   1      44.518  28.938  34.992  1.00  0.00     0.029 A 
ATOM     51  C   UNL A   1      44.289  28.261  33.805  1.00  0.00     0.049 A 
ATOM     52  H   UNL A   1      42.721  28.508  32.415  1.00  0.00     0.167 HD
ATOM     53  C   UNL A   1      44.775  26.608  32.024  1.00  0.00     0.074 A 
ATOM     54  C   UNL A   1      45.573  25.562  31.422  1.00  0.00     0.031 C 
ATOM     55  C   UNL A   1      45.070  27.209  33.205  1.00  0.00     0.037 A 
BRANCH  42  56
ATOM     56  C   UNL A   1      41.083  31.660  34.781  1.00  0.00     0.058 A 
ATOM     57  C   UNL A   1      40.294  31.402  35.914  1.00  0.00     0.135 A 
ATOM     58  C   UNL A   1      41.522  32.977  34.572  1.00  0.00     0.135 A 
ATOM     59  F   UNL A   1      39.833  30.163  36.148  1.00  0.00    -0.206 F 
ATOM     60  C   UNL A   1      39.924  32.418  36.787  1.00  0.00     0.059 A 
ATOM     61  C   UNL A   1      41.185  34.005  35.446  1.00  0.00     0.059 A 
ATOM     62  F   UNL A   1      42.275  33.276  33.502  1.00  0.00    -0.206 F 
ATOM     63  C   UNL A   1      40.370  33.719  36.542  1.00  0.00     0.060 A 
BRANCH  63  64
ATOM     64  S   UNL A   1      39.869  35.032  37.673  1.00  0.00     0.124 S 
ATOM     65  O   UNL A   1      38.531  34.590  38.056  1.00  0.00    -0.237 OA
ATOM     66  O   UNL A   1      40.886  34.953  38.716  1.00  0.00    -0.237 OA
ATOM     67  O   UNL A   1      39.919  36.233  36.843  1.00  0.00    -0.744 OA
ENDBRANCH  63  64
ENDBRANCH  42  56
BRANCH  43  68
ATOM     68  C   UNL A   1      43.303  24.720  27.977  1.00  0.00     0.058 A 
ATOM     69  C   UNL A   1      42.926  23.382  28.165  1.00  0.00     0.135 A 
ATOM     70  C   UNL A   1      44.043  25.034  26.827  1.00  0.00     0.135 A 
ATOM     71  F   UNL A   1      42.229  23.030  29.257  1.00  0.00    -0.206 F 
ATOM     72  C   UNL A   1      43.285  22.388  27.261  1.00  0.00     0.059 A 
ATOM     73  C   UNL A   1      44.396  24.062  25.896  1.00  0.00     0.059 A 
ATOM     74  F   UNL A   1      44.424  26.300  26.598  1.00  0.00    -0.206 F 
ATOM     75  C   UNL A   1      44.021  22.739  26.128  1.00  0.00     0.060 A 
BRANCH  75  76
ATOM     76  S   UNL A   1      44.452  21.448  24.939  1.00  0.00     0.124 S 
ATOM     77  O   UNL A   1      44.359  22.169  23.675  1.00  0.00    -0.237 OA
ATOM     78  O   UNL A   1      45.797  21.076  25.365  1.00  0.00    -0.237 OA
ATOM     79  O   UNL A   1      43.428  20.431  25.164  1.00  0.00    -0.744 OA
ENDBRANCH  75  76
ENDBRANCH  43  68
BRANCH  55  80
ATOM     80  C   UNL A   1      46.281  26.722  33.953  1.00  0.00     0.058 A 
ATOM     81  C   UNL A   1      46.212  25.662  34.870  1.00  0.00     0.135 A 
ATOM     82  C   UNL A   1      47.540  27.296  33.711  1.00  0.00     0.135 A 
ATOM     83  F   UNL A   1      45.033  25.078  35.140  1.00  0.00    -0.206 F 
ATOM     84  C   UNL A   1      47.343  25.206  35.543  1.00  0.00     0.059 A 
ATOM     85  C   UNL A   1      48.688  26.840  34.353  1.00  0.00     0.059 A 
ATOM     86  F   UNL A   1      47.667  28.303  32.833  1.00  0.00    -0.206 F 
ATOM     87  C   UNL A   1      48.577  25.804  35.278  1.00  0.00     0.060 A 
BRANCH  87  88
ATOM     88  S   UNL A   1      50.043  25.191  36.138  1.00  0.00     0.124 S 
ATOM     89  O   UNL A   1      50.970  24.990  35.029  1.00  0.00    -0.237 OA
ATOM     90  O   UNL A   1      50.364  26.294  37.040  1.00  0.00    -0.237 OA
ATOM     91  O   UNL A   1      49.569  23.974  36.791  1.00  0.00    -0.744 OA
ENDBRANCH  87  88
ENDBRANCH  55  80
ENDBRANCH  29  30
ENDBRANCH  22  24
ENDBRANCH  21  22
ENDBRANCH   1  21
TORSDOF 16
ENDMDL
MODEL 2
REMARK VINA RESULT:      -9.8      3.914     11.477
REMARK SMILES O=C(Cc1ccc(-c2cccc(F)c2F)cc1)OCCOC(=O)c1ccc(-c2c3nc(c(-c4c(F)cc(S(=O)(=O)[O-])cc4F)c4ccc([nH]4)c(-c4c(F)cc(S(=O)(=O)[O-])cc4F)c4nc(c(-c5c(F)cc(S(=O)(=O)[O-])cc5F)c5ccc2[nH]5)C=C4)C=C3)cc1
REMARK SMILES IDX 20 1 19 2 18 3 2 4 1 5 3 6 4 7 5 8 17 9 6 10 16 11 7 12 8 13
REMARK SMILES IDX 9 14 14 15 10 16 12 17 15 18 11 19 13 20 21 21 22 22 23 23
REMARK SMILES IDX 24 24 25 25 89 26 26 27 88 28 27 29 28 30 29 31 82 32 30 33
REMARK SMILES IDX 87 34 81 35 83 36 31 37 86 38 80 39 79 40 32 42 66 43 45 44
REMARK SMILES IDX 65 45 46 46 49 47 64 48 84 49 47 50 48 51 63 53 85 54 50 55
REMARK SMILES IDX 33 56 34 57 43 58 35 59 36 60 42 61 44 62 37 63 38 64 39 65
REMARK SMILES IDX 40 66 41 67 67 68 68 69 77 70 69 71 70 72 76 73 78 74 71 75
REMARK SMILES IDX 72 76 73 77 74 78 75 79 51 80 52 81 61 82 53 83 54 84 60 85
REMARK SMILES IDX 62 86 55 87 56 88 57 89 58 90 59 91
REMARK H PARENT 83 41 49 52
REMARK Flexibility Score: inf
ROOT
ATOM      1  C   UNL A   1      43.639  24.017  26.203  1.00  0.00     0.275 C 
ENDROOT
BRANCH   1   2
ATOM      2  C   UNL A   1      43.379  22.863  25.231  1.00  0.00     0.274 C 
BRANCH   2   3
ATOM      3  O   UNL A   1      42.072  22.280  25.382  1.00  0.00    -0.462 OA
BRANCH   3   4
ATOM      4  C   UNL A   1      41.635  21.808  26.582  1.00  0.00     0.310 C 
ATOM      5  O   UNL A   1      42.091  20.763  27.038  1.00  0.00    -0.252 OA
BRANCH   4   6
ATOM      6  C   UNL A   1      40.488  22.541  27.247  1.00  0.00     0.158 C 
BRANCH   6   7
ATOM      7  C   UNL A   1      39.204  22.547  26.467  1.00  0.00    -0.037 A 
ATOM      8  C   UNL A   1      38.807  21.420  25.750  1.00  0.00     0.005 A 
ATOM      9  C   UNL A   1      38.398  23.690  26.435  1.00  0.00     0.005 A 
ATOM     10  C   UNL A   1      37.598  21.425  25.053  1.00  0.00     0.009 A 
ATOM     11  C   UNL A   1      37.175  23.679  25.770  1.00  0.00     0.009 A 
ATOM     12  C   UNL A   1      36.740  22.539  25.081  1.00  0.00    -0.015 A 
BRANCH  12  13
ATOM     13  C   UNL A   1      35.409  22.493  24.452  1.00  0.00     0.020 A 
ATOM     14  C   UNL A   1      35.101  23.369  23.391  1.00  0.00     0.012 A 
ATOM     15  C   UNL A   1      34.422  21.572  24.836  1.00  0.00     0.166 A 
ATOM     16  C   UNL A   1      33.860  23.334  22.751  1.00  0.00     0.004 A 
ATOM     17  C   UNL A   1      33.188  21.535  24.193  1.00  0.00     0.159 A 
ATOM     18  F   UNL A   1      34.653  20.697  25.830  1.00  0.00    -0.203 F 
ATOM     19  C   UNL A   1      32.899  22.412  23.154  1.00  0.00     0.042 A 
ATOM     20  F   UNL A   1      32.265  20.637  24.564  1.00  0.00    -0.204 F 
ENDBRANCH  12  13
ENDBRANCH   6   7
ENDBRANCH   4   6
ENDBRANCH   3   4
ENDBRANCH   2   3
ENDBRANCH   1   2
BRANCH   1  21
ATOM     21  O   UNL A   1      43.411  25.291  25.578  1.00  0.00    -0.458 OA
BRANCH  21  22
ATOM     22  C   UNL A   1      42.155  25.783  25.742  1.00  0.00     0.338 C 
ATOM     23  O   UNL A   1      41.198  25.572  25.016  1.00  0.00    -0.246 OA
BRANCH  22  24
ATOM     24  C   UNL A   1      42.044  26.465  27.055  1.00  0.00     0.060 A 
ATOM     25  C   UNL A   1      41.023  26.043  27.915  1.00  0.00     0.016 A 
ATOM     26  C   UNL A   1      42.921  27.481  27.456  1.00  0.00     0.016 A 
ATOM     27  C   UNL A   1      40.832  26.676  29.143  1.00  0.00     0.010 A 
ATOM     28  C   UNL A   1      42.726  28.118  28.689  1.00  0.00     0.010 A 
ATOM     29  C   UNL A   1      41.652  27.749  29.518  1.00  0.00    -0.014 A 
BRANCH  29  30
ATOM     30  C   UNL A   1      41.237  28.604  30.658  1.00  0.00     0.031 A 
ATOM     31  C   UNL A   1      42.030  28.520  31.937  1.00  0.00     0.074 A 
ATOM     32  C   UNL A   1      40.222  29.482  30.556  1.00  0.00     0.049 A 
ATOM     33  N   UNL A   1      41.929  29.236  33.027  1.00  0.00    -0.248 NA
ATOM     34  C   UNL A   1      43.079  27.488  31.990  1.00  0.00     0.031 C 
ATOM     35  C   UNL A   1      39.380  29.674  29.377  1.00  0.00     0.029 A 
ATOM     36  N   UNL A   1      39.735  30.386  31.469  1.00  0.00    -0.354 N 
ATOM     37  C   UNL A   1      42.906  28.751  33.887  1.00  0.00     0.074 A 
ATOM     38  C   UNL A   1      43.558  27.651  33.213  1.00  0.00     0.031 C 
ATOM     39  C   UNL A   1      38.481  30.641  29.638  1.00  0.00     0.029 A 
ATOM     40  C   UNL A   1      38.680  31.133  31.001  1.00  0.00     0.049 A 
ATOM     41  H   UNL A   1      40.108  30.489  32.374  1.00  0.00     0.167 HD
ATOM     42  C   UNL A   1      43.247  29.191  35.122  1.00  0.00     0.037 A 
ATOM     43  C   UNL A   1      37.965  32.104  31.604  1.00  0.00     0.037 A 
ATOM     44  C   UNL A   1      42.599  30.280  35.802  1.00  0.00     0.049 A 
ATOM     45  C   UNL A   1      38.328  32.545  33.001  1.00  0.00     0.074 A 
ATOM     46  C   UNL A   1      42.894  30.818  37.042  1.00  0.00     0.029 A 
ATOM     47  N   UNL A   1      41.516  30.990  35.306  1.00  0.00    -0.354 N 
ATOM     48  N   UNL A   1      39.301  32.124  33.775  1.00  0.00    -0.248 NA
ATOM     49  C   UNL A   1      37.502  33.604  33.600  1.00  0.00     0.031 C 
ATOM     50  C   UNL A   1      41.960  31.823  37.317  1.00  0.00     0.029 A 
ATOM     51  C   UNL A   1      41.114  31.943  36.226  1.00  0.00     0.049 A 
ATOM     52  H   UNL A   1      41.095  30.837  34.430  1.00  0.00     0.167 HD
ATOM     53  C   UNL A   1      39.228  32.896  34.933  1.00  0.00     0.074 A 
ATOM     54  C   UNL A   1      38.118  33.808  34.757  1.00  0.00     0.031 C 
ATOM     55  C   UNL A   1      40.016  32.858  36.036  1.00  0.00     0.037 A 
BRANCH  42  56
ATOM     56  C   UNL A   1      44.366  28.473  35.820  1.00  0.00     0.058 A 
ATOM     57  C   UNL A   1      45.703  28.875  35.673  1.00  0.00     0.135 A 
ATOM     58  C   UNL A   1      44.097  27.374  36.650  1.00  0.00     0.135 A 
ATOM     59  F   UNL A   1      46.015  29.908  34.875  1.00  0.00    -0.206 F 
ATOM     60  C   UNL A   1      46.740  28.190  36.297  1.00  0.00     0.059 A 
ATOM     61  C   UNL A   1      45.115  26.689  37.304  1.00  0.00     0.059 A 
ATOM     62  F   UNL A   1      42.836  26.948  36.820  1.00  0.00    -0.206 F 
ATOM     63  C   UNL A   1      46.436  27.093  37.108  1.00  0.00     0.060 A 
BRANCH  63  64
ATOM     64  S   UNL A   1      47.791  26.202  37.899  1.00  0.00     0.124 S 
ATOM     65  O   UNL A   1      48.097  27.080  39.025  1.00  0.00    -0.237 OA
ATOM     66  O   UNL A   1      47.170  24.927  38.240  1.00  0.00    -0.237 OA
ATOM     67  O   UNL A   1      48.811  26.140  36.856  1.00  0.00    -0.744 OA
ENDBRANCH  63  64
ENDBRANCH  42  56
BRANCH  43  68
ATOM     68  C   UNL A   1      36.841  32.761  30.883  1.00  0.00     0.058 A 
ATOM     69  C   UNL A   1      37.079  33.738  29.906  1.00  0.00     0.135 A 
ATOM     70  C   UNL A   1      35.505  32.445  31.178  1.00  0.00     0.135 A 
ATOM     71  F   UNL A   1      38.339  34.085  29.600  1.00  0.00    -0.206 F 
ATOM     72  C   UNL A   1      36.037  34.394  29.259  1.00  0.00     0.059 A 
ATOM     73  C   UNL A   1      34.446  33.070  30.529  1.00  0.00     0.059 A 
ATOM     74  F   UNL A   1      35.223  31.513  32.102  1.00  0.00    -0.206 F 
ATOM     75  C   UNL A   1      34.722  34.052  29.578  1.00  0.00     0.060 A 
BRANCH  75  76
ATOM     76  S   UNL A   1      33.374  34.882  28.705  1.00  0.00     0.124 S 
ATOM     77  O   UNL A   1      32.524  35.305  29.812  1.00  0.00    -0.237 OA
ATOM     78  O   UNL A   1      34.077  35.947  27.997  1.00  0.00    -0.237 OA
ATOM     79  O   UNL A   1      32.828  33.828  27.855  1.00  0.00    -0.744 OA
ENDBRANCH  75  76
ENDBRANCH  43  68
BRANCH  55  80
ATOM     80  C   UNL A   1      39.743  33.860  37.125  1.00  0.00     0.058 A 
ATOM     81  C   UNL A   1      38.969  33.543  38.251  1.00  0.00     0.135 A 
ATOM     82  C   UNL A   1      40.308  35.145  37.061  1.00  0.00     0.135 A 
ATOM     83  F   UNL A   1      38.405  32.329  38.363  1.00  0.00    -0.206 F 
ATOM     84  C   UNL A   1      38.739  34.472  39.262  1.00  0.00     0.059 A 
ATOM     85  C   UNL A   1      40.113  36.081  38.072  1.00  0.00     0.059 A 
ATOM     86  F   UNL A   1      41.069  35.498  36.013  1.00  0.00    -0.206 F 
ATOM     87  C   UNL A   1      39.315  35.740  39.162  1.00  0.00     0.060 A 
BRANCH  87  88
ATOM     88  S   UNL A   1      39.030  36.932  40.490  1.00  0.00     0.124 S 
ATOM     89  O   UNL A   1      38.157  36.175  41.381  1.00  0.00    -0.237 OA
ATOM     90  O   UNL A   1      40.381  37.179  40.987  1.00  0.00    -0.237 OA
ATOM     91  O   UNL A   1      38.406  38.060  39.805  1.00  0.00    -0.744 OA
ENDBRANCH  87  88
ENDBRANCH  55  80
ENDBRANCH  29  30
ENDBRANCH  22  24
ENDBRANCH  21  22
ENDBRANCH   1  21
TORSDOF 16
ENDMDL
MODEL 3
REMARK VINA RESULT:      -9.6      3.786     11.493
REMARK SMILES O=C(Cc1ccc(-c2cccc(F)c2F)cc1)OCCOC(=O)c1ccc(-c2c3nc(c(-c4c(F)cc(S(=O)(=O)[O-])cc4F)c4ccc([nH]4)c(-c4c(F)cc(S(=O)(=O)[O-])cc4F)c4nc(c(-c5c(F)cc(S(=O)(=O)[O-])cc5F)c5ccc2[nH]5)C=C4)C=C3)cc1
REMARK SMILES IDX 20 1 19 2 18 3 2 4 1 5 3 6 4 7 5 8 17 9 6 10 16 11 7 12 8 13
REMARK SMILES IDX 9 14 14 15 10 16 12 17 15 18 11 19 13 20 21 21 22 22 23 23
REMARK SMILES IDX 24 24 25 25 89 26 26 27 88 28 27 29 28 30 29 31 82 32 30 33
REMARK SMILES IDX 87 34 81 35 83 36 31 37 86 38 80 39 79 40 32 42 66 43 45 44
REMARK SMILES IDX 65 45 46 46 49 47 64 48 84 49 47 50 48 51 63 53 85 54 50 55
REMARK SMILES IDX 33 56 34 57 43 58 35 59 36 60 42 61 44 62 37 63 38 64 39 65
REMARK SMILES IDX 40 66 41 67 67 68 68 69 77 70 69 71 70 72 76 73 78 74 71 75
REMARK SMILES IDX 72 76 73 77 74 78 75 79 51 80 52 81 61 82 53 83 54 84 60 85
REMARK SMILES IDX 62 86 55 87 56 88 57 89 58 90 59 91
REMARK H PARENT 83 41 49 52
REMARK Flexibility Score: inf
ROOT
ATOM      1  C   UNL A   1      40.627  20.479  26.479  1.00  0.00     0.275 C 
ENDROOT
BRANCH   1   2
ATOM      2  C   UNL A   1      42.065  19.964  26.383  1.00  0.00     0.274 C 
BRANCH   2   3
ATOM      3  O   UNL A   1      42.798  20.533  25.283  1.00  0.00    -0.462 OA
BRANCH   3   4
ATOM      4  C   UNL A   1      43.947  21.237  25.479  1.00  0.00     0.310 C 
ATOM      5  O   UNL A   1      45.032  20.659  25.487  1.00  0.00    -0.252 OA
BRANCH   4   6
ATOM      6  C   UNL A   1      43.819  22.707  25.819  1.00  0.00     0.158 C 
BRANCH   6   7
ATOM      7  C   UNL A   1      43.950  23.032  27.280  1.00  0.00    -0.037 A 
ATOM      8  C   UNL A   1      45.181  23.412  27.813  1.00  0.00     0.005 A 
ATOM      9  C   UNL A   1      42.842  22.940  28.130  1.00  0.00     0.005 A 
ATOM     10  C   UNL A   1      45.286  23.741  29.165  1.00  0.00     0.009 A 
ATOM     11  C   UNL A   1      42.943  23.305  29.470  1.00  0.00     0.009 A 
ATOM     12  C   UNL A   1      44.163  23.732  30.011  1.00  0.00    -0.015 A 
BRANCH  12  13
ATOM     13  C   UNL A   1      44.254  24.203  31.404  1.00  0.00     0.020 A 
ATOM     14  C   UNL A   1      44.287  23.271  32.461  1.00  0.00     0.012 A 
ATOM     15  C   UNL A   1      44.352  25.563  31.738  1.00  0.00     0.166 A 
ATOM     16  C   UNL A   1      44.403  23.680  33.793  1.00  0.00     0.004 A 
ATOM     17  C   UNL A   1      44.472  25.967  33.065  1.00  0.00     0.159 A 
ATOM     18  F   UNL A   1      44.341  26.505  30.780  1.00  0.00    -0.203 F 
ATOM     19  C   UNL A   1      44.495  25.034  34.095  1.00  0.00     0.042 A 
ATOM     20  F   UNL A   1      44.580  27.270  33.361  1.00  0.00    -0.204 F 
ENDBRANCH  12  13
ENDBRANCH   6   7
ENDBRANCH   4   6
ENDBRANCH   3   4
ENDBRANCH   2   3
ENDBRANCH   1   2
BRANCH   1  21
ATOM     21  O   UNL A   1      40.494  21.781  25.883  1.00  0.00    -0.458 OA
BRANCH  21  22
ATOM     22  C   UNL A   1      39.318  22.406  26.151  1.00  0.00     0.338 C 
ATOM     23  O   UNL A   1      38.208  21.901  26.108  1.00  0.00    -0.246 OA
BRANCH  22  24
ATOM     24  C   UNL A   1      39.575  23.757  26.704  1.00  0.00     0.060 A 
ATOM     25  C   UNL A   1      40.123  24.713  25.840  1.00  0.00     0.016 A 
ATOM     26  C   UNL A   1      39.277  24.101  28.028  1.00  0.00     0.016 A 
ATOM     27  C   UNL A   1      40.436  25.988  26.310  1.00  0.00     0.010 A 
ATOM     28  C   UNL A   1      39.594  25.382  28.500  1.00  0.00     0.010 A 
ATOM     29  C   UNL A   1      40.218  26.317  27.655  1.00  0.00    -0.014 A 
BRANCH  29  30
ATOM     30  C   UNL A   1      40.845  27.545  28.204  1.00  0.00     0.031 A 
ATOM     31  C   UNL A   1      42.342  27.686  28.102  1.00  0.00     0.074 A 
ATOM     32  C   UNL A   1      40.112  28.544  28.730  1.00  0.00     0.049 A 
ATOM     33  N   UNL A   1      43.105  28.703  28.411  1.00  0.00    -0.248 NA
ATOM     34  C   UNL A   1      43.075  26.522  27.578  1.00  0.00     0.031 C 
ATOM     35  C   UNL A   1      38.659  28.543  28.881  1.00  0.00     0.029 A 
ATOM     36  N   UNL A   1      40.503  29.763  29.229  1.00  0.00    -0.354 N 
ATOM     37  C   UNL A   1      44.402  28.307  28.109  1.00  0.00     0.074 A 
ATOM     38  C   UNL A   1      44.329  26.942  27.636  1.00  0.00     0.031 C 
ATOM     39  C   UNL A   1      38.279  29.711  29.432  1.00  0.00     0.029 A 
ATOM     40  C   UNL A   1      39.459  30.538  29.677  1.00  0.00     0.049 A 
ATOM     41  H   UNL A   1      41.443  30.055  29.262  1.00  0.00     0.167 HD
ATOM     42  C   UNL A   1      45.551  29.018  28.198  1.00  0.00     0.037 A 
ATOM     43  C   UNL A   1      39.461  31.774  30.216  1.00  0.00     0.037 A 
ATOM     44  C   UNL A   1      45.632  30.372  28.673  1.00  0.00     0.049 A 
ATOM     45  C   UNL A   1      40.760  32.530  30.353  1.00  0.00     0.074 A 
ATOM     46  C   UNL A   1      46.747  31.185  28.771  1.00  0.00     0.029 A 
ATOM     47  N   UNL A   1      44.557  31.110  29.145  1.00  0.00    -0.354 N 
ATOM     48  N   UNL A   1      41.970  32.168  29.997  1.00  0.00    -0.248 NA
ATOM     49  C   UNL A   1      40.689  33.870  30.956  1.00  0.00     0.031 C 
ATOM     50  C   UNL A   1      46.355  32.399  29.345  1.00  0.00     0.029 A 
ATOM     51  C   UNL A   1      44.987  32.359  29.560  1.00  0.00     0.049 A 
ATOM     52  H   UNL A   1      43.627  30.792  29.182  1.00  0.00     0.167 HD
ATOM     53  C   UNL A   1      42.795  33.251  30.294  1.00  0.00     0.074 A 
ATOM     54  C   UNL A   1      41.947  34.280  30.856  1.00  0.00     0.031 C 
ATOM     55  C   UNL A   1      44.132  33.384  30.106  1.00  0.00     0.037 A 
BRANCH  42  56
ATOM     56  C   UNL A   1      46.818  28.325  27.783  1.00  0.00     0.058 A 
ATOM     57  C   UNL A   1      47.563  27.552  28.687  1.00  0.00     0.135 A 
ATOM     58  C   UNL A   1      47.289  28.434  26.466  1.00  0.00     0.135 A 
ATOM     59  F   UNL A   1      47.165  27.433  29.964  1.00  0.00    -0.206 F 
ATOM     60  C   UNL A   1      48.751  26.936  28.308  1.00  0.00     0.059 A 
ATOM     61  C   UNL A   1      48.462  27.806  26.058  1.00  0.00     0.059 A 
ATOM     62  F   UNL A   1      46.616  29.165  25.565  1.00  0.00    -0.206 F 
ATOM     63  C   UNL A   1      49.195  27.074  26.991  1.00  0.00     0.060 A 
BRANCH  63  64
ATOM     64  S   UNL A   1      50.747  26.284  26.516  1.00  0.00     0.124 S 
ATOM     65  O   UNL A   1      50.605  24.969  27.135  1.00  0.00    -0.237 OA
ATOM     66  O   UNL A   1      50.679  26.310  25.059  1.00  0.00    -0.237 OA
ATOM     67  O   UNL A   1      51.763  27.150  27.108  1.00  0.00    -0.744 OA
ENDBRANCH  63  64
ENDBRANCH  42  56
BRANCH  43  68
ATOM     68  C   UNL A   1      38.183  32.404  30.645  1.00  0.00     0.058 A 
ATOM     69  C   UNL A   1      37.432  33.193  29.762  1.00  0.00     0.135 A 
ATOM     70  C   UNL A   1      37.702  32.252  31.955  1.00  0.00     0.135 A 
ATOM     71  F   UNL A   1      37.858  33.380  28.503  1.00  0.00    -0.206 F 
ATOM     72  C   UNL A   1      36.259  33.826  30.164  1.00  0.00     0.059 A 
ATOM     73  C   UNL A   1      36.522  32.857  32.375  1.00  0.00     0.059 A 
ATOM     74  F   UNL A   1      38.381  31.504  32.838  1.00  0.00    -0.206 F 
ATOM     75  C   UNL A   1      35.812  33.651  31.475  1.00  0.00     0.060 A 
BRANCH  75  76
ATOM     76  S   UNL A   1      34.269  34.446  31.978  1.00  0.00     0.124 S 
ATOM     77  O   UNL A   1      34.759  35.674  32.593  1.00  0.00    -0.237 OA
ATOM     78  O   UNL A   1      33.576  34.603  30.703  1.00  0.00    -0.237 OA
ATOM     79  O   UNL A   1      33.675  33.474  32.891  1.00  0.00    -0.744 OA
ENDBRANCH  75  76
ENDBRANCH  43  68
BRANCH  55  80
ATOM     80  C   UNL A   1      44.761  34.702  30.466  1.00  0.00     0.058 A 
ATOM     81  C   UNL A   1      45.327  34.936  31.728  1.00  0.00     0.135 A 
ATOM     82  C   UNL A   1      44.840  35.732  29.513  1.00  0.00     0.135 A 
ATOM     83  F   UNL A   1      45.278  33.987  32.677  1.00  0.00    -0.206 F 
ATOM     84  C   UNL A   1      45.924  36.154  32.044  1.00  0.00     0.059 A 
ATOM     85  C   UNL A   1      45.456  36.947  29.798  1.00  0.00     0.059 A 
ATOM     86  F   UNL A   1      44.329  35.558  28.284  1.00  0.00    -0.206 F 
ATOM     87  C   UNL A   1      45.982  37.154  31.072  1.00  0.00     0.060 A 
BRANCH  87  88
ATOM     88  S   UNL A   1      46.779  38.723  31.483  1.00  0.00     0.124 S 
ATOM     89  O   UNL A   1      48.175  38.317  31.611  1.00  0.00    -0.237 OA
ATOM     90  O   UNL A   1      46.465  39.550  30.321  1.00  0.00    -0.237 OA
ATOM     91  O   UNL A   1      46.123  39.121  32.724  1.00  0.00    -0.744 OA
ENDBRANCH  87  88
ENDBRANCH  55  80
ENDBRANCH  29  30
ENDBRANCH  22  24
ENDBRANCH  21  22
ENDBRANCH   1  21
TORSDOF 16
ENDMDL
