MODEL 1
REMARK VINA RESULT:     -10.9      0.000      0.000
REMARK SMILES CCOC(=O)c1c(NC(=O)/C=C/C(=O)OCCOC(=O)c2ccc(-c3c4nc(c(-c5c(F)cc(S(=O)(=O)[O-])cc5F)c5ccc([nH]5)c(-c5c(F)cc(S(=O)(=O)[O-])cc5F)c5nc(c(-c6c(F)cc(S(=O)(=O)[O-])cc6F)c6ccc3[nH]6)C=C5)C=C4)cc2)sc(C)c1-c1ccc(C)c(C)c1
REMARK SMILES IDX 16 1 15 2 13 3 14 4 12 5 11 6 9 7 8 8 10 10 7 11 6 12 90 13
REMARK SMILES IDX 87 14 88 15 89 16 4 17 5 18 3 19 2 20 1 21 91 22 92 23 98 24
REMARK SMILES IDX 93 25 96 26 94 27 97 28 95 29 17 30 18 31 19 32 20 33 21 34
REMARK SMILES IDX 22 35 86 36 23 37 85 38 24 39 25 40 26 41 79 42 27 43 84 44
REMARK SMILES IDX 78 45 80 46 28 47 83 48 77 49 76 50 29 52 63 53 42 54 62 55
REMARK SMILES IDX 43 56 46 57 61 58 81 59 44 60 45 61 60 63 82 64 47 65 30 66
REMARK SMILES IDX 31 67 40 68 32 69 33 70 39 71 41 72 34 73 35 74 36 75 37 76
REMARK SMILES IDX 38 77 64 78 65 79 74 80 66 81 67 82 73 83 75 84 68 85 69 86
REMARK SMILES IDX 70 87 71 88 72 89 48 90 49 91 58 92 50 93 51 94 57 95 59 96
REMARK SMILES IDX 52 97 53 98 54 99 55 100 56 101
REMARK H PARENT 8 9 80 51 46 62
REMARK Flexibility Score: inf
ROOT
ATOM      1  C   UNL A   1      32.638  27.832  26.322  1.00  0.00     0.275 C 
ENDROOT
BRANCH   1   2
ATOM      2  O   UNL A   1      31.626  28.786  26.708  1.00  0.00    -0.459 OA
BRANCH   2   3
ATOM      3  C   UNL A   1      31.596  29.918  25.964  1.00  0.00     0.331 C 
ATOM      4  O   UNL A   1      31.654  31.060  26.396  1.00  0.00    -0.247 OA
BRANCH   3   5
ATOM      5  C   UNL A   1      31.442  29.675  24.516  1.00  0.00     0.099 C 
ATOM      6  C   UNL A   1      30.266  29.566  23.881  1.00  0.00     0.079 C 
BRANCH   6   7
ATOM      7  C   UNL A   1      30.234  29.013  22.502  1.00  0.00     0.249 C 
ATOM      8  N   UNL A   1      30.400  27.672  22.247  1.00  0.00    -0.313 N 
ATOM      9  H   UNL A   1      30.162  27.411  21.328  1.00  0.00     0.171 HD
ATOM     10  O   UNL A   1      29.951  29.780  21.580  1.00  0.00    -0.270 OA
BRANCH   8  11
ATOM     11  C   UNL A   1      30.838  26.609  23.033  1.00  0.00     0.111 A 
ATOM     12  C   UNL A   1      32.081  25.984  23.040  1.00  0.00     0.102 A 
ATOM     13  C   UNL A   1      32.137  24.933  24.047  1.00  0.00     0.012 A 
ATOM     14  S   UNL A   1      29.841  25.971  24.231  1.00  0.00    -0.122 S 
ATOM     15  C   UNL A   1      31.027  24.965  24.868  1.00  0.00     0.012 A 
ATOM     16  C   UNL A   1      30.706  24.275  26.146  1.00  0.00     0.057 C 
BRANCH  12  17
ATOM     17  C   UNL A   1      33.184  26.375  22.174  1.00  0.00     0.341 C 
ATOM     18  O   UNL A   1      33.612  27.527  22.139  1.00  0.00    -0.246 OA
BRANCH  17  19
ATOM     19  O   UNL A   1      33.657  25.344  21.428  1.00  0.00    -0.462 OA
BRANCH  19  20
ATOM     20  C   UNL A   1      32.752  24.710  20.513  1.00  0.00     0.230 C 
ATOM     21  C   UNL A   1      32.516  25.524  19.253  1.00  0.00     0.049 C 
ENDBRANCH  19  20
ENDBRANCH  17  19
ENDBRANCH  12  17
BRANCH  13  22
ATOM     22  C   UNL A   1      33.218  23.994  24.307  1.00  0.00    -0.016 A 
ATOM     23  C   UNL A   1      33.197  22.705  23.774  1.00  0.00     0.009 A 
ATOM     24  C   UNL A   1      34.324  24.416  25.054  1.00  0.00     0.012 A 
ATOM     25  C   UNL A   1      34.293  21.862  23.959  1.00  0.00     0.004 A 
ATOM     26  C   UNL A   1      35.429  23.574  25.249  1.00  0.00    -0.048 A 
ATOM     27  C   UNL A   1      35.424  22.289  24.674  1.00  0.00    -0.048 A 
ATOM     28  C   UNL A   1      36.590  24.069  26.062  1.00  0.00     0.044 C 
ATOM     29  C   UNL A   1      36.576  21.334  24.845  1.00  0.00     0.044 C 
ENDBRANCH  13  22
ENDBRANCH   8  11
ENDBRANCH   6   7
ENDBRANCH   3   5
ENDBRANCH   2   3
ENDBRANCH   1   2
BRANCH   1  30
ATOM     30  C   UNL A   1      34.050  28.391  26.498  1.00  0.00     0.275 C 
BRANCH  30  31
ATOM     31  O   UNL A   1      34.283  28.810  27.857  1.00  0.00    -0.458 OA
BRANCH  31  32
ATOM     32  C   UNL A   1      34.938  29.988  27.995  1.00  0.00     0.338 C 
ATOM     33  O   UNL A   1      34.456  31.106  27.902  1.00  0.00    -0.246 OA
BRANCH  32  34
ATOM     34  C   UNL A   1      36.329  29.754  28.436  1.00  0.00     0.060 A 
ATOM     35  C   UNL A   1      37.320  29.899  27.468  1.00  0.00     0.016 A 
ATOM     36  C   UNL A   1      36.675  29.346  29.731  1.00  0.00     0.016 A 
ATOM     37  C   UNL A   1      38.657  29.682  27.796  1.00  0.00     0.010 A 
ATOM     38  C   UNL A   1      38.026  29.106  30.053  1.00  0.00     0.010 A 
ATOM     39  C   UNL A   1      39.030  29.286  29.088  1.00  0.00    -0.014 A 
BRANCH  39  40
ATOM     40  C   UNL A   1      40.472  29.008  29.340  1.00  0.00     0.031 A 
ATOM     41  C   UNL A   1      41.030  27.650  29.022  1.00  0.00     0.074 A 
ATOM     42  C   UNL A   1      41.319  30.004  29.671  1.00  0.00     0.049 A 
ATOM     43  N   UNL A   1      42.259  27.215  29.132  1.00  0.00    -0.248 NA
ATOM     44  C   UNL A   1      40.082  26.657  28.494  1.00  0.00     0.031 C 
ATOM     45  C   UNL A   1      40.924  31.385  29.928  1.00  0.00     0.029 A 
ATOM     46  N   UNL A   1      42.689  30.024  29.800  1.00  0.00    -0.354 N 
ATOM     47  C   UNL A   1      42.247  25.918  28.638  1.00  0.00     0.074 A 
ATOM     48  C   UNL A   1      40.872  25.611  28.294  1.00  0.00     0.031 C 
ATOM     49  C   UNL A   1      42.024  32.131  30.120  1.00  0.00     0.029 A 
ATOM     50  C   UNL A   1      43.205  31.269  30.081  1.00  0.00     0.049 A 
ATOM     51  H   UNL A   1      43.249  29.221  29.699  1.00  0.00     0.167 HD
ATOM     52  C   UNL A   1      43.293  25.082  28.430  1.00  0.00     0.037 A 
ATOM     53  C   UNL A   1      44.473  31.670  30.315  1.00  0.00     0.037 A 
ATOM     54  C   UNL A   1      44.669  25.391  28.722  1.00  0.00     0.049 A 
ATOM     55  C   UNL A   1      45.586  30.650  30.289  1.00  0.00     0.074 A 
ATOM     56  C   UNL A   1      45.780  24.578  28.569  1.00  0.00     0.029 A 
ATOM     57  N   UNL A   1      45.130  26.604  29.210  1.00  0.00    -0.354 N 
ATOM     58  N   UNL A   1      45.546  29.391  29.921  1.00  0.00    -0.248 NA
ATOM     59  C   UNL A   1      46.915  31.095  30.740  1.00  0.00     0.031 C 
ATOM     60  C   UNL A   1      46.908  25.291  28.987  1.00  0.00     0.029 A 
ATOM     61  C   UNL A   1      46.506  26.562  29.362  1.00  0.00     0.049 A 
ATOM     62  H   UNL A   1      44.562  27.381  29.418  1.00  0.00     0.167 HD
ATOM     63  C   UNL A   1      46.841  28.905  30.078  1.00  0.00     0.074 A 
ATOM     64  C   UNL A   1      47.648  30.005  30.558  1.00  0.00     0.031 C 
ATOM     65  C   UNL A   1      47.314  27.656  29.845  1.00  0.00     0.037 A 
BRANCH  52  66
ATOM     66  C   UNL A   1      42.982  23.737  27.846  1.00  0.00     0.058 A 
ATOM     67  C   UNL A   1      42.639  22.646  28.659  1.00  0.00     0.135 A 
ATOM     68  C   UNL A   1      43.001  23.546  26.457  1.00  0.00     0.135 A 
ATOM     69  F   UNL A   1      42.621  22.777  29.996  1.00  0.00    -0.206 F 
ATOM     70  C   UNL A   1      42.355  21.400  28.113  1.00  0.00     0.059 A 
ATOM     71  C   UNL A   1      42.700  22.314  25.888  1.00  0.00     0.059 A 
ATOM     72  F   UNL A   1      43.319  24.564  25.640  1.00  0.00    -0.206 F 
ATOM     73  C   UNL A   1      42.393  21.242  26.726  1.00  0.00     0.060 A 
BRANCH  73  74
ATOM     74  S   UNL A   1      42.048  19.612  26.034  1.00  0.00     0.124 S 
ATOM     75  O   UNL A   1      42.390  18.743  27.156  1.00  0.00    -0.237 OA
ATOM     76  O   UNL A   1      40.628  19.706  25.713  1.00  0.00    -0.237 OA
ATOM     77  O   UNL A   1      42.946  19.533  24.885  1.00  0.00    -0.744 OA
ENDBRANCH  73  74
ENDBRANCH  52  66
BRANCH  53  78
ATOM     78  C   UNL A   1      44.774  33.084  30.691  1.00  0.00     0.058 A 
ATOM     79  C   UNL A   1      44.703  33.527  32.022  1.00  0.00     0.135 A 
ATOM     80  C   UNL A   1      45.064  34.043  29.706  1.00  0.00     0.135 A 
ATOM     81  F   UNL A   1      44.406  32.661  33.003  1.00  0.00    -0.206 F 
ATOM     82  C   UNL A   1      44.880  34.868  32.357  1.00  0.00     0.059 A 
ATOM     83  C   UNL A   1      45.282  35.380  30.020  1.00  0.00     0.059 A 
ATOM     84  F   UNL A   1      45.139  33.682  28.415  1.00  0.00    -0.206 F 
ATOM     85  C   UNL A   1      45.167  35.787  31.347  1.00  0.00     0.060 A 
BRANCH  85  86
ATOM     86  S   UNL A   1      45.404  37.525  31.783  1.00  0.00     0.124 S 
ATOM     87  O   UNL A   1      44.364  38.170  30.989  1.00  0.00    -0.237 OA
ATOM     88  O   UNL A   1      45.192  37.512  33.226  1.00  0.00    -0.237 OA
ATOM     89  O   UNL A   1      46.776  37.792  31.360  1.00  0.00    -0.744 OA
ENDBRANCH  85  86
ENDBRANCH  53  78
BRANCH  65  90
ATOM     90  C   UNL A   1      48.781  27.404  30.082  1.00  0.00     0.058 A 
ATOM     91  C   UNL A   1      49.265  26.996  31.334  1.00  0.00     0.135 A 
ATOM     92  C   UNL A   1      49.706  27.515  29.030  1.00  0.00     0.135 A 
ATOM     93  F   UNL A   1      48.428  26.885  32.378  1.00  0.00    -0.206 F 
ATOM     94  C   UNL A   1      50.613  26.717  31.539  1.00  0.00     0.059 A 
ATOM     95  C   UNL A   1      51.054  27.213  29.205  1.00  0.00     0.059 A 
ATOM     96  F   UNL A   1      49.298  27.898  27.810  1.00  0.00    -0.206 F 
ATOM     97  C   UNL A   1      51.500  26.822  30.466  1.00  0.00     0.060 A 
BRANCH  97  98
ATOM     98  S   UNL A   1      53.237  26.405  30.734  1.00  0.00     0.124 S 
ATOM     99  O   UNL A   1      53.130  25.176  31.512  1.00  0.00    -0.237 OA
ATOM    100  O   UNL A   1      53.735  26.252  29.370  1.00  0.00    -0.237 OA
ATOM    101  O   UNL A   1      53.756  27.563  31.458  1.00  0.00    -0.744 OA
ENDBRANCH  97  98
ENDBRANCH  65  90
ENDBRANCH  39  40
ENDBRANCH  32  34
ENDBRANCH  31  32
ENDBRANCH  30  31
ENDBRANCH   1  30
TORSDOF 20
ENDMDL
MODEL 2
REMARK VINA RESULT:     -10.9      0.972      7.950
REMARK SMILES CCOC(=O)c1c(NC(=O)/C=C/C(=O)OCCOC(=O)c2ccc(-c3c4nc(c(-c5c(F)cc(S(=O)(=O)[O-])cc5F)c5ccc([nH]5)c(-c5c(F)cc(S(=O)(=O)[O-])cc5F)c5nc(c(-c6c(F)cc(S(=O)(=O)[O-])cc6F)c6ccc3[nH]6)C=C5)C=C4)cc2)sc(C)c1-c1ccc(C)c(C)c1
REMARK SMILES IDX 16 1 15 2 13 3 14 4 12 5 11 6 9 7 8 8 10 10 7 11 6 12 90 13
REMARK SMILES IDX 87 14 88 15 89 16 4 17 5 18 3 19 2 20 1 21 91 22 92 23 98 24
REMARK SMILES IDX 93 25 96 26 94 27 97 28 95 29 17 30 18 31 19 32 20 33 21 34
REMARK SMILES IDX 22 35 86 36 23 37 85 38 24 39 25 40 26 41 79 42 27 43 84 44
REMARK SMILES IDX 78 45 80 46 28 47 83 48 77 49 76 50 29 52 63 53 42 54 62 55
REMARK SMILES IDX 43 56 46 57 61 58 81 59 44 60 45 61 60 63 82 64 47 65 30 66
REMARK SMILES IDX 31 67 40 68 32 69 33 70 39 71 41 72 34 73 35 74 36 75 37 76
REMARK SMILES IDX 38 77 64 78 65 79 74 80 66 81 67 82 73 83 75 84 68 85 69 86
REMARK SMILES IDX 70 87 71 88 72 89 48 90 49 91 58 92 50 93 51 94 57 95 59 96
REMARK SMILES IDX 52 97 53 98 54 99 55 100 56 101
REMARK H PARENT 8 9 80 51 46 62
REMARK Flexibility Score: inf
ROOT
ATOM      1  C   UNL A   1      32.498  28.285  26.036  1.00  0.00     0.275 C 
ENDROOT
BRANCH   1   2
ATOM      2  O   UNL A   1      31.619  29.293  26.580  1.00  0.00    -0.459 OA
BRANCH   2   3
ATOM      3  C   UNL A   1      31.434  30.376  25.786  1.00  0.00     0.331 C 
ATOM      4  O   UNL A   1      31.383  31.538  26.162  1.00  0.00    -0.247 OA
BRANCH   3   5
ATOM      5  C   UNL A   1      31.249  30.044  24.360  1.00  0.00     0.099 C 
ATOM      6  C   UNL A   1      30.082  29.686  23.804  1.00  0.00     0.079 C 
BRANCH   6   7
ATOM      7  C   UNL A   1      30.079  29.076  22.450  1.00  0.00     0.249 C 
ATOM      8  N   UNL A   1      30.320  27.737  22.249  1.00  0.00    -0.313 N 
ATOM      9  H   UNL A   1      30.096  27.425  21.342  1.00  0.00     0.171 HD
ATOM     10  O   UNL A   1      29.751  29.787  21.498  1.00  0.00    -0.270 OA
BRANCH   8  11
ATOM     11  C   UNL A   1      30.818  26.734  23.077  1.00  0.00     0.111 A 
ATOM     12  C   UNL A   1      32.115  26.235  23.159  1.00  0.00     0.102 A 
ATOM     13  C   UNL A   1      32.221  25.209  24.187  1.00  0.00     0.012 A 
ATOM     14  S   UNL A   1      29.828  26.016  24.234  1.00  0.00    -0.122 S 
ATOM     15  C   UNL A   1      31.072  25.142  24.949  1.00  0.00     0.012 A 
ATOM     16  C   UNL A   1      30.753  24.442  26.223  1.00  0.00     0.057 C 
BRANCH  12  17
ATOM     17  C   UNL A   1      33.218  26.722  22.343  1.00  0.00     0.341 C 
ATOM     18  O   UNL A   1      33.612  27.884  22.402  1.00  0.00    -0.246 OA
BRANCH  17  19
ATOM     19  O   UNL A   1      33.731  25.764  21.528  1.00  0.00    -0.462 OA
BRANCH  19  20
ATOM     20  C   UNL A   1      32.810  24.960  20.778  1.00  0.00     0.230 C 
ATOM     21  C   UNL A   1      32.494  25.539  19.411  1.00  0.00     0.049 C 
ENDBRANCH  19  20
ENDBRANCH  17  19
ENDBRANCH  12  17
BRANCH  13  22
ATOM     22  C   UNL A   1      33.374  24.386  24.519  1.00  0.00    -0.016 A 
ATOM     23  C   UNL A   1      34.532  24.949  25.054  1.00  0.00     0.009 A 
ATOM     24  C   UNL A   1      33.292  22.998  24.354  1.00  0.00     0.012 A 
ATOM     25  C   UNL A   1      35.583  24.122  25.453  1.00  0.00     0.004 A 
ATOM     26  C   UNL A   1      34.345  22.159  24.748  1.00  0.00    -0.048 A 
ATOM     27  C   UNL A   1      35.496  22.726  25.327  1.00  0.00    -0.048 A 
ATOM     28  C   UNL A   1      34.213  20.677  24.546  1.00  0.00     0.044 C 
ATOM     29  C   UNL A   1      36.663  21.884  25.772  1.00  0.00     0.044 C 
ENDBRANCH  13  22
ENDBRANCH   8  11
ENDBRANCH   6   7
ENDBRANCH   3   5
ENDBRANCH   2   3
ENDBRANCH   1   2
BRANCH   1  30
ATOM     30  C   UNL A   1      33.890  28.337  26.667  1.00  0.00     0.275 C 
BRANCH  30  31
ATOM     31  O   UNL A   1      33.876  29.066  27.911  1.00  0.00    -0.458 OA
BRANCH  31  32
ATOM     32  C   UNL A   1      34.607  30.206  27.921  1.00  0.00     0.338 C 
ATOM     33  O   UNL A   1      34.186  31.344  27.788  1.00  0.00    -0.246 OA
BRANCH  32  34
ATOM     34  C   UNL A   1      36.012  29.912  28.273  1.00  0.00     0.060 A 
ATOM     35  C   UNL A   1      36.954  30.084  27.262  1.00  0.00     0.016 A 
ATOM     36  C   UNL A   1      36.413  29.425  29.523  1.00  0.00     0.016 A 
ATOM     37  C   UNL A   1      38.300  29.815  27.505  1.00  0.00     0.010 A 
ATOM     38  C   UNL A   1      37.772  29.132  29.759  1.00  0.00     0.010 A 
ATOM     39  C   UNL A   1      38.728  29.338  28.752  1.00  0.00    -0.014 A 
BRANCH  39  40
ATOM     40  C   UNL A   1      40.173  29.010  28.911  1.00  0.00     0.031 A 
ATOM     41  C   UNL A   1      41.067  29.951  29.669  1.00  0.00     0.074 A 
ATOM     42  C   UNL A   1      40.649  27.801  28.551  1.00  0.00     0.049 A 
ATOM     43  N   UNL A   1      42.338  29.835  29.951  1.00  0.00    -0.248 NA
ATOM     44  C   UNL A   1      40.440  31.175  30.191  1.00  0.00     0.031 C 
ATOM     45  C   UNL A   1      39.872  26.762  27.883  1.00  0.00     0.029 A 
ATOM     46  N   UNL A   1      41.883  27.219  28.738  1.00  0.00    -0.354 N 
ATOM     47  C   UNL A   1      42.655  30.940  30.730  1.00  0.00     0.074 A 
ATOM     48  C   UNL A   1      41.458  31.752  30.814  1.00  0.00     0.031 C 
ATOM     49  C   UNL A   1      40.620  25.652  27.772  1.00  0.00     0.029 A 
ATOM     50  C   UNL A   1      41.961  25.920  28.287  1.00  0.00     0.049 A 
ATOM     51  H   UNL A   1      42.640  27.690  29.156  1.00  0.00     0.167 HD
ATOM     52  C   UNL A   1      43.818  31.220  31.367  1.00  0.00     0.037 A 
ATOM     53  C   UNL A   1      42.997  25.055  28.259  1.00  0.00     0.037 A 
ATOM     54  C   UNL A   1      45.000  30.398  31.331  1.00  0.00     0.049 A 
ATOM     55  C   UNL A   1      44.342  25.495  28.786  1.00  0.00     0.074 A 
ATOM     56  C   UNL A   1      46.227  30.637  31.927  1.00  0.00     0.029 A 
ATOM     57  N   UNL A   1      45.105  29.178  30.682  1.00  0.00    -0.354 N 
ATOM     58  N   UNL A   1      44.659  26.593  29.430  1.00  0.00    -0.248 NA
ATOM     59  C   UNL A   1      45.481  24.591  28.556  1.00  0.00     0.031 C 
ATOM     60  C   UNL A   1      47.082  29.574  31.617  1.00  0.00     0.029 A 
ATOM     61  C   UNL A   1      46.375  28.652  30.863  1.00  0.00     0.049 A 
ATOM     62  H   UNL A   1      44.384  28.748  30.168  1.00  0.00     0.167 HD
ATOM     63  C   UNL A   1      46.022  26.502  29.695  1.00  0.00     0.074 A 
ATOM     64  C   UNL A   1      46.471  25.236  29.160  1.00  0.00     0.031 C 
ATOM     65  C   UNL A   1      46.828  27.392  30.326  1.00  0.00     0.037 A 
BRANCH  52  66
ATOM     66  C   UNL A   1      43.863  32.483  32.174  1.00  0.00     0.058 A 
ATOM     67  C   UNL A   1      43.552  32.489  33.543  1.00  0.00     0.135 A 
ATOM     68  C   UNL A   1      44.249  33.691  31.578  1.00  0.00     0.135 A 
ATOM     69  F   UNL A   1      43.164  31.357  34.154  1.00  0.00    -0.206 F 
ATOM     70  C   UNL A   1      43.592  33.661  34.287  1.00  0.00     0.059 A 
ATOM     71  C   UNL A   1      44.318  34.873  32.309  1.00  0.00     0.059 A 
ATOM     72  F   UNL A   1      44.561  33.731  30.273  1.00  0.00    -0.206 F 
ATOM     73  C   UNL A   1      43.971  34.850  33.660  1.00  0.00     0.060 A 
BRANCH  73  74
ATOM     74  S   UNL A   1      43.994  36.369  34.633  1.00  0.00     0.124 S 
ATOM     75  O   UNL A   1      44.432  37.344  33.639  1.00  0.00    -0.237 OA
ATOM     76  O   UNL A   1      42.604  36.482  35.064  1.00  0.00    -0.237 OA
ATOM     77  O   UNL A   1      44.956  36.080  35.692  1.00  0.00    -0.744 OA
ENDBRANCH  73  74
ENDBRANCH  52  66
BRANCH  53  78
ATOM     78  C   UNL A   1      42.854  23.707  27.630  1.00  0.00     0.058 A 
ATOM     79  C   UNL A   1      42.507  22.573  28.383  1.00  0.00     0.135 A 
ATOM     80  C   UNL A   1      43.141  23.515  26.269  1.00  0.00     0.135 A 
ATOM     81  F   UNL A   1      42.245  22.691  29.694  1.00  0.00    -0.206 F 
ATOM     82  C   UNL A   1      42.477  21.300  27.816  1.00  0.00     0.059 A 
ATOM     83  C   UNL A   1      43.081  22.260  25.672  1.00  0.00     0.059 A 
ATOM     84  F   UNL A   1      43.485  24.559  25.499  1.00  0.00    -0.206 F 
ATOM     85  C   UNL A   1      42.768  21.155  26.459  1.00  0.00     0.060 A 
BRANCH  85  86
ATOM     86  S   UNL A   1      42.722  19.505  25.723  1.00  0.00     0.124 S 
ATOM     87  O   UNL A   1      43.640  19.660  24.601  1.00  0.00    -0.237 OA
ATOM     88  O   UNL A   1      43.190  18.665  26.821  1.00  0.00    -0.237 OA
ATOM     89  O   UNL A   1      41.316  19.336  25.369  1.00  0.00    -0.744 OA
ENDBRANCH  85  86
ENDBRANCH  53  78
BRANCH  65  90
ATOM     90  C   UNL A   1      48.279  27.027  30.499  1.00  0.00     0.058 A 
ATOM     91  C   UNL A   1      49.263  27.475  29.604  1.00  0.00     0.135 A 
ATOM     92  C   UNL A   1      48.701  26.270  31.605  1.00  0.00     0.135 A 
ATOM     93  F   UNL A   1      48.915  28.191  28.523  1.00  0.00    -0.206 F 
ATOM     94  C   UNL A   1      50.609  27.178  29.792  1.00  0.00     0.059 A 
ATOM     95  C   UNL A   1      50.046  25.985  31.829  1.00  0.00     0.059 A 
ATOM     96  F   UNL A   1      47.804  25.818  32.496  1.00  0.00    -0.206 F 
ATOM     97  C   UNL A   1      50.992  26.438  30.911  1.00  0.00     0.060 A 
BRANCH  97  98
ATOM     98  S   UNL A   1      52.749  26.105  31.170  1.00  0.00     0.124 S 
ATOM     99  O   UNL A   1      53.162  27.276  31.935  1.00  0.00    -0.237 OA
ATOM    100  O   UNL A   1      52.723  24.844  31.904  1.00  0.00    -0.237 OA
ATOM    101  O   UNL A   1      53.283  26.023  29.813  1.00  0.00    -0.744 OA
ENDBRANCH  97  98
ENDBRANCH  65  90
ENDBRANCH  39  40
ENDBRANCH  32  34
ENDBRANCH  31  32
ENDBRANCH  30  31
ENDBRANCH   1  30
TORSDOF 20
ENDMDL
MODEL 3
REMARK VINA RESULT:     -10.5      5.377     10.581
REMARK SMILES CCOC(=O)c1c(NC(=O)/C=C/C(=O)OCCOC(=O)c2ccc(-c3c4nc(c(-c5c(F)cc(S(=O)(=O)[O-])cc5F)c5ccc([nH]5)c(-c5c(F)cc(S(=O)(=O)[O-])cc5F)c5nc(c(-c6c(F)cc(S(=O)(=O)[O-])cc6F)c6ccc3[nH]6)C=C5)C=C4)cc2)sc(C)c1-c1ccc(C)c(C)c1
REMARK SMILES IDX 16 1 15 2 13 3 14 4 12 5 11 6 9 7 8 8 10 10 7 11 6 12 90 13
REMARK SMILES IDX 87 14 88 15 89 16 4 17 5 18 3 19 2 20 1 21 91 22 92 23 98 24
REMARK SMILES IDX 93 25 96 26 94 27 97 28 95 29 17 30 18 31 19 32 20 33 21 34
REMARK SMILES IDX 22 35 86 36 23 37 85 38 24 39 25 40 26 41 79 42 27 43 84 44
REMARK SMILES IDX 78 45 80 46 28 47 83 48 77 49 76 50 29 52 63 53 42 54 62 55
REMARK SMILES IDX 43 56 46 57 61 58 81 59 44 60 45 61 60 63 82 64 47 65 30 66
REMARK SMILES IDX 31 67 40 68 32 69 33 70 39 71 41 72 34 73 35 74 36 75 37 76
REMARK SMILES IDX 38 77 64 78 65 79 74 80 66 81 67 82 73 83 75 84 68 85 69 86
REMARK SMILES IDX 70 87 71 88 72 89 48 90 49 91 58 92 50 93 51 94 57 95 59 96
REMARK SMILES IDX 52 97 53 98 54 99 55 100 56 101
REMARK H PARENT 8 9 80 51 46 62
REMARK Flexibility Score: inf
ROOT
ATOM      1  C   UNL A   1      42.369  22.436  26.995  1.00  0.00     0.275 C 
ENDROOT
BRANCH   1   2
ATOM      2  O   UNL A   1      41.323  21.570  26.505  1.00  0.00    -0.459 OA
BRANCH   2   3
ATOM      3  C   UNL A   1      40.082  22.114  26.514  1.00  0.00     0.331 C 
ATOM      4  O   UNL A   1      39.738  23.104  27.144  1.00  0.00    -0.247 OA
BRANCH   3   5
ATOM      5  C   UNL A   1      39.101  21.372  25.697  1.00  0.00     0.099 C 
ATOM      6  C   UNL A   1      37.788  21.643  25.648  1.00  0.00     0.079 C 
BRANCH   6   7
ATOM      7  C   UNL A   1      36.863  20.646  25.050  1.00  0.00     0.249 C 
ATOM      8  N   UNL A   1      35.528  20.912  24.852  1.00  0.00    -0.313 N 
ATOM      9  H   UNL A   1      35.075  20.255  24.275  1.00  0.00     0.171 HD
ATOM     10  O   UNL A   1      37.343  19.590  24.635  1.00  0.00    -0.270 OA
BRANCH   8  11
ATOM     11  C   UNL A   1      34.691  21.928  25.305  1.00  0.00     0.111 A 
ATOM     12  C   UNL A   1      34.405  23.153  24.709  1.00  0.00     0.102 A 
ATOM     13  C   UNL A   1      33.446  23.912  25.499  1.00  0.00     0.012 A 
ATOM     14  S   UNL A   1      33.787  21.721  26.710  1.00  0.00    -0.122 S 
ATOM     15  C   UNL A   1      32.914  23.145  26.517  1.00  0.00     0.012 A 
ATOM     16  C   UNL A   1      31.771  23.362  27.443  1.00  0.00     0.057 C 
BRANCH  12  17
ATOM     17  C   UNL A   1      34.970  23.581  23.438  1.00  0.00     0.341 C 
ATOM     18  O   UNL A   1      36.172  23.497  23.194  1.00  0.00    -0.246 OA
BRANCH  17  19
ATOM     19  O   UNL A   1      34.035  24.078  22.588  1.00  0.00    -0.462 OA
BRANCH  19  20
ATOM     20  C   UNL A   1      33.363  23.155  21.718  1.00  0.00     0.230 C 
ATOM     21  C   UNL A   1      32.467  22.183  22.465  1.00  0.00     0.049 C 
ENDBRANCH  19  20
ENDBRANCH  17  19
ENDBRANCH  12  17
BRANCH  13  22
ATOM     22  C   UNL A   1      32.963  25.266  25.268  1.00  0.00    -0.016 A 
ATOM     23  C   UNL A   1      31.742  25.497  24.637  1.00  0.00     0.009 A 
ATOM     24  C   UNL A   1      33.711  26.348  25.745  1.00  0.00     0.012 A 
ATOM     25  C   UNL A   1      31.260  26.802  24.518  1.00  0.00     0.004 A 
ATOM     26  C   UNL A   1      33.238  27.663  25.627  1.00  0.00    -0.048 A 
ATOM     27  C   UNL A   1      31.986  27.891  25.027  1.00  0.00    -0.048 A 
ATOM     28  C   UNL A   1      34.079  28.792  26.149  1.00  0.00     0.044 C 
ATOM     29  C   UNL A   1      31.418  29.277  24.867  1.00  0.00     0.044 C 
ENDBRANCH  13  22
ENDBRANCH   8  11
ENDBRANCH   6   7
ENDBRANCH   3   5
ENDBRANCH   2   3
ENDBRANCH   1   2
BRANCH   1  30
ATOM     30  C   UNL A   1      43.067  23.189  25.862  1.00  0.00     0.275 C 
BRANCH  30  31
ATOM     31  O   UNL A   1      43.383  24.542  26.248  1.00  0.00    -0.458 OA
BRANCH  31  32
ATOM     32  C   UNL A   1      42.383  25.440  26.081  1.00  0.00     0.338 C 
ATOM     33  O   UNL A   1      41.545  25.441  25.194  1.00  0.00    -0.246 OA
BRANCH  32  34
ATOM     34  C   UNL A   1      42.333  26.372  27.228  1.00  0.00     0.060 A 
ATOM     35  C   UNL A   1      41.342  26.135  28.177  1.00  0.00     0.016 A 
ATOM     36  C   UNL A   1      43.175  27.483  27.362  1.00  0.00     0.016 A 
ATOM     37  C   UNL A   1      41.215  26.975  29.282  1.00  0.00     0.010 A 
ATOM     38  C   UNL A   1      43.029  28.344  28.469  1.00  0.00     0.010 A 
ATOM     39  C   UNL A   1      42.054  28.086  29.446  1.00  0.00    -0.014 A 
BRANCH  39  40
ATOM     40  C   UNL A   1      41.810  28.974  30.617  1.00  0.00     0.031 A 
ATOM     41  C   UNL A   1      40.666  29.948  30.582  1.00  0.00     0.074 A 
ATOM     42  C   UNL A   1      42.478  28.789  31.774  1.00  0.00     0.049 A 
ATOM     43  N   UNL A   1      40.261  30.781  31.505  1.00  0.00    -0.248 NA
ATOM     44  C   UNL A   1      39.863  29.975  29.350  1.00  0.00     0.031 C 
ATOM     45  C   UNL A   1      43.554  27.823  31.971  1.00  0.00     0.029 A 
ATOM     46  N   UNL A   1      42.321  29.365  33.014  1.00  0.00    -0.354 N 
ATOM     47  C   UNL A   1      39.125  31.392  30.992  1.00  0.00     0.074 A 
ATOM     48  C   UNL A   1      38.948  30.887  29.646  1.00  0.00     0.031 C 
ATOM     49  C   UNL A   1      43.918  27.826  33.264  1.00  0.00     0.029 A 
ATOM     50  C   UNL A   1      43.159  28.851  33.978  1.00  0.00     0.049 A 
ATOM     51  H   UNL A   1      41.669  30.080  33.195  1.00  0.00     0.167 HD
ATOM     52  C   UNL A   1      38.274  32.248  31.608  1.00  0.00     0.037 A 
ATOM     53  C   UNL A   1      43.325  29.185  35.276  1.00  0.00     0.037 A 
ATOM     54  C   UNL A   1      38.412  32.721  32.961  1.00  0.00     0.049 A 
ATOM     55  C   UNL A   1      42.497  30.304  35.862  1.00  0.00     0.074 A 
ATOM     56  C   UNL A   1      37.603  33.617  33.641  1.00  0.00     0.029 A 
ATOM     57  N   UNL A   1      39.405  32.333  33.846  1.00  0.00    -0.354 N 
ATOM     58  N   UNL A   1      41.490  30.954  35.330  1.00  0.00    -0.248 NA
ATOM     59  C   UNL A   1      42.849  30.760  37.217  1.00  0.00     0.031 C 
ATOM     60  C   UNL A   1      38.122  33.789  34.928  1.00  0.00     0.029 A 
ATOM     61  C   UNL A   1      39.230  32.969  35.065  1.00  0.00     0.049 A 
ATOM     62  H   UNL A   1      40.129  31.698  33.640  1.00  0.00     0.167 HD
ATOM     63  C   UNL A   1      41.079  31.876  36.288  1.00  0.00     0.074 A 
ATOM     64  C   UNL A   1      41.933  31.692  37.441  1.00  0.00     0.031 C 
ATOM     65  C   UNL A   1      40.083  32.793  36.215  1.00  0.00     0.037 A 
BRANCH  52  66
ATOM     66  C   UNL A   1      37.097  32.727  30.811  1.00  0.00     0.058 A 
ATOM     67  C   UNL A   1      35.853  32.082  30.883  1.00  0.00     0.135 A 
ATOM     68  C   UNL A   1      37.210  33.858  29.991  1.00  0.00     0.135 A 
ATOM     69  F   UNL A   1      35.701  30.987  31.646  1.00  0.00    -0.206 F 
ATOM     70  C   UNL A   1      34.765  32.527  30.141  1.00  0.00     0.059 A 
ATOM     71  C   UNL A   1      36.130  34.334  29.256  1.00  0.00     0.059 A 
ATOM     72  F   UNL A   1      38.381  34.509  29.896  1.00  0.00    -0.206 F 
ATOM     73  C   UNL A   1      34.916  33.651  29.326  1.00  0.00     0.060 A 
BRANCH  73  74
ATOM     74  S   UNL A   1      33.503  34.201  28.349  1.00  0.00     0.124 S 
ATOM     75  O   UNL A   1      34.121  35.199  27.481  1.00  0.00    -0.237 OA
ATOM     76  O   UNL A   1      33.077  32.968  27.696  1.00  0.00    -0.237 OA
ATOM     77  O   UNL A   1      32.580  34.730  29.351  1.00  0.00    -0.744 OA
ENDBRANCH  73  74
ENDBRANCH  52  66
BRANCH  53  78
ATOM     78  C   UNL A   1      44.376  28.527  36.109  1.00  0.00     0.058 A 
ATOM     79  C   UNL A   1      44.079  27.450  36.961  1.00  0.00     0.135 A 
ATOM     80  C   UNL A   1      45.691  29.020  36.126  1.00  0.00     0.135 A 
ATOM     81  F   UNL A   1      42.833  26.953  37.005  1.00  0.00    -0.206 F 
ATOM     82  C   UNL A   1      45.037  26.907  37.815  1.00  0.00     0.059 A 
ATOM     83  C   UNL A   1      46.674  28.470  36.943  1.00  0.00     0.059 A 
ATOM     84  F   UNL A   1      46.035  30.052  35.340  1.00  0.00    -0.206 F 
ATOM     85  C   UNL A   1      46.332  27.427  37.799  1.00  0.00     0.060 A 
BRANCH  85  86
ATOM     86  S   UNL A   1      47.576  26.718  38.902  1.00  0.00     0.124 S 
ATOM     87  O   UNL A   1      46.741  26.067  39.904  1.00  0.00    -0.237 OA
ATOM     88  O   UNL A   1      48.310  25.831  38.007  1.00  0.00    -0.237 OA
ATOM     89  O   UNL A   1      48.319  27.887  39.363  1.00  0.00    -0.744 OA
ENDBRANCH  85  86
ENDBRANCH  53  78
BRANCH  65  90
ATOM     90  C   UNL A   1      39.837  33.662  37.421  1.00  0.00     0.058 A 
ATOM     91  C   UNL A   1      40.506  34.883  37.598  1.00  0.00     0.135 A 
ATOM     92  C   UNL A   1      38.878  33.299  38.382  1.00  0.00     0.135 A 
ATOM     93  F   UNL A   1      41.441  35.273  36.717  1.00  0.00    -0.206 F 
ATOM     94  C   UNL A   1      40.242  35.707  38.687  1.00  0.00     0.059 A 
ATOM     95  C   UNL A   1      38.578  34.122  39.465  1.00  0.00     0.059 A 
ATOM     96  F   UNL A   1      38.205  32.144  38.262  1.00  0.00    -0.206 F 
ATOM     97  C   UNL A   1      39.271  35.322  39.613  1.00  0.00     0.060 A 
BRANCH  97  98
ATOM     98  S   UNL A   1      38.902  36.428  40.993  1.00  0.00     0.124 S 
ATOM     99  O   UNL A   1      40.223  36.615  41.582  1.00  0.00    -0.237 OA
ATOM    100  O   UNL A   1      38.338  37.592  40.318  1.00  0.00    -0.237 OA
ATOM    101  O   UNL A   1      37.958  35.660  41.800  1.00  0.00    -0.744 OA
ENDBRANCH  97  98
ENDBRANCH  65  90
ENDBRANCH  39  40
ENDBRANCH  32  34
ENDBRANCH  31  32
ENDBRANCH  30  31
ENDBRANCH   1  30
TORSDOF 20
ENDMDL
