MODEL 1
REMARK VINA RESULT:     -10.6      0.000      0.000
REMARK SMILES Nc1cc([N+](=O)[O-])ccc1[C@H]([NH3+])C(=O)OCCOC(=O)c1ccc(-c2c3nc(c(-c4c(F)cc(S(=O)(=O)[O-])cc4F)c4ccc([nH]4)c(-c4c(F)cc(S(=O)(=O)[O-])cc4F)c4nc(c(-c5c(F)cc(S(=O)(=O)[O-])cc5F)c5ccc2[nH]5)C=C4)C=C3)cc1
REMARK SMILES IDX 17 1 16 2 15 3 13 4 14 5 11 6 10 7 2 8 3 9 4 10 9 11 8 12
REMARK SMILES IDX 1 13 5 16 6 17 7 18 12 19 18 23 19 24 20 25 21 26 22 27
REMARK SMILES IDX 86 28 23 29 85 30 24 31 25 32 26 33 79 34 27 35 84 36 78 37
REMARK SMILES IDX 80 38 28 39 83 40 77 41 76 42 29 44 63 45 42 46 62 47 43 48
REMARK SMILES IDX 46 49 61 50 81 51 44 52 45 53 60 55 82 56 47 57 30 58 31 59
REMARK SMILES IDX 40 60 32 61 33 62 39 63 41 64 34 65 35 66 36 67 37 68 38 69
REMARK SMILES IDX 64 70 65 71 74 72 66 73 67 74 73 75 75 76 68 77 69 78 70 79
REMARK SMILES IDX 71 80 72 81 48 82 49 83 58 84 50 85 51 86 57 87 59 88 52 89
REMARK SMILES IDX 53 90 54 91 55 92 56 93
REMARK H PARENT 1 14 1 15 12 20 12 21 12 22 80 43 46 54
REMARK Flexibility Score: inf
ROOT
ATOM      1  C   UNL A   1      38.276  23.517  26.252  1.00  0.00     0.275 C 
ENDROOT
BRANCH   1   2
ATOM      2  C   UNL A   1      38.181  22.058  25.790  1.00  0.00     0.274 C 
BRANCH   2   3
ATOM      3  O   UNL A   1      39.471  21.536  25.435  1.00  0.00    -0.457 OA
BRANCH   3   4
ATOM      4  C   UNL A   1      39.840  20.347  25.996  1.00  0.00     0.369 C 
ATOM      5  O   UNL A   1      39.218  19.299  25.845  1.00  0.00    -0.245 OA
BRANCH   4   6
ATOM      6  C   UNL A   1      41.149  20.455  26.828  1.00  0.00     0.325 C 
BRANCH   6   7
ATOM      7  C   UNL A   1      42.442  20.202  26.044  1.00  0.00     0.044 A 
ATOM      8  C   UNL A   1      43.251  21.276  25.596  1.00  0.00     0.048 A 
ATOM      9  C   UNL A   1      44.504  21.008  25.021  1.00  0.00     0.111 A 
ATOM     10  C   UNL A   1      44.894  19.691  24.757  1.00  0.00     0.271 A 
ATOM     11  C   UNL A   1      42.845  18.888  25.721  1.00  0.00     0.020 A 
ATOM     12  C   UNL A   1      44.051  18.629  25.070  1.00  0.00     0.086 A 
BRANCH   8  13
ATOM     13  N   UNL A   1      42.893  22.611  25.793  1.00  0.00    -0.398 N 
ATOM     14  H   UNL A   1      42.277  22.855  26.521  1.00  0.00     0.156 HD
ATOM     15  H   UNL A   1      43.258  23.310  25.203  1.00  0.00     0.156 HD
ENDBRANCH   8  13
BRANCH  10  16
ATOM     16  N   UNL A   1      46.201  19.427  24.147  1.00  0.00     0.062 N 
ATOM     17  O   UNL A   1      46.233  18.710  23.135  1.00  0.00    -0.258 OA
ATOM     18  O   UNL A   1      47.198  19.950  24.665  1.00  0.00    -0.258 OA
ENDBRANCH  10  16
ENDBRANCH   6   7
BRANCH   6  19
ATOM     19  N   UNL A   1      41.057  19.591  28.033  1.00  0.00    -0.342 N 
ATOM     20  H   UNL A   1      40.212  19.023  27.981  1.00  0.00     0.345 HD
ATOM     21  H   UNL A   1      41.023  20.174  28.868  1.00  0.00     0.345 HD
ATOM     22  H   UNL A   1      41.874  18.982  28.076  1.00  0.00     0.345 HD
ENDBRANCH   6  19
ENDBRANCH   4   6
ENDBRANCH   3   4
ENDBRANCH   2   3
ENDBRANCH   1   2
BRANCH   1  23
ATOM     23  O   UNL A   1      39.404  23.739  27.120  1.00  0.00    -0.458 OA
BRANCH  23  24
ATOM     24  C   UNL A   1      40.226  24.751  26.755  1.00  0.00     0.338 C 
ATOM     25  O   UNL A   1      40.709  24.948  25.652  1.00  0.00    -0.246 OA
BRANCH  24  26
ATOM     26  C   UNL A   1      40.344  25.719  27.859  1.00  0.00     0.060 A 
ATOM     27  C   UNL A   1      39.287  25.785  28.774  1.00  0.00     0.016 A 
ATOM     28  C   UNL A   1      41.427  26.593  27.966  1.00  0.00     0.016 A 
ATOM     29  C   UNL A   1      39.297  26.733  29.788  1.00  0.00     0.010 A 
ATOM     30  C   UNL A   1      41.437  27.547  28.989  1.00  0.00     0.010 A 
ATOM     31  C   UNL A   1      40.364  27.631  29.895  1.00  0.00    -0.014 A 
BRANCH  31  32
ATOM     32  C   UNL A   1      40.314  28.696  30.923  1.00  0.00     0.031 A 
ATOM     33  C   UNL A   1      41.244  28.635  32.099  1.00  0.00     0.074 A 
ATOM     34  C   UNL A   1      39.464  29.728  30.778  1.00  0.00     0.049 A 
ATOM     35  N   UNL A   1      41.317  29.425  33.137  1.00  0.00    -0.248 NA
ATOM     36  C   UNL A   1      42.225  27.537  32.105  1.00  0.00     0.031 C 
ATOM     37  C   UNL A   1      38.547  29.912  29.653  1.00  0.00     0.029 A 
ATOM     38  N   UNL A   1      39.231  30.812  31.584  1.00  0.00    -0.354 N 
ATOM     39  C   UNL A   1      42.333  28.911  33.933  1.00  0.00     0.074 A 
ATOM     40  C   UNL A   1      42.840  27.733  33.262  1.00  0.00     0.031 C 
ATOM     41  C   UNL A   1      37.839  31.037  29.847  1.00  0.00     0.029 A 
ATOM     42  C   UNL A   1      38.224  31.628  31.126  1.00  0.00     0.049 A 
ATOM     43  H   UNL A   1      39.734  30.989  32.411  1.00  0.00     0.167 HD
ATOM     44  C   UNL A   1      42.800  29.383  35.114  1.00  0.00     0.037 A 
ATOM     45  C   UNL A   1      37.653  32.709  31.693  1.00  0.00     0.037 A 
ATOM     46  C   UNL A   1      42.292  30.560  35.770  1.00  0.00     0.049 A 
ATOM     47  C   UNL A   1      38.158  33.191  33.024  1.00  0.00     0.074 A 
ATOM     48  C   UNL A   1      42.698  31.125  36.966  1.00  0.00     0.029 A 
ATOM     49  N   UNL A   1      41.263  31.353  35.282  1.00  0.00    -0.354 N 
ATOM     50  N   UNL A   1      39.114  32.692  33.771  1.00  0.00    -0.248 NA
ATOM     51  C   UNL A   1      37.507  34.379  33.590  1.00  0.00     0.031 C 
ATOM     52  C   UNL A   1      41.889  32.240  37.219  1.00  0.00     0.029 A 
ATOM     53  C   UNL A   1      41.007  32.393  36.161  1.00  0.00     0.049 A 
ATOM     54  H   UNL A   1      40.784  31.200  34.436  1.00  0.00     0.167 HD
ATOM     55  C   UNL A   1      39.187  33.510  34.892  1.00  0.00     0.074 A 
ATOM     56  C   UNL A   1      38.189  34.547  34.717  1.00  0.00     0.031 C 
ATOM     57  C   UNL A   1      40.005  33.413  35.969  1.00  0.00     0.037 A 
BRANCH  44  58
ATOM     58  C   UNL A   1      43.890  28.595  35.785  1.00  0.00     0.058 A 
ATOM     59  C   UNL A   1      43.606  27.548  36.676  1.00  0.00     0.135 A 
ATOM     60  C   UNL A   1      45.240  28.899  35.539  1.00  0.00     0.135 A 
ATOM     61  F   UNL A   1      42.333  27.230  36.960  1.00  0.00    -0.206 F 
ATOM     62  C   UNL A   1      44.620  26.856  37.331  1.00  0.00     0.059 A 
ATOM     63  C   UNL A   1      46.270  28.204  36.165  1.00  0.00     0.059 A 
ATOM     64  F   UNL A   1      45.566  29.892  34.697  1.00  0.00    -0.206 F 
ATOM     65  C   UNL A   1      45.948  27.198  37.076  1.00  0.00     0.060 A 
BRANCH  65  66
ATOM     66  S   UNL A   1      47.256  26.316  37.956  1.00  0.00     0.124 S 
ATOM     67  O   UNL A   1      46.782  26.400  39.334  1.00  0.00    -0.237 OA
ATOM     68  O   UNL A   1      47.205  24.990  37.349  1.00  0.00    -0.237 OA
ATOM     69  O   UNL A   1      48.453  27.095  37.655  1.00  0.00    -0.744 OA
ENDBRANCH  65  66
ENDBRANCH  44  58
BRANCH  45  70
ATOM     70  C   UNL A   1      36.519  33.378  31.006  1.00  0.00     0.058 A 
ATOM     71  C   UNL A   1      35.200  33.221  31.455  1.00  0.00     0.135 A 
ATOM     72  C   UNL A   1      36.742  34.227  29.910  1.00  0.00     0.135 A 
ATOM     73  F   UNL A   1      34.936  32.412  32.492  1.00  0.00    -0.206 F 
ATOM     74  C   UNL A   1      34.141  33.883  30.843  1.00  0.00     0.059 A 
ATOM     75  C   UNL A   1      35.703  34.918  29.296  1.00  0.00     0.059 A 
ATOM     76  F   UNL A   1      37.989  34.418  29.451  1.00  0.00    -0.206 F 
ATOM     77  C   UNL A   1      34.404  34.736  29.768  1.00  0.00     0.060 A 
BRANCH  77  78
ATOM     78  S   UNL A   1      33.034  35.655  29.030  1.00  0.00     0.124 S 
ATOM     79  O   UNL A   1      32.377  34.619  28.243  1.00  0.00    -0.237 OA
ATOM     80  O   UNL A   1      32.308  36.121  30.206  1.00  0.00    -0.237 OA
ATOM     81  O   UNL A   1      33.708  36.699  28.264  1.00  0.00    -0.744 OA
ENDBRANCH  77  78
ENDBRANCH  45  70
BRANCH  57  82
ATOM     82  C   UNL A   1      39.866  34.463  37.035  1.00  0.00     0.058 A 
ATOM     83  C   UNL A   1      40.471  35.723  36.907  1.00  0.00     0.135 A 
ATOM     84  C   UNL A   1      39.082  34.222  38.174  1.00  0.00     0.135 A 
ATOM     85  F   UNL A   1      41.237  35.999  35.840  1.00  0.00    -0.206 F 
ATOM     86  C   UNL A   1      40.316  36.704  37.880  1.00  0.00     0.059 A 
ATOM     87  C   UNL A   1      38.895  35.197  39.150  1.00  0.00     0.059 A 
ATOM     88  F   UNL A   1      38.474  33.037  38.338  1.00  0.00    -0.206 F 
ATOM     89  C   UNL A   1      39.526  36.431  38.999  1.00  0.00     0.060 A 
BRANCH  89  90
ATOM     90  S   UNL A   1      39.303  37.723  40.240  1.00  0.00     0.124 S 
ATOM     91  O   UNL A   1      38.202  38.491  39.669  1.00  0.00    -0.237 OA
ATOM     92  O   UNL A   1      38.987  36.957  41.441  1.00  0.00    -0.237 OA
ATOM     93  O   UNL A   1      40.598  38.400  40.260  1.00  0.00    -0.744 OA
ENDBRANCH  89  90
ENDBRANCH  57  82
ENDBRANCH  31  32
ENDBRANCH  24  26
ENDBRANCH  23  24
ENDBRANCH   1  23
TORSDOF 18
ENDMDL
MODEL 2
REMARK VINA RESULT:     -10.5      2.704      4.848
REMARK SMILES Nc1cc([N+](=O)[O-])ccc1[C@H]([NH3+])C(=O)OCCOC(=O)c1ccc(-c2c3nc(c(-c4c(F)cc(S(=O)(=O)[O-])cc4F)c4ccc([nH]4)c(-c4c(F)cc(S(=O)(=O)[O-])cc4F)c4nc(c(-c5c(F)cc(S(=O)(=O)[O-])cc5F)c5ccc2[nH]5)C=C4)C=C3)cc1
REMARK SMILES IDX 17 1 16 2 15 3 13 4 14 5 11 6 10 7 2 8 3 9 4 10 9 11 8 12
REMARK SMILES IDX 1 13 5 16 6 17 7 18 12 19 18 23 19 24 20 25 21 26 22 27
REMARK SMILES IDX 86 28 23 29 85 30 24 31 25 32 26 33 79 34 27 35 84 36 78 37
REMARK SMILES IDX 80 38 28 39 83 40 77 41 76 42 29 44 63 45 42 46 62 47 43 48
REMARK SMILES IDX 46 49 61 50 81 51 44 52 45 53 60 55 82 56 47 57 30 58 31 59
REMARK SMILES IDX 40 60 32 61 33 62 39 63 41 64 34 65 35 66 36 67 37 68 38 69
REMARK SMILES IDX 64 70 65 71 74 72 66 73 67 74 73 75 75 76 68 77 69 78 70 79
REMARK SMILES IDX 71 80 72 81 48 82 49 83 58 84 50 85 51 86 57 87 59 88 52 89
REMARK SMILES IDX 53 90 54 91 55 92 56 93
REMARK H PARENT 1 14 1 15 12 20 12 21 12 22 80 43 46 54
REMARK Flexibility Score: inf
ROOT
ATOM      1  C   UNL A   1      39.606  22.420  26.756  1.00  0.00     0.275 C 
ENDROOT
BRANCH   1   2
ATOM      2  C   UNL A   1      38.704  21.818  25.673  1.00  0.00     0.274 C 
BRANCH   2   3
ATOM      3  O   UNL A   1      37.315  22.038  25.965  1.00  0.00    -0.457 OA
BRANCH   3   4
ATOM      4  C   UNL A   1      36.521  22.466  24.941  1.00  0.00     0.369 C 
ATOM      5  O   UNL A   1      36.746  23.475  24.279  1.00  0.00    -0.245 OA
BRANCH   4   6
ATOM      6  C   UNL A   1      35.311  21.523  24.682  1.00  0.00     0.325 C 
BRANCH   6   7
ATOM      7  C   UNL A   1      33.978  21.998  25.272  1.00  0.00     0.044 A 
ATOM      8  C   UNL A   1      33.770  22.045  26.673  1.00  0.00     0.048 A 
ATOM      9  C   UNL A   1      32.600  22.632  27.181  1.00  0.00     0.111 A 
ATOM     10  C   UNL A   1      31.577  23.037  26.317  1.00  0.00     0.271 A 
ATOM     11  C   UNL A   1      32.909  22.374  24.429  1.00  0.00     0.020 A 
ATOM     12  C   UNL A   1      31.712  22.875  24.941  1.00  0.00     0.086 A 
BRANCH   8  13
ATOM     13  N   UNL A   1      34.736  21.615  27.585  1.00  0.00    -0.398 N 
ATOM     14  H   UNL A   1      34.698  20.700  27.949  1.00  0.00     0.156 HD
ATOM     15  H   UNL A   1      35.455  22.226  27.865  1.00  0.00     0.156 HD
ENDBRANCH   8  13
BRANCH  10  16
ATOM     16  N   UNL A   1      30.357  23.639  26.863  1.00  0.00     0.062 N 
ATOM     17  O   UNL A   1      30.076  24.795  26.513  1.00  0.00    -0.258 OA
ATOM     18  O   UNL A   1      29.666  22.953  27.630  1.00  0.00    -0.258 OA
ENDBRANCH  10  16
ENDBRANCH   6   7
BRANCH   6  19
ATOM     19  N   UNL A   1      35.644  20.142  25.114  1.00  0.00    -0.342 N 
ATOM     20  H   UNL A   1      36.273  19.715  24.435  1.00  0.00     0.345 HD
ATOM     21  H   UNL A   1      34.789  19.590  25.177  1.00  0.00     0.345 HD
ATOM     22  H   UNL A   1      36.097  20.172  26.027  1.00  0.00     0.345 HD
ENDBRANCH   6  19
ENDBRANCH   4   6
ENDBRANCH   3   4
ENDBRANCH   2   3
ENDBRANCH   1   2
BRANCH   1  23
ATOM     23  O   UNL A   1      39.410  23.840  26.897  1.00  0.00    -0.458 OA
BRANCH  23  24
ATOM     24  C   UNL A   1      40.527  24.595  26.771  1.00  0.00     0.338 C 
ATOM     25  O   UNL A   1      41.306  24.609  25.830  1.00  0.00    -0.246 OA
BRANCH  24  26
ATOM     26  C   UNL A   1      40.607  25.557  27.882  1.00  0.00     0.060 A 
ATOM     27  C   UNL A   1      39.468  25.716  28.680  1.00  0.00     0.016 A 
ATOM     28  C   UNL A   1      41.741  26.340  28.105  1.00  0.00     0.016 A 
ATOM     29  C   UNL A   1      39.448  26.668  29.691  1.00  0.00     0.010 A 
ATOM     30  C   UNL A   1      41.721  27.297  29.125  1.00  0.00     0.010 A 
ATOM     31  C   UNL A   1      40.569  27.475  29.912  1.00  0.00    -0.014 A 
BRANCH  31  32
ATOM     32  C   UNL A   1      40.498  28.548  30.931  1.00  0.00     0.031 A 
ATOM     33  C   UNL A   1      41.432  28.518  32.105  1.00  0.00     0.074 A 
ATOM     34  C   UNL A   1      39.625  29.560  30.779  1.00  0.00     0.049 A 
ATOM     35  N   UNL A   1      41.490  29.318  33.136  1.00  0.00    -0.248 NA
ATOM     36  C   UNL A   1      42.437  27.442  32.118  1.00  0.00     0.031 C 
ATOM     37  C   UNL A   1      38.701  29.714  29.655  1.00  0.00     0.029 A 
ATOM     38  N   UNL A   1      39.370  30.645  31.577  1.00  0.00    -0.354 N 
ATOM     39  C   UNL A   1      42.519  28.834  33.934  1.00  0.00     0.074 A 
ATOM     40  C   UNL A   1      43.050  27.661  33.271  1.00  0.00     0.031 C 
ATOM     41  C   UNL A   1      37.970  30.825  29.841  1.00  0.00     0.029 A 
ATOM     42  C   UNL A   1      38.344  31.435  31.114  1.00  0.00     0.049 A 
ATOM     43  H   UNL A   1      39.872  30.841  32.401  1.00  0.00     0.167 HD
ATOM     44  C   UNL A   1      42.979  29.327  35.109  1.00  0.00     0.037 A 
ATOM     45  C   UNL A   1      37.751  32.508  31.673  1.00  0.00     0.037 A 
ATOM     46  C   UNL A   1      42.447  30.498  35.756  1.00  0.00     0.049 A 
ATOM     47  C   UNL A   1      38.248  33.013  32.998  1.00  0.00     0.074 A 
ATOM     48  C   UNL A   1      42.843  31.082  36.946  1.00  0.00     0.029 A 
ATOM     49  N   UNL A   1      41.399  31.264  35.264  1.00  0.00    -0.354 N 
ATOM     50  N   UNL A   1      39.217  32.542  33.747  1.00  0.00    -0.248 NA
ATOM     51  C   UNL A   1      37.573  34.192  33.556  1.00  0.00     0.031 C 
ATOM     52  C   UNL A   1      42.011  32.181  37.192  1.00  0.00     0.029 A 
ATOM     53  C   UNL A   1      41.123  32.306  36.134  1.00  0.00     0.049 A 
ATOM     54  H   UNL A   1      40.921  31.093  34.421  1.00  0.00     0.167 HD
ATOM     55  C   UNL A   1      39.275  33.371  34.861  1.00  0.00     0.074 A 
ATOM     56  C   UNL A   1      38.254  34.385  34.679  1.00  0.00     0.031 C 
ATOM     57  C   UNL A   1      40.098  33.301  35.937  1.00  0.00     0.037 A 
BRANCH  44  58
ATOM     58  C   UNL A   1      44.087  28.568  35.784  1.00  0.00     0.058 A 
ATOM     59  C   UNL A   1      45.439  28.853  35.532  1.00  0.00     0.135 A 
ATOM     60  C   UNL A   1      43.792  27.535  36.688  1.00  0.00     0.135 A 
ATOM     61  F   UNL A   1      45.776  29.817  34.661  1.00  0.00    -0.206 F 
ATOM     62  C   UNL A   1      46.459  28.113  36.123  1.00  0.00     0.059 A 
ATOM     63  C   UNL A   1      44.796  26.798  37.309  1.00  0.00     0.059 A 
ATOM     64  F   UNL A   1      42.516  27.222  36.962  1.00  0.00    -0.206 F 
ATOM     65  C   UNL A   1      46.127  27.082  37.002  1.00  0.00     0.060 A 
BRANCH  65  66
ATOM     66  S   UNL A   1      47.457  26.106  37.738  1.00  0.00     0.124 S 
ATOM     67  O   UNL A   1      48.493  27.120  37.916  1.00  0.00    -0.237 OA
ATOM     68  O   UNL A   1      46.841  25.608  38.964  1.00  0.00    -0.237 OA
ATOM     69  O   UNL A   1      47.736  25.094  36.724  1.00  0.00    -0.744 OA
ENDBRANCH  65  66
ENDBRANCH  44  58
BRANCH  45  70
ATOM     70  C   UNL A   1      36.601  33.146  30.983  1.00  0.00     0.058 A 
ATOM     71  C   UNL A   1      35.295  33.018  31.474  1.00  0.00     0.135 A 
ATOM     72  C   UNL A   1      36.797  33.937  29.839  1.00  0.00     0.135 A 
ATOM     73  F   UNL A   1      35.056  32.265  32.558  1.00  0.00    -0.206 F 
ATOM     74  C   UNL A   1      34.221  33.653  30.858  1.00  0.00     0.059 A 
ATOM     75  C   UNL A   1      35.744  34.600  29.219  1.00  0.00     0.059 A 
ATOM     76  F   UNL A   1      38.031  34.099  29.338  1.00  0.00    -0.206 F 
ATOM     77  C   UNL A   1      34.457  34.448  29.734  1.00  0.00     0.060 A 
BRANCH  77  78
ATOM     78  S   UNL A   1      33.071  35.334  28.987  1.00  0.00     0.124 S 
ATOM     79  O   UNL A   1      32.170  35.481  30.124  1.00  0.00    -0.237 OA
ATOM     80  O   UNL A   1      33.708  36.559  28.514  1.00  0.00    -0.237 OA
ATOM     81  O   UNL A   1      32.621  34.425  27.937  1.00  0.00    -0.744 OA
ENDBRANCH  77  78
ENDBRANCH  45  70
BRANCH  57  82
ATOM     82  C   UNL A   1      39.939  34.358  36.994  1.00  0.00     0.058 A 
ATOM     83  C   UNL A   1      40.596  35.594  36.900  1.00  0.00     0.135 A 
ATOM     84  C   UNL A   1      39.083  34.148  38.086  1.00  0.00     0.135 A 
ATOM     85  F   UNL A   1      41.431  35.839  35.878  1.00  0.00    -0.206 F 
ATOM     86  C   UNL A   1      40.424  36.581  37.864  1.00  0.00     0.059 A 
ATOM     87  C   UNL A   1      38.878  35.131  39.050  1.00  0.00     0.059 A 
ATOM     88  F   UNL A   1      38.423  32.986  38.216  1.00  0.00    -0.206 F 
ATOM     89  C   UNL A   1      39.563  36.340  38.936  1.00  0.00     0.060 A 
BRANCH  89  90
ATOM     90  S   UNL A   1      39.319  37.641  40.164  1.00  0.00     0.124 S 
ATOM     91  O   UNL A   1      38.956  36.865  41.345  1.00  0.00    -0.237 OA
ATOM     92  O   UNL A   1      40.627  38.286  40.205  1.00  0.00    -0.237 OA
ATOM     93  O   UNL A   1      38.247  38.451  39.590  1.00  0.00    -0.744 OA
ENDBRANCH  89  90
ENDBRANCH  57  82
ENDBRANCH  31  32
ENDBRANCH  24  26
ENDBRANCH  23  24
ENDBRANCH   1  23
TORSDOF 18
ENDMDL
MODEL 3
REMARK VINA RESULT:     -10.4      2.231      4.031
REMARK SMILES Nc1cc([N+](=O)[O-])ccc1[C@H]([NH3+])C(=O)OCCOC(=O)c1ccc(-c2c3nc(c(-c4c(F)cc(S(=O)(=O)[O-])cc4F)c4ccc([nH]4)c(-c4c(F)cc(S(=O)(=O)[O-])cc4F)c4nc(c(-c5c(F)cc(S(=O)(=O)[O-])cc5F)c5ccc2[nH]5)C=C4)C=C3)cc1
REMARK SMILES IDX 17 1 16 2 15 3 13 4 14 5 11 6 10 7 2 8 3 9 4 10 9 11 8 12
REMARK SMILES IDX 1 13 5 16 6 17 7 18 12 19 18 23 19 24 20 25 21 26 22 27
REMARK SMILES IDX 86 28 23 29 85 30 24 31 25 32 26 33 79 34 27 35 84 36 78 37
REMARK SMILES IDX 80 38 28 39 83 40 77 41 76 42 29 44 63 45 42 46 62 47 43 48
REMARK SMILES IDX 46 49 61 50 81 51 44 52 45 53 60 55 82 56 47 57 30 58 31 59
REMARK SMILES IDX 40 60 32 61 33 62 39 63 41 64 34 65 35 66 36 67 37 68 38 69
REMARK SMILES IDX 64 70 65 71 74 72 66 73 67 74 73 75 75 76 68 77 69 78 70 79
REMARK SMILES IDX 71 80 72 81 48 82 49 83 58 84 50 85 51 86 57 87 59 88 52 89
REMARK SMILES IDX 53 90 54 91 55 92 56 93
REMARK H PARENT 1 14 1 15 12 20 12 21 12 22 80 43 46 54
REMARK Flexibility Score: inf
ROOT
ATOM      1  C   UNL A   1      41.914  22.399  26.331  1.00  0.00     0.275 C 
ENDROOT
BRANCH   1   2
ATOM      2  C   UNL A   1      40.960  21.229  26.062  1.00  0.00     0.274 C 
BRANCH   2   3
ATOM      3  O   UNL A   1      39.671  21.458  26.652  1.00  0.00    -0.457 OA
BRANCH   3   4
ATOM      4  C   UNL A   1      38.585  21.390  25.827  1.00  0.00     0.369 C 
ATOM      5  O   UNL A   1      38.372  20.459  25.055  1.00  0.00    -0.245 OA
BRANCH   4   6
ATOM      6  C   UNL A   1      37.630  22.607  25.988  1.00  0.00     0.325 C 
BRANCH   6   7
ATOM      7  C   UNL A   1      36.431  22.623  25.033  1.00  0.00     0.044 A 
ATOM      8  C   UNL A   1      35.195  22.031  25.396  1.00  0.00     0.048 A 
ATOM      9  C   UNL A   1      34.075  22.201  24.568  1.00  0.00     0.111 A 
ATOM     10  C   UNL A   1      34.202  22.825  23.322  1.00  0.00     0.271 A 
ATOM     11  C   UNL A   1      36.536  23.206  23.751  1.00  0.00     0.020 A 
ATOM     12  C   UNL A   1      35.439  23.296  22.893  1.00  0.00     0.086 A 
BRANCH   8  13
ATOM     13  N   UNL A   1      35.019  21.357  26.606  1.00  0.00    -0.398 N 
ATOM     14  H   UNL A   1      34.238  20.771  26.736  1.00  0.00     0.156 HD
ATOM     15  H   UNL A   1      35.676  21.468  27.331  1.00  0.00     0.156 HD
ENDBRANCH   8  13
BRANCH  10  16
ATOM     16  N   UNL A   1      33.024  22.986  22.464  1.00  0.00     0.062 N 
ATOM     17  O   UNL A   1      31.907  22.819  22.978  1.00  0.00    -0.258 OA
ATOM     18  O   UNL A   1      33.209  23.299  21.280  1.00  0.00    -0.258 OA
ENDBRANCH  10  16
ENDBRANCH   6   7
BRANCH   6  19
ATOM     19  N   UNL A   1      38.406  23.872  25.920  1.00  0.00    -0.342 N 
ATOM     20  H   UNL A   1      39.379  23.689  26.161  1.00  0.00     0.345 HD
ATOM     21  H   UNL A   1      38.015  24.546  26.577  1.00  0.00     0.345 HD
ATOM     22  H   UNL A   1      38.355  24.251  24.974  1.00  0.00     0.345 HD
ENDBRANCH   6  19
ENDBRANCH   4   6
ENDBRANCH   3   4
ENDBRANCH   2   3
ENDBRANCH   1   2
BRANCH   1  23
ATOM     23  O   UNL A   1      41.207  23.608  26.668  1.00  0.00    -0.458 OA
BRANCH  23  24
ATOM     24  C   UNL A   1      41.856  24.760  26.374  1.00  0.00     0.338 C 
ATOM     25  O   UNL A   1      42.512  25.002  25.373  1.00  0.00    -0.246 OA
BRANCH  24  26
ATOM     26  C   UNL A   1      41.528  25.787  27.377  1.00  0.00     0.060 A 
ATOM     27  C   UNL A   1      42.310  26.946  27.392  1.00  0.00     0.016 A 
ATOM     28  C   UNL A   1      40.524  25.599  28.328  1.00  0.00     0.016 A 
ATOM     29  C   UNL A   1      42.107  27.916  28.366  1.00  0.00     0.010 A 
ATOM     30  C   UNL A   1      40.318  26.576  29.308  1.00  0.00     0.010 A 
ATOM     31  C   UNL A   1      41.120  27.731  29.340  1.00  0.00    -0.014 A 
BRANCH  31  32
ATOM     32  C   UNL A   1      40.980  28.729  30.426  1.00  0.00     0.031 A 
ATOM     33  C   UNL A   1      41.914  28.684  31.599  1.00  0.00     0.074 A 
ATOM     34  C   UNL A   1      40.042  29.689  30.336  1.00  0.00     0.049 A 
ATOM     35  N   UNL A   1      41.920  29.418  32.680  1.00  0.00    -0.248 NA
ATOM     36  C   UNL A   1      42.987  27.678  31.546  1.00  0.00     0.031 C 
ATOM     37  C   UNL A   1      39.110  29.855  29.220  1.00  0.00     0.029 A 
ATOM     38  N   UNL A   1      39.717  30.702  31.201  1.00  0.00    -0.354 N 
ATOM     39  C   UNL A   1      42.979  28.952  33.448  1.00  0.00     0.074 A 
ATOM     40  C   UNL A   1      43.585  27.861  32.714  1.00  0.00     0.031 C 
ATOM     41  C   UNL A   1      38.307  30.901  29.475  1.00  0.00     0.029 A 
ATOM     42  C   UNL A   1      38.641  31.451  30.786  1.00  0.00     0.049 A 
ATOM     43  H   UNL A   1      40.205  30.876  32.038  1.00  0.00     0.167 HD
ATOM     44  C   UNL A   1      43.406  29.396  34.655  1.00  0.00     0.037 A 
ATOM     45  C   UNL A   1      37.980  32.444  31.411  1.00  0.00     0.037 A 
ATOM     46  C   UNL A   1      42.799  30.486  35.374  1.00  0.00     0.049 A 
ATOM     47  C   UNL A   1      38.443  32.894  32.768  1.00  0.00     0.074 A 
ATOM     48  C   UNL A   1      43.156  31.016  36.600  1.00  0.00     0.029 A 
ATOM     49  N   UNL A   1      41.702  31.212  34.928  1.00  0.00    -0.354 N 
ATOM     50  N   UNL A   1      39.441  32.440  33.488  1.00  0.00    -0.248 NA
ATOM     51  C   UNL A   1      37.692  33.988  33.398  1.00  0.00     0.031 C 
ATOM     52  C   UNL A   1      42.254  32.040  36.914  1.00  0.00     0.029 A 
ATOM     53  C   UNL A   1      41.359  32.175  35.863  1.00  0.00     0.049 A 
ATOM     54  H   UNL A   1      41.237  31.065  34.074  1.00  0.00     0.167 HD
ATOM     55  C   UNL A   1      39.445  33.197  34.654  1.00  0.00     0.074 A 
ATOM     56  C   UNL A   1      38.360  34.151  34.534  1.00  0.00     0.031 C 
ATOM     57  C   UNL A   1      40.271  33.112  35.726  1.00  0.00     0.037 A 
BRANCH  44  58
ATOM     58  C   UNL A   1      44.562  28.670  35.283  1.00  0.00     0.058 A 
ATOM     59  C   UNL A   1      44.371  27.571  36.136  1.00  0.00     0.135 A 
ATOM     60  C   UNL A   1      45.881  29.087  35.037  1.00  0.00     0.135 A 
ATOM     61  F   UNL A   1      43.130  27.144  36.420  1.00  0.00    -0.206 F 
ATOM     62  C   UNL A   1      45.444  26.936  36.753  1.00  0.00     0.059 A 
ATOM     63  C   UNL A   1      46.970  28.451  35.624  1.00  0.00     0.059 A 
ATOM     64  F   UNL A   1      46.118  30.134  34.231  1.00  0.00    -0.206 F 
ATOM     65  C   UNL A   1      46.739  27.389  36.498  1.00  0.00     0.060 A 
BRANCH  65  66
ATOM     66  S   UNL A   1      48.122  26.578  37.330  1.00  0.00     0.124 S 
ATOM     67  O   UNL A   1      48.072  25.244  36.738  1.00  0.00    -0.237 OA
ATOM     68  O   UNL A   1      49.256  27.405  36.932  1.00  0.00    -0.237 OA
ATOM     69  O   UNL A   1      47.759  26.653  38.742  1.00  0.00    -0.744 OA
ENDBRANCH  65  66
ENDBRANCH  44  58
BRANCH  45  70
ATOM     70  C   UNL A   1      36.790  33.049  30.759  1.00  0.00     0.058 A 
ATOM     71  C   UNL A   1      35.494  32.790  31.225  1.00  0.00     0.135 A 
ATOM     72  C   UNL A   1      36.934  33.937  29.681  1.00  0.00     0.135 A 
ATOM     73  F   UNL A   1      35.305  31.941  32.246  1.00  0.00    -0.206 F 
ATOM     74  C   UNL A   1      34.380  33.392  30.648  1.00  0.00     0.059 A 
ATOM     75  C   UNL A   1      35.839  34.568  29.102  1.00  0.00     0.059 A 
ATOM     76  F   UNL A   1      38.156  34.225  29.207  1.00  0.00    -0.206 F 
ATOM     77  C   UNL A   1      34.564  34.285  29.590  1.00  0.00     0.060 A 
BRANCH  77  78
ATOM     78  S   UNL A   1      33.121  35.124  28.898  1.00  0.00     0.124 S 
ATOM     79  O   UNL A   1      32.329  35.381  30.094  1.00  0.00    -0.237 OA
ATOM     80  O   UNL A   1      33.720  36.294  28.264  1.00  0.00    -0.237 OA
ATOM     81  O   UNL A   1      32.571  34.135  27.975  1.00  0.00    -0.744 OA
ENDBRANCH  77  78
ENDBRANCH  45  70
BRANCH  57  82
ATOM     82  C   UNL A   1      40.043  34.085  36.849  1.00  0.00     0.058 A 
ATOM     83  C   UNL A   1      40.674  35.338  36.873  1.00  0.00     0.135 A 
ATOM     84  C   UNL A   1      39.148  33.779  37.885  1.00  0.00     0.135 A 
ATOM     85  F   UNL A   1      41.545  35.674  35.907  1.00  0.00    -0.206 F 
ATOM     86  C   UNL A   1      40.440  36.249  37.897  1.00  0.00     0.059 A 
ATOM     87  C   UNL A   1      38.881  34.684  38.908  1.00  0.00     0.059 A 
ATOM     88  F   UNL A   1      38.511  32.597  37.902  1.00  0.00    -0.206 F 
ATOM     89  C   UNL A   1      39.540  35.912  38.910  1.00  0.00     0.060 A 
BRANCH  89  90
ATOM     90  S   UNL A   1      39.215  37.116  40.217  1.00  0.00     0.124 S 
ATOM     91  O   UNL A   1      38.395  36.335  41.137  1.00  0.00    -0.237 OA
ATOM     92  O   UNL A   1      40.558  37.443  40.686  1.00  0.00    -0.237 OA
ATOM     93  O   UNL A   1      38.523  38.195  39.518  1.00  0.00    -0.744 OA
ENDBRANCH  89  90
ENDBRANCH  57  82
ENDBRANCH  31  32
ENDBRANCH  24  26
ENDBRANCH  23  24
ENDBRANCH   1  23
TORSDOF 18
ENDMDL
