MODEL 1
REMARK VINA RESULT:     -11.8      0.000      0.000
REMARK SMILES CS(=O)(=O)c1ccc(/C=C(/C(=O)OCCOC(=O)c2ccc(-c3c4nc(c(-c5c(F)cc(S(=O)(=O)[O-])cc5F)c5ccc([nH]5)c(-c5c(F)cc(S(=O)(=O)[O-])cc5F)c5nc(c(-c6c(F)cc(S(=O)(=O)[O-])cc6F)c6ccc3[nH]6)C=C5)C=C4)cc2)c2ccc(F)cc2)cc1
REMARK SMILES IDX 15 1 14 2 13 3 11 4 12 5 10 6 9 7 8 8 5 9 6 10 93 11 7 12
REMARK SMILES IDX 92 13 2 14 1 15 3 16 4 17 85 18 86 19 91 20 87 21 90 22
REMARK SMILES IDX 88 23 89 24 16 25 17 26 18 27 19 28 20 29 84 30 21 31 83 32
REMARK SMILES IDX 22 33 23 34 24 35 77 36 25 37 82 38 76 39 78 40 26 41 81 42
REMARK SMILES IDX 75 43 74 44 27 46 61 47 40 48 60 49 41 50 44 51 59 52 79 53
REMARK SMILES IDX 42 54 43 55 58 57 80 58 45 59 28 60 29 61 38 62 30 63 31 64
REMARK SMILES IDX 37 65 39 66 32 67 33 68 34 69 35 70 36 71 62 72 63 73 72 74
REMARK SMILES IDX 64 75 65 76 71 77 73 78 66 79 67 80 68 81 69 82 70 83 46 84
REMARK SMILES IDX 47 85 56 86 48 87 49 88 55 89 57 90 50 91 51 92 52 93 53 94
REMARK SMILES IDX 54 95
REMARK H PARENT 78 45 44 56
REMARK Flexibility Score: inf
ROOT
ATOM      1  C   UNL A   1      33.275  28.534  26.049  1.00  0.00     0.275 C 
ENDROOT
BRANCH   1   2
ATOM      2  C   UNL A   1      33.938  27.533  25.107  1.00  0.00     0.275 C 
BRANCH   2   3
ATOM      3  O   UNL A   1      32.956  26.910  24.252  1.00  0.00    -0.458 OA
BRANCH   3   4
ATOM      4  C   UNL A   1      33.465  26.081  23.303  1.00  0.00     0.338 C 
ATOM      5  O   UNL A   1      33.856  26.423  22.197  1.00  0.00    -0.246 OA
BRANCH   4   6
ATOM      6  C   UNL A   1      33.524  24.664  23.773  1.00  0.00     0.067 C 
ATOM      7  C   UNL A   1      32.409  23.903  23.669  1.00  0.00     0.024 C 
BRANCH   7   8
ATOM      8  C   UNL A   1      32.314  22.429  23.779  1.00  0.00    -0.025 A 
ATOM      9  C   UNL A   1      32.475  19.620  23.788  1.00  0.00     0.067 A 
ATOM     10  C   UNL A   1      32.548  20.325  24.987  1.00  0.00     0.021 A 
ATOM     11  C   UNL A   1      32.235  20.295  22.592  1.00  0.00     0.021 A 
ATOM     12  C   UNL A   1      32.426  21.716  24.979  1.00  0.00     0.009 A 
ATOM     13  C   UNL A   1      32.161  21.694  22.593  1.00  0.00     0.009 A 
BRANCH   9  14
ATOM     14  S   UNL A   1      32.761  17.871  23.860  1.00  0.00     0.175 S 
ATOM     15  C   UNL A   1      34.441  17.638  24.360  1.00  0.00     0.163 C 
ATOM     16  O   UNL A   1      32.639  17.373  22.502  1.00  0.00    -0.224 OA
ATOM     17  O   UNL A   1      31.932  17.358  24.932  1.00  0.00    -0.224 OA
ENDBRANCH   9  14
ENDBRANCH   7   8
BRANCH   6  18
ATOM     18  C   UNL A   1      34.841  24.116  24.150  1.00  0.00    -0.011 A 
ATOM     19  C   UNL A   1      35.321  24.319  25.456  1.00  0.00     0.012 A 
ATOM     20  C   UNL A   1      35.587  23.339  23.254  1.00  0.00     0.012 A 
ATOM     21  C   UNL A   1      36.505  23.708  25.874  1.00  0.00     0.040 A 
ATOM     22  C   UNL A   1      36.780  22.746  23.670  1.00  0.00     0.040 A 
ATOM     23  C   UNL A   1      37.221  22.925  24.977  1.00  0.00     0.123 A 
ATOM     24  F   UNL A   1      38.352  22.334  25.379  1.00  0.00    -0.207 F 
ENDBRANCH   6  18
ENDBRANCH   4   6
ENDBRANCH   3   4
ENDBRANCH   2   3
ENDBRANCH   1   2
BRANCH   1  25
ATOM     25  O   UNL A   1      33.983  28.567  27.301  1.00  0.00    -0.458 OA
BRANCH  25  26
ATOM     26  C   UNL A   1      34.324  29.795  27.755  1.00  0.00     0.338 C 
ATOM     27  O   UNL A   1      33.584  30.759  27.886  1.00  0.00    -0.246 OA
BRANCH  26  28
ATOM     28  C   UNL A   1      35.756  29.836  28.114  1.00  0.00     0.060 A 
ATOM     29  C   UNL A   1      36.712  30.169  27.160  1.00  0.00     0.016 A 
ATOM     30  C   UNL A   1      36.162  29.385  29.371  1.00  0.00     0.016 A 
ATOM     31  C   UNL A   1      38.062  29.920  27.418  1.00  0.00     0.010 A 
ATOM     32  C   UNL A   1      37.527  29.246  29.659  1.00  0.00     0.010 A 
ATOM     33  C   UNL A   1      38.500  29.451  28.666  1.00  0.00    -0.014 A 
BRANCH  33  34
ATOM     34  C   UNL A   1      39.941  29.112  28.908  1.00  0.00     0.031 A 
ATOM     35  C   UNL A   1      40.875  30.125  29.540  1.00  0.00     0.074 A 
ATOM     36  C   UNL A   1      40.437  27.894  28.600  1.00  0.00     0.049 A 
ATOM     37  N   UNL A   1      42.184  30.119  29.605  1.00  0.00    -0.248 NA
ATOM     38  C   UNL A   1      40.260  31.312  30.155  1.00  0.00     0.031 C 
ATOM     39  C   UNL A   1      39.675  26.781  28.032  1.00  0.00     0.029 A 
ATOM     40  N   UNL A   1      41.707  27.381  28.737  1.00  0.00    -0.354 N 
ATOM     41  C   UNL A   1      42.548  31.332  30.181  1.00  0.00     0.074 A 
ATOM     42  C   UNL A   1      41.321  32.045  30.465  1.00  0.00     0.031 C 
ATOM     43  C   UNL A   1      40.465  25.702  27.943  1.00  0.00     0.029 A 
ATOM     44  C   UNL A   1      41.821  26.073  28.328  1.00  0.00     0.049 A 
ATOM     45  H   UNL A   1      42.461  27.901  29.095  1.00  0.00     0.167 HD
ATOM     46  C   UNL A   1      43.790  31.811  30.442  1.00  0.00     0.037 A 
ATOM     47  C   UNL A   1      42.895  25.267  28.215  1.00  0.00     0.037 A 
ATOM     48  C   UNL A   1      45.007  31.061  30.259  1.00  0.00     0.049 A 
ATOM     49  C   UNL A   1      44.260  25.806  28.531  1.00  0.00     0.074 A 
ATOM     50  C   UNL A   1      46.311  31.457  30.510  1.00  0.00     0.029 A 
ATOM     51  N   UNL A   1      45.071  29.748  29.818  1.00  0.00    -0.354 N 
ATOM     52  N   UNL A   1      44.597  27.000  28.953  1.00  0.00    -0.248 NA
ATOM     53  C   UNL A   1      45.398  24.899  28.317  1.00  0.00     0.031 C 
ATOM     54  C   UNL A   1      47.163  30.391  30.202  1.00  0.00     0.029 A 
ATOM     55  C   UNL A   1      46.389  29.320  29.790  1.00  0.00     0.049 A 
ATOM     56  H   UNL A   1      44.294  29.199  29.564  1.00  0.00     0.167 HD
ATOM     57  C   UNL A   1      45.983  26.993  29.045  1.00  0.00     0.074 A 
ATOM     58  C   UNL A   1      46.422  25.666  28.665  1.00  0.00     0.031 C 
ATOM     59  C   UNL A   1      46.816  28.001  29.400  1.00  0.00     0.037 A 
BRANCH  46  60
ATOM     60  C   UNL A   1      43.911  33.234  30.918  1.00  0.00     0.058 A 
ATOM     61  C   UNL A   1      43.822  34.329  30.046  1.00  0.00     0.135 A 
ATOM     62  C   UNL A   1      44.063  33.501  32.290  1.00  0.00     0.135 A 
ATOM     63  F   UNL A   1      43.693  34.133  28.726  1.00  0.00    -0.206 F 
ATOM     64  C   UNL A   1      43.902  35.639  30.515  1.00  0.00     0.059 A 
ATOM     65  C   UNL A   1      44.121  34.802  32.783  1.00  0.00     0.059 A 
ATOM     66  F   UNL A   1      44.150  32.490  33.169  1.00  0.00    -0.206 F 
ATOM     67  C   UNL A   1      44.052  35.866  31.885  1.00  0.00     0.060 A 
BRANCH  67  68
ATOM     68  S   UNL A   1      44.144  37.566  32.484  1.00  0.00     0.124 S 
ATOM     69  O   UNL A   1      43.958  38.320  31.248  1.00  0.00    -0.237 OA
ATOM     70  O   UNL A   1      43.037  37.627  33.434  1.00  0.00    -0.237 OA
ATOM     71  O   UNL A   1      45.476  37.648  33.075  1.00  0.00    -0.744 OA
ENDBRANCH  67  68
ENDBRANCH  46  60
BRANCH  47  72
ATOM     72  C   UNL A   1      42.719  23.876  27.720  1.00  0.00     0.058 A 
ATOM     73  C   UNL A   1      42.588  22.803  28.613  1.00  0.00     0.135 A 
ATOM     74  C   UNL A   1      42.632  23.602  26.346  1.00  0.00     0.135 A 
ATOM     75  F   UNL A   1      42.684  23.012  29.934  1.00  0.00    -0.206 F 
ATOM     76  C   UNL A   1      42.364  21.505  28.161  1.00  0.00     0.059 A 
ATOM     77  C   UNL A   1      42.380  22.319  25.872  1.00  0.00     0.059 A 
ATOM     78  F   UNL A   1      42.743  24.597  25.453  1.00  0.00    -0.206 F 
ATOM     79  C   UNL A   1      42.251  21.276  26.788  1.00  0.00     0.060 A 
BRANCH  79  80
ATOM     80  S   UNL A   1      41.861  19.612  26.206  1.00  0.00     0.124 S 
ATOM     81  O   UNL A   1      40.420  19.702  26.004  1.00  0.00    -0.237 OA
ATOM     82  O   UNL A   1      42.670  19.504  24.995  1.00  0.00    -0.237 OA
ATOM     83  O   UNL A   1      42.294  18.763  27.314  1.00  0.00    -0.744 OA
ENDBRANCH  79  80
ENDBRANCH  47  72
BRANCH  59  84
ATOM     84  C   UNL A   1      48.288  27.704  29.400  1.00  0.00     0.058 A 
ATOM     85  C   UNL A   1      49.060  27.841  28.236  1.00  0.00     0.135 A 
ATOM     86  C   UNL A   1      48.937  27.302  30.577  1.00  0.00     0.135 A 
ATOM     87  F   UNL A   1      48.482  28.217  27.083  1.00  0.00    -0.206 F 
ATOM     88  C   UNL A   1      50.423  27.567  28.234  1.00  0.00     0.059 A 
ATOM     89  C   UNL A   1      50.304  27.041  30.602  1.00  0.00     0.059 A 
ATOM     90  F   UNL A   1      48.244  27.164  31.718  1.00  0.00    -0.206 F 
ATOM     91  C   UNL A   1      51.036  27.164  29.421  1.00  0.00     0.060 A 
BRANCH  91  92
ATOM     92  S   UNL A   1      52.809  26.823  29.411  1.00  0.00     0.124 S 
ATOM     93  O   UNL A   1      53.368  28.167  29.515  1.00  0.00    -0.237 OA
ATOM     94  O   UNL A   1      52.975  25.974  30.587  1.00  0.00    -0.237 OA
ATOM     95  O   UNL A   1      53.017  26.153  28.130  1.00  0.00    -0.744 OA
ENDBRANCH  91  92
ENDBRANCH  59  84
ENDBRANCH  33  34
ENDBRANCH  26  28
ENDBRANCH  25  26
ENDBRANCH   1  25
TORSDOF 17
ENDMDL
MODEL 2
REMARK VINA RESULT:     -11.6      4.093      9.751
REMARK SMILES CS(=O)(=O)c1ccc(/C=C(/C(=O)OCCOC(=O)c2ccc(-c3c4nc(c(-c5c(F)cc(S(=O)(=O)[O-])cc5F)c5ccc([nH]5)c(-c5c(F)cc(S(=O)(=O)[O-])cc5F)c5nc(c(-c6c(F)cc(S(=O)(=O)[O-])cc6F)c6ccc3[nH]6)C=C5)C=C4)cc2)c2ccc(F)cc2)cc1
REMARK SMILES IDX 15 1 14 2 13 3 11 4 12 5 10 6 9 7 8 8 5 9 6 10 93 11 7 12
REMARK SMILES IDX 92 13 2 14 1 15 3 16 4 17 85 18 86 19 91 20 87 21 90 22
REMARK SMILES IDX 88 23 89 24 16 25 17 26 18 27 19 28 20 29 84 30 21 31 83 32
REMARK SMILES IDX 22 33 23 34 24 35 77 36 25 37 82 38 76 39 78 40 26 41 81 42
REMARK SMILES IDX 75 43 74 44 27 46 61 47 40 48 60 49 41 50 44 51 59 52 79 53
REMARK SMILES IDX 42 54 43 55 58 57 80 58 45 59 28 60 29 61 38 62 30 63 31 64
REMARK SMILES IDX 37 65 39 66 32 67 33 68 34 69 35 70 36 71 62 72 63 73 72 74
REMARK SMILES IDX 64 75 65 76 71 77 73 78 66 79 67 80 68 81 69 82 70 83 46 84
REMARK SMILES IDX 47 85 56 86 48 87 49 88 55 89 57 90 50 91 51 92 52 93 53 94
REMARK SMILES IDX 54 95
REMARK H PARENT 78 45 44 56
REMARK Flexibility Score: inf
ROOT
ATOM      1  C   UNL A   1      36.046  22.780  25.071  1.00  0.00     0.275 C 
ENDROOT
BRANCH   1   2
ATOM      2  C   UNL A   1      34.735  23.503  24.774  1.00  0.00     0.275 C 
BRANCH   2   3
ATOM      3  O   UNL A   1      34.292  24.250  25.926  1.00  0.00    -0.458 OA
BRANCH   3   4
ATOM      4  C   UNL A   1      32.943  24.367  26.050  1.00  0.00     0.338 C 
ATOM      5  O   UNL A   1      32.218  23.599  26.665  1.00  0.00    -0.246 OA
BRANCH   4   6
ATOM      6  C   UNL A   1      32.422  25.583  25.358  1.00  0.00     0.067 C 
ATOM      7  C   UNL A   1      31.585  25.417  24.306  1.00  0.00     0.024 C 
BRANCH   7   8
ATOM      8  C   UNL A   1      30.723  26.442  23.674  1.00  0.00    -0.025 A 
ATOM      9  C   UNL A   1      29.015  28.517  22.841  1.00  0.00     0.067 A 
ATOM     10  C   UNL A   1      30.362  28.538  22.485  1.00  0.00     0.021 A 
ATOM     11  C   UNL A   1      28.491  27.426  23.534  1.00  0.00     0.021 A 
ATOM     12  C   UNL A   1      31.194  27.484  22.867  1.00  0.00     0.009 A 
ATOM     13  C   UNL A   1      29.348  26.399  23.950  1.00  0.00     0.009 A 
BRANCH   9  14
ATOM     14  S   UNL A   1      28.047  29.945  22.429  1.00  0.00     0.175 S 
ATOM     15  C   UNL A   1      28.913  31.357  23.046  1.00  0.00     0.163 C 
ATOM     16  O   UNL A   1      26.807  29.836  23.174  1.00  0.00    -0.224 OA
ATOM     17  O   UNL A   1      28.055  30.050  20.983  1.00  0.00    -0.224 OA
ENDBRANCH   9  14
ENDBRANCH   7   8
BRANCH   6  18
ATOM     18  C   UNL A   1      32.694  26.897  25.970  1.00  0.00    -0.011 A 
ATOM     19  C   UNL A   1      31.804  27.404  26.934  1.00  0.00     0.012 A 
ATOM     20  C   UNL A   1      33.858  27.613  25.663  1.00  0.00     0.012 A 
ATOM     21  C   UNL A   1      32.103  28.585  27.616  1.00  0.00     0.040 A 
ATOM     22  C   UNL A   1      34.144  28.804  26.334  1.00  0.00     0.040 A 
ATOM     23  C   UNL A   1      33.271  29.271  27.311  1.00  0.00     0.123 A 
ATOM     24  F   UNL A   1      33.561  30.399  27.970  1.00  0.00    -0.207 F 
ENDBRANCH   6  18
ENDBRANCH   4   6
ENDBRANCH   3   4
ENDBRANCH   2   3
ENDBRANCH   1   2
BRANCH   1  25
ATOM     25  O   UNL A   1      37.084  23.741  25.333  1.00  0.00    -0.458 OA
BRANCH  25  26
ATOM     26  C   UNL A   1      38.280  23.232  25.709  1.00  0.00     0.338 C 
ATOM     27  O   UNL A   1      38.760  22.161  25.366  1.00  0.00    -0.246 OA
BRANCH  26  28
ATOM     28  C   UNL A   1      38.984  24.168  26.607  1.00  0.00     0.060 A 
ATOM     29  C   UNL A   1      38.747  24.145  27.977  1.00  0.00     0.016 A 
ATOM     30  C   UNL A   1      39.769  25.185  26.059  1.00  0.00     0.016 A 
ATOM     31  C   UNL A   1      39.178  25.208  28.773  1.00  0.00     0.010 A 
ATOM     32  C   UNL A   1      40.293  26.188  26.886  1.00  0.00     0.010 A 
ATOM     33  C   UNL A   1      39.954  26.253  28.248  1.00  0.00    -0.014 A 
BRANCH  33  34
ATOM     34  C   UNL A   1      40.346  27.431  29.092  1.00  0.00     0.031 A 
ATOM     35  C   UNL A   1      41.691  27.464  29.791  1.00  0.00     0.074 A 
ATOM     36  C   UNL A   1      39.531  28.499  29.228  1.00  0.00     0.049 A 
ATOM     37  N   UNL A   1      42.111  28.258  30.744  1.00  0.00    -0.248 NA
ATOM     38  C   UNL A   1      42.684  26.457  29.382  1.00  0.00     0.031 C 
ATOM     39  C   UNL A   1      38.224  28.662  28.591  1.00  0.00     0.029 A 
ATOM     40  N   UNL A   1      39.692  29.665  29.941  1.00  0.00    -0.354 N 
ATOM     41  C   UNL A   1      43.370  27.792  31.110  1.00  0.00     0.074 A 
ATOM     42  C   UNL A   1      43.657  26.655  30.262  1.00  0.00     0.031 C 
ATOM     43  C   UNL A   1      37.740  29.879  28.875  1.00  0.00     0.029 A 
ATOM     44  C   UNL A   1      38.638  30.539  29.814  1.00  0.00     0.049 A 
ATOM     45  H   UNL A   1      40.486  29.855  30.490  1.00  0.00     0.167 HD
ATOM     46  C   UNL A   1      44.207  28.263  32.068  1.00  0.00     0.037 A 
ATOM     47  C   UNL A   1      38.380  31.715  30.419  1.00  0.00     0.037 A 
ATOM     48  C   UNL A   1      43.970  29.458  32.840  1.00  0.00     0.049 A 
ATOM     49  C   UNL A   1      39.329  32.235  31.460  1.00  0.00     0.074 A 
ATOM     50  C   UNL A   1      44.768  30.022  33.822  1.00  0.00     0.029 A 
ATOM     51  N   UNL A   1      42.875  30.295  32.690  1.00  0.00    -0.354 N 
ATOM     52  N   UNL A   1      40.453  31.712  31.884  1.00  0.00    -0.248 NA
ATOM     53  C   UNL A   1      38.953  33.486  32.135  1.00  0.00     0.031 C 
ATOM     54  C   UNL A   1      44.145  31.188  34.280  1.00  0.00     0.029 A 
ATOM     55  C   UNL A   1      42.976  31.369  33.560  1.00  0.00     0.049 A 
ATOM     56  H   UNL A   1      42.135  30.149  32.057  1.00  0.00     0.167 HD
ATOM     57  C   UNL A   1      40.914  32.562  32.881  1.00  0.00     0.074 A 
ATOM     58  C   UNL A   1      39.964  33.651  32.978  1.00  0.00     0.031 C 
ATOM     59  C   UNL A   1      42.020  32.441  33.655  1.00  0.00     0.037 A 
BRANCH  46  60
ATOM     60  C   UNL A   1      45.446  27.467  32.376  1.00  0.00     0.058 A 
ATOM     61  C   UNL A   1      46.681  27.732  31.767  1.00  0.00     0.135 A 
ATOM     62  C   UNL A   1      45.401  26.451  33.347  1.00  0.00     0.135 A 
ATOM     63  F   UNL A   1      46.780  28.678  30.822  1.00  0.00    -0.206 F 
ATOM     64  C   UNL A   1      47.824  27.004  32.094  1.00  0.00     0.059 A 
ATOM     65  C   UNL A   1      46.534  25.728  33.707  1.00  0.00     0.059 A 
ATOM     66  F   UNL A   1      44.245  26.159  33.965  1.00  0.00    -0.206 F 
ATOM     67  C   UNL A   1      47.740  26.003  33.065  1.00  0.00     0.060 A 
BRANCH  67  68
ATOM     68  S   UNL A   1      49.228  25.072  33.489  1.00  0.00     0.124 S 
ATOM     69  O   UNL A   1      48.659  23.900  34.146  1.00  0.00    -0.237 OA
ATOM     70  O   UNL A   1      49.834  24.833  32.183  1.00  0.00    -0.237 OA
ATOM     71  O   UNL A   1      49.963  25.985  34.359  1.00  0.00    -0.744 OA
ENDBRANCH  67  68
ENDBRANCH  46  60
BRANCH  47  72
ATOM     72  C   UNL A   1      37.130  32.450  30.091  1.00  0.00     0.058 A 
ATOM     73  C   UNL A   1      35.930  32.168  30.759  1.00  0.00     0.135 A 
ATOM     74  C   UNL A   1      37.123  33.480  29.138  1.00  0.00     0.135 A 
ATOM     75  F   UNL A   1      35.882  31.179  31.664  1.00  0.00    -0.206 F 
ATOM     76  C   UNL A   1      34.767  32.889  30.503  1.00  0.00     0.059 A 
ATOM     77  C   UNL A   1      35.982  34.234  28.885  1.00  0.00     0.059 A 
ATOM     78  F   UNL A   1      38.249  33.794  28.479  1.00  0.00    -0.206 F 
ATOM     79  C   UNL A   1      34.807  33.928  29.570  1.00  0.00     0.060 A 
BRANCH  79  80
ATOM     80  S   UNL A   1      33.328  34.929  29.309  1.00  0.00     0.124 S 
ATOM     81  O   UNL A   1      33.904  36.200  28.885  1.00  0.00    -0.237 OA
ATOM     82  O   UNL A   1      32.616  34.176  28.280  1.00  0.00    -0.237 OA
ATOM     83  O   UNL A   1      32.691  34.930  30.624  1.00  0.00    -0.744 OA
ENDBRANCH  79  80
ENDBRANCH  47  72
BRANCH  59  84
ATOM     84  C   UNL A   1      42.263  33.520  34.672  1.00  0.00     0.058 A 
ATOM     85  C   UNL A   1      42.962  34.691  34.340  1.00  0.00     0.135 A 
ATOM     86  C   UNL A   1      41.774  33.393  35.981  1.00  0.00     0.135 A 
ATOM     87  F   UNL A   1      43.456  34.855  33.102  1.00  0.00    -0.206 F 
ATOM     88  C   UNL A   1      43.188  35.691  35.279  1.00  0.00     0.059 A 
ATOM     89  C   UNL A   1      41.973  34.390  36.932  1.00  0.00     0.059 A 
ATOM     90  F   UNL A   1      41.093  32.296  36.346  1.00  0.00    -0.206 F 
ATOM     91  C   UNL A   1      42.693  35.530  36.574  1.00  0.00     0.060 A 
BRANCH  91  92
ATOM     92  S   UNL A   1      42.981  36.840  37.783  1.00  0.00     0.124 S 
ATOM     93  O   UNL A   1      43.578  37.881  36.953  1.00  0.00    -0.237 OA
ATOM     94  O   UNL A   1      41.635  37.116  38.277  1.00  0.00    -0.237 OA
ATOM     95  O   UNL A   1      43.879  36.215  38.751  1.00  0.00    -0.744 OA
ENDBRANCH  91  92
ENDBRANCH  59  84
ENDBRANCH  33  34
ENDBRANCH  26  28
ENDBRANCH  25  26
ENDBRANCH   1  25
TORSDOF 17
ENDMDL
MODEL 3
REMARK VINA RESULT:     -11.4      4.618     10.932
REMARK SMILES CS(=O)(=O)c1ccc(/C=C(/C(=O)OCCOC(=O)c2ccc(-c3c4nc(c(-c5c(F)cc(S(=O)(=O)[O-])cc5F)c5ccc([nH]5)c(-c5c(F)cc(S(=O)(=O)[O-])cc5F)c5nc(c(-c6c(F)cc(S(=O)(=O)[O-])cc6F)c6ccc3[nH]6)C=C5)C=C4)cc2)c2ccc(F)cc2)cc1
REMARK SMILES IDX 15 1 14 2 13 3 11 4 12 5 10 6 9 7 8 8 5 9 6 10 93 11 7 12
REMARK SMILES IDX 92 13 2 14 1 15 3 16 4 17 85 18 86 19 91 20 87 21 90 22
REMARK SMILES IDX 88 23 89 24 16 25 17 26 18 27 19 28 20 29 84 30 21 31 83 32
REMARK SMILES IDX 22 33 23 34 24 35 77 36 25 37 82 38 76 39 78 40 26 41 81 42
REMARK SMILES IDX 75 43 74 44 27 46 61 47 40 48 60 49 41 50 44 51 59 52 79 53
REMARK SMILES IDX 42 54 43 55 58 57 80 58 45 59 28 60 29 61 38 62 30 63 31 64
REMARK SMILES IDX 37 65 39 66 32 67 33 68 34 69 35 70 36 71 62 72 63 73 72 74
REMARK SMILES IDX 64 75 65 76 71 77 73 78 66 79 67 80 68 81 69 82 70 83 46 84
REMARK SMILES IDX 47 85 56 86 48 87 49 88 55 89 57 90 50 91 51 92 52 93 53 94
REMARK SMILES IDX 54 95
REMARK H PARENT 78 45 44 56
REMARK Flexibility Score: inf
ROOT
ATOM      1  C   UNL A   1      40.219  20.545  26.186  1.00  0.00     0.275 C 
ENDROOT
BRANCH   1   2
ATOM      2  C   UNL A   1      41.729  20.389  26.031  1.00  0.00     0.275 C 
BRANCH   2   3
ATOM      3  O   UNL A   1      42.295  21.534  25.359  1.00  0.00    -0.458 OA
BRANCH   3   4
ATOM      4  C   UNL A   1      43.647  21.642  25.448  1.00  0.00     0.338 C 
ATOM      5  O   UNL A   1      44.451  20.784  25.117  1.00  0.00    -0.246 OA
BRANCH   4   6
ATOM      6  C   UNL A   1      44.067  22.971  25.986  1.00  0.00     0.067 C 
ATOM      7  C   UNL A   1      44.327  23.969  25.109  1.00  0.00     0.024 C 
BRANCH   7   8
ATOM      8  C   UNL A   1      44.457  25.414  25.405  1.00  0.00    -0.025 A 
ATOM      9  C   UNL A   1      44.429  28.099  26.247  1.00  0.00     0.067 A 
ATOM     10  C   UNL A   1      45.579  27.329  26.410  1.00  0.00     0.021 A 
ATOM     11  C   UNL A   1      43.320  27.569  25.588  1.00  0.00     0.021 A 
ATOM     12  C   UNL A   1      45.599  26.010  25.952  1.00  0.00     0.009 A 
ATOM     13  C   UNL A   1      43.338  26.230  25.176  1.00  0.00     0.009 A 
BRANCH   9  14
ATOM     14  S   UNL A   1      44.434  29.722  26.962  1.00  0.00     0.175 S 
ATOM     15  C   UNL A   1      45.436  29.648  28.416  1.00  0.00     0.163 C 
ATOM     16  O   UNL A   1      43.073  29.994  27.386  1.00  0.00    -0.224 OA
ATOM     17  O   UNL A   1      45.122  30.587  26.025  1.00  0.00    -0.224 OA
ENDBRANCH   9  14
ENDBRANCH   7   8
BRANCH   6  18
ATOM     18  C   UNL A   1      43.994  23.179  27.445  1.00  0.00    -0.011 A 
ATOM     19  C   UNL A   1      42.751  23.075  28.093  1.00  0.00     0.012 A 
ATOM     20  C   UNL A   1      45.150  23.408  28.204  1.00  0.00     0.012 A 
ATOM     21  C   UNL A   1      42.674  23.146  29.485  1.00  0.00     0.040 A 
ATOM     22  C   UNL A   1      45.066  23.498  29.594  1.00  0.00     0.040 A 
ATOM     23  C   UNL A   1      43.833  23.354  30.222  1.00  0.00     0.123 A 
ATOM     24  F   UNL A   1      43.760  23.416  31.557  1.00  0.00    -0.207 F 
ENDBRANCH   6  18
ENDBRANCH   4   6
ENDBRANCH   3   4
ENDBRANCH   2   3
ENDBRANCH   1   2
BRANCH   1  25
ATOM     25  O   UNL A   1      39.924  21.764  26.890  1.00  0.00    -0.458 OA
BRANCH  25  26
ATOM     26  C   UNL A   1      39.153  22.658  26.229  1.00  0.00     0.338 C 
ATOM     27  O   UNL A   1      38.431  22.432  25.269  1.00  0.00    -0.246 OA
BRANCH  26  28
ATOM     28  C   UNL A   1      39.270  23.997  26.840  1.00  0.00     0.060 A 
ATOM     29  C   UNL A   1      40.049  24.980  26.240  1.00  0.00     0.016 A 
ATOM     30  C   UNL A   1      38.724  24.224  28.105  1.00  0.00     0.016 A 
ATOM     31  C   UNL A   1      40.393  26.126  26.960  1.00  0.00     0.010 A 
ATOM     32  C   UNL A   1      38.982  25.428  28.774  1.00  0.00     0.010 A 
ATOM     33  C   UNL A   1      39.874  26.375  28.241  1.00  0.00    -0.014 A 
BRANCH  33  34
ATOM     34  C   UNL A   1      40.310  27.568  29.039  1.00  0.00     0.031 A 
ATOM     35  C   UNL A   1      41.692  27.616  29.661  1.00  0.00     0.074 A 
ATOM     36  C   UNL A   1      39.501  28.638  29.199  1.00  0.00     0.049 A 
ATOM     37  N   UNL A   1      42.162  28.430  30.574  1.00  0.00    -0.248 NA
ATOM     38  C   UNL A   1      42.662  26.603  29.216  1.00  0.00     0.031 C 
ATOM     39  C   UNL A   1      38.161  28.787  28.633  1.00  0.00     0.029 A 
ATOM     40  N   UNL A   1      39.699  29.818  29.880  1.00  0.00    -0.354 N 
ATOM     41  C   UNL A   1      43.441  27.972  30.877  1.00  0.00     0.074 A 
ATOM     42  C   UNL A   1      43.682  26.819  30.037  1.00  0.00     0.031 C 
ATOM     43  C   UNL A   1      37.691  30.009  28.920  1.00  0.00     0.029 A 
ATOM     44  C   UNL A   1      38.638  30.689  29.795  1.00  0.00     0.049 A 
ATOM     45  H   UNL A   1      40.522  30.020  30.380  1.00  0.00     0.167 HD
ATOM     46  C   UNL A   1      44.329  28.462  31.778  1.00  0.00     0.037 A 
ATOM     47  C   UNL A   1      38.412  31.876  30.391  1.00  0.00     0.037 A 
ATOM     48  C   UNL A   1      44.133  29.671  32.539  1.00  0.00     0.049 A 
ATOM     49  C   UNL A   1      39.416  32.417  31.367  1.00  0.00     0.074 A 
ATOM     50  C   UNL A   1      44.983  30.255  33.464  1.00  0.00     0.029 A 
ATOM     51  N   UNL A   1      43.030  30.504  32.434  1.00  0.00    -0.354 N 
ATOM     52  N   UNL A   1      40.563  31.903  31.737  1.00  0.00    -0.248 NA
ATOM     53  C   UNL A   1      39.076  33.680  32.038  1.00  0.00     0.031 C 
ATOM     54  C   UNL A   1      44.384  31.429  33.934  1.00  0.00     0.029 A 
ATOM     55  C   UNL A   1      43.176  31.595  33.277  1.00  0.00     0.049 A 
ATOM     56  H   UNL A   1      42.256  30.346  31.846  1.00  0.00     0.167 HD
ATOM     57  C   UNL A   1      41.078  32.772  32.691  1.00  0.00     0.074 A 
ATOM     58  C   UNL A   1      40.132  33.862  32.819  1.00  0.00     0.031 C 
ATOM     59  C   UNL A   1      42.225  32.668  33.405  1.00  0.00     0.037 A 
BRANCH  46  60
ATOM     60  C   UNL A   1      45.585  27.673  32.032  1.00  0.00     0.058 A 
ATOM     61  C   UNL A   1      46.848  28.115  31.614  1.00  0.00     0.135 A 
ATOM     62  C   UNL A   1      45.521  26.473  32.761  1.00  0.00     0.135 A 
ATOM     63  F   UNL A   1      46.967  29.244  30.900  1.00  0.00    -0.206 F 
ATOM     64  C   UNL A   1      48.003  27.384  31.891  1.00  0.00     0.059 A 
ATOM     65  C   UNL A   1      46.663  25.739  33.070  1.00  0.00     0.059 A 
ATOM     66  F   UNL A   1      44.337  26.005  33.190  1.00  0.00    -0.206 F 
ATOM     67  C   UNL A   1      47.899  26.197  32.619  1.00  0.00     0.060 A 
BRANCH  67  68
ATOM     68  S   UNL A   1      49.401  25.262  32.982  1.00  0.00     0.124 S 
ATOM     69  O   UNL A   1      48.872  24.162  33.781  1.00  0.00    -0.237 OA
ATOM     70  O   UNL A   1      49.879  24.903  31.650  1.00  0.00    -0.237 OA
ATOM     71  O   UNL A   1      50.232  26.221  33.704  1.00  0.00    -0.744 OA
ENDBRANCH  67  68
ENDBRANCH  46  60
BRANCH  47  72
ATOM     72  C   UNL A   1      37.144  32.603  30.119  1.00  0.00     0.058 A 
ATOM     73  C   UNL A   1      35.991  32.354  30.878  1.00  0.00     0.135 A 
ATOM     74  C   UNL A   1      37.074  33.594  29.127  1.00  0.00     0.135 A 
ATOM     75  F   UNL A   1      36.003  31.402  31.824  1.00  0.00    -0.206 F 
ATOM     76  C   UNL A   1      34.816  33.070  30.672  1.00  0.00     0.059 A 
ATOM     77  C   UNL A   1      35.921  34.343  28.922  1.00  0.00     0.059 A 
ATOM     78  F   UNL A   1      38.153  33.875  28.381  1.00  0.00    -0.206 F 
ATOM     79  C   UNL A   1      34.794  34.070  29.698  1.00  0.00     0.060 A 
BRANCH  79  80
ATOM     80  S   UNL A   1      33.303  35.067  29.497  1.00  0.00     0.124 S 
ATOM     81  O   UNL A   1      32.603  34.340  28.444  1.00  0.00    -0.237 OA
ATOM     82  O   UNL A   1      32.700  35.002  30.825  1.00  0.00    -0.237 OA
ATOM     83  O   UNL A   1      33.827  36.378  29.121  1.00  0.00    -0.744 OA
ENDBRANCH  79  80
ENDBRANCH  47  72
BRANCH  59  84
ATOM     84  C   UNL A   1      42.523  33.766  34.385  1.00  0.00     0.058 A 
ATOM     85  C   UNL A   1      41.933  33.788  35.658  1.00  0.00     0.135 A 
ATOM     86  C   UNL A   1      43.423  34.791  34.058  1.00  0.00     0.135 A 
ATOM     87  F   UNL A   1      41.059  32.832  36.014  1.00  0.00    -0.206 F 
ATOM     88  C   UNL A   1      42.208  34.804  36.567  1.00  0.00     0.059 A 
ATOM     89  C   UNL A   1      43.727  35.807  34.960  1.00  0.00     0.059 A 
ATOM     90  F   UNL A   1      44.020  34.811  32.856  1.00  0.00    -0.206 F 
ATOM     91  C   UNL A   1      43.104  35.812  36.207  1.00  0.00     0.060 A 
BRANCH  91  92
ATOM     92  S   UNL A   1      43.464  37.119  37.399  1.00  0.00     0.124 S 
ATOM     93  O   UNL A   1      42.238  37.141  38.191  1.00  0.00    -0.237 OA
ATOM     94  O   UNL A   1      44.650  36.608  38.080  1.00  0.00    -0.237 OA
ATOM     95  O   UNL A   1      43.690  38.291  36.558  1.00  0.00    -0.744 OA
ENDBRANCH  91  92
ENDBRANCH  59  84
ENDBRANCH  33  34
ENDBRANCH  26  28
ENDBRANCH  25  26
ENDBRANCH   1  25
TORSDOF 17
ENDMDL
