MODEL 1
REMARK VINA RESULT:     -12.2      0.000      0.000
REMARK SMILES O=C(OCCOC(=O)c1ccc(-c2c3nc(c(-c4c(F)cc(S(=O)(=O)[O-])cc4F)c4ccc([nH]4)c(-c4c(F)cc(S(=O)(=O)[O-])cc4F)c4nc(c(-c5c(F)cc(S(=O)(=O)[O-])cc5F)c5ccc2[nH]5)C=C4)C=C3)cc1)C1=Cc2cc(Cl)cc(Cl)c2O[C@@H]1C(F)(F)F
REMARK SMILES IDX 5 1 4 2 3 3 2 4 1 5 75 6 76 7 86 8 77 9 85 10 78 11 84 12
REMARK SMILES IDX 79 13 82 14 80 15 81 16 83 17 87 18 88 19 89 20 90 21 6 22
REMARK SMILES IDX 7 23 8 24 9 25 10 26 74 27 11 28 73 29 12 30 13 31 14 32
REMARK SMILES IDX 67 33 15 34 72 35 66 36 68 37 16 38 71 39 65 40 64 41 17 43
REMARK SMILES IDX 51 44 30 45 50 46 31 47 34 48 49 49 69 50 32 51 33 52 48 54
REMARK SMILES IDX 70 55 35 56 18 57 19 58 28 59 20 60 21 61 27 62 29 63 22 64
REMARK SMILES IDX 23 65 24 66 25 67 26 68 52 69 53 70 62 71 54 72 55 73 61 74
REMARK SMILES IDX 63 75 56 76 57 77 58 78 59 79 60 80 36 81 37 82 46 83 38 84
REMARK SMILES IDX 39 85 45 86 47 87 40 88 41 89 42 90 43 91 44 92
REMARK H PARENT 68 42 34 53
REMARK Flexibility Score: inf
ROOT
ATOM      1  C   UNL A   1      33.030  32.562  27.365  1.00  0.00     0.275 C 
ENDROOT
BRANCH   1   2
ATOM      2  C   UNL A   1      33.246  34.228  28.727  1.00  0.00     0.275 C 
BRANCH   2   3
ATOM      3  O   UNL A   1      33.680  34.150  30.220  1.00  0.00    -0.459 OA
BRANCH   3   4
ATOM      4  C   UNL A   1      35.001  34.009  30.379  1.00  0.00     0.338 C 
ATOM      5  O   UNL A   1      35.884  33.975  29.561  1.00  0.00    -0.246 OA
BRANCH   4   6
ATOM      6  C   UNL A   1      34.920  33.580  31.752  1.00  0.00     0.087 C 
ATOM      7  C   UNL A   1      35.566  32.272  31.952  1.00  0.00     0.027 C 
ATOM      8  C   UNL A   1      35.512  35.246  32.528  1.00  0.00     0.316 C 
ATOM      9  C   UNL A   1      37.129  32.066  32.824  1.00  0.00     0.020 A 
ATOM     10  O   UNL A   1      37.219  35.050  33.408  1.00  0.00    -0.474 OA
ATOM     11  C   UNL A   1      37.707  30.827  32.829  1.00  0.00     0.032 A 
ATOM     12  C   UNL A   1      38.017  33.412  33.472  1.00  0.00     0.146 A 
ATOM     13  C   UNL A   1      38.999  30.784  33.376  1.00  0.00     0.043 A 
ATOM     14  C   UNL A   1      39.278  33.261  33.984  1.00  0.00     0.085 A 
ATOM     15  Cl  UNL A   1      39.781  29.233  33.375  1.00  0.00    -0.084 Cl
ATOM     16  C   UNL A   1      39.741  31.922  33.913  1.00  0.00     0.045 A 
ATOM     17  Cl  UNL A   1      40.252  34.509  34.594  1.00  0.00    -0.080 Cl
BRANCH   8  18
ATOM     18  C   UNL A   1      34.092  35.739  33.011  1.00  0.00     0.430 C 
ATOM     19  F   UNL A   1      33.301  34.719  33.361  1.00  0.00    -0.167 F 
ATOM     20  F   UNL A   1      34.264  36.437  34.177  1.00  0.00    -0.167 F 
ATOM     21  F   UNL A   1      33.446  36.618  32.226  1.00  0.00    -0.167 F 
ENDBRANCH   8  18
ENDBRANCH   4   6
ENDBRANCH   3   4
ENDBRANCH   2   3
ENDBRANCH   1   2
BRANCH   1  22
ATOM     22  O   UNL A   1      34.106  31.221  27.239  1.00  0.00    -0.458 OA
BRANCH  22  23
ATOM     23  C   UNL A   1      34.388  29.970  27.735  1.00  0.00     0.338 C 
ATOM     24  O   UNL A   1      33.820  28.910  27.556  1.00  0.00    -0.246 OA
BRANCH  23  25
ATOM     25  C   UNL A   1      35.789  30.060  28.238  1.00  0.00     0.060 A 
ATOM     26  C   UNL A   1      36.064  29.633  29.549  1.00  0.00     0.016 A 
ATOM     27  C   UNL A   1      36.821  30.180  27.312  1.00  0.00     0.016 A 
ATOM     28  C   UNL A   1      37.315  29.067  29.843  1.00  0.00     0.010 A 
ATOM     29  C   UNL A   1      38.074  29.661  27.623  1.00  0.00     0.010 A 
ATOM     30  C   UNL A   1      38.308  29.026  28.855  1.00  0.00    -0.014 A 
BRANCH  30  31
ATOM     31  C   UNL A   1      39.699  28.601  29.147  1.00  0.00     0.031 A 
ATOM     32  C   UNL A   1      40.602  29.691  29.629  1.00  0.00     0.074 A 
ATOM     33  C   UNL A   1      40.191  27.386  28.824  1.00  0.00     0.049 A 
ATOM     34  N   UNL A   1      41.902  29.734  29.691  1.00  0.00    -0.248 NA
ATOM     35  C   UNL A   1      39.926  30.940  30.026  1.00  0.00     0.031 C 
ATOM     36  C   UNL A   1      39.415  26.246  28.335  1.00  0.00     0.029 A 
ATOM     37  N   UNL A   1      41.488  26.925  28.820  1.00  0.00    -0.354 N 
ATOM     38  C   UNL A   1      42.199  31.028  30.093  1.00  0.00     0.074 A 
ATOM     39  C   UNL A   1      40.952  31.748  30.202  1.00  0.00     0.031 C 
ATOM     40  C   UNL A   1      40.255  25.229  28.055  1.00  0.00     0.029 A 
ATOM     41  C   UNL A   1      41.633  25.652  28.310  1.00  0.00     0.049 A 
ATOM     42  H   UNL A   1      42.248  27.458  29.153  1.00  0.00     0.167 HD
ATOM     43  C   UNL A   1      43.405  31.574  30.356  1.00  0.00     0.037 A 
ATOM     44  C   UNL A   1      42.750  24.932  28.062  1.00  0.00     0.037 A 
ATOM     45  C   UNL A   1      44.637  30.860  30.218  1.00  0.00     0.049 A 
ATOM     46  C   UNL A   1      44.100  25.558  28.355  1.00  0.00     0.074 A 
ATOM     47  C   UNL A   1      45.921  31.301  30.468  1.00  0.00     0.029 A 
ATOM     48  N   UNL A   1      44.734  29.547  29.775  1.00  0.00    -0.354 N 
ATOM     49  N   UNL A   1      44.373  26.767  28.793  1.00  0.00    -0.248 NA
ATOM     50  C   UNL A   1      45.293  24.729  28.123  1.00  0.00     0.031 C 
ATOM     51  C   UNL A   1      46.801  30.267  30.138  1.00  0.00     0.029 A 
ATOM     52  C   UNL A   1      46.060  29.161  29.738  1.00  0.00     0.049 A 
ATOM     53  H   UNL A   1      43.972  28.978  29.524  1.00  0.00     0.167 HD
ATOM     54  C   UNL A   1      45.758  26.827  28.929  1.00  0.00     0.074 A 
ATOM     55  C   UNL A   1      46.270  25.537  28.518  1.00  0.00     0.031 C 
ATOM     56  C   UNL A   1      46.535  27.853  29.360  1.00  0.00     0.037 A 
BRANCH  43  57
ATOM     57  C   UNL A   1      43.398  33.017  30.768  1.00  0.00     0.058 A 
ATOM     58  C   UNL A   1      43.635  34.044  29.838  1.00  0.00     0.135 A 
ATOM     59  C   UNL A   1      43.288  33.366  32.121  1.00  0.00     0.135 A 
ATOM     60  F   UNL A   1      43.788  33.756  28.534  1.00  0.00    -0.206 F 
ATOM     61  C   UNL A   1      43.843  35.355  30.245  1.00  0.00     0.059 A 
ATOM     62  C   UNL A   1      43.451  34.680  32.547  1.00  0.00     0.059 A 
ATOM     63  F   UNL A   1      43.073  32.422  33.052  1.00  0.00    -0.206 F 
ATOM     64  C   UNL A   1      43.763  35.660  31.605  1.00  0.00     0.060 A 
BRANCH  64  65
ATOM     65  S   UNL A   1      44.103  37.352  32.126  1.00  0.00     0.124 S 
ATOM     66  O   UNL A   1      45.536  37.290  32.394  1.00  0.00    -0.237 OA
ATOM     67  O   UNL A   1      43.712  38.126  30.952  1.00  0.00    -0.237 OA
ATOM     68  O   UNL A   1      43.251  37.522  33.298  1.00  0.00    -0.744 OA
ENDBRANCH  64  65
ENDBRANCH  43  57
BRANCH  44  69
ATOM     69  C   UNL A   1      42.665  23.541  27.521  1.00  0.00     0.058 A 
ATOM     70  C   UNL A   1      42.460  22.444  28.376  1.00  0.00     0.135 A 
ATOM     71  C   UNL A   1      42.795  23.269  26.150  1.00  0.00     0.135 A 
ATOM     72  F   UNL A   1      42.358  22.639  29.701  1.00  0.00    -0.206 F 
ATOM     73  C   UNL A   1      42.388  21.137  27.896  1.00  0.00     0.059 A 
ATOM     74  C   UNL A   1      42.705  21.972  25.643  1.00  0.00     0.059 A 
ATOM     75  F   UNL A   1      42.999  24.272  25.283  1.00  0.00    -0.206 F 
ATOM     76  C   UNL A   1      42.503  20.910  26.524  1.00  0.00     0.060 A 
BRANCH  76  77
ATOM     77  S   UNL A   1      42.332  19.218  25.908  1.00  0.00     0.124 S 
ATOM     78  O   UNL A   1      40.892  19.120  25.698  1.00  0.00    -0.237 OA
ATOM     79  O   UNL A   1      43.152  19.249  24.701  1.00  0.00    -0.237 OA
ATOM     80  O   UNL A   1      42.865  18.407  26.998  1.00  0.00    -0.744 OA
ENDBRANCH  76  77
ENDBRANCH  44  69
BRANCH  56  81
ATOM     81  C   UNL A   1      48.016  27.624  29.492  1.00  0.00     0.058 A 
ATOM     82  C   UNL A   1      48.919  27.991  28.485  1.00  0.00     0.135 A 
ATOM     83  C   UNL A   1      48.542  27.177  30.717  1.00  0.00     0.135 A 
ATOM     84  F   UNL A   1      48.468  28.423  27.296  1.00  0.00    -0.206 F 
ATOM     85  C   UNL A   1      50.295  27.931  28.690  1.00  0.00     0.059 A 
ATOM     86  C   UNL A   1      49.910  27.135  30.953  1.00  0.00     0.059 A 
ATOM     87  F   UNL A   1      47.718  26.828  31.718  1.00  0.00    -0.206 F 
ATOM     88  C   UNL A   1      50.780  27.517  29.933  1.00  0.00     0.060 A 
BRANCH  88  89
ATOM     89  S   UNL A   1      52.562  27.538  30.218  1.00  0.00     0.124 S 
ATOM     90  O   UNL A   1      52.984  26.314  29.547  1.00  0.00    -0.237 OA
ATOM     91  O   UNL A   1      52.965  28.786  29.576  1.00  0.00    -0.237 OA
ATOM     92  O   UNL A   1      52.675  27.527  31.674  1.00  0.00    -0.744 OA
ENDBRANCH  88  89
ENDBRANCH  56  81
ENDBRANCH  30  31
ENDBRANCH  23  25
ENDBRANCH  22  23
ENDBRANCH   1  22
TORSDOF 15
ENDMDL
MODEL 2
REMARK VINA RESULT:     -12.0      5.698     11.700
REMARK SMILES O=C(OCCOC(=O)c1ccc(-c2c3nc(c(-c4c(F)cc(S(=O)(=O)[O-])cc4F)c4ccc([nH]4)c(-c4c(F)cc(S(=O)(=O)[O-])cc4F)c4nc(c(-c5c(F)cc(S(=O)(=O)[O-])cc5F)c5ccc2[nH]5)C=C4)C=C3)cc1)C1=Cc2cc(Cl)cc(Cl)c2O[C@@H]1C(F)(F)F
REMARK SMILES IDX 5 1 4 2 3 3 2 4 1 5 75 6 76 7 86 8 77 9 85 10 78 11 84 12
REMARK SMILES IDX 79 13 82 14 80 15 81 16 83 17 87 18 88 19 89 20 90 21 6 22
REMARK SMILES IDX 7 23 8 24 9 25 10 26 74 27 11 28 73 29 12 30 13 31 14 32
REMARK SMILES IDX 67 33 15 34 72 35 66 36 68 37 16 38 71 39 65 40 64 41 17 43
REMARK SMILES IDX 51 44 30 45 50 46 31 47 34 48 49 49 69 50 32 51 33 52 48 54
REMARK SMILES IDX 70 55 35 56 18 57 19 58 28 59 20 60 21 61 27 62 29 63 22 64
REMARK SMILES IDX 23 65 24 66 25 67 26 68 52 69 53 70 62 71 54 72 55 73 61 74
REMARK SMILES IDX 63 75 56 76 57 77 58 78 59 79 60 80 36 81 37 82 46 83 38 84
REMARK SMILES IDX 39 85 45 86 47 87 40 88 41 89 42 90 43 91 44 92
REMARK H PARENT 68 42 34 53
REMARK Flexibility Score: inf
ROOT
ATOM      1  C   UNL A   1      39.427  23.019  26.545  1.00  0.00     0.275 C 
ENDROOT
BRANCH   1   2
ATOM      2  C   UNL A   1      37.621  23.046  25.356  1.00  0.00     0.275 C 
BRANCH   2   3
ATOM      3  O   UNL A   1      36.162  22.954  25.890  1.00  0.00    -0.459 OA
BRANCH   3   4
ATOM      4  C   UNL A   1      35.622  21.738  25.748  1.00  0.00     0.338 C 
ATOM      5  O   UNL A   1      36.121  20.704  25.385  1.00  0.00    -0.246 OA
BRANCH   4   6
ATOM      6  C   UNL A   1      34.258  22.191  25.831  1.00  0.00     0.087 C 
ATOM      7  C   UNL A   1      34.176  23.582  26.307  1.00  0.00     0.027 C 
ATOM      8  C   UNL A   1      33.725  21.579  24.080  1.00  0.00     0.316 C 
ATOM      9  C   UNL A   1      33.721  24.964  25.244  1.00  0.00     0.020 A 
ATOM     10  O   UNL A   1      33.299  23.055  22.912  1.00  0.00    -0.474 OA
ATOM     11  C   UNL A   1      33.813  26.229  25.754  1.00  0.00     0.032 A 
ATOM     12  C   UNL A   1      33.374  24.761  23.553  1.00  0.00     0.146 A 
ATOM     13  C   UNL A   1      33.610  27.255  24.819  1.00  0.00     0.043 A 
ATOM     14  C   UNL A   1      33.192  25.835  22.723  1.00  0.00     0.085 A 
ATOM     15  Cl  UNL A   1      33.747  28.878  25.421  1.00  0.00    -0.084 Cl
ATOM     16  C   UNL A   1      33.324  27.076  23.398  1.00  0.00     0.045 A 
ATOM     17  Cl  UNL A   1      32.900  25.755  21.054  1.00  0.00    -0.080 Cl
BRANCH   8  18
ATOM     18  C   UNL A   1      32.918  20.312  24.566  1.00  0.00     0.430 C 
ATOM     19  F   UNL A   1      31.787  20.650  25.195  1.00  0.00    -0.167 F 
ATOM     20  F   UNL A   1      32.487  19.636  23.455  1.00  0.00    -0.167 F 
ATOM     21  F   UNL A   1      33.597  19.372  25.245  1.00  0.00    -0.167 F 
ENDBRANCH   8  18
ENDBRANCH   4   6
ENDBRANCH   3   4
ENDBRANCH   2   3
ENDBRANCH   1   2
BRANCH   1  22
ATOM     22  O   UNL A   1      40.472  24.363  26.817  1.00  0.00    -0.458 OA
BRANCH  22  23
ATOM     23  C   UNL A   1      40.852  25.592  26.331  1.00  0.00     0.338 C 
ATOM     24  O   UNL A   1      41.224  25.914  25.219  1.00  0.00    -0.246 OA
BRANCH  23  25
ATOM     25  C   UNL A   1      40.341  26.577  27.328  1.00  0.00     0.060 A 
ATOM     26  C   UNL A   1      39.375  26.154  28.258  1.00  0.00     0.016 A 
ATOM     27  C   UNL A   1      41.087  27.727  27.569  1.00  0.00     0.016 A 
ATOM     28  C   UNL A   1      39.357  26.724  29.542  1.00  0.00     0.010 A 
ATOM     29  C   UNL A   1      41.031  28.319  28.828  1.00  0.00     0.010 A 
ATOM     30  C   UNL A   1      40.232  27.775  29.848  1.00  0.00    -0.014 A 
BRANCH  30  31
ATOM     31  C   UNL A   1      40.148  28.531  31.121  1.00  0.00     0.031 A 
ATOM     32  C   UNL A   1      39.138  29.634  31.131  1.00  0.00     0.074 A 
ATOM     33  C   UNL A   1      41.032  28.391  32.131  1.00  0.00     0.049 A 
ATOM     34  N   UNL A   1      39.013  30.645  31.942  1.00  0.00    -0.248 NA
ATOM     35  C   UNL A   1      38.181  29.623  30.011  1.00  0.00     0.031 C 
ATOM     36  C   UNL A   1      42.069  27.363  32.232  1.00  0.00     0.029 A 
ATOM     37  N   UNL A   1      41.222  29.160  33.258  1.00  0.00    -0.354 N 
ATOM     38  C   UNL A   1      37.991  31.412  31.403  1.00  0.00     0.074 A 
ATOM     39  C   UNL A   1      37.574  30.781  30.174  1.00  0.00     0.031 C 
ATOM     40  C   UNL A   1      42.800  27.582  33.344  1.00  0.00     0.029 A 
ATOM     41  C   UNL A   1      42.310  28.785  34.019  1.00  0.00     0.049 A 
ATOM     42  H   UNL A   1      40.634  29.912  33.500  1.00  0.00     0.167 HD
ATOM     43  C   UNL A   1      37.437  32.543  31.891  1.00  0.00     0.037 A 
ATOM     44  C   UNL A   1      42.850  29.364  35.115  1.00  0.00     0.037 A 
ATOM     45  C   UNL A   1      37.875  33.176  33.096  1.00  0.00     0.049 A 
ATOM     46  C   UNL A   1      42.224  30.637  35.649  1.00  0.00     0.074 A 
ATOM     47  C   UNL A   1      37.385  34.317  33.698  1.00  0.00     0.029 A 
ATOM     48  N   UNL A   1      38.927  32.719  33.880  1.00  0.00    -0.354 N 
ATOM     49  N   UNL A   1      41.216  31.328  35.167  1.00  0.00    -0.248 NA
ATOM     50  C   UNL A   1      42.804  31.213  36.873  1.00  0.00     0.031 C 
ATOM     51  C   UNL A   1      38.167  34.575  34.827  1.00  0.00     0.029 A 
ATOM     52  C   UNL A   1      39.107  33.561  34.960  1.00  0.00     0.049 A 
ATOM     53  H   UNL A   1      39.466  31.917  33.693  1.00  0.00     0.167 HD
ATOM     54  C   UNL A   1      41.015  32.389  36.047  1.00  0.00     0.074 A 
ATOM     55  C   UNL A   1      42.012  32.256  37.089  1.00  0.00     0.031 C 
ATOM     56  C   UNL A   1      40.087  33.379  36.003  1.00  0.00     0.037 A 
BRANCH  43  57
ATOM     57  C   UNL A   1      36.340  33.147  31.063  1.00  0.00     0.058 A 
ATOM     58  C   UNL A   1      36.620  33.828  29.866  1.00  0.00     0.135 A 
ATOM     59  C   UNL A   1      35.022  33.163  31.538  1.00  0.00     0.135 A 
ATOM     60  F   UNL A   1      37.876  33.877  29.390  1.00  0.00    -0.206 F 
ATOM     61  C   UNL A   1      35.646  34.571  29.211  1.00  0.00     0.059 A 
ATOM     62  C   UNL A   1      34.021  33.866  30.876  1.00  0.00     0.059 A 
ATOM     63  F   UNL A   1      34.704  32.538  32.683  1.00  0.00    -0.206 F 
ATOM     64  C   UNL A   1      34.351  34.594  29.733  1.00  0.00     0.060 A 
BRANCH  64  65
ATOM     65  S   UNL A   1      33.113  35.616  28.913  1.00  0.00     0.124 S 
ATOM     66  O   UNL A   1      33.948  36.636  28.286  1.00  0.00    -0.237 OA
ATOM     67  O   UNL A   1      32.479  34.669  28.000  1.00  0.00    -0.237 OA
ATOM     68  O   UNL A   1      32.275  36.079  30.013  1.00  0.00    -0.744 OA
ENDBRANCH  64  65
ENDBRANCH  43  57
BRANCH  44  69
ATOM     69  C   UNL A   1      44.033  28.760  35.800  1.00  0.00     0.058 A 
ATOM     70  C   UNL A   1      43.876  27.723  36.737  1.00  0.00     0.135 A 
ATOM     71  C   UNL A   1      45.342  29.202  35.550  1.00  0.00     0.135 A 
ATOM     72  F   UNL A   1      42.646  27.278  37.039  1.00  0.00    -0.206 F 
ATOM     73  C   UNL A   1      44.963  27.152  37.396  1.00  0.00     0.059 A 
ATOM     74  C   UNL A   1      46.448  28.632  36.181  1.00  0.00     0.059 A 
ATOM     75  F   UNL A   1      45.559  30.193  34.671  1.00  0.00    -0.206 F 
ATOM     76  C   UNL A   1      46.249  27.607  37.105  1.00  0.00     0.060 A 
BRANCH  76  77
ATOM     77  S   UNL A   1      47.656  26.805  37.911  1.00  0.00     0.124 S 
ATOM     78  O   UNL A   1      48.230  27.906  38.675  1.00  0.00    -0.237 OA
ATOM     79  O   UNL A   1      47.004  25.759  38.693  1.00  0.00    -0.237 OA
ATOM     80  O   UNL A   1      48.461  26.330  36.790  1.00  0.00    -0.744 OA
ENDBRANCH  76  77
ENDBRANCH  44  69
BRANCH  56  81
ATOM     81  C   UNL A   1      40.034  34.363  37.139  1.00  0.00     0.058 A 
ATOM     82  C   UNL A   1      40.746  35.571  37.110  1.00  0.00     0.135 A 
ATOM     83  C   UNL A   1      39.129  34.157  38.194  1.00  0.00     0.135 A 
ATOM     84  F   UNL A   1      41.624  35.816  36.125  1.00  0.00    -0.206 F 
ATOM     85  C   UNL A   1      40.555  36.546  38.086  1.00  0.00     0.059 A 
ATOM     86  C   UNL A   1      38.903  35.127  39.163  1.00  0.00     0.059 A 
ATOM     87  F   UNL A   1      38.413  33.023  38.258  1.00  0.00    -0.206 F 
ATOM     88  C   UNL A   1      39.620  36.320  39.100  1.00  0.00     0.060 A 
BRANCH  88  89
ATOM     89  S   UNL A   1      39.310  37.632  40.300  1.00  0.00     0.124 S 
ATOM     90  O   UNL A   1      38.210  38.355  39.672  1.00  0.00    -0.237 OA
ATOM     91  O   UNL A   1      38.969  36.879  41.503  1.00  0.00    -0.237 OA
ATOM     92  O   UNL A   1      40.581  38.349  40.358  1.00  0.00    -0.744 OA
ENDBRANCH  88  89
ENDBRANCH  56  81
ENDBRANCH  30  31
ENDBRANCH  23  25
ENDBRANCH  22  23
ENDBRANCH   1  22
TORSDOF 15
ENDMDL
MODEL 3
REMARK VINA RESULT:     -11.9      5.451     11.198
REMARK SMILES O=C(OCCOC(=O)c1ccc(-c2c3nc(c(-c4c(F)cc(S(=O)(=O)[O-])cc4F)c4ccc([nH]4)c(-c4c(F)cc(S(=O)(=O)[O-])cc4F)c4nc(c(-c5c(F)cc(S(=O)(=O)[O-])cc5F)c5ccc2[nH]5)C=C4)C=C3)cc1)C1=Cc2cc(Cl)cc(Cl)c2O[C@@H]1C(F)(F)F
REMARK SMILES IDX 5 1 4 2 3 3 2 4 1 5 75 6 76 7 86 8 77 9 85 10 78 11 84 12
REMARK SMILES IDX 79 13 82 14 80 15 81 16 83 17 87 18 88 19 89 20 90 21 6 22
REMARK SMILES IDX 7 23 8 24 9 25 10 26 74 27 11 28 73 29 12 30 13 31 14 32
REMARK SMILES IDX 67 33 15 34 72 35 66 36 68 37 16 38 71 39 65 40 64 41 17 43
REMARK SMILES IDX 51 44 30 45 50 46 31 47 34 48 49 49 69 50 32 51 33 52 48 54
REMARK SMILES IDX 70 55 35 56 18 57 19 58 28 59 20 60 21 61 27 62 29 63 22 64
REMARK SMILES IDX 23 65 24 66 25 67 26 68 52 69 53 70 62 71 54 72 55 73 61 74
REMARK SMILES IDX 63 75 56 76 57 77 58 78 59 79 60 80 36 81 37 82 46 83 38 84
REMARK SMILES IDX 39 85 45 86 47 87 40 88 41 89 42 90 43 91 44 92
REMARK H PARENT 68 42 34 53
REMARK Flexibility Score: inf
ROOT
ATOM      1  C   UNL A   1      33.836  30.708  27.444  1.00  0.00     0.275 C 
ENDROOT
BRANCH   1   2
ATOM      2  C   UNL A   1      32.064  29.483  27.256  1.00  0.00     0.275 C 
BRANCH   2   3
ATOM      3  O   UNL A   1      31.952  27.965  27.582  1.00  0.00    -0.459 OA
BRANCH   3   4
ATOM      4  C   UNL A   1      31.489  27.237  26.559  1.00  0.00     0.338 C 
ATOM      5  O   UNL A   1      30.583  26.446  26.516  1.00  0.00    -0.246 OA
BRANCH   4   6
ATOM      6  C   UNL A   1      32.628  27.472  25.709  1.00  0.00     0.087 C 
ATOM      7  C   UNL A   1      33.770  26.621  26.084  1.00  0.00     0.027 C 
ATOM      8  C   UNL A   1      31.666  27.375  24.038  1.00  0.00     0.316 C 
ATOM      9  C   UNL A   1      34.331  25.228  25.088  1.00  0.00     0.020 A 
ATOM     10  O   UNL A   1      32.214  25.847  22.993  1.00  0.00    -0.474 OA
ATOM     11  C   UNL A   1      35.310  24.422  25.599  1.00  0.00     0.032 A 
ATOM     12  C   UNL A   1      33.538  24.759  23.615  1.00  0.00     0.146 A 
ATOM     13  C   UNL A   1      35.570  23.266  24.848  1.00  0.00     0.043 A 
ATOM     14  C   UNL A   1      33.869  23.605  22.957  1.00  0.00     0.085 A 
ATOM     15  Cl  UNL A   1      36.787  22.200  25.479  1.00  0.00    -0.084 Cl
ATOM     16  C   UNL A   1      34.895  22.876  23.613  1.00  0.00     0.045 A 
ATOM     17  Cl  UNL A   1      33.130  23.026  21.544  1.00  0.00    -0.080 Cl
BRANCH   8  18
ATOM     18  C   UNL A   1      31.633  28.928  23.754  1.00  0.00     0.430 C 
ATOM     19  F   UNL A   1      32.831  29.496  23.937  1.00  0.00    -0.167 F 
ATOM     20  F   UNL A   1      31.384  29.107  22.420  1.00  0.00    -0.167 F 
ATOM     21  F   UNL A   1      30.655  29.640  24.341  1.00  0.00    -0.167 F 
ENDBRANCH   8  18
ENDBRANCH   4   6
ENDBRANCH   3   4
ENDBRANCH   2   3
ENDBRANCH   1   2
BRANCH   1  22
ATOM     22  O   UNL A   1      33.880  32.430  27.374  1.00  0.00    -0.458 OA
BRANCH  22  23
ATOM     23  C   UNL A   1      33.557  33.579  28.057  1.00  0.00     0.338 C 
ATOM     24  O   UNL A   1      32.524  34.221  28.064  1.00  0.00    -0.246 OA
BRANCH  23  25
ATOM     25  C   UNL A   1      34.588  33.695  29.128  1.00  0.00     0.060 A 
ATOM     26  C   UNL A   1      34.445  32.916  30.290  1.00  0.00     0.016 A 
ATOM     27  C   UNL A   1      35.826  34.243  28.802  1.00  0.00     0.016 A 
ATOM     28  C   UNL A   1      35.591  32.462  30.962  1.00  0.00     0.010 A 
ATOM     29  C   UNL A   1      36.955  33.828  29.502  1.00  0.00     0.010 A 
ATOM     30  C   UNL A   1      36.859  32.873  30.529  1.00  0.00    -0.014 A 
BRANCH  30  31
ATOM     31  C   UNL A   1      38.094  32.571  31.293  1.00  0.00     0.031 A 
ATOM     32  C   UNL A   1      38.881  31.407  30.781  1.00  0.00     0.074 A 
ATOM     33  C   UNL A   1      38.403  33.152  32.472  1.00  0.00     0.049 A 
ATOM     34  N   UNL A   1      39.816  30.710  31.361  1.00  0.00    -0.248 NA
ATOM     35  C   UNL A   1      38.492  30.922  29.445  1.00  0.00     0.031 C 
ATOM     36  C   UNL A   1      37.707  34.286  33.081  1.00  0.00     0.029 A 
ATOM     37  N   UNL A   1      39.371  32.827  33.395  1.00  0.00    -0.354 N 
ATOM     38  C   UNL A   1      40.095  29.679  30.476  1.00  0.00     0.074 A 
ATOM     39  C   UNL A   1      39.195  29.810  29.356  1.00  0.00     0.031 C 
ATOM     40  C   UNL A   1      38.255  34.543  34.286  1.00  0.00     0.029 A 
ATOM     41  C   UNL A   1      39.318  33.574  34.554  1.00  0.00     0.049 A 
ATOM     42  H   UNL A   1      40.044  32.124  33.243  1.00  0.00     0.167 HD
ATOM     43  C   UNL A   1      41.026  28.706  30.580  1.00  0.00     0.037 A 
ATOM     44  C   UNL A   1      40.032  33.463  35.697  1.00  0.00     0.037 A 
ATOM     45  C   UNL A   1      41.895  28.568  31.707  1.00  0.00     0.049 A 
ATOM     46  C   UNL A   1      41.069  32.364  35.805  1.00  0.00     0.074 A 
ATOM     47  C   UNL A   1      42.887  27.632  31.922  1.00  0.00     0.029 A 
ATOM     48  N   UNL A   1      41.863  29.393  32.825  1.00  0.00    -0.354 N 
ATOM     49  N   UNL A   1      41.371  31.424  34.937  1.00  0.00    -0.248 NA
ATOM     50  C   UNL A   1      41.865  32.304  37.042  1.00  0.00     0.031 C 
ATOM     51  C   UNL A   1      43.429  27.866  33.188  1.00  0.00     0.029 A 
ATOM     52  C   UNL A   1      42.815  28.985  33.738  1.00  0.00     0.049 A 
ATOM     53  H   UNL A   1      41.251  30.155  32.947  1.00  0.00     0.167 HD
ATOM     54  C   UNL A   1      42.413  30.693  35.502  1.00  0.00     0.074 A 
ATOM     55  C   UNL A   1      42.687  31.292  36.792  1.00  0.00     0.031 C 
ATOM     56  C   UNL A   1      43.088  29.628  34.999  1.00  0.00     0.037 A 
BRANCH  43  57
ATOM     57  C   UNL A   1      41.077  27.723  29.448  1.00  0.00     0.058 A 
ATOM     58  C   UNL A   1      40.136  26.684  29.339  1.00  0.00     0.135 A 
ATOM     59  C   UNL A   1      42.150  27.736  28.546  1.00  0.00     0.135 A 
ATOM     60  F   UNL A   1      39.112  26.604  30.205  1.00  0.00    -0.206 F 
ATOM     61  C   UNL A   1      40.302  25.650  28.427  1.00  0.00     0.059 A 
ATOM     62  C   UNL A   1      42.313  26.734  27.597  1.00  0.00     0.059 A 
ATOM     63  F   UNL A   1      43.083  28.700  28.615  1.00  0.00    -0.206 F 
ATOM     64  C   UNL A   1      41.402  25.678  27.568  1.00  0.00     0.060 A 
BRANCH  64  65
ATOM     65  S   UNL A   1      41.643  24.295  26.437  1.00  0.00     0.124 S 
ATOM     66  O   UNL A   1      42.230  24.966  25.281  1.00  0.00    -0.237 OA
ATOM     67  O   UNL A   1      42.545  23.428  27.189  1.00  0.00    -0.237 OA
ATOM     68  O   UNL A   1      40.294  23.776  26.245  1.00  0.00    -0.744 OA
ENDBRANCH  64  65
ENDBRANCH  43  57
BRANCH  44  69
ATOM     69  C   UNL A   1      39.817  34.412  36.832  1.00  0.00     0.058 A 
ATOM     70  C   UNL A   1      40.363  35.707  36.806  1.00  0.00     0.135 A 
ATOM     71  C   UNL A   1      39.076  34.053  37.969  1.00  0.00     0.135 A 
ATOM     72  F   UNL A   1      41.105  36.098  35.757  1.00  0.00    -0.206 F 
ATOM     73  C   UNL A   1      40.185  36.606  37.857  1.00  0.00     0.059 A 
ATOM     74  C   UNL A   1      38.866  34.942  39.025  1.00  0.00     0.059 A 
ATOM     75  F   UNL A   1      38.535  32.829  38.059  1.00  0.00    -0.206 F 
ATOM     76  C   UNL A   1      39.426  36.217  38.961  1.00  0.00     0.060 A 
BRANCH  76  77
ATOM     77  S   UNL A   1      39.141  37.418  40.284  1.00  0.00     0.124 S 
ATOM     78  O   UNL A   1      38.505  36.593  41.304  1.00  0.00    -0.237 OA
ATOM     79  O   UNL A   1      40.496  37.870  40.583  1.00  0.00    -0.237 OA
ATOM     80  O   UNL A   1      38.280  38.414  39.653  1.00  0.00    -0.744 OA
ENDBRANCH  76  77
ENDBRANCH  44  69
BRANCH  56  81
ATOM     81  C   UNL A   1      44.242  29.072  35.788  1.00  0.00     0.058 A 
ATOM     82  C   UNL A   1      45.530  29.619  35.709  1.00  0.00     0.135 A 
ATOM     83  C   UNL A   1      44.006  28.080  36.756  1.00  0.00     0.135 A 
ATOM     84  F   UNL A   1      45.808  30.569  34.801  1.00  0.00    -0.206 F 
ATOM     85  C   UNL A   1      46.545  29.207  36.568  1.00  0.00     0.059 A 
ATOM     86  C   UNL A   1      44.996  27.673  37.642  1.00  0.00     0.059 A 
ATOM     87  F   UNL A   1      42.785  27.536  36.882  1.00  0.00    -0.206 F 
ATOM     88  C   UNL A   1      46.264  28.245  37.541  1.00  0.00     0.060 A 
BRANCH  88  89
ATOM     89  S   UNL A   1      47.561  27.792  38.713  1.00  0.00     0.124 S 
ATOM     90  O   UNL A   1      47.432  26.339  38.749  1.00  0.00    -0.237 OA
ATOM     91  O   UNL A   1      48.761  28.307  38.062  1.00  0.00    -0.237 OA
ATOM     92  O   UNL A   1      47.173  28.487  39.936  1.00  0.00    -0.744 OA
ENDBRANCH  88  89
ENDBRANCH  56  81
ENDBRANCH  30  31
ENDBRANCH  23  25
ENDBRANCH  22  23
ENDBRANCH   1  22
TORSDOF 15
ENDMDL
