MODEL 1
REMARK VINA RESULT:     -11.1      0.000      0.000
REMARK SMILES CC[C@@](C)([NH3+])C(=O)Nc1cc(C(=O)OCCOC(=O)c2ccc(-c3c4nc(c(-c5c(F)cc(S(=O)(=O)[O-])cc5F)c5ccc([nH]5)c(-c5c(F)cc(S(=O)(=O)[O-])cc5F)c5nc(c(-c6c(F)cc(S(=O)(=O)[O-])cc6F)c6ccc3[nH]6)C=C5)C=C4)cc2)cc(C(F)(F)F)c1
REMARK SMILES IDX 15 1 14 2 12 3 13 4 11 5 9 6 10 7 92 8 87 9 86 10 8 11 6 12
REMARK SMILES IDX 7 13 3 15 4 16 2 17 1 18 5 19 88 23 89 24 90 25 91 26 16 27
REMARK SMILES IDX 17 28 18 29 19 30 20 31 21 32 85 33 22 34 84 35 23 36 24 37
REMARK SMILES IDX 25 38 78 39 26 40 83 41 77 42 79 43 27 44 82 45 76 46 75 47
REMARK SMILES IDX 28 49 62 50 41 51 61 52 42 53 45 54 60 55 80 56 43 57 44 58
REMARK SMILES IDX 59 60 81 61 46 62 29 63 30 64 39 65 31 66 32 67 38 68 40 69
REMARK SMILES IDX 33 70 34 71 35 72 36 73 37 74 63 75 64 76 73 77 65 78 66 79
REMARK SMILES IDX 72 80 74 81 67 82 68 83 69 84 70 85 71 86 47 87 48 88 57 89
REMARK SMILES IDX 49 90 50 91 56 92 58 93 51 94 52 95 53 96 54 97 55 98
REMARK H PARENT 8 14 5 20 5 21 5 22 79 48 45 59
REMARK Flexibility Score: inf
ROOT
ATOM      1  C   UNL A   1      33.898  31.631  27.515  1.00  0.00     0.275 C 
ENDROOT
BRANCH   1   2
ATOM      2  O   UNL A   1      33.161  30.393  27.558  1.00  0.00    -0.458 OA
BRANCH   2   3
ATOM      3  C   UNL A   1      33.736  29.329  26.951  1.00  0.00     0.338 C 
ATOM      4  O   UNL A   1      34.896  28.968  27.055  1.00  0.00    -0.246 OA
BRANCH   3   5
ATOM      5  C   UNL A   1      32.706  28.545  26.228  1.00  0.00     0.062 A 
ATOM      6  C   UNL A   1      31.366  26.528  26.138  1.00  0.00     0.042 A 
ATOM      7  C   UNL A   1      32.393  27.269  26.708  1.00  0.00     0.041 A 
ATOM      8  C   UNL A   1      30.659  27.053  25.060  1.00  0.00     0.039 A 
ATOM      9  C   UNL A   1      31.019  28.290  24.500  1.00  0.00     0.058 A 
ATOM     10  C   UNL A   1      32.036  29.046  25.109  1.00  0.00     0.029 A 
BRANCH   6  11
ATOM     11  N   UNL A   1      31.009  25.326  26.749  1.00  0.00    -0.321 N 
ATOM     12  C   UNL A   1      31.218  24.027  26.359  1.00  0.00     0.285 C 
ATOM     13  O   UNL A   1      30.462  23.178  26.840  1.00  0.00    -0.267 OA
ATOM     14  H   UNL A   1      30.527  25.426  27.601  1.00  0.00     0.170 HD
BRANCH  12  15
ATOM     15  C   UNL A   1      32.466  23.634  25.488  1.00  0.00     0.171 C 
ATOM     16  C   UNL A   1      32.342  24.214  24.069  1.00  0.00     0.090 C 
BRANCH  15  17
ATOM     17  C   UNL A   1      33.764  24.153  26.170  1.00  0.00     0.075 C 
ATOM     18  C   UNL A   1      34.891  24.553  25.222  1.00  0.00     0.011 C 
ENDBRANCH  15  17
BRANCH  15  19
ATOM     19  N   UNL A   1      32.603  22.157  25.407  1.00  0.00    -0.345 N 
ATOM     20  H   UNL A   1      33.063  21.906  24.532  1.00  0.00     0.345 HD
ATOM     21  H   UNL A   1      31.678  21.728  25.441  1.00  0.00     0.345 HD
ATOM     22  H   UNL A   1      33.160  21.823  26.193  1.00  0.00     0.345 HD
ENDBRANCH  15  19
ENDBRANCH  12  15
ENDBRANCH   6  11
BRANCH   9  23
ATOM     23  C   UNL A   1      30.341  28.800  23.256  1.00  0.00     0.416 C 
ATOM     24  F   UNL A   1      29.437  29.785  23.509  1.00  0.00    -0.166 F 
ATOM     25  F   UNL A   1      31.238  29.336  22.379  1.00  0.00    -0.166 F 
ATOM     26  F   UNL A   1      29.675  27.842  22.556  1.00  0.00    -0.166 F 
ENDBRANCH   9  23
ENDBRANCH   3   5
ENDBRANCH   2   3
ENDBRANCH   1   2
BRANCH   1  27
ATOM     27  C   UNL A   1      34.507  31.943  28.884  1.00  0.00     0.275 C 
BRANCH  27  28
ATOM     28  O   UNL A   1      35.932  31.730  28.871  1.00  0.00    -0.458 OA
BRANCH  28  29
ATOM     29  C   UNL A   1      36.423  31.056  29.935  1.00  0.00     0.338 C 
ATOM     30  O   UNL A   1      35.952  31.004  31.058  1.00  0.00    -0.246 OA
BRANCH  29  31
ATOM     31  C   UNL A   1      37.587  30.252  29.532  1.00  0.00     0.060 A 
ATOM     32  C   UNL A   1      38.434  29.806  30.539  1.00  0.00     0.016 A 
ATOM     33  C   UNL A   1      37.953  30.103  28.198  1.00  0.00     0.016 A 
ATOM     34  C   UNL A   1      39.709  29.337  30.238  1.00  0.00     0.010 A 
ATOM     35  C   UNL A   1      39.196  29.529  27.889  1.00  0.00     0.010 A 
ATOM     36  C   UNL A   1      40.113  29.193  28.905  1.00  0.00    -0.014 A 
BRANCH  36  37
ATOM     37  C   UNL A   1      41.513  28.776  28.583  1.00  0.00     0.031 A 
ATOM     38  C   UNL A   1      42.634  29.787  28.657  1.00  0.00     0.074 A 
ATOM     39  C   UNL A   1      41.804  27.498  28.264  1.00  0.00     0.049 A 
ATOM     40  N   UNL A   1      43.874  29.683  28.250  1.00  0.00    -0.248 NA
ATOM     41  C   UNL A   1      42.310  31.095  29.253  1.00  0.00     0.031 C 
ATOM     42  C   UNL A   1      40.841  26.395  28.204  1.00  0.00     0.029 A 
ATOM     43  N   UNL A   1      43.000  26.903  27.938  1.00  0.00    -0.354 N 
ATOM     44  C   UNL A   1      44.457  30.926  28.478  1.00  0.00     0.074 A 
ATOM     45  C   UNL A   1      43.434  31.770  29.057  1.00  0.00     0.031 C 
ATOM     46  C   UNL A   1      41.488  25.259  27.900  1.00  0.00     0.029 A 
ATOM     47  C   UNL A   1      42.894  25.560  27.658  1.00  0.00     0.049 A 
ATOM     48  H   UNL A   1      43.854  27.394  27.907  1.00  0.00     0.167 HD
ATOM     49  C   UNL A   1      45.728  31.327  28.230  1.00  0.00     0.037 A 
ATOM     50  C   UNL A   1      43.811  24.676  27.216  1.00  0.00     0.037 A 
ATOM     51  C   UNL A   1      46.765  30.463  27.729  1.00  0.00     0.049 A 
ATOM     52  C   UNL A   1      45.217  25.142  26.951  1.00  0.00     0.074 A 
ATOM     53  C   UNL A   1      48.085  30.775  27.446  1.00  0.00     0.029 A 
ATOM     54  N   UNL A   1      46.612  29.111  27.465  1.00  0.00    -0.354 N 
ATOM     55  N   UNL A   1      45.729  26.340  27.097  1.00  0.00    -0.248 NA
ATOM     56  C   UNL A   1      46.166  24.139  26.448  1.00  0.00     0.031 C 
ATOM     57  C   UNL A   1      48.722  29.616  26.989  1.00  0.00     0.029 A 
ATOM     58  C   UNL A   1      47.811  28.574  27.024  1.00  0.00     0.049 A 
ATOM     59  H   UNL A   1      45.774  28.606  27.574  1.00  0.00     0.167 HD
ATOM     60  C   UNL A   1      47.063  26.230  26.725  1.00  0.00     0.074 A 
ATOM     61  C   UNL A   1      47.284  24.846  26.360  1.00  0.00     0.031 C 
ATOM     62  C   UNL A   1      48.020  27.191  26.685  1.00  0.00     0.037 A 
BRANCH  49  63
ATOM     63  C   UNL A   1      46.066  32.774  28.467  1.00  0.00     0.058 A 
ATOM     64  C   UNL A   1      46.581  33.233  29.688  1.00  0.00     0.135 A 
ATOM     65  C   UNL A   1      45.905  33.712  27.433  1.00  0.00     0.135 A 
ATOM     66  F   UNL A   1      46.737  32.384  30.717  1.00  0.00    -0.206 F 
ATOM     67  C   UNL A   1      46.901  34.574  29.885  1.00  0.00     0.059 A 
ATOM     68  C   UNL A   1      46.243  35.051  27.598  1.00  0.00     0.059 A 
ATOM     69  F   UNL A   1      45.417  33.328  26.243  1.00  0.00    -0.206 F 
ATOM     70  C   UNL A   1      46.727  35.475  28.834  1.00  0.00     0.060 A 
BRANCH  70  71
ATOM     71  S   UNL A   1      47.153  37.211  29.099  1.00  0.00     0.124 S 
ATOM     72  O   UNL A   1      46.936  37.347  30.535  1.00  0.00    -0.237 OA
ATOM     73  O   UNL A   1      48.544  37.264  28.660  1.00  0.00    -0.237 OA
ATOM     74  O   UNL A   1      46.204  37.926  28.251  1.00  0.00    -0.744 OA
ENDBRANCH  70  71
ENDBRANCH  49  63
BRANCH  50  75
ATOM     75  C   UNL A   1      43.419  23.263  26.958  1.00  0.00     0.058 A 
ATOM     76  C   UNL A   1      43.184  22.369  28.014  1.00  0.00     0.135 A 
ATOM     77  C   UNL A   1      43.276  22.777  25.649  1.00  0.00     0.135 A 
ATOM     78  F   UNL A   1      43.320  22.781  29.284  1.00  0.00    -0.206 F 
ATOM     79  C   UNL A   1      42.834  21.043  27.782  1.00  0.00     0.059 A 
ATOM     80  C   UNL A   1      42.899  21.463  25.391  1.00  0.00     0.059 A 
ATOM     81  F   UNL A   1      43.478  23.593  24.602  1.00  0.00    -0.206 F 
ATOM     82  C   UNL A   1      42.693  20.599  26.466  1.00  0.00     0.060 A 
BRANCH  82  83
ATOM     83  S   UNL A   1      42.193  18.888  26.171  1.00  0.00     0.124 S 
ATOM     84  O   UNL A   1      40.803  19.056  25.764  1.00  0.00    -0.237 OA
ATOM     85  O   UNL A   1      43.120  18.472  25.122  1.00  0.00    -0.237 OA
ATOM     86  O   UNL A   1      42.401  18.252  27.468  1.00  0.00    -0.744 OA
ENDBRANCH  82  83
ENDBRANCH  50  75
BRANCH  62  87
ATOM     87  C   UNL A   1      49.406  26.768  26.286  1.00  0.00     0.058 A 
ATOM     88  C   UNL A   1      50.290  26.175  27.200  1.00  0.00     0.135 A 
ATOM     89  C   UNL A   1      49.838  26.923  24.959  1.00  0.00     0.135 A 
ATOM     90  F   UNL A   1      49.927  26.009  28.482  1.00  0.00    -0.206 F 
ATOM     91  C   UNL A   1      51.567  25.774  26.818  1.00  0.00     0.059 A 
ATOM     92  C   UNL A   1      51.101  26.509  24.550  1.00  0.00     0.059 A 
ATOM     93  F   UNL A   1      49.025  27.476  24.044  1.00  0.00    -0.206 F 
ATOM     94  C   UNL A   1      51.964  25.948  25.491  1.00  0.00     0.060 A 
BRANCH  94  95
ATOM     95  S   UNL A   1      53.614  25.403  24.999  1.00  0.00     0.124 S 
ATOM     96  O   UNL A   1      54.458  26.164  25.914  1.00  0.00    -0.237 OA
ATOM     97  O   UNL A   1      53.556  23.964  25.239  1.00  0.00    -0.237 OA
ATOM     98  O   UNL A   1      53.696  25.795  23.595  1.00  0.00    -0.744 OA
ENDBRANCH  94  95
ENDBRANCH  62  87
ENDBRANCH  36  37
ENDBRANCH  29  31
ENDBRANCH  28  29
ENDBRANCH  27  28
ENDBRANCH   1  27
TORSDOF 19
ENDMDL
MODEL 2
REMARK VINA RESULT:     -10.9      3.042      4.408
REMARK SMILES CC[C@@](C)([NH3+])C(=O)Nc1cc(C(=O)OCCOC(=O)c2ccc(-c3c4nc(c(-c5c(F)cc(S(=O)(=O)[O-])cc5F)c5ccc([nH]5)c(-c5c(F)cc(S(=O)(=O)[O-])cc5F)c5nc(c(-c6c(F)cc(S(=O)(=O)[O-])cc6F)c6ccc3[nH]6)C=C5)C=C4)cc2)cc(C(F)(F)F)c1
REMARK SMILES IDX 15 1 14 2 12 3 13 4 11 5 9 6 10 7 92 8 87 9 86 10 8 11 6 12
REMARK SMILES IDX 7 13 3 15 4 16 2 17 1 18 5 19 88 23 89 24 90 25 91 26 16 27
REMARK SMILES IDX 17 28 18 29 19 30 20 31 21 32 85 33 22 34 84 35 23 36 24 37
REMARK SMILES IDX 25 38 78 39 26 40 83 41 77 42 79 43 27 44 82 45 76 46 75 47
REMARK SMILES IDX 28 49 62 50 41 51 61 52 42 53 45 54 60 55 80 56 43 57 44 58
REMARK SMILES IDX 59 60 81 61 46 62 29 63 30 64 39 65 31 66 32 67 38 68 40 69
REMARK SMILES IDX 33 70 34 71 35 72 36 73 37 74 63 75 64 76 73 77 65 78 66 79
REMARK SMILES IDX 72 80 74 81 67 82 68 83 69 84 70 85 71 86 47 87 48 88 57 89
REMARK SMILES IDX 49 90 50 91 56 92 58 93 51 94 52 95 53 96 54 97 55 98
REMARK H PARENT 8 14 5 20 5 21 5 22 79 48 45 59
REMARK Flexibility Score: inf
ROOT
ATOM      1  C   UNL A   1      33.444  26.719  26.115  1.00  0.00     0.275 C 
ENDROOT
BRANCH   1   2
ATOM      2  O   UNL A   1      32.341  25.886  25.706  1.00  0.00    -0.458 OA
BRANCH   2   3
ATOM      3  C   UNL A   1      32.239  24.682  26.317  1.00  0.00     0.338 C 
ATOM      4  O   UNL A   1      31.512  24.397  27.254  1.00  0.00    -0.246 OA
BRANCH   3   5
ATOM      5  C   UNL A   1      33.048  23.677  25.586  1.00  0.00     0.062 A 
ATOM      6  C   UNL A   1      33.072  21.645  24.266  1.00  0.00     0.042 A 
ATOM      7  C   UNL A   1      32.389  22.567  25.049  1.00  0.00     0.041 A 
ATOM      8  C   UNL A   1      34.434  21.817  24.037  1.00  0.00     0.039 A 
ATOM      9  C   UNL A   1      35.136  22.870  24.646  1.00  0.00     0.058 A 
ATOM     10  C   UNL A   1      34.427  23.817  25.405  1.00  0.00     0.029 A 
BRANCH   6  11
ATOM     11  N   UNL A   1      32.333  20.639  23.644  1.00  0.00    -0.321 N 
ATOM     12  C   UNL A   1      32.480  19.275  23.668  1.00  0.00     0.285 C 
ATOM     13  O   UNL A   1      31.979  18.649  22.730  1.00  0.00    -0.267 OA
ATOM     14  H   UNL A   1      31.582  20.961  23.095  1.00  0.00     0.170 HD
BRANCH  12  15
ATOM     15  C   UNL A   1      33.097  18.549  24.918  1.00  0.00     0.171 C 
ATOM     16  C   UNL A   1      32.365  17.225  25.194  1.00  0.00     0.090 C 
BRANCH  15  17
ATOM     17  C   UNL A   1      34.612  18.287  24.675  1.00  0.00     0.075 C 
ATOM     18  C   UNL A   1      34.996  16.831  24.424  1.00  0.00     0.011 C 
ENDBRANCH  15  17
BRANCH  15  19
ATOM     19  N   UNL A   1      33.015  19.418  26.120  1.00  0.00    -0.345 N 
ATOM     20  H   UNL A   1      32.127  19.918  26.118  1.00  0.00     0.345 HD
ATOM     21  H   UNL A   1      33.784  20.088  26.108  1.00  0.00     0.345 HD
ATOM     22  H   UNL A   1      33.080  18.843  26.961  1.00  0.00     0.345 HD
ENDBRANCH  15  19
ENDBRANCH  12  15
ENDBRANCH   6  11
BRANCH   9  23
ATOM     23  C   UNL A   1      36.632  22.984  24.504  1.00  0.00     0.416 C 
ATOM     24  F   UNL A   1      37.017  23.430  23.279  1.00  0.00    -0.166 F 
ATOM     25  F   UNL A   1      37.154  23.868  25.402  1.00  0.00    -0.166 F 
ATOM     26  F   UNL A   1      37.298  21.816  24.713  1.00  0.00    -0.166 F 
ENDBRANCH   9  23
ENDBRANCH   3   5
ENDBRANCH   2   3
ENDBRANCH   1   2
BRANCH   1  27
ATOM     27  C   UNL A   1      32.942  28.091  26.572  1.00  0.00     0.275 C 
BRANCH  27  28
ATOM     28  O   UNL A   1      33.677  28.546  27.725  1.00  0.00    -0.458 OA
BRANCH  28  29
ATOM     29  C   UNL A   1      34.156  29.807  27.641  1.00  0.00     0.338 C 
ATOM     30  O   UNL A   1      33.540  30.813  27.329  1.00  0.00    -0.246 OA
BRANCH  29  31
ATOM     31  C   UNL A   1      35.549  29.852  28.110  1.00  0.00     0.060 A 
ATOM     32  C   UNL A   1      36.514  30.282  27.207  1.00  0.00     0.016 A 
ATOM     33  C   UNL A   1      35.934  29.303  29.330  1.00  0.00     0.016 A 
ATOM     34  C   UNL A   1      37.864  30.044  27.444  1.00  0.00     0.010 A 
ATOM     35  C   UNL A   1      37.300  29.162  29.617  1.00  0.00     0.010 A 
ATOM     36  C   UNL A   1      38.281  29.477  28.654  1.00  0.00    -0.014 A 
BRANCH  36  37
ATOM     37  C   UNL A   1      39.721  29.138  28.871  1.00  0.00     0.031 A 
ATOM     38  C   UNL A   1      40.654  30.166  29.467  1.00  0.00     0.074 A 
ATOM     39  C   UNL A   1      40.200  27.910  28.579  1.00  0.00     0.049 A 
ATOM     40  N   UNL A   1      41.959  30.143  29.570  1.00  0.00    -0.248 NA
ATOM     41  C   UNL A   1      40.037  31.392  30.001  1.00  0.00     0.031 C 
ATOM     42  C   UNL A   1      39.414  26.794  28.049  1.00  0.00     0.029 A 
ATOM     43  N   UNL A   1      41.467  27.389  28.696  1.00  0.00    -0.354 N 
ATOM     44  C   UNL A   1      42.322  31.371  30.117  1.00  0.00     0.074 A 
ATOM     45  C   UNL A   1      41.100  32.117  30.321  1.00  0.00     0.031 C 
ATOM     46  C   UNL A   1      40.204  25.716  27.923  1.00  0.00     0.029 A 
ATOM     47  C   UNL A   1      41.570  26.082  28.279  1.00  0.00     0.049 A 
ATOM     48  H   UNL A   1      42.230  27.905  29.045  1.00  0.00     0.167 HD
ATOM     49  C   UNL A   1      43.559  31.832  30.423  1.00  0.00     0.037 A 
ATOM     50  C   UNL A   1      42.645  25.278  28.155  1.00  0.00     0.037 A 
ATOM     51  C   UNL A   1      44.766  31.058  30.294  1.00  0.00     0.049 A 
ATOM     52  C   UNL A   1      44.008  25.810  28.504  1.00  0.00     0.074 A 
ATOM     53  C   UNL A   1      46.068  31.436  30.579  1.00  0.00     0.029 A 
ATOM     54  N   UNL A   1      44.820  29.738  29.872  1.00  0.00    -0.354 N 
ATOM     55  N   UNL A   1      44.341  26.999  28.943  1.00  0.00    -0.248 NA
ATOM     56  C   UNL A   1      45.145  24.895  28.326  1.00  0.00     0.031 C 
ATOM     57  C   UNL A   1      46.911  30.353  30.307  1.00  0.00     0.029 A 
ATOM     58  C   UNL A   1      46.130  29.287  29.890  1.00  0.00     0.049 A 
ATOM     59  H   UNL A   1      44.042  29.200  29.599  1.00  0.00     0.167 HD
ATOM     60  C   UNL A   1      45.719  26.968  29.116  1.00  0.00     0.074 A 
ATOM     61  C   UNL A   1      46.158  25.639  28.745  1.00  0.00     0.031 C 
ATOM     62  C   UNL A   1      46.548  27.955  29.539  1.00  0.00     0.037 A 
BRANCH  49  63
ATOM     63  C   UNL A   1      43.679  33.254  30.900  1.00  0.00     0.058 A 
ATOM     64  C   UNL A   1      43.886  34.326  30.019  1.00  0.00     0.135 A 
ATOM     65  C   UNL A   1      43.543  33.550  32.268  1.00  0.00     0.135 A 
ATOM     66  F   UNL A   1      44.042  34.099  28.705  1.00  0.00    -0.206 F 
ATOM     67  C   UNL A   1      43.981  35.637  30.478  1.00  0.00     0.059 A 
ATOM     68  C   UNL A   1      43.607  34.855  32.746  1.00  0.00     0.059 A 
ATOM     69  F   UNL A   1      43.342  32.563  33.155  1.00  0.00    -0.206 F 
ATOM     70  C   UNL A   1      43.841  35.891  31.843  1.00  0.00     0.060 A 
BRANCH  70  71
ATOM     71  S   UNL A   1      43.958  37.597  32.426  1.00  0.00     0.124 S 
ATOM     72  O   UNL A   1      45.362  37.674  32.820  1.00  0.00    -0.237 OA
ATOM     73  O   UNL A   1      43.591  38.361  31.239  1.00  0.00    -0.237 OA
ATOM     74  O   UNL A   1      42.997  37.648  33.523  1.00  0.00    -0.744 OA
ENDBRANCH  70  71
ENDBRANCH  49  63
BRANCH  50  75
ATOM     75  C   UNL A   1      42.481  23.890  27.640  1.00  0.00     0.058 A 
ATOM     76  C   UNL A   1      42.357  22.800  28.515  1.00  0.00     0.135 A 
ATOM     77  C   UNL A   1      42.450  23.627  26.261  1.00  0.00     0.135 A 
ATOM     78  F   UNL A   1      42.393  22.998  29.841  1.00  0.00    -0.206 F 
ATOM     79  C   UNL A   1      42.221  21.499  28.043  1.00  0.00     0.059 A 
ATOM     80  C   UNL A   1      42.286  22.338  25.765  1.00  0.00     0.059 A 
ATOM     81  F   UNL A   1      42.554  24.634  25.381  1.00  0.00    -0.206 F 
ATOM     82  C   UNL A   1      42.185  21.277  26.665  1.00  0.00     0.060 A 
BRANCH  82  83
ATOM     83  S   UNL A   1      41.962  19.591  26.056  1.00  0.00     0.124 S 
ATOM     84  O   UNL A   1      42.906  19.554  24.944  1.00  0.00    -0.237 OA
ATOM     85  O   UNL A   1      42.318  18.791  27.224  1.00  0.00    -0.237 OA
ATOM     86  O   UNL A   1      40.550  19.554  25.689  1.00  0.00    -0.744 OA
ENDBRANCH  82  83
ENDBRANCH  50  75
BRANCH  62  87
ATOM     87  C   UNL A   1      48.006  27.618  29.679  1.00  0.00     0.058 A 
ATOM     88  C   UNL A   1      48.517  27.010  30.836  1.00  0.00     0.135 A 
ATOM     89  C   UNL A   1      48.895  27.871  28.622  1.00  0.00     0.135 A 
ATOM     90  F   UNL A   1      47.710  26.751  31.877  1.00  0.00    -0.206 F 
ATOM     91  C   UNL A   1      49.867  26.689  30.951  1.00  0.00     0.059 A 
ATOM     92  C   UNL A   1      50.242  27.538  28.706  1.00  0.00     0.059 A 
ATOM     93  F   UNL A   1      48.453  28.442  27.490  1.00  0.00    -0.206 F 
ATOM     94  C   UNL A   1      50.722  26.959  29.880  1.00  0.00     0.060 A 
BRANCH  94  95
ATOM     95  S   UNL A   1      52.466  26.518  30.030  1.00  0.00     0.124 S 
ATOM     96  O   UNL A   1      53.071  27.811  30.334  1.00  0.00    -0.237 OA
ATOM     97  O   UNL A   1      52.455  25.551  31.123  1.00  0.00    -0.237 OA
ATOM     98  O   UNL A   1      52.790  25.966  28.718  1.00  0.00    -0.744 OA
ENDBRANCH  94  95
ENDBRANCH  62  87
ENDBRANCH  36  37
ENDBRANCH  29  31
ENDBRANCH  28  29
ENDBRANCH  27  28
ENDBRANCH   1  27
TORSDOF 19
ENDMDL
MODEL 3
REMARK VINA RESULT:     -10.9      3.556      5.230
REMARK SMILES CC[C@@](C)([NH3+])C(=O)Nc1cc(C(=O)OCCOC(=O)c2ccc(-c3c4nc(c(-c5c(F)cc(S(=O)(=O)[O-])cc5F)c5ccc([nH]5)c(-c5c(F)cc(S(=O)(=O)[O-])cc5F)c5nc(c(-c6c(F)cc(S(=O)(=O)[O-])cc6F)c6ccc3[nH]6)C=C5)C=C4)cc2)cc(C(F)(F)F)c1
REMARK SMILES IDX 15 1 14 2 12 3 13 4 11 5 9 6 10 7 92 8 87 9 86 10 8 11 6 12
REMARK SMILES IDX 7 13 3 15 4 16 2 17 1 18 5 19 88 23 89 24 90 25 91 26 16 27
REMARK SMILES IDX 17 28 18 29 19 30 20 31 21 32 85 33 22 34 84 35 23 36 24 37
REMARK SMILES IDX 25 38 78 39 26 40 83 41 77 42 79 43 27 44 82 45 76 46 75 47
REMARK SMILES IDX 28 49 62 50 41 51 61 52 42 53 45 54 60 55 80 56 43 57 44 58
REMARK SMILES IDX 59 60 81 61 46 62 29 63 30 64 39 65 31 66 32 67 38 68 40 69
REMARK SMILES IDX 33 70 34 71 35 72 36 73 37 74 63 75 64 76 73 77 65 78 66 79
REMARK SMILES IDX 72 80 74 81 67 82 68 83 69 84 70 85 71 86 47 87 48 88 57 89
REMARK SMILES IDX 49 90 50 91 56 92 58 93 51 94 52 95 53 96 54 97 55 98
REMARK H PARENT 8 14 5 20 5 21 5 22 79 48 45 59
REMARK Flexibility Score: inf
ROOT
ATOM      1  C   UNL A   1      34.455  31.381  27.357  1.00  0.00     0.275 C 
ENDROOT
BRANCH   1   2
ATOM      2  O   UNL A   1      33.657  32.387  28.011  1.00  0.00    -0.458 OA
BRANCH   2   3
ATOM      3  C   UNL A   1      34.272  33.562  28.281  1.00  0.00     0.338 C 
ATOM      4  O   UNL A   1      34.718  34.357  27.470  1.00  0.00    -0.246 OA
BRANCH   3   5
ATOM      5  C   UNL A   1      34.211  33.839  29.736  1.00  0.00     0.062 A 
ATOM      6  C   UNL A   1      34.873  33.176  31.970  1.00  0.00     0.042 A 
ATOM      7  C   UNL A   1      34.807  32.921  30.606  1.00  0.00     0.041 A 
ATOM      8  C   UNL A   1      34.317  34.346  32.477  1.00  0.00     0.039 A 
ATOM      9  C   UNL A   1      33.628  35.235  31.635  1.00  0.00     0.058 A 
ATOM     10  C   UNL A   1      33.599  34.985  30.253  1.00  0.00     0.029 A 
BRANCH   6  11
ATOM     11  N   UNL A   1      35.603  32.292  32.766  1.00  0.00    -0.321 N 
ATOM     12  C   UNL A   1      36.937  31.973  32.757  1.00  0.00     0.285 C 
ATOM     13  O   UNL A   1      37.249  30.889  33.260  1.00  0.00    -0.267 OA
ATOM     14  H   UNL A   1      35.072  31.819  33.447  1.00  0.00     0.170 HD
BRANCH  12  15
ATOM     15  C   UNL A   1      38.016  33.016  32.291  1.00  0.00     0.171 C 
ATOM     16  C   UNL A   1      39.372  32.730  32.958  1.00  0.00     0.090 C 
BRANCH  15  17
ATOM     17  C   UNL A   1      38.157  32.966  30.742  1.00  0.00     0.075 C 
ATOM     18  C   UNL A   1      39.526  33.358  30.193  1.00  0.00     0.011 C 
ENDBRANCH  15  17
BRANCH  15  19
ATOM     19  N   UNL A   1      37.585  34.398  32.623  1.00  0.00    -0.345 N 
ATOM     20  H   UNL A   1      38.401  34.959  32.867  1.00  0.00     0.345 HD
ATOM     21  H   UNL A   1      36.940  34.372  33.413  1.00  0.00     0.345 HD
ATOM     22  H   UNL A   1      37.117  34.812  31.817  1.00  0.00     0.345 HD
ENDBRANCH  15  19
ENDBRANCH  12  15
ENDBRANCH   6  11
BRANCH   9  23
ATOM     23  C   UNL A   1      32.914  36.436  32.200  1.00  0.00     0.416 C 
ATOM     24  F   UNL A   1      33.269  36.710  33.484  1.00  0.00    -0.166 F 
ATOM     25  F   UNL A   1      33.193  37.566  31.488  1.00  0.00    -0.166 F 
ATOM     26  F   UNL A   1      31.558  36.327  32.193  1.00  0.00    -0.166 F 
ENDBRANCH   9  23
ENDBRANCH   3   5
ENDBRANCH   2   3
ENDBRANCH   1   2
BRANCH   1  27
ATOM     27  C   UNL A   1      34.286  30.026  28.049  1.00  0.00     0.275 C 
BRANCH  27  28
ATOM     28  O   UNL A   1      35.564  29.393  28.255  1.00  0.00    -0.458 OA
BRANCH  28  29
ATOM     29  C   UNL A   1      36.156  29.665  29.439  1.00  0.00     0.338 C 
ATOM     30  O   UNL A   1      35.615  29.793  30.524  1.00  0.00    -0.246 OA
BRANCH  29  31
ATOM     31  C   UNL A   1      37.619  29.670  29.285  1.00  0.00     0.060 A 
ATOM     32  C   UNL A   1      38.124  29.778  27.994  1.00  0.00     0.016 A 
ATOM     33  C   UNL A   1      38.473  29.378  30.344  1.00  0.00     0.016 A 
ATOM     34  C   UNL A   1      39.451  29.462  27.723  1.00  0.00     0.010 A 
ATOM     35  C   UNL A   1      39.836  29.165  30.086  1.00  0.00     0.010 A 
ATOM     36  C   UNL A   1      40.331  29.146  28.766  1.00  0.00    -0.014 A 
BRANCH  36  37
ATOM     37  C   UNL A   1      41.732  28.717  28.466  1.00  0.00     0.031 A 
ATOM     38  C   UNL A   1      42.860  29.719  28.552  1.00  0.00     0.074 A 
ATOM     39  C   UNL A   1      42.016  27.435  28.155  1.00  0.00     0.049 A 
ATOM     40  N   UNL A   1      44.104  29.604  28.164  1.00  0.00    -0.248 NA
ATOM     41  C   UNL A   1      42.538  31.031  29.139  1.00  0.00     0.031 C 
ATOM     42  C   UNL A   1      41.046  26.340  28.084  1.00  0.00     0.029 A 
ATOM     43  N   UNL A   1      43.213  26.830  27.848  1.00  0.00    -0.354 N 
ATOM     44  C   UNL A   1      44.695  30.843  28.396  1.00  0.00     0.074 A 
ATOM     45  C   UNL A   1      43.670  31.696  28.957  1.00  0.00     0.031 C 
ATOM     46  C   UNL A   1      41.687  25.198  27.793  1.00  0.00     0.029 A 
ATOM     47  C   UNL A   1      43.099  25.486  27.571  1.00  0.00     0.049 A 
ATOM     48  H   UNL A   1      44.070  27.313  27.828  1.00  0.00     0.167 HD
ATOM     49  C   UNL A   1      45.972  31.232  28.165  1.00  0.00     0.037 A 
ATOM     50  C   UNL A   1      44.015  24.594  27.145  1.00  0.00     0.037 A 
ATOM     51  C   UNL A   1      47.009  30.358  27.681  1.00  0.00     0.049 A 
ATOM     52  C   UNL A   1      45.428  25.047  26.899  1.00  0.00     0.074 A 
ATOM     53  C   UNL A   1      48.335  30.658  27.417  1.00  0.00     0.029 A 
ATOM     54  N   UNL A   1      46.848  29.006  27.419  1.00  0.00    -0.354 N 
ATOM     55  N   UNL A   1      45.948  26.241  27.048  1.00  0.00    -0.248 NA
ATOM     56  C   UNL A   1      46.377  24.035  26.412  1.00  0.00     0.031 C 
ATOM     57  C   UNL A   1      48.970  29.493  26.972  1.00  0.00     0.029 A 
ATOM     58  C   UNL A   1      48.049  28.458  26.998  1.00  0.00     0.049 A 
ATOM     59  H   UNL A   1      46.005  28.508  27.518  1.00  0.00     0.167 HD
ATOM     60  C   UNL A   1      47.287  26.119  26.696  1.00  0.00     0.074 A 
ATOM     61  C   UNL A   1      47.501  24.732  26.338  1.00  0.00     0.031 C 
ATOM     62  C   UNL A   1      48.252  27.072  26.667  1.00  0.00     0.037 A 
BRANCH  49  63
ATOM     63  C   UNL A   1      46.318  32.677  28.402  1.00  0.00     0.058 A 
ATOM     64  C   UNL A   1      46.829  33.134  29.626  1.00  0.00     0.135 A 
ATOM     65  C   UNL A   1      46.171  33.615  27.365  1.00  0.00     0.135 A 
ATOM     66  F   UNL A   1      46.973  32.286  30.657  1.00  0.00    -0.206 F 
ATOM     67  C   UNL A   1      47.157  34.473  29.823  1.00  0.00     0.059 A 
ATOM     68  C   UNL A   1      46.517  34.952  27.531  1.00  0.00     0.059 A 
ATOM     69  F   UNL A   1      45.688  33.232  26.173  1.00  0.00    -0.206 F 
ATOM     70  C   UNL A   1      46.996  35.374  28.770  1.00  0.00     0.060 A 
BRANCH  70  71
ATOM     71  S   UNL A   1      47.432  37.107  29.035  1.00  0.00     0.124 S 
ATOM     72  O   UNL A   1      46.729  37.396  30.281  1.00  0.00    -0.237 OA
ATOM     73  O   UNL A   1      48.887  37.055  29.126  1.00  0.00    -0.237 OA
ATOM     74  O   UNL A   1      46.905  37.775  27.849  1.00  0.00    -0.744 OA
ENDBRANCH  70  71
ENDBRANCH  49  63
BRANCH  50  75
ATOM     75  C   UNL A   1      43.616  23.183  26.886  1.00  0.00     0.058 A 
ATOM     76  C   UNL A   1      43.341  22.299  27.941  1.00  0.00     0.135 A 
ATOM     77  C   UNL A   1      43.504  22.689  25.576  1.00  0.00     0.135 A 
ATOM     78  F   UNL A   1      43.446  22.719  29.211  1.00  0.00    -0.206 F 
ATOM     79  C   UNL A   1      42.984  20.975  27.709  1.00  0.00     0.059 A 
ATOM     80  C   UNL A   1      43.120  21.377  25.318  1.00  0.00     0.059 A 
ATOM     81  F   UNL A   1      43.744  23.495  24.530  1.00  0.00    -0.206 F 
ATOM     82  C   UNL A   1      42.875  20.523  26.392  1.00  0.00     0.060 A 
BRANCH  82  83
ATOM     83  S   UNL A   1      42.365  18.816  26.094  1.00  0.00     0.124 S 
ATOM     84  O   UNL A   1      43.276  18.422  25.025  1.00  0.00    -0.237 OA
ATOM     85  O   UNL A   1      42.597  18.192  27.394  1.00  0.00    -0.237 OA
ATOM     86  O   UNL A   1      40.962  18.949  25.714  1.00  0.00    -0.744 OA
ENDBRANCH  82  83
ENDBRANCH  50  75
BRANCH  62  87
ATOM     87  C   UNL A   1      49.640  26.637  26.289  1.00  0.00     0.058 A 
ATOM     88  C   UNL A   1      50.126  26.771  24.979  1.00  0.00     0.135 A 
ATOM     89  C   UNL A   1      50.507  26.115  27.262  1.00  0.00     0.135 A 
ATOM     90  F   UNL A   1      49.335  27.260  24.011  1.00  0.00    -0.206 F 
ATOM     91  C   UNL A   1      51.417  26.378  24.641  1.00  0.00     0.059 A 
ATOM     92  C   UNL A   1      51.809  25.737  26.952  1.00  0.00     0.059 A 
ATOM     93  F   UNL A   1      50.093  25.976  28.532  1.00  0.00    -0.206 F 
ATOM     94  C   UNL A   1      52.251  25.860  25.635  1.00  0.00     0.060 A 
BRANCH  94  95
ATOM     95  S   UNL A   1      53.932  25.374  25.191  1.00  0.00     0.124 S 
ATOM     96  O   UNL A   1      54.719  26.110  26.176  1.00  0.00    -0.237 OA
ATOM     97  O   UNL A   1      53.898  23.925  25.363  1.00  0.00    -0.237 OA
ATOM     98  O   UNL A   1      54.064  25.832  23.811  1.00  0.00    -0.744 OA
ENDBRANCH  94  95
ENDBRANCH  62  87
ENDBRANCH  36  37
ENDBRANCH  29  31
ENDBRANCH  28  29
ENDBRANCH  27  28
ENDBRANCH   1  27
TORSDOF 19
ENDMDL
