MODEL 1
REMARK VINA RESULT:     -12.3      0.000      0.000
REMARK SMILES COc1cc(CC(=O)N[C@@H](CC(=O)OCCOC(=O)c2ccc(-c3c4nc(c(-c5c(F)cc(S(=O)(=O)[O-])cc5F)c5ccc([nH]5)c(-c5c(F)cc(S(=O)(=O)[O-])cc5F)c5nc(c(-c6c(F)cc(S(=O)(=O)[O-])cc6F)c6ccc3[nH]6)C=C5)C=C4)cc2)c2cccs2)ccc1C
REMARK SMILES IDX 15 1 14 2 12 3 13 4 11 5 10 6 9 7 7 8 8 9 6 11 5 12 3 13
REMARK SMILES IDX 4 14 93 15 92 16 94 17 91 18 2 19 1 20 86 21 87 22 90 23
REMARK SMILES IDX 88 24 89 25 16 26 17 27 18 28 19 29 20 30 21 31 85 32 22 33
REMARK SMILES IDX 84 34 23 35 24 36 25 37 78 38 26 39 83 40 77 41 79 42 27 43
REMARK SMILES IDX 82 44 76 45 75 46 28 48 62 49 41 50 61 51 42 52 45 53 60 54
REMARK SMILES IDX 80 55 43 56 44 57 59 59 81 60 46 61 29 62 30 63 39 64 31 65
REMARK SMILES IDX 32 66 38 67 40 68 33 69 34 70 35 71 36 72 37 73 63 74 64 75
REMARK SMILES IDX 73 76 65 77 66 78 72 79 74 80 67 81 68 82 69 83 70 84 71 85
REMARK SMILES IDX 47 86 48 87 57 88 49 89 50 90 56 91 58 92 51 93 52 94 53 95
REMARK SMILES IDX 54 96 55 97
REMARK H PARENT 9 10 79 47 45 58
REMARK Flexibility Score: inf
ROOT
ATOM      1  C   UNL A   1      37.342  21.504  24.628  1.00  0.00     0.274 C 
ENDROOT
BRANCH   1   2
ATOM      2  O   UNL A   1      35.812  21.526  25.183  1.00  0.00    -0.462 OA
BRANCH   2   3
ATOM      3  C   UNL A   1      35.057  22.342  25.986  1.00  0.00     0.308 C 
ATOM      4  O   UNL A   1      34.875  22.040  27.172  1.00  0.00    -0.252 OA
BRANCH   3   5
ATOM      5  C   UNL A   1      34.617  23.854  25.512  1.00  0.00     0.153 C 
BRANCH   5   6
ATOM      6  C   UNL A   1      33.450  24.666  24.846  1.00  0.00     0.133 C 
BRANCH   6   7
ATOM      7  N   UNL A   1      33.555  24.582  23.400  1.00  0.00    -0.348 N 
ATOM      8  C   UNL A   1      33.375  23.409  22.710  1.00  0.00     0.224 C 
ATOM      9  O   UNL A   1      34.162  23.148  21.796  1.00  0.00    -0.275 OA
ATOM     10  H   UNL A   1      33.766  25.400  22.895  1.00  0.00     0.164 HD
BRANCH   8  11
ATOM     11  C   UNL A   1      32.118  22.569  22.931  1.00  0.00     0.135 C 
BRANCH  11  12
ATOM     12  C   UNL A   1      32.178  21.222  23.626  1.00  0.00    -0.035 A 
ATOM     13  C   UNL A   1      32.519  18.792  23.434  1.00  0.00     0.122 A 
ATOM     14  C   UNL A   1      32.329  20.053  22.849  1.00  0.00     0.051 A 
ATOM     15  C   UNL A   1      32.547  18.678  24.831  1.00  0.00    -0.009 A 
ATOM     16  C   UNL A   1      32.387  19.838  25.610  1.00  0.00     0.007 A 
ATOM     17  C   UNL A   1      32.791  17.362  25.524  1.00  0.00     0.048 C 
ATOM     18  C   UNL A   1      32.208  21.096  25.017  1.00  0.00     0.005 A 
BRANCH  13  19
ATOM     19  O   UNL A   1      32.656  17.627  22.726  1.00  0.00    -0.496 OA
ATOM     20  C   UNL A   1      33.948  17.035  22.706  1.00  0.00     0.278 C 
ENDBRANCH  13  19
ENDBRANCH  11  12
ENDBRANCH   8  11
ENDBRANCH   6   7
BRANCH   6  21
ATOM     21  C   UNL A   1      32.918  26.025  25.277  1.00  0.00     0.027 A 
ATOM     22  C   UNL A   1      33.362  26.941  26.218  1.00  0.00     0.017 A 
ATOM     23  S   UNL A   1      31.619  26.777  24.365  1.00  0.00    -0.147 S 
ATOM     24  C   UNL A   1      32.413  27.986  26.462  1.00  0.00     0.012 A 
ATOM     25  C   UNL A   1      31.325  27.900  25.626  1.00  0.00     0.065 A 
ENDBRANCH   6  21
ENDBRANCH   5   6
ENDBRANCH   3   5
ENDBRANCH   2   3
ENDBRANCH   1   2
BRANCH   1  26
ATOM     26  C   UNL A   1      38.686  20.344  25.367  1.00  0.00     0.275 C 
BRANCH  26  27
ATOM     27  O   UNL A   1      40.076  20.891  26.540  1.00  0.00    -0.458 OA
BRANCH  27  28
ATOM     28  C   UNL A   1      40.713  22.333  27.358  1.00  0.00     0.338 C 
ATOM     29  O   UNL A   1      41.706  22.072  28.056  1.00  0.00    -0.246 OA
BRANCH  28  30
ATOM     30  C   UNL A   1      40.035  24.122  27.478  1.00  0.00     0.060 A 
ATOM     31  C   UNL A   1      39.991  24.959  26.343  1.00  0.00     0.016 A 
ATOM     32  C   UNL A   1      40.284  25.133  28.549  1.00  0.00     0.016 A 
ATOM     33  C   UNL A   1      40.641  26.378  26.346  1.00  0.00     0.010 A 
ATOM     34  C   UNL A   1      40.635  26.537  28.619  1.00  0.00     0.010 A 
ATOM     35  C   UNL A   1      41.179  27.053  27.502  1.00  0.00    -0.014 A 
BRANCH  35  36
ATOM     36  C   UNL A   1      42.572  27.718  27.810  1.00  0.00     0.031 A 
ATOM     37  C   UNL A   1      43.824  27.179  27.207  1.00  0.00     0.074 A 
ATOM     38  C   UNL A   1      42.858  29.007  28.214  1.00  0.00     0.049 A 
ATOM     39  N   UNL A   1      44.647  26.373  27.794  1.00  0.00    -0.248 NA
ATOM     40  C   UNL A   1      44.334  27.729  25.932  1.00  0.00     0.031 C 
ATOM     41  C   UNL A   1      44.120  29.600  28.704  1.00  0.00     0.029 A 
ATOM     42  N   UNL A   1      42.024  30.072  28.478  1.00  0.00    -0.354 N 
ATOM     43  C   UNL A   1      45.872  26.579  27.167  1.00  0.00     0.074 A 
ATOM     44  C   UNL A   1      45.578  27.240  25.904  1.00  0.00     0.031 C 
ATOM     45  C   UNL A   1      43.827  30.555  29.624  1.00  0.00     0.029 A 
ATOM     46  C   UNL A   1      42.387  30.695  29.685  1.00  0.00     0.049 A 
ATOM     47  H   UNL A   1      41.278  30.356  27.902  1.00  0.00     0.167 HD
ATOM     48  C   UNL A   1      47.034  26.756  27.877  1.00  0.00     0.037 A 
ATOM     49  C   UNL A   1      41.519  30.539  30.736  1.00  0.00     0.037 A 
ATOM     50  C   UNL A   1      46.750  27.191  29.253  1.00  0.00     0.049 A 
ATOM     51  C   UNL A   1      41.998  29.324  31.591  1.00  0.00     0.074 A 
ATOM     52  C   UNL A   1      47.019  28.376  29.927  1.00  0.00     0.029 A 
ATOM     53  N   UNL A   1      45.831  26.510  30.045  1.00  0.00    -0.354 N 
ATOM     54  N   UNL A   1      43.159  28.753  31.400  1.00  0.00    -0.248 NA
ATOM     55  C   UNL A   1      41.270  28.637  32.669  1.00  0.00     0.031 C 
ATOM     56  C   UNL A   1      46.193  28.440  31.073  1.00  0.00     0.029 A 
ATOM     57  C   UNL A   1      45.416  27.299  31.104  1.00  0.00     0.049 A 
ATOM     58  H   UNL A   1      45.519  25.593  29.876  1.00  0.00     0.167 HD
ATOM     59  C   UNL A   1      43.305  27.629  32.170  1.00  0.00     0.074 A 
ATOM     60  C   UNL A   1      42.115  27.632  32.996  1.00  0.00     0.031 C 
ATOM     61  C   UNL A   1      44.404  26.818  32.036  1.00  0.00     0.037 A 
BRANCH  48  62
ATOM     62  C   UNL A   1      48.410  26.893  27.225  1.00  0.00     0.058 A 
ATOM     63  C   UNL A   1      49.257  25.782  27.008  1.00  0.00     0.135 A 
ATOM     64  C   UNL A   1      48.894  28.105  26.680  1.00  0.00     0.135 A 
ATOM     65  F   UNL A   1      48.894  24.538  27.343  1.00  0.00    -0.206 F 
ATOM     66  C   UNL A   1      50.508  25.876  26.394  1.00  0.00     0.059 A 
ATOM     67  C   UNL A   1      50.153  28.229  26.071  1.00  0.00     0.059 A 
ATOM     68  F   UNL A   1      48.138  29.215  26.688  1.00  0.00    -0.206 F 
ATOM     69  C   UNL A   1      50.957  27.104  25.936  1.00  0.00     0.060 A 
BRANCH  69  70
ATOM     70  S   UNL A   1      52.564  27.179  25.120  1.00  0.00     0.124 S 
ATOM     71  O   UNL A   1      53.334  26.192  25.871  1.00  0.00    -0.237 OA
ATOM     72  O   UNL A   1      52.227  26.807  23.749  1.00  0.00    -0.237 OA
ATOM     73  O   UNL A   1      52.979  28.565  25.307  1.00  0.00    -0.744 OA
ENDBRANCH  69  70
ENDBRANCH  48  62
BRANCH  49  74
ATOM     74  C   UNL A   1      40.089  30.771  30.198  1.00  0.00     0.058 A 
ATOM     75  C   UNL A   1      39.033  29.944  30.566  1.00  0.00     0.135 A 
ATOM     76  C   UNL A   1      39.658  32.041  30.317  1.00  0.00     0.135 A 
ATOM     77  F   UNL A   1      39.032  28.675  30.123  1.00  0.00    -0.206 F 
ATOM     78  C   UNL A   1      37.825  30.414  31.340  1.00  0.00     0.059 A 
ATOM     79  C   UNL A   1      38.682  32.321  31.403  1.00  0.00     0.059 A 
ATOM     80  F   UNL A   1      40.486  33.020  29.925  1.00  0.00    -0.206 F 
ATOM     81  C   UNL A   1      37.557  31.740  32.055  1.00  0.00     0.060 A 
BRANCH  81  82
ATOM     82  S   UNL A   1      35.518  32.935  32.570  1.00  0.00     0.124 S 
ATOM     83  O   UNL A   1      35.268  33.055  34.011  1.00  0.00    -0.237 OA
ATOM     84  O   UNL A   1      35.469  34.294  32.007  1.00  0.00    -0.237 OA
ATOM     85  O   UNL A   1      34.412  32.212  31.975  1.00  0.00    -0.744 OA
ENDBRANCH  81  82
ENDBRANCH  49  74
BRANCH  61  86
ATOM     86  C   UNL A   1      44.743  25.570  32.822  1.00  0.00     0.058 A 
ATOM     87  C   UNL A   1      44.417  24.261  32.451  1.00  0.00     0.135 A 
ATOM     88  C   UNL A   1      45.516  25.693  34.011  1.00  0.00     0.135 A 
ATOM     89  F   UNL A   1      43.790  24.005  31.294  1.00  0.00    -0.206 F 
ATOM     90  C   UNL A   1      44.746  23.159  33.251  1.00  0.00     0.059 A 
ATOM     91  C   UNL A   1      45.905  24.611  34.787  1.00  0.00     0.059 A 
ATOM     92  F   UNL A   1      45.915  26.887  34.475  1.00  0.00    -0.206 F 
ATOM     93  C   UNL A   1      45.473  23.348  34.427  1.00  0.00     0.060 A 
BRANCH  93  94
ATOM     94  S   UNL A   1      45.850  21.954  35.502  1.00  0.00     0.124 S 
ATOM     95  O   UNL A   1      45.024  20.905  34.912  1.00  0.00    -0.237 OA
ATOM     96  O   UNL A   1      47.291  21.794  35.332  1.00  0.00    -0.237 OA
ATOM     97  O   UNL A   1      45.429  22.418  36.820  1.00  0.00    -0.744 OA
ENDBRANCH  93  94
ENDBRANCH  61  86
ENDBRANCH  35  36
ENDBRANCH  28  30
ENDBRANCH  27  28
ENDBRANCH  26  27
ENDBRANCH   1  26
TORSDOF 20
ENDMDL
MODEL 2
REMARK VINA RESULT:     -12.3      5.129     11.409
REMARK SMILES COc1cc(CC(=O)N[C@@H](CC(=O)OCCOC(=O)c2ccc(-c3c4nc(c(-c5c(F)cc(S(=O)(=O)[O-])cc5F)c5ccc([nH]5)c(-c5c(F)cc(S(=O)(=O)[O-])cc5F)c5nc(c(-c6c(F)cc(S(=O)(=O)[O-])cc6F)c6ccc3[nH]6)C=C5)C=C4)cc2)c2cccs2)ccc1C
REMARK SMILES IDX 15 1 14 2 12 3 13 4 11 5 10 6 9 7 7 8 8 9 6 11 5 12 3 13
REMARK SMILES IDX 4 14 93 15 92 16 94 17 91 18 2 19 1 20 86 21 87 22 90 23
REMARK SMILES IDX 88 24 89 25 16 26 17 27 18 28 19 29 20 30 21 31 85 32 22 33
REMARK SMILES IDX 84 34 23 35 24 36 25 37 78 38 26 39 83 40 77 41 79 42 27 43
REMARK SMILES IDX 82 44 76 45 75 46 28 48 62 49 41 50 61 51 42 52 45 53 60 54
REMARK SMILES IDX 80 55 43 56 44 57 59 59 81 60 46 61 29 62 30 63 39 64 31 65
REMARK SMILES IDX 32 66 38 67 40 68 33 69 34 70 35 71 36 72 37 73 63 74 64 75
REMARK SMILES IDX 73 76 65 77 66 78 72 79 74 80 67 81 68 82 69 83 70 84 71 85
REMARK SMILES IDX 47 86 48 87 57 88 49 89 50 90 56 91 58 92 51 93 52 94 53 95
REMARK SMILES IDX 54 96 55 97
REMARK H PARENT 9 10 79 47 45 58
REMARK Flexibility Score: inf
ROOT
ATOM      1  C   UNL A   1      47.409  29.437  28.977  1.00  0.00     0.274 C 
ENDROOT
BRANCH   1   2
ATOM      2  O   UNL A   1      46.898  29.890  27.500  1.00  0.00    -0.462 OA
BRANCH   2   3
ATOM      3  C   UNL A   1      45.841  29.591  26.678  1.00  0.00     0.308 C 
ATOM      4  O   UNL A   1      45.984  29.643  25.450  1.00  0.00    -0.252 OA
BRANCH   3   5
ATOM      5  C   UNL A   1      44.470  28.890  27.254  1.00  0.00     0.153 C 
BRANCH   5   6
ATOM      6  C   UNL A   1      43.576  27.604  27.133  1.00  0.00     0.133 C 
BRANCH   6   7
ATOM      7  N   UNL A   1      42.957  27.315  28.414  1.00  0.00    -0.348 N 
ATOM      8  C   UNL A   1      41.597  27.260  28.586  1.00  0.00     0.224 C 
ATOM      9  O   UNL A   1      41.118  27.795  29.588  1.00  0.00    -0.275 OA
ATOM     10  H   UNL A   1      43.538  27.152  29.192  1.00  0.00     0.164 HD
BRANCH   8  11
ATOM     11  C   UNL A   1      40.738  26.383  27.676  1.00  0.00     0.135 C 
BRANCH  11  12
ATOM     12  C   UNL A   1      40.790  24.869  27.755  1.00  0.00    -0.035 A 
ATOM     13  C   UNL A   1      39.897  22.711  26.978  1.00  0.00     0.122 A 
ATOM     14  C   UNL A   1      39.829  24.111  27.051  1.00  0.00     0.051 A 
ATOM     15  C   UNL A   1      40.938  22.037  27.632  1.00  0.00    -0.009 A 
ATOM     16  C   UNL A   1      41.892  22.786  28.342  1.00  0.00     0.007 A 
ATOM     17  C   UNL A   1      41.095  20.540  27.557  1.00  0.00     0.048 C 
ATOM     18  C   UNL A   1      41.823  24.186  28.401  1.00  0.00     0.005 A 
BRANCH  13  19
ATOM     19  O   UNL A   1      38.983  21.928  26.322  1.00  0.00    -0.496 OA
ATOM     20  C   UNL A   1      37.850  22.586  25.774  1.00  0.00     0.278 C 
ENDBRANCH  13  19
ENDBRANCH  11  12
ENDBRANCH   8  11
ENDBRANCH   6   7
BRANCH   6  21
ATOM     21  C   UNL A   1      43.913  26.322  26.386  1.00  0.00     0.027 A 
ATOM     22  C   UNL A   1      43.420  25.773  25.213  1.00  0.00     0.017 A 
ATOM     23  S   UNL A   1      45.294  25.361  26.891  1.00  0.00    -0.147 S 
ATOM     24  C   UNL A   1      43.859  24.425  25.008  1.00  0.00     0.012 A 
ATOM     25  C   UNL A   1      44.756  24.022  25.968  1.00  0.00     0.065 A 
ENDBRANCH   6  21
ENDBRANCH   5   6
ENDBRANCH   3   5
ENDBRANCH   2   3
ENDBRANCH   1   2
BRANCH   1  26
ATOM     26  C   UNL A   1      46.644  27.941  29.914  1.00  0.00     0.275 C 
BRANCH  26  27
ATOM     27  O   UNL A   1      45.800  28.031  31.612  1.00  0.00    -0.458 OA
BRANCH  27  28
ATOM     28  C   UNL A   1      44.205  27.880  32.378  1.00  0.00     0.338 C 
ATOM     29  O   UNL A   1      43.436  27.166  31.715  1.00  0.00    -0.246 OA
BRANCH  28  30
ATOM     30  C   UNL A   1      43.449  28.755  33.907  1.00  0.00     0.060 A 
ATOM     31  C   UNL A   1      42.366  28.184  34.608  1.00  0.00     0.016 A 
ATOM     32  C   UNL A   1      43.149  30.207  34.085  1.00  0.00     0.016 A 
ATOM     33  C   UNL A   1      41.050  28.981  34.873  1.00  0.00     0.010 A 
ATOM     34  C   UNL A   1      42.046  31.009  34.573  1.00  0.00     0.010 A 
ATOM     35  C   UNL A   1      40.854  30.387  34.615  1.00  0.00    -0.014 A 
BRANCH  35  36
ATOM     36  C   UNL A   1      39.772  31.192  33.804  1.00  0.00     0.031 A 
ATOM     37  C   UNL A   1      38.989  30.536  32.718  1.00  0.00     0.074 A 
ATOM     38  C   UNL A   1      39.061  32.319  34.168  1.00  0.00     0.049 A 
ATOM     39  N   UNL A   1      39.260  30.612  31.456  1.00  0.00    -0.248 NA
ATOM     40  C   UNL A   1      37.678  29.918  33.012  1.00  0.00     0.031 C 
ATOM     41  C   UNL A   1      38.198  33.210  33.365  1.00  0.00     0.029 A 
ATOM     42  N   UNL A   1      39.100  33.071  35.323  1.00  0.00    -0.354 N 
ATOM     43  C   UNL A   1      38.050  30.382  30.807  1.00  0.00     0.074 A 
ATOM     44  C   UNL A   1      37.178  29.746  31.783  1.00  0.00     0.031 C 
ATOM     45  C   UNL A   1      38.314  34.477  33.838  1.00  0.00     0.029 A 
ATOM     46  C   UNL A   1      39.155  34.442  35.016  1.00  0.00     0.049 A 
ATOM     47  H   UNL A   1      39.091  32.700  36.235  1.00  0.00     0.167 HD
ATOM     48  C   UNL A   1      37.606  31.185  29.785  1.00  0.00     0.037 A 
ATOM     49  C   UNL A   1      40.340  35.079  35.286  1.00  0.00     0.037 A 
ATOM     50  C   UNL A   1      38.261  32.502  29.826  1.00  0.00     0.049 A 
ATOM     51  C   UNL A   1      41.203  35.081  33.985  1.00  0.00     0.074 A 
ATOM     52  C   UNL A   1      37.765  33.778  30.065  1.00  0.00     0.029 A 
ATOM     53  N   UNL A   1      39.644  32.613  29.925  1.00  0.00    -0.354 N 
ATOM     54  N   UNL A   1      40.714  34.721  32.826  1.00  0.00    -0.248 NA
ATOM     55  C   UNL A   1      42.623  35.436  33.845  1.00  0.00     0.031 C 
ATOM     56  C   UNL A   1      38.847  34.627  30.394  1.00  0.00     0.029 A 
ATOM     57  C   UNL A   1      40.005  33.876  30.361  1.00  0.00     0.049 A 
ATOM     58  H   UNL A   1      40.279  31.891  29.715  1.00  0.00     0.167 HD
ATOM     59  C   UNL A   1      41.685  34.671  31.859  1.00  0.00     0.074 A 
ATOM     60  C   UNL A   1      42.858  35.189  32.535  1.00  0.00     0.031 C 
ATOM     61  C   UNL A   1      41.404  34.206  30.600  1.00  0.00     0.037 A 
BRANCH  48  62
ATOM     62  C   UNL A   1      36.330  30.911  28.989  1.00  0.00     0.058 A 
ATOM     63  C   UNL A   1      35.227  31.795  29.000  1.00  0.00     0.135 A 
ATOM     64  C   UNL A   1      36.195  29.827  28.089  1.00  0.00     0.135 A 
ATOM     65  F   UNL A   1      35.242  32.938  29.695  1.00  0.00    -0.206 F 
ATOM     66  C   UNL A   1      34.060  31.578  28.265  1.00  0.00     0.059 A 
ATOM     67  C   UNL A   1      35.028  29.580  27.350  1.00  0.00     0.059 A 
ATOM     68  F   UNL A   1      37.215  28.982  27.869  1.00  0.00    -0.206 F 
ATOM     69  C   UNL A   1      33.960  30.463  27.448  1.00  0.00     0.060 A 
BRANCH  69  70
ATOM     70  S   UNL A   1      32.449  30.236  26.489  1.00  0.00     0.124 S 
ATOM     71  O   UNL A   1      31.767  29.184  27.237  1.00  0.00    -0.237 OA
ATOM     72  O   UNL A   1      31.840  31.561  26.562  1.00  0.00    -0.237 OA
ATOM     73  O   UNL A   1      32.937  29.845  25.170  1.00  0.00    -0.744 OA
ENDBRANCH  69  70
ENDBRANCH  48  62
BRANCH  49  74
ATOM     74  C   UNL A   1      40.804  34.627  36.689  1.00  0.00     0.058 A 
ATOM     75  C   UNL A   1      42.152  34.455  36.987  1.00  0.00     0.135 A 
ATOM     76  C   UNL A   1      40.262  35.334  37.700  1.00  0.00     0.135 A 
ATOM     77  F   UNL A   1      42.809  33.437  36.403  1.00  0.00    -0.206 F 
ATOM     78  C   UNL A   1      42.899  35.270  38.014  1.00  0.00     0.059 A 
ATOM     79  C   UNL A   1      41.135  36.340  38.360  1.00  0.00     0.059 A 
ATOM     80  F   UNL A   1      38.938  35.544  37.673  1.00  0.00    -0.206 F 
ATOM     81  C   UNL A   1      42.483  36.530  38.777  1.00  0.00     0.060 A 
BRANCH  81  82
ATOM     82  S   UNL A   1      43.128  37.425  40.930  1.00  0.00     0.124 S 
ATOM     83  O   UNL A   1      43.509  38.840  40.876  1.00  0.00    -0.237 OA
ATOM     84  O   UNL A   1      42.087  37.294  41.961  1.00  0.00    -0.237 OA
ATOM     85  O   UNL A   1      44.265  36.666  41.407  1.00  0.00    -0.744 OA
ENDBRANCH  81  82
ENDBRANCH  49  74
BRANCH  61  86
ATOM     86  C   UNL A   1      42.336  34.118  29.410  1.00  0.00     0.058 A 
ATOM     87  C   UNL A   1      42.511  35.110  28.439  1.00  0.00     0.135 A 
ATOM     88  C   UNL A   1      43.171  32.974  29.271  1.00  0.00     0.135 A 
ATOM     89  F   UNL A   1      41.866  36.283  28.523  1.00  0.00    -0.206 F 
ATOM     90  C   UNL A   1      43.377  34.939  27.352  1.00  0.00     0.059 A 
ATOM     91  C   UNL A   1      44.079  32.809  28.235  1.00  0.00     0.059 A 
ATOM     92  F   UNL A   1      43.123  31.954  30.141  1.00  0.00    -0.206 F 
ATOM     93  C   UNL A   1      44.141  33.776  27.249  1.00  0.00     0.060 A 
BRANCH  93  94
ATOM     94  S   UNL A   1      45.212  33.508  25.826  1.00  0.00     0.124 S 
ATOM     95  O   UNL A   1      45.340  34.865  25.304  1.00  0.00    -0.237 OA
ATOM     96  O   UNL A   1      46.417  32.947  26.429  1.00  0.00    -0.237 OA
ATOM     97  O   UNL A   1      44.447  32.585  24.995  1.00  0.00    -0.744 OA
ENDBRANCH  93  94
ENDBRANCH  61  86
ENDBRANCH  35  36
ENDBRANCH  28  30
ENDBRANCH  27  28
ENDBRANCH  26  27
ENDBRANCH   1  26
TORSDOF 20
ENDMDL
MODEL 3
REMARK VINA RESULT:     -12.2      4.279     10.504
REMARK SMILES COc1cc(CC(=O)N[C@@H](CC(=O)OCCOC(=O)c2ccc(-c3c4nc(c(-c5c(F)cc(S(=O)(=O)[O-])cc5F)c5ccc([nH]5)c(-c5c(F)cc(S(=O)(=O)[O-])cc5F)c5nc(c(-c6c(F)cc(S(=O)(=O)[O-])cc6F)c6ccc3[nH]6)C=C5)C=C4)cc2)c2cccs2)ccc1C
REMARK SMILES IDX 15 1 14 2 12 3 13 4 11 5 10 6 9 7 7 8 8 9 6 11 5 12 3 13
REMARK SMILES IDX 4 14 93 15 92 16 94 17 91 18 2 19 1 20 86 21 87 22 90 23
REMARK SMILES IDX 88 24 89 25 16 26 17 27 18 28 19 29 20 30 21 31 85 32 22 33
REMARK SMILES IDX 84 34 23 35 24 36 25 37 78 38 26 39 83 40 77 41 79 42 27 43
REMARK SMILES IDX 82 44 76 45 75 46 28 48 62 49 41 50 61 51 42 52 45 53 60 54
REMARK SMILES IDX 80 55 43 56 44 57 59 59 81 60 46 61 29 62 30 63 39 64 31 65
REMARK SMILES IDX 32 66 38 67 40 68 33 69 34 70 35 71 36 72 37 73 63 74 64 75
REMARK SMILES IDX 73 76 65 77 66 78 72 79 74 80 67 81 68 82 69 83 70 84 71 85
REMARK SMILES IDX 47 86 48 87 57 88 49 89 50 90 56 91 58 92 51 93 52 94 53 95
REMARK SMILES IDX 54 96 55 97
REMARK H PARENT 9 10 79 47 45 58
REMARK Flexibility Score: inf
ROOT
ATOM      1  C   UNL A   1      31.906  29.182  26.249  1.00  0.00     0.274 C 
ENDROOT
BRANCH   1   2
ATOM      2  O   UNL A   1      33.221  28.382  25.720  1.00  0.00    -0.462 OA
BRANCH   2   3
ATOM      3  C   UNL A   1      33.633  27.815  24.541  1.00  0.00     0.308 C 
ATOM      4  O   UNL A   1      34.356  28.457  23.769  1.00  0.00    -0.252 OA
BRANCH   3   5
ATOM      5  C   UNL A   1      33.439  26.210  24.240  1.00  0.00     0.153 C 
BRANCH   5   6
ATOM      6  C   UNL A   1      33.832  24.782  24.764  1.00  0.00     0.133 C 
BRANCH   6   7
ATOM      7  N   UNL A   1      33.380  24.621  26.134  1.00  0.00    -0.348 N 
ATOM      8  C   UNL A   1      32.893  23.434  26.621  1.00  0.00     0.224 C 
ATOM      9  O   UNL A   1      31.887  23.469  27.334  1.00  0.00    -0.275 OA
ATOM     10  H   UNL A   1      33.424  25.397  26.740  1.00  0.00     0.164 HD
BRANCH   8  11
ATOM     11  C   UNL A   1      33.696  22.144  26.456  1.00  0.00     0.135 C 
BRANCH  11  12
ATOM     12  C   UNL A   1      33.389  21.156  25.347  1.00  0.00    -0.035 A 
ATOM     13  C   UNL A   1      33.497  18.834  24.538  1.00  0.00     0.122 A 
ATOM     14  C   UNL A   1      33.853  19.827  25.463  1.00  0.00     0.051 A 
ATOM     15  C   UNL A   1      32.668  19.164  23.457  1.00  0.00    -0.009 A 
ATOM     16  C   UNL A   1      32.210  20.488  23.332  1.00  0.00     0.007 A 
ATOM     17  C   UNL A   1      32.211  18.137  22.453  1.00  0.00     0.048 C 
ATOM     18  C   UNL A   1      32.563  21.473  24.266  1.00  0.00     0.005 A 
BRANCH  13  19
ATOM     19  O   UNL A   1      33.932  17.535  24.596  1.00  0.00    -0.496 OA
ATOM     20  C   UNL A   1      33.291  16.685  25.536  1.00  0.00     0.278 C 
ENDBRANCH  13  19
ENDBRANCH  11  12
ENDBRANCH   8  11
ENDBRANCH   6   7
BRANCH   6  21
ATOM     21  C   UNL A   1      35.146  24.051  24.532  1.00  0.00     0.027 A 
ATOM     22  C   UNL A   1      35.639  23.350  23.443  1.00  0.00     0.017 A 
ATOM     23  S   UNL A   1      36.443  24.205  25.706  1.00  0.00    -0.147 S 
ATOM     24  C   UNL A   1      36.832  22.618  23.752  1.00  0.00     0.012 A 
ATOM     25  C   UNL A   1      37.273  22.867  25.030  1.00  0.00     0.065 A 
ENDBRANCH   6  21
ENDBRANCH   5   6
ENDBRANCH   3   5
ENDBRANCH   2   3
ENDBRANCH   1   2
BRANCH   1  26
ATOM     26  C   UNL A   1      31.984  31.016  26.824  1.00  0.00     0.275 C 
BRANCH  26  27
ATOM     27  O   UNL A   1      33.547  31.905  27.434  1.00  0.00    -0.458 OA
BRANCH  27  28
ATOM     28  C   UNL A   1      35.058  31.603  28.317  1.00  0.00     0.338 C 
ATOM     29  O   UNL A   1      35.268  32.462  29.188  1.00  0.00    -0.246 OA
BRANCH  28  30
ATOM     30  C   UNL A   1      36.454  30.321  28.033  1.00  0.00     0.060 A 
ATOM     31  C   UNL A   1      36.414  29.055  28.654  1.00  0.00     0.016 A 
ATOM     32  C   UNL A   1      37.929  30.556  27.995  1.00  0.00     0.016 A 
ATOM     33  C   UNL A   1      37.606  28.526  29.513  1.00  0.00     0.010 A 
ATOM     34  C   UNL A   1      39.115  29.943  28.558  1.00  0.00     0.010 A 
ATOM     35  C   UNL A   1      38.903  29.148  29.623  1.00  0.00    -0.014 A 
BRANCH  35  36
ATOM     36  C   UNL A   1      39.776  29.608  30.849  1.00  0.00     0.031 A 
ATOM     37  C   UNL A   1      39.201  30.483  31.909  1.00  0.00     0.074 A 
ATOM     38  C   UNL A   1      40.896  29.016  31.400  1.00  0.00     0.049 A 
ATOM     39  N   UNL A   1      39.342  31.767  31.973  1.00  0.00    -0.248 NA
ATOM     40  C   UNL A   1      38.595  29.889  33.121  1.00  0.00     0.031 C 
ATOM     41  C   UNL A   1      41.850  29.521  32.409  1.00  0.00     0.029 A 
ATOM     42  N   UNL A   1      41.580  27.876  31.036  1.00  0.00    -0.354 N 
ATOM     43  C   UNL A   1      39.176  32.089  33.317  1.00  0.00     0.074 A 
ATOM     44  C   UNL A   1      38.505  30.951  33.928  1.00  0.00     0.031 C 
ATOM     45  C   UNL A   1      43.085  29.033  32.129  1.00  0.00     0.029 A 
ATOM     46  C   UNL A   1      42.965  28.118  31.013  1.00  0.00     0.049 A 
ATOM     47  H   UNL A   1      41.157  27.012  30.822  1.00  0.00     0.167 HD
ATOM     48  C   UNL A   1      40.046  32.918  33.981  1.00  0.00     0.037 A 
ATOM     49  C   UNL A   1      43.559  28.135  29.776  1.00  0.00     0.037 A 
ATOM     50  C   UNL A   1      41.343  32.984  33.291  1.00  0.00     0.049 A 
ATOM     51  C   UNL A   1      43.616  29.615  29.281  1.00  0.00     0.074 A 
ATOM     52  C   UNL A   1      42.614  32.562  33.662  1.00  0.00     0.029 A 
ATOM     53  N   UNL A   1      41.418  33.244  31.927  1.00  0.00    -0.354 N 
ATOM     54  N   UNL A   1      43.334  30.622  30.066  1.00  0.00    -0.248 NA
ATOM     55  C   UNL A   1      43.948  30.103  27.934  1.00  0.00     0.031 C 
ATOM     56  C   UNL A   1      43.419  32.485  32.502  1.00  0.00     0.029 A 
ATOM     57  C   UNL A   1      42.646  32.856  31.420  1.00  0.00     0.049 A 
ATOM     58  H   UNL A   1      40.696  33.648  31.394  1.00  0.00     0.167 HD
ATOM     59  C   UNL A   1      43.318  31.810  29.382  1.00  0.00     0.074 A 
ATOM     60  C   UNL A   1      43.771  31.439  28.056  1.00  0.00     0.031 C 
ATOM     61  C   UNL A   1      42.932  32.974  29.996  1.00  0.00     0.037 A 
BRANCH  48  62
ATOM     62  C   UNL A   1      39.845  33.367  35.429  1.00  0.00     0.058 A 
ATOM     63  C   UNL A   1      40.272  32.587  36.528  1.00  0.00     0.135 A 
ATOM     64  C   UNL A   1      39.333  34.637  35.784  1.00  0.00     0.135 A 
ATOM     65  F   UNL A   1      40.898  31.416  36.365  1.00  0.00    -0.206 F 
ATOM     66  C   UNL A   1      40.120  32.984  37.858  1.00  0.00     0.059 A 
ATOM     67  C   UNL A   1      39.158  35.054  37.112  1.00  0.00     0.059 A 
ATOM     68  F   UNL A   1      39.015  35.540  34.842  1.00  0.00    -0.206 F 
ATOM     69  C   UNL A   1      39.553  34.215  38.146  1.00  0.00     0.060 A 
BRANCH  69  70
ATOM     70  S   UNL A   1      39.405  34.706  39.877  1.00  0.00     0.124 S 
ATOM     71  O   UNL A   1      40.648  34.196  40.446  1.00  0.00    -0.237 OA
ATOM     72  O   UNL A   1      39.305  36.159  39.774  1.00  0.00    -0.237 OA
ATOM     73  O   UNL A   1      38.193  34.026  40.322  1.00  0.00    -0.744 OA
ENDBRANCH  69  70
ENDBRANCH  48  62
BRANCH  49  74
ATOM     74  C   UNL A   1      43.018  26.926  28.982  1.00  0.00     0.058 A 
ATOM     75  C   UNL A   1      42.638  27.045  27.648  1.00  0.00     0.135 A 
ATOM     76  C   UNL A   1      43.781  25.820  29.078  1.00  0.00     0.135 A 
ATOM     77  F   UNL A   1      41.543  27.771  27.360  1.00  0.00    -0.206 F 
ATOM     78  C   UNL A   1      43.313  26.317  26.511  1.00  0.00     0.059 A 
ATOM     79  C   UNL A   1      44.631  25.485  27.906  1.00  0.00     0.059 A 
ATOM     80  F   UNL A   1      44.190  25.451  30.301  1.00  0.00    -0.206 F 
ATOM     81  C   UNL A   1      44.608  25.503  26.482  1.00  0.00     0.060 A 
BRANCH  81  82
ATOM     82  S   UNL A   1      45.357  23.674  25.088  1.00  0.00     0.124 S 
ATOM     83  O   UNL A   1      45.946  22.569  25.852  1.00  0.00    -0.237 OA
ATOM     84  O   UNL A   1      44.297  23.100  24.243  1.00  0.00    -0.237 OA
ATOM     85  O   UNL A   1      46.362  24.186  24.180  1.00  0.00    -0.744 OA
ENDBRANCH  81  82
ENDBRANCH  49  74
BRANCH  61  86
ATOM     86  C   UNL A   1      42.891  34.368  29.408  1.00  0.00     0.058 A 
ATOM     87  C   UNL A   1      41.735  35.053  29.016  1.00  0.00     0.135 A 
ATOM     88  C   UNL A   1      44.104  35.104  29.292  1.00  0.00     0.135 A 
ATOM     89  F   UNL A   1      40.519  34.512  29.183  1.00  0.00    -0.206 F 
ATOM     90  C   UNL A   1      41.787  36.335  28.456  1.00  0.00     0.059 A 
ATOM     91  C   UNL A   1      44.172  36.397  28.795  1.00  0.00     0.059 A 
ATOM     92  F   UNL A   1      45.286  34.578  29.648  1.00  0.00    -0.206 F 
ATOM     93  C   UNL A   1      43.012  36.990  28.331  1.00  0.00     0.060 A 
BRANCH  93  94
ATOM     94  S   UNL A   1      43.108  38.612  27.554  1.00  0.00     0.124 S 
ATOM     95  O   UNL A   1      41.958  38.568  26.657  1.00  0.00    -0.237 OA
ATOM     96  O   UNL A   1      42.990  39.522  28.689  1.00  0.00    -0.237 OA
ATOM     97  O   UNL A   1      44.414  38.599  26.903  1.00  0.00    -0.744 OA
ENDBRANCH  93  94
ENDBRANCH  61  86
ENDBRANCH  35  36
ENDBRANCH  28  30
ENDBRANCH  27  28
ENDBRANCH  26  27
ENDBRANCH   1  26
TORSDOF 20
ENDMDL
