MODEL 1
REMARK VINA RESULT:     -13.8      0.000      0.000
REMARK SMILES Cc1ccc(C(CC2CCCC2)C(=O)OCCOC(=O)c2ccc(-c3c4nc(c(-c5c(F)cc(S(=O)(=O)[O-])cc5F)c5ccc([nH]5)c(-c5c(F)cc(S(=O)(=O)[O-])cc5F)c5nc(c(-c6c(F)cc(S(=O)(=O)[O-])cc6F)c6ccc3[nH]6)C=C5)C=C4)cc2)cc1
REMARK SMILES IDX 17 1 16 2 15 3 13 4 14 5 6 6 5 7 1 8 2 9 3 10 88 11 4 12
REMARK SMILES IDX 87 13 7 14 8 15 9 16 12 17 10 18 11 19 18 20 19 21 20 22
REMARK SMILES IDX 21 23 22 24 86 25 23 26 85 27 24 28 25 29 26 30 79 31 27 32
REMARK SMILES IDX 84 33 78 34 80 35 28 36 83 37 77 38 76 39 29 41 63 42 42 43
REMARK SMILES IDX 62 44 43 45 46 46 61 47 81 48 44 49 45 50 60 52 82 53 47 54
REMARK SMILES IDX 30 55 31 56 40 57 32 58 33 59 39 60 41 61 34 62 35 63 36 64
REMARK SMILES IDX 37 65 38 66 64 67 65 68 74 69 66 70 67 71 73 72 75 73 68 74
REMARK SMILES IDX 69 75 70 76 71 77 72 78 48 79 49 80 58 81 50 82 51 83 57 84
REMARK SMILES IDX 59 85 52 86 53 87 54 88 55 89 56 90
REMARK H PARENT 80 40 46 51
REMARK Flexibility Score: inf
ROOT
ATOM      1  C   UNL A   1      39.579  20.817  25.929  1.00  0.00     0.275 C 
ENDROOT
BRANCH   1   2
ATOM      2  C   UNL A   1      38.396  21.777  25.684  1.00  0.00     0.274 C 
BRANCH   2   3
ATOM      3  O   UNL A   1      37.181  21.139  25.281  1.00  0.00    -0.462 OA
BRANCH   3   4
ATOM      4  C   UNL A   1      36.367  21.914  24.489  1.00  0.00     0.313 C 
ATOM      5  O   UNL A   1      36.812  22.473  23.497  1.00  0.00    -0.252 OA
BRANCH   4   6
ATOM      6  C   UNL A   1      34.684  21.848  24.812  1.00  0.00     0.129 C 
BRANCH   6   7
ATOM      7  C   UNL A   1      34.115  23.557  25.528  1.00  0.00    -0.034 A 
ATOM      8  C   UNL A   1      32.006  27.436  26.324  1.00  0.00     0.044 C 
ATOM      9  C   UNL A   1      32.802  26.182  26.105  1.00  0.00    -0.051 A 
ATOM     10  C   UNL A   1      34.048  26.055  25.451  1.00  0.00     0.004 A 
ATOM     11  C   UNL A   1      32.189  25.022  26.475  1.00  0.00     0.004 A 
ATOM     12  C   UNL A   1      34.692  24.778  25.153  1.00  0.00     0.005 A 
ATOM     13  C   UNL A   1      32.812  23.813  26.176  1.00  0.00     0.005 A 
ENDBRANCH   6   7
BRANCH   6  14
ATOM     14  C   UNL A   1      33.348  20.102  24.446  1.00  0.00     0.023 C 
BRANCH  14  15
ATOM     15  C   UNL A   1      33.640  18.333  24.825  1.00  0.00    -0.010 C 
ATOM     16  C   UNL A   1      32.420  17.488  25.172  1.00  0.00     0.003 C 
ATOM     17  C   UNL A   1      34.361  17.449  23.800  1.00  0.00     0.003 C 
ATOM     18  C   UNL A   1      33.095  16.134  25.447  1.00  0.00     0.000 C 
ATOM     19  C   UNL A   1      34.305  16.075  24.496  1.00  0.00     0.000 C 
ENDBRANCH  14  15
ENDBRANCH   6  14
ENDBRANCH   4   6
ENDBRANCH   3   4
ENDBRANCH   2   3
ENDBRANCH   1   2
BRANCH   1  20
ATOM     20  O   UNL A   1      40.580  21.066  26.997  1.00  0.00    -0.458 OA
BRANCH  20  21
ATOM     21  C   UNL A   1      41.369  22.066  27.499  1.00  0.00     0.338 C 
ATOM     22  O   UNL A   1      42.342  21.829  28.205  1.00  0.00    -0.246 OA
BRANCH  21  23
ATOM     23  C   UNL A   1      41.157  23.470  27.046  1.00  0.00     0.060 A 
ATOM     24  C   UNL A   1      42.088  24.458  25.802  1.00  0.00     0.016 A 
ATOM     25  C   UNL A   1      39.823  24.196  27.915  1.00  0.00     0.016 A 
ATOM     26  C   UNL A   1      41.625  26.242  25.663  1.00  0.00     0.010 A 
ATOM     27  C   UNL A   1      39.499  25.876  27.892  1.00  0.00     0.010 A 
ATOM     28  C   UNL A   1      40.388  26.963  26.900  1.00  0.00    -0.014 A 
BRANCH  28  29
ATOM     29  C   UNL A   1      40.622  28.059  28.267  1.00  0.00     0.031 A 
ATOM     30  C   UNL A   1      39.560  29.060  28.656  1.00  0.00     0.074 A 
ATOM     31  C   UNL A   1      41.768  28.437  28.990  1.00  0.00     0.049 A 
ATOM     32  N   UNL A   1      39.845  30.304  28.939  1.00  0.00    -0.248 NA
ATOM     33  C   UNL A   1      38.146  28.751  28.742  1.00  0.00     0.031 C 
ATOM     34  C   UNL A   1      41.792  29.209  30.249  1.00  0.00     0.029 A 
ATOM     35  N   UNL A   1      43.158  28.378  28.742  1.00  0.00    -0.354 N 
ATOM     36  C   UNL A   1      38.736  30.884  29.464  1.00  0.00     0.074 A 
ATOM     37  C   UNL A   1      37.673  29.911  29.223  1.00  0.00     0.031 C 
ATOM     38  C   UNL A   1      42.981  29.812  30.405  1.00  0.00     0.029 A 
ATOM     39  C   UNL A   1      43.874  29.439  29.321  1.00  0.00     0.049 A 
ATOM     40  H   UNL A   1      43.583  27.665  28.214  1.00  0.00     0.167 HD
ATOM     41  C   UNL A   1      38.770  32.045  30.181  1.00  0.00     0.037 A 
ATOM     42  C   UNL A   1      45.062  30.031  28.970  1.00  0.00     0.037 A 
ATOM     43  C   UNL A   1      40.077  32.497  30.665  1.00  0.00     0.049 A 
ATOM     44  C   UNL A   1      45.109  31.508  29.245  1.00  0.00     0.074 A 
ATOM     45  C   UNL A   1      40.701  32.323  31.894  1.00  0.00     0.029 A 
ATOM     46  N   UNL A   1      40.998  33.173  29.876  1.00  0.00    -0.354 N 
ATOM     47  N   UNL A   1      44.222  32.115  29.967  1.00  0.00    -0.248 NA
ATOM     48  C   UNL A   1      46.044  32.450  28.613  1.00  0.00     0.031 C 
ATOM     49  C   UNL A   1      41.933  33.017  31.891  1.00  0.00     0.029 A 
ATOM     50  C   UNL A   1      42.104  33.564  30.635  1.00  0.00     0.049 A 
ATOM     51  H   UNL A   1      40.887  33.351  28.915  1.00  0.00     0.167 HD
ATOM     52  C   UNL A   1      44.272  33.450  29.688  1.00  0.00     0.074 A 
ATOM     53  C   UNL A   1      45.480  33.632  28.911  1.00  0.00     0.031 C 
ATOM     54  C   UNL A   1      43.236  34.261  30.030  1.00  0.00     0.037 A 
BRANCH  41  55
ATOM     55  C   UNL A   1      37.476  32.572  30.731  1.00  0.00     0.058 A 
ATOM     56  C   UNL A   1      36.638  33.437  30.006  1.00  0.00     0.135 A 
ATOM     57  C   UNL A   1      37.081  32.286  32.053  1.00  0.00     0.135 A 
ATOM     58  F   UNL A   1      36.854  33.719  28.715  1.00  0.00    -0.206 F 
ATOM     59  C   UNL A   1      35.576  34.104  30.602  1.00  0.00     0.059 A 
ATOM     60  C   UNL A   1      36.050  32.974  32.684  1.00  0.00     0.059 A 
ATOM     61  F   UNL A   1      37.759  31.386  32.786  1.00  0.00    -0.206 F 
ATOM     62  C   UNL A   1      35.326  33.910  31.956  1.00  0.00     0.060 A 
BRANCH  62  63
ATOM     63  S   UNL A   1      34.144  34.996  32.775  1.00  0.00     0.124 S 
ATOM     64  O   UNL A   1      33.908  36.020  31.761  1.00  0.00    -0.237 OA
ATOM     65  O   UNL A   1      33.032  34.090  33.036  1.00  0.00    -0.237 OA
ATOM     66  O   UNL A   1      34.878  35.456  33.951  1.00  0.00    -0.744 OA
ENDBRANCH  62  63
ENDBRANCH  41  55
BRANCH  42  67
ATOM     67  C   UNL A   1      46.061  29.392  28.070  1.00  0.00     0.058 A 
ATOM     68  C   UNL A   1      46.988  28.483  28.601  1.00  0.00     0.135 A 
ATOM     69  C   UNL A   1      46.094  29.577  26.681  1.00  0.00     0.135 A 
ATOM     70  F   UNL A   1      47.075  28.313  29.931  1.00  0.00    -0.206 F 
ATOM     71  C   UNL A   1      47.775  27.663  27.789  1.00  0.00     0.059 A 
ATOM     72  C   UNL A   1      46.831  28.735  25.838  1.00  0.00     0.059 A 
ATOM     73  F   UNL A   1      45.356  30.543  26.115  1.00  0.00    -0.206 F 
ATOM     74  C   UNL A   1      47.612  27.728  26.405  1.00  0.00     0.060 A 
BRANCH  74  75
ATOM     75  S   UNL A   1      48.077  26.279  25.404  1.00  0.00     0.124 S 
ATOM     76  O   UNL A   1      48.037  25.208  26.394  1.00  0.00    -0.237 OA
ATOM     77  O   UNL A   1      47.018  26.232  24.394  1.00  0.00    -0.237 OA
ATOM     78  O   UNL A   1      49.406  26.624  24.907  1.00  0.00    -0.744 OA
ENDBRANCH  74  75
ENDBRANCH  42  67
BRANCH  54  79
ATOM     79  C   UNL A   1      43.234  35.742  29.811  1.00  0.00     0.058 A 
ATOM     80  C   UNL A   1      42.680  36.349  28.667  1.00  0.00     0.135 A 
ATOM     81  C   UNL A   1      43.894  36.602  30.710  1.00  0.00     0.135 A 
ATOM     82  F   UNL A   1      42.117  35.612  27.696  1.00  0.00    -0.206 F 
ATOM     83  C   UNL A   1      42.712  37.730  28.466  1.00  0.00     0.059 A 
ATOM     84  C   UNL A   1      43.976  37.978  30.509  1.00  0.00     0.059 A 
ATOM     85  F   UNL A   1      44.467  36.128  31.826  1.00  0.00    -0.206 F 
ATOM     86  C   UNL A   1      43.357  38.537  29.398  1.00  0.00     0.060 A 
BRANCH  86  87
ATOM     87  S   UNL A   1      43.419  40.319  29.129  1.00  0.00     0.124 S 
ATOM     88  O   UNL A   1      44.852  40.581  29.051  1.00  0.00    -0.237 OA
ATOM     89  O   UNL A   1      42.683  40.450  27.876  1.00  0.00    -0.237 OA
ATOM     90  O   UNL A   1      42.754  40.862  30.310  1.00  0.00    -0.744 OA
ENDBRANCH  86  87
ENDBRANCH  54  79
ENDBRANCH  28  29
ENDBRANCH  21  23
ENDBRANCH  20  21
ENDBRANCH   1  20
TORSDOF 17
ENDMDL
MODEL 2
REMARK VINA RESULT:     -13.5      5.522     12.821
REMARK SMILES Cc1ccc(C(CC2CCCC2)C(=O)OCCOC(=O)c2ccc(-c3c4nc(c(-c5c(F)cc(S(=O)(=O)[O-])cc5F)c5ccc([nH]5)c(-c5c(F)cc(S(=O)(=O)[O-])cc5F)c5nc(c(-c6c(F)cc(S(=O)(=O)[O-])cc6F)c6ccc3[nH]6)C=C5)C=C4)cc2)cc1
REMARK SMILES IDX 17 1 16 2 15 3 13 4 14 5 6 6 5 7 1 8 2 9 3 10 88 11 4 12
REMARK SMILES IDX 87 13 7 14 8 15 9 16 12 17 10 18 11 19 18 20 19 21 20 22
REMARK SMILES IDX 21 23 22 24 86 25 23 26 85 27 24 28 25 29 26 30 79 31 27 32
REMARK SMILES IDX 84 33 78 34 80 35 28 36 83 37 77 38 76 39 29 41 63 42 42 43
REMARK SMILES IDX 62 44 43 45 46 46 61 47 81 48 44 49 45 50 60 52 82 53 47 54
REMARK SMILES IDX 30 55 31 56 40 57 32 58 33 59 39 60 41 61 34 62 35 63 36 64
REMARK SMILES IDX 37 65 38 66 64 67 65 68 74 69 66 70 67 71 73 72 75 73 68 74
REMARK SMILES IDX 69 75 70 76 71 77 72 78 48 79 49 80 58 81 50 82 51 83 57 84
REMARK SMILES IDX 59 85 52 86 53 87 54 88 55 89 56 90
REMARK H PARENT 80 40 46 51
REMARK Flexibility Score: inf
ROOT
ATOM      1  C   UNL A   1      44.812  35.364  33.913  1.00  0.00     0.275 C 
ENDROOT
BRANCH   1   2
ATOM      2  C   UNL A   1      46.038  34.434  33.815  1.00  0.00     0.274 C 
BRANCH   2   3
ATOM      3  O   UNL A   1      46.042  33.565  32.679  1.00  0.00    -0.462 OA
BRANCH   3   4
ATOM      4  C   UNL A   1      45.197  32.486  32.784  1.00  0.00     0.313 C 
ATOM      5  O   UNL A   1      44.886  32.042  33.880  1.00  0.00    -0.252 OA
BRANCH   4   6
ATOM      6  C   UNL A   1      44.418  31.972  31.345  1.00  0.00     0.129 C 
BRANCH   6   7
ATOM      7  C   UNL A   1      42.846  33.069  31.056  1.00  0.00    -0.034 A 
ATOM      8  C   UNL A   1      38.829  34.649  29.829  1.00  0.00     0.044 C 
ATOM      9  C   UNL A   1      40.210  34.225  30.242  1.00  0.00    -0.051 A 
ATOM     10  C   UNL A   1      41.433  34.540  29.609  1.00  0.00     0.004 A 
ATOM     11  C   UNL A   1      40.270  33.337  31.274  1.00  0.00     0.004 A 
ATOM     12  C   UNL A   1      42.724  33.972  29.990  1.00  0.00     0.005 A 
ATOM     13  C   UNL A   1      41.507  32.798  31.619  1.00  0.00     0.005 A 
ENDBRANCH   6   7
BRANCH   6  14
ATOM     14  C   UNL A   1      45.101  30.331  30.001  1.00  0.00     0.023 C 
BRANCH  14  15
ATOM     15  C   UNL A   1      45.033  28.520  30.272  1.00  0.00    -0.010 C 
ATOM     16  C   UNL A   1      46.215  27.882  30.991  1.00  0.00     0.003 C 
ATOM     17  C   UNL A   1      43.839  27.911  31.015  1.00  0.00     0.003 C 
ATOM     18  C   UNL A   1      45.783  26.406  30.973  1.00  0.00     0.000 C 
ATOM     19  C   UNL A   1      44.246  26.425  31.074  1.00  0.00     0.000 C 
ENDBRANCH  14  15
ENDBRANCH   6  14
ENDBRANCH   4   6
ENDBRANCH   3   4
ENDBRANCH   2   3
ENDBRANCH   1   2
BRANCH   1  20
ATOM     20  O   UNL A   1      44.722  36.435  34.938  1.00  0.00    -0.458 OA
BRANCH  20  21
ATOM     21  C   UNL A   1      43.793  37.178  35.616  1.00  0.00     0.338 C 
ATOM     22  O   UNL A   1      43.820  38.403  35.616  1.00  0.00    -0.246 OA
BRANCH  21  23
ATOM     23  C   UNL A   1      42.614  36.504  36.230  1.00  0.00     0.060 A 
ATOM     24  C   UNL A   1      42.287  36.078  37.992  1.00  0.00     0.016 A 
ATOM     25  C   UNL A   1      41.450  36.070  34.998  1.00  0.00     0.016 A 
ATOM     26  C   UNL A   1      40.777  35.064  38.320  1.00  0.00     0.010 A 
ATOM     27  C   UNL A   1      40.139  35.008  35.285  1.00  0.00     0.010 A 
ATOM     28  C   UNL A   1      39.792  34.391  36.852  1.00  0.00    -0.014 A 
BRANCH  28  29
ATOM     29  C   UNL A   1      39.654  32.753  36.203  1.00  0.00     0.031 A 
ATOM     30  C   UNL A   1      40.852  31.836  36.135  1.00  0.00     0.074 A 
ATOM     31  C   UNL A   1      38.664  32.125  35.424  1.00  0.00     0.049 A 
ATOM     32  N   UNL A   1      41.127  31.125  35.074  1.00  0.00    -0.248 NA
ATOM     33  C   UNL A   1      41.804  31.664  37.216  1.00  0.00     0.031 C 
ATOM     34  C   UNL A   1      38.575  30.682  35.121  1.00  0.00     0.029 A 
ATOM     35  N   UNL A   1      37.611  32.588  34.603  1.00  0.00    -0.354 N 
ATOM     36  C   UNL A   1      42.110  30.247  35.395  1.00  0.00     0.074 A 
ATOM     37  C   UNL A   1      42.575  30.690  36.707  1.00  0.00     0.031 C 
ATOM     38  C   UNL A   1      37.861  30.483  34.002  1.00  0.00     0.029 A 
ATOM     39  C   UNL A   1      37.347  31.749  33.507  1.00  0.00     0.049 A 
ATOM     40  H   UNL A   1      37.111  33.416  34.781  1.00  0.00     0.167 HD
ATOM     41  C   UNL A   1      42.393  29.138  34.650  1.00  0.00     0.037 A 
ATOM     42  C   UNL A   1      36.807  32.012  32.273  1.00  0.00     0.037 A 
ATOM     43  C   UNL A   1      41.395  28.721  33.661  1.00  0.00     0.049 A 
ATOM     44  C   UNL A   1      37.388  31.177  31.165  1.00  0.00     0.074 A 
ATOM     45  C   UNL A   1      40.378  27.778  33.738  1.00  0.00     0.029 A 
ATOM     46  N   UNL A   1      41.264  29.304  32.408  1.00  0.00    -0.354 N 
ATOM     47  N   UNL A   1      38.138  30.145  31.386  1.00  0.00    -0.248 NA
ATOM     48  C   UNL A   1      37.319  31.514  29.736  1.00  0.00     0.031 C 
ATOM     49  C   UNL A   1      39.729  27.692  32.485  1.00  0.00     0.029 A 
ATOM     50  C   UNL A   1      40.300  28.633  31.651  1.00  0.00     0.049 A 
ATOM     51  H   UNL A   1      41.778  30.083  32.097  1.00  0.00     0.167 HD
ATOM     52  C   UNL A   1      38.843  29.868  30.251  1.00  0.00     0.074 A 
ATOM     53  C   UNL A   1      38.238  30.682  29.218  1.00  0.00     0.031 C 
ATOM     54  C   UNL A   1      39.945  29.074  30.305  1.00  0.00     0.037 A 
BRANCH  41  55
ATOM     55  C   UNL A   1      43.491  28.230  35.125  1.00  0.00     0.058 A 
ATOM     56  C   UNL A   1      44.781  28.243  34.570  1.00  0.00     0.135 A 
ATOM     57  C   UNL A   1      43.244  27.250  36.106  1.00  0.00     0.135 A 
ATOM     58  F   UNL A   1      45.169  29.178  33.693  1.00  0.00    -0.206 F 
ATOM     59  C   UNL A   1      45.711  27.249  34.846  1.00  0.00     0.059 A 
ATOM     60  C   UNL A   1      44.142  26.219  36.366  1.00  0.00     0.059 A 
ATOM     61  F   UNL A   1      42.076  27.228  36.770  1.00  0.00    -0.206 F 
ATOM     62  C   UNL A   1      45.362  26.210  35.700  1.00  0.00     0.060 A 
BRANCH  62  63
ATOM     63  S   UNL A   1      46.459  24.785  35.814  1.00  0.00     0.124 S 
ATOM     64  O   UNL A   1      46.435  24.488  37.244  1.00  0.00    -0.237 OA
ATOM     65  O   UNL A   1      45.791  23.819  34.951  1.00  0.00    -0.237 OA
ATOM     66  O   UNL A   1      47.730  25.307  35.320  1.00  0.00    -0.744 OA
ENDBRANCH  62  63
ENDBRANCH  41  55
BRANCH  42  67
ATOM     67  C   UNL A   1      36.016  33.235  31.968  1.00  0.00     0.058 A 
ATOM     68  C   UNL A   1      34.815  33.121  31.251  1.00  0.00     0.135 A 
ATOM     69  C   UNL A   1      36.349  34.518  32.424  1.00  0.00     0.135 A 
ATOM     70  F   UNL A   1      34.467  31.941  30.709  1.00  0.00    -0.206 F 
ATOM     71  C   UNL A   1      33.904  34.175  31.152  1.00  0.00     0.059 A 
ATOM     72  C   UNL A   1      35.435  35.579  32.388  1.00  0.00     0.059 A 
ATOM     73  F   UNL A   1      37.552  34.742  32.974  1.00  0.00    -0.206 F 
ATOM     74  C   UNL A   1      34.181  35.371  31.814  1.00  0.00     0.060 A 
BRANCH  74  75
ATOM     75  S   UNL A   1      32.792  36.457  32.269  1.00  0.00     0.124 S 
ATOM     76  O   UNL A   1      32.544  37.164  31.017  1.00  0.00    -0.237 OA
ATOM     77  O   UNL A   1      31.752  35.504  32.660  1.00  0.00    -0.237 OA
ATOM     78  O   UNL A   1      33.340  37.270  33.351  1.00  0.00    -0.744 OA
ENDBRANCH  74  75
ENDBRANCH  42  67
BRANCH  54  79
ATOM     79  C   UNL A   1      40.742  28.676  29.101  1.00  0.00     0.058 A 
ATOM     80  C   UNL A   1      40.634  27.411  28.492  1.00  0.00     0.135 A 
ATOM     81  C   UNL A   1      41.732  29.532  28.580  1.00  0.00     0.135 A 
ATOM     82  F   UNL A   1      39.793  26.480  28.973  1.00  0.00    -0.206 F 
ATOM     83  C   UNL A   1      41.405  27.046  27.387  1.00  0.00     0.059 A 
ATOM     84  C   UNL A   1      42.543  29.173  27.506  1.00  0.00     0.059 A 
ATOM     85  F   UNL A   1      41.929  30.755  29.092  1.00  0.00    -0.206 F 
ATOM     86  C   UNL A   1      42.353  27.939  26.897  1.00  0.00     0.060 A 
BRANCH  86  87
ATOM     87  S   UNL A   1      43.366  27.462  25.483  1.00  0.00     0.124 S 
ATOM     88  O   UNL A   1      44.587  28.233  25.690  1.00  0.00    -0.237 OA
ATOM     89  O   UNL A   1      43.486  26.022  25.684  1.00  0.00    -0.237 OA
ATOM     90  O   UNL A   1      42.561  27.874  24.337  1.00  0.00    -0.744 OA
ENDBRANCH  86  87
ENDBRANCH  54  79
ENDBRANCH  28  29
ENDBRANCH  21  23
ENDBRANCH  20  21
ENDBRANCH   1  20
TORSDOF 17
ENDMDL
MODEL 3
REMARK VINA RESULT:     -13.0      0.735      3.252
REMARK SMILES Cc1ccc(C(CC2CCCC2)C(=O)OCCOC(=O)c2ccc(-c3c4nc(c(-c5c(F)cc(S(=O)(=O)[O-])cc5F)c5ccc([nH]5)c(-c5c(F)cc(S(=O)(=O)[O-])cc5F)c5nc(c(-c6c(F)cc(S(=O)(=O)[O-])cc6F)c6ccc3[nH]6)C=C5)C=C4)cc2)cc1
REMARK SMILES IDX 17 1 16 2 15 3 13 4 14 5 6 6 5 7 1 8 2 9 3 10 88 11 4 12
REMARK SMILES IDX 87 13 7 14 8 15 9 16 12 17 10 18 11 19 18 20 19 21 20 22
REMARK SMILES IDX 21 23 22 24 86 25 23 26 85 27 24 28 25 29 26 30 79 31 27 32
REMARK SMILES IDX 84 33 78 34 80 35 28 36 83 37 77 38 76 39 29 41 63 42 42 43
REMARK SMILES IDX 62 44 43 45 46 46 61 47 81 48 44 49 45 50 60 52 82 53 47 54
REMARK SMILES IDX 30 55 31 56 40 57 32 58 33 59 39 60 41 61 34 62 35 63 36 64
REMARK SMILES IDX 37 65 38 66 64 67 65 68 74 69 66 70 67 71 73 72 75 73 68 74
REMARK SMILES IDX 69 75 70 76 71 77 72 78 48 79 49 80 58 81 50 82 51 83 57 84
REMARK SMILES IDX 59 85 52 86 53 87 54 88 55 89 56 90
REMARK H PARENT 80 40 46 51
REMARK Flexibility Score: inf
ROOT
ATOM      1  C   UNL A   1      39.212  20.586  25.890  1.00  0.00     0.275 C 
ENDROOT
BRANCH   1   2
ATOM      2  C   UNL A   1      37.965  21.490  25.801  1.00  0.00     0.274 C 
BRANCH   2   3
ATOM      3  O   UNL A   1      36.782  20.835  25.333  1.00  0.00    -0.462 OA
BRANCH   3   4
ATOM      4  C   UNL A   1      36.051  21.562  24.426  1.00  0.00     0.313 C 
ATOM      5  O   UNL A   1      36.607  22.200  23.544  1.00  0.00    -0.252 OA
BRANCH   4   6
ATOM      6  C   UNL A   1      34.352  21.326  24.437  1.00  0.00     0.129 C 
BRANCH   6   7
ATOM      7  C   UNL A   1      33.982  19.423  24.474  1.00  0.00    -0.034 A 
ATOM      8  C   UNL A   1      33.219  15.181  25.720  1.00  0.00     0.044 C 
ATOM      9  C   UNL A   1      33.511  16.562  25.206  1.00  0.00    -0.051 A 
ATOM     10  C   UNL A   1      34.731  17.047  24.686  1.00  0.00     0.004 A 
ATOM     11  C   UNL A   1      32.516  17.477  25.376  1.00  0.00     0.004 A 
ATOM     12  C   UNL A   1      34.976  18.444  24.338  1.00  0.00     0.005 A 
ATOM     13  C   UNL A   1      32.768  18.806  25.046  1.00  0.00     0.005 A 
ENDBRANCH   6   7
BRANCH   6  14
ATOM     14  C   UNL A   1      32.807  22.932  24.437  1.00  0.00     0.023 C 
BRANCH  14  15
ATOM     15  C   UNL A   1      32.995  24.707  24.851  1.00  0.00    -0.010 C 
ATOM     16  C   UNL A   1      31.822  25.384  25.549  1.00  0.00     0.003 C 
ATOM     17  C   UNL A   1      34.183  25.163  25.706  1.00  0.00     0.003 C 
ATOM     18  C   UNL A   1      32.366  26.818  25.669  1.00  0.00     0.000 C 
ATOM     19  C   UNL A   1      33.887  26.668  25.856  1.00  0.00     0.000 C 
ENDBRANCH  14  15
ENDBRANCH   6  14
ENDBRANCH   4   6
ENDBRANCH   3   4
ENDBRANCH   2   3
ENDBRANCH   1   2
BRANCH   1  20
ATOM     20  O   UNL A   1      40.267  20.806  26.912  1.00  0.00    -0.458 OA
BRANCH  20  21
ATOM     21  C   UNL A   1      41.237  21.709  27.257  1.00  0.00     0.338 C 
ATOM     22  O   UNL A   1      42.282  21.362  27.792  1.00  0.00    -0.246 OA
BRANCH  21  23
ATOM     23  C   UNL A   1      41.110  23.130  26.824  1.00  0.00     0.060 A 
ATOM     24  C   UNL A   1      42.185  24.119  25.703  1.00  0.00     0.016 A 
ATOM     25  C   UNL A   1      39.717  23.875  27.577  1.00  0.00     0.016 A 
ATOM     26  C   UNL A   1      41.787  25.919  25.567  1.00  0.00     0.010 A 
ATOM     27  C   UNL A   1      39.443  25.564  27.569  1.00  0.00     0.010 A 
ATOM     28  C   UNL A   1      40.456  26.647  26.697  1.00  0.00    -0.014 A 
BRANCH  28  29
ATOM     29  C   UNL A   1      40.584  27.702  28.109  1.00  0.00     0.031 A 
ATOM     30  C   UNL A   1      39.522  28.730  28.415  1.00  0.00     0.074 A 
ATOM     31  C   UNL A   1      41.663  28.024  28.953  1.00  0.00     0.049 A 
ATOM     32  N   UNL A   1      39.816  29.956  28.758  1.00  0.00    -0.248 NA
ATOM     33  C   UNL A   1      38.096  28.468  28.351  1.00  0.00     0.031 C 
ATOM     34  C   UNL A   1      41.584  28.765  30.228  1.00  0.00     0.029 A 
ATOM     35  N   UNL A   1      43.069  27.923  28.844  1.00  0.00    -0.354 N 
ATOM     36  C   UNL A   1      38.678  30.562  29.185  1.00  0.00     0.074 A 
ATOM     37  C   UNL A   1      37.614  29.632  28.813  1.00  0.00     0.031 C 
ATOM     38  C   UNL A   1      42.770  29.324  30.519  1.00  0.00     0.029 A 
ATOM     39  C   UNL A   1      43.756  28.945  29.520  1.00  0.00     0.049 A 
ATOM     40  H   UNL A   1      43.522  27.208  28.343  1.00  0.00     0.167 HD
ATOM     41  C   UNL A   1      38.677  31.704  29.932  1.00  0.00     0.037 A 
ATOM     42  C   UNL A   1      44.991  29.504  29.306  1.00  0.00     0.037 A 
ATOM     43  C   UNL A   1      39.941  32.100  30.557  1.00  0.00     0.049 A 
ATOM     44  C   UNL A   1      45.058  30.972  29.623  1.00  0.00     0.074 A 
ATOM     45  C   UNL A   1      40.432  31.876  31.838  1.00  0.00     0.029 A 
ATOM     46  N   UNL A   1      40.958  32.762  29.883  1.00  0.00    -0.354 N 
ATOM     47  N   UNL A   1      44.121  31.592  30.268  1.00  0.00    -0.248 NA
ATOM     48  C   UNL A   1      46.081  31.895  29.113  1.00  0.00     0.031 C 
ATOM     49  C   UNL A   1      41.679  32.528  31.976  1.00  0.00     0.029 A 
ATOM     50  C   UNL A   1      41.994  33.097  30.759  1.00  0.00     0.049 A 
ATOM     51  H   UNL A   1      40.951  32.966  28.920  1.00  0.00     0.167 HD
ATOM     52  C   UNL A   1      44.242  32.930  30.031  1.00  0.00     0.074 A 
ATOM     53  C   UNL A   1      45.528  33.089  29.385  1.00  0.00     0.031 C 
ATOM     54  C   UNL A   1      43.203  33.768  30.289  1.00  0.00     0.037 A 
BRANCH  41  55
ATOM     55  C   UNL A   1      37.351  32.263  30.364  1.00  0.00     0.058 A 
ATOM     56  C   UNL A   1      36.687  33.278  29.655  1.00  0.00     0.135 A 
ATOM     57  C   UNL A   1      36.746  31.845  31.566  1.00  0.00     0.135 A 
ATOM     58  F   UNL A   1      37.110  33.702  28.456  1.00  0.00    -0.206 F 
ATOM     59  C   UNL A   1      35.592  33.949  30.182  1.00  0.00     0.059 A 
ATOM     60  C   UNL A   1      35.678  32.531  32.135  1.00  0.00     0.059 A 
ATOM     61  F   UNL A   1      37.248  30.808  32.257  1.00  0.00    -0.206 F 
ATOM     62  C   UNL A   1      35.131  33.608  31.448  1.00  0.00     0.060 A 
BRANCH  62  63
ATOM     63  S   UNL A   1      33.911  34.675  32.236  1.00  0.00     0.124 S 
ATOM     64  O   UNL A   1      34.742  35.742  32.788  1.00  0.00    -0.237 OA
ATOM     65  O   UNL A   1      33.063  35.047  31.110  1.00  0.00    -0.237 OA
ATOM     66  O   UNL A   1      33.299  33.799  33.231  1.00  0.00    -0.744 OA
ENDBRANCH  62  63
ENDBRANCH  41  55
BRANCH  42  67
ATOM     67  C   UNL A   1      46.055  28.853  28.493  1.00  0.00     0.058 A 
ATOM     68  C   UNL A   1      47.019  28.055  29.129  1.00  0.00     0.135 A 
ATOM     69  C   UNL A   1      46.121  28.914  27.095  1.00  0.00     0.135 A 
ATOM     70  F   UNL A   1      47.075  28.011  30.471  1.00  0.00    -0.206 F 
ATOM     71  C   UNL A   1      47.881  27.219  28.416  1.00  0.00     0.059 A 
ATOM     72  C   UNL A   1      46.935  28.049  26.352  1.00  0.00     0.059 A 
ATOM     73  F   UNL A   1      45.343  29.776  26.424  1.00  0.00    -0.206 F 
ATOM     74  C   UNL A   1      47.758  27.148  27.029  1.00  0.00     0.060 A 
BRANCH  74  75
ATOM     75  S   UNL A   1      48.342  25.648  26.177  1.00  0.00     0.124 S 
ATOM     76  O   UNL A   1      47.123  25.182  25.525  1.00  0.00    -0.237 OA
ATOM     77  O   UNL A   1      49.369  26.170  25.274  1.00  0.00    -0.237 OA
ATOM     78  O   UNL A   1      48.830  24.809  27.268  1.00  0.00    -0.744 OA
ENDBRANCH  74  75
ENDBRANCH  42  67
BRANCH  54  79
ATOM     79  C   UNL A   1      43.270  35.253  30.110  1.00  0.00     0.058 A 
ATOM     80  C   UNL A   1      42.949  35.897  28.899  1.00  0.00     0.135 A 
ATOM     81  C   UNL A   1      43.770  36.078  31.136  1.00  0.00     0.135 A 
ATOM     82  F   UNL A   1      42.559  35.194  27.823  1.00  0.00    -0.206 F 
ATOM     83  C   UNL A   1      43.044  37.281  28.742  1.00  0.00     0.059 A 
ATOM     84  C   UNL A   1      43.914  37.456  30.988  1.00  0.00     0.059 A 
ATOM     85  F   UNL A   1      44.118  35.568  32.327  1.00  0.00    -0.206 F 
ATOM     86  C   UNL A   1      43.522  38.052  29.797  1.00  0.00     0.060 A 
BRANCH  86  87
ATOM     87  S   UNL A   1      43.667  39.838  29.588  1.00  0.00     0.124 S 
ATOM     88  O   UNL A   1      45.095  40.068  29.780  1.00  0.00    -0.237 OA
ATOM     89  O   UNL A   1      43.176  40.013  28.225  1.00  0.00    -0.237 OA
ATOM     90  O   UNL A   1      42.807  40.372  30.641  1.00  0.00    -0.744 OA
ENDBRANCH  86  87
ENDBRANCH  54  79
ENDBRANCH  28  29
ENDBRANCH  21  23
ENDBRANCH  20  21
ENDBRANCH   1  20
TORSDOF 17
ENDMDL
