MODEL 1
REMARK VINA RESULT:     -11.4      0.000      0.000
REMARK SMILES C[C@@H](C(=O)OCCOC(=O)c1ccc(-c2c3nc(c(-c4c(F)cc(S(=O)(=O)[O-])cc4F)c4ccc([nH]4)c(-c4c(F)cc(S(=O)(=O)[O-])cc4F)c4nc(c(-c5c(F)cc(S(=O)(=O)[O-])cc5F)c5ccc2[nH]5)C=C4)C=C3)cc1)c1ccc(OC2CCCC2)cc1F
REMARK SMILES IDX 6 1 5 2 3 3 4 4 2 5 1 6 77 7 78 8 88 9 79 10 87 11 89 12
REMARK SMILES IDX 80 13 81 14 82 15 83 16 86 17 84 18 85 19 7 20 8 21 9 22
REMARK SMILES IDX 10 23 11 24 12 25 76 26 13 27 75 28 14 29 15 30 16 31 69 32
REMARK SMILES IDX 17 33 74 34 68 35 70 36 18 37 73 38 67 39 66 40 19 42 53 43
REMARK SMILES IDX 32 44 52 45 33 46 36 47 51 48 71 49 34 50 35 51 50 53 72 54
REMARK SMILES IDX 37 55 20 56 21 57 30 58 22 59 23 60 29 61 31 62 24 63 25 64
REMARK SMILES IDX 26 65 27 66 28 67 54 68 55 69 64 70 56 71 57 72 63 73 65 74
REMARK SMILES IDX 58 75 59 76 60 77 61 78 62 79 38 80 39 81 48 82 40 83 41 84
REMARK SMILES IDX 47 85 49 86 42 87 43 88 44 89 45 90 46 91
REMARK H PARENT 70 41 36 52
REMARK Flexibility Score: inf
ROOT
ATOM      1  C   UNL A   1      35.118  32.578  32.577  1.00  0.00     0.274 C 
ENDROOT
BRANCH   1   2
ATOM      2  O   UNL A   1      34.534  32.225  31.298  1.00  0.00    -0.462 OA
BRANCH   2   3
ATOM      3  C   UNL A   1      34.788  33.031  30.224  1.00  0.00     0.313 C 
ATOM      4  O   UNL A   1      34.412  34.196  30.145  1.00  0.00    -0.252 OA
BRANCH   3   5
ATOM      5  C   UNL A   1      35.570  32.323  29.100  1.00  0.00     0.129 C 
ATOM      6  C   UNL A   1      36.440  33.295  28.293  1.00  0.00     0.025 C 
BRANCH   5   7
ATOM      7  C   UNL A   1      34.691  31.416  28.237  1.00  0.00     0.002 A 
ATOM      8  C   UNL A   1      34.972  30.038  28.117  1.00  0.00     0.011 A 
ATOM      9  C   UNL A   1      33.536  31.884  27.599  1.00  0.00     0.130 A 
ATOM     10  C   UNL A   1      34.042  29.146  27.542  1.00  0.00     0.047 A 
ATOM     11  C   UNL A   1      32.653  31.021  26.952  1.00  0.00     0.086 A 
ATOM     12  F   UNL A   1      33.150  33.158  27.744  1.00  0.00    -0.207 F 
ATOM     13  C   UNL A   1      32.839  29.639  27.053  1.00  0.00     0.122 A 
BRANCH  13  14
ATOM     14  O   UNL A   1      31.724  28.907  26.790  1.00  0.00    -0.490 OA
BRANCH  14  15
ATOM     15  C   UNL A   1      31.696  28.008  25.657  1.00  0.00     0.173 C 
ATOM     16  C   UNL A   1      30.702  26.234  25.712  1.00  0.00     0.045 C 
ATOM     17  C   UNL A   1      30.931  29.115  24.132  1.00  0.00     0.045 C 
ATOM     18  C   UNL A   1      29.240  26.214  24.241  1.00  0.00     0.004 C 
ATOM     19  C   UNL A   1      29.379  28.002  23.223  1.00  0.00     0.004 C 
ENDBRANCH  14  15
ENDBRANCH  13  14
ENDBRANCH   5   7
ENDBRANCH   3   5
ENDBRANCH   2   3
ENDBRANCH   1   2
BRANCH   1  20
ATOM     20  C   UNL A   1      36.374  31.737  32.858  1.00  0.00     0.275 C 
BRANCH  20  21
ATOM     21  O   UNL A   1      36.296  30.513  32.102  1.00  0.00    -0.458 OA
BRANCH  21  22
ATOM     22  C   UNL A   1      37.196  29.525  32.373  1.00  0.00     0.338 C 
ATOM     23  O   UNL A   1      37.042  28.580  33.123  1.00  0.00    -0.246 OA
BRANCH  22  24
ATOM     24  C   UNL A   1      38.334  29.678  31.430  1.00  0.00     0.060 A 
ATOM     25  C   UNL A   1      39.568  29.561  32.008  1.00  0.00     0.016 A 
ATOM     26  C   UNL A   1      38.294  30.062  30.087  1.00  0.00     0.016 A 
ATOM     27  C   UNL A   1      40.707  29.892  31.294  1.00  0.00     0.010 A 
ATOM     28  C   UNL A   1      39.507  30.193  29.318  1.00  0.00     0.010 A 
ATOM     29  C   UNL A   1      40.791  30.082  29.906  1.00  0.00    -0.014 A 
BRANCH  29  30
ATOM     30  C   UNL A   1      42.334  30.107  29.000  1.00  0.00     0.031 A 
ATOM     31  C   UNL A   1      42.364  28.267  28.713  1.00  0.00     0.074 A 
ATOM     32  C   UNL A   1      43.679  31.348  28.606  1.00  0.00     0.049 A 
ATOM     33  N   UNL A   1      43.462  27.556  28.465  1.00  0.00    -0.248 NA
ATOM     34  C   UNL A   1      41.162  27.417  28.617  1.00  0.00     0.031 C 
ATOM     35  C   UNL A   1      44.043  32.941  29.056  1.00  0.00     0.029 A 
ATOM     36  N   UNL A   1      45.053  31.289  27.936  1.00  0.00    -0.354 N 
ATOM     37  C   UNL A   1      43.124  26.299  28.083  1.00  0.00     0.074 A 
ATOM     38  C   UNL A   1      41.691  26.220  28.310  1.00  0.00     0.031 C 
ATOM     39  C   UNL A   1      45.176  33.426  28.563  1.00  0.00     0.029 A 
ATOM     40  C   UNL A   1      45.921  32.334  28.050  1.00  0.00     0.049 A 
ATOM     41  H   UNL A   1      45.313  30.492  27.419  1.00  0.00     0.167 HD
ATOM     42  C   UNL A   1      43.979  25.401  27.528  1.00  0.00     0.037 A 
ATOM     43  C   UNL A   1      47.260  32.307  27.937  1.00  0.00     0.037 A 
ATOM     44  C   UNL A   1      45.381  25.665  27.160  1.00  0.00     0.049 A 
ATOM     45  C   UNL A   1      47.935  31.028  27.557  1.00  0.00     0.074 A 
ATOM     46  C   UNL A   1      46.251  24.773  26.549  1.00  0.00     0.029 A 
ATOM     47  N   UNL A   1      46.114  26.865  27.298  1.00  0.00    -0.354 N 
ATOM     48  N   UNL A   1      47.426  29.819  27.439  1.00  0.00    -0.248 NA
ATOM     49  C   UNL A   1      49.362  31.133  27.275  1.00  0.00     0.031 C 
ATOM     50  C   UNL A   1      47.496  25.386  26.378  1.00  0.00     0.029 A 
ATOM     51  C   UNL A   1      47.425  26.702  26.813  1.00  0.00     0.049 A 
ATOM     52  H   UNL A   1      45.758  27.698  27.683  1.00  0.00     0.167 HD
ATOM     53  C   UNL A   1      48.479  29.005  27.039  1.00  0.00     0.074 A 
ATOM     54  C   UNL A   1      49.639  29.887  26.926  1.00  0.00     0.031 C 
ATOM     55  C   UNL A   1      48.520  27.671  26.766  1.00  0.00     0.037 A 
BRANCH  42  56
ATOM     56  C   UNL A   1      43.434  24.021  27.274  1.00  0.00     0.058 A 
ATOM     57  C   UNL A   1      43.181  23.103  28.303  1.00  0.00     0.135 A 
ATOM     58  C   UNL A   1      43.106  23.634  25.961  1.00  0.00     0.135 A 
ATOM     59  F   UNL A   1      43.453  23.422  29.578  1.00  0.00    -0.206 F 
ATOM     60  C   UNL A   1      42.675  21.832  28.036  1.00  0.00     0.059 A 
ATOM     61  C   UNL A   1      42.574  22.382  25.674  1.00  0.00     0.059 A 
ATOM     62  F   UNL A   1      43.296  24.484  24.940  1.00  0.00    -0.206 F 
ATOM     63  C   UNL A   1      42.387  21.477  26.716  1.00  0.00     0.060 A 
BRANCH  63  64
ATOM     64  S   UNL A   1      41.806  19.802  26.376  1.00  0.00     0.124 S 
ATOM     65  O   UNL A   1      42.263  19.089  27.566  1.00  0.00    -0.237 OA
ATOM     66  O   UNL A   1      40.364  19.987  26.264  1.00  0.00    -0.237 OA
ATOM     67  O   UNL A   1      42.490  19.447  25.135  1.00  0.00    -0.744 OA
ENDBRANCH  63  64
ENDBRANCH  42  56
BRANCH  43  68
ATOM     68  C   UNL A   1      47.982  33.545  28.301  1.00  0.00     0.058 A 
ATOM     69  C   UNL A   1      48.561  33.668  29.567  1.00  0.00     0.135 A 
ATOM     70  C   UNL A   1      48.344  34.468  27.302  1.00  0.00     0.135 A 
ATOM     71  F   UNL A   1      48.250  32.793  30.535  1.00  0.00    -0.206 F 
ATOM     72  C   UNL A   1      49.518  34.640  29.823  1.00  0.00     0.059 A 
ATOM     73  C   UNL A   1      49.322  35.425  27.526  1.00  0.00     0.059 A 
ATOM     74  F   UNL A   1      47.851  34.340  26.059  1.00  0.00    -0.206 F 
ATOM     75  C   UNL A   1      49.912  35.494  28.787  1.00  0.00     0.060 A 
BRANCH  75  76
ATOM     76  S   UNL A   1      51.286  36.624  29.089  1.00  0.00     0.124 S 
ATOM     77  O   UNL A   1      51.955  35.974  30.210  1.00  0.00    -0.237 OA
ATOM     78  O   UNL A   1      51.993  36.590  27.813  1.00  0.00    -0.237 OA
ATOM     79  O   UNL A   1      50.621  37.887  29.393  1.00  0.00    -0.744 OA
ENDBRANCH  75  76
ENDBRANCH  43  68
BRANCH  55  80
ATOM     80  C   UNL A   1      49.879  27.186  26.270  1.00  0.00     0.058 A 
ATOM     81  C   UNL A   1      50.225  27.197  24.906  1.00  0.00     0.135 A 
ATOM     82  C   UNL A   1      50.800  26.609  27.163  1.00  0.00     0.135 A 
ATOM     83  F   UNL A   1      49.370  27.692  23.997  1.00  0.00    -0.206 F 
ATOM     84  C   UNL A   1      51.405  26.611  24.444  1.00  0.00     0.059 A 
ATOM     85  C   UNL A   1      52.002  26.053  26.727  1.00  0.00     0.059 A 
ATOM     86  F   UNL A   1      50.524  26.560  28.476  1.00  0.00    -0.206 F 
ATOM     87  C   UNL A   1      52.284  26.037  25.363  1.00  0.00     0.060 A 
BRANCH  87  88
ATOM     88  S   UNL A   1      53.802  25.268  24.751  1.00  0.00     0.124 S 
ATOM     89  O   UNL A   1      53.914  25.854  23.419  1.00  0.00    -0.237 OA
ATOM     90  O   UNL A   1      54.794  25.715  25.724  1.00  0.00    -0.237 OA
ATOM     91  O   UNL A   1      53.499  23.841  24.784  1.00  0.00    -0.744 OA
ENDBRANCH  87  88
ENDBRANCH  55  80
ENDBRANCH  29  30
ENDBRANCH  22  24
ENDBRANCH  21  22
ENDBRANCH  20  21
ENDBRANCH   1  20
TORSDOF 17
ENDMDL
MODEL 2
REMARK VINA RESULT:     -11.3      6.528     12.780
REMARK SMILES C[C@@H](C(=O)OCCOC(=O)c1ccc(-c2c3nc(c(-c4c(F)cc(S(=O)(=O)[O-])cc4F)c4ccc([nH]4)c(-c4c(F)cc(S(=O)(=O)[O-])cc4F)c4nc(c(-c5c(F)cc(S(=O)(=O)[O-])cc5F)c5ccc2[nH]5)C=C4)C=C3)cc1)c1ccc(OC2CCCC2)cc1F
REMARK SMILES IDX 6 1 5 2 3 3 4 4 2 5 1 6 77 7 78 8 88 9 79 10 87 11 89 12
REMARK SMILES IDX 80 13 81 14 82 15 83 16 86 17 84 18 85 19 7 20 8 21 9 22
REMARK SMILES IDX 10 23 11 24 12 25 76 26 13 27 75 28 14 29 15 30 16 31 69 32
REMARK SMILES IDX 17 33 74 34 68 35 70 36 18 37 73 38 67 39 66 40 19 42 53 43
REMARK SMILES IDX 32 44 52 45 33 46 36 47 51 48 71 49 34 50 35 51 50 53 72 54
REMARK SMILES IDX 37 55 20 56 21 57 30 58 22 59 23 60 29 61 31 62 24 63 25 64
REMARK SMILES IDX 26 65 27 66 28 67 54 68 55 69 64 70 56 71 57 72 63 73 65 74
REMARK SMILES IDX 58 75 59 76 60 77 61 78 62 79 38 80 39 81 48 82 40 83 41 84
REMARK SMILES IDX 47 85 49 86 42 87 43 88 44 89 45 90 46 91
REMARK H PARENT 70 41 36 52
REMARK Flexibility Score: inf
ROOT
ATOM      1  C   UNL A   1      43.565  23.515  25.797  1.00  0.00     0.274 C 
ENDROOT
BRANCH   1   2
ATOM      2  O   UNL A   1      42.540  22.683  25.198  1.00  0.00    -0.462 OA
BRANCH   2   3
ATOM      3  C   UNL A   1      42.202  21.517  25.826  1.00  0.00     0.313 C 
ATOM      4  O   UNL A   1      42.593  20.412  25.465  1.00  0.00    -0.252 OA
BRANCH   3   5
ATOM      5  C   UNL A   1      41.249  21.722  27.020  1.00  0.00     0.129 C 
ATOM      6  C   UNL A   1      41.214  20.506  27.953  1.00  0.00     0.025 C 
BRANCH   5   7
ATOM      7  C   UNL A   1      39.865  22.223  26.604  1.00  0.00     0.002 A 
ATOM      8  C   UNL A   1      39.464  23.549  26.876  1.00  0.00     0.011 A 
ATOM      9  C   UNL A   1      38.972  21.430  25.872  1.00  0.00     0.130 A 
ATOM     10  C   UNL A   1      38.308  24.103  26.285  1.00  0.00     0.047 A 
ATOM     11  C   UNL A   1      37.785  21.946  25.356  1.00  0.00     0.086 A 
ATOM     12  F   UNL A   1      39.319  20.194  25.493  1.00  0.00    -0.207 F 
ATOM     13  C   UNL A   1      37.531  23.317  25.444  1.00  0.00     0.122 A 
BRANCH  13  14
ATOM     14  O   UNL A   1      36.611  23.771  24.551  1.00  0.00    -0.490 OA
BRANCH  14  15
ATOM     15  C   UNL A   1      35.218  23.867  24.928  1.00  0.00     0.173 C 
ATOM     16  C   UNL A   1      34.110  25.530  24.549  1.00  0.00     0.045 C 
ATOM     17  C   UNL A   1      34.321  22.287  24.013  1.00  0.00     0.045 C 
ATOM     18  C   UNL A   1      32.508  25.032  23.330  1.00  0.00     0.004 C 
ATOM     19  C   UNL A   1      32.607  22.998  22.999  1.00  0.00     0.004 C 
ENDBRANCH  14  15
ENDBRANCH  13  14
ENDBRANCH   5   7
ENDBRANCH   3   5
ENDBRANCH   2   3
ENDBRANCH   1   2
BRANCH   1  20
ATOM     20  C   UNL A   1      43.755  24.815  24.999  1.00  0.00     0.275 C 
BRANCH  20  21
ATOM     21  O   UNL A   1      42.501  25.523  24.956  1.00  0.00    -0.458 OA
BRANCH  21  22
ATOM     22  C   UNL A   1      42.509  26.871  25.169  1.00  0.00     0.338 C 
ATOM     23  O   UNL A   1      42.559  27.744  24.323  1.00  0.00    -0.246 OA
BRANCH  22  24
ATOM     24  C   UNL A   1      42.234  27.104  26.609  1.00  0.00     0.060 A 
ATOM     25  C   UNL A   1      42.968  28.113  27.169  1.00  0.00     0.016 A 
ATOM     26  C   UNL A   1      41.443  26.339  27.470  1.00  0.00     0.016 A 
ATOM     27  C   UNL A   1      42.969  28.295  28.542  1.00  0.00     0.010 A 
ATOM     28  C   UNL A   1      41.308  26.693  28.862  1.00  0.00     0.010 A 
ATOM     29  C   UNL A   1      42.067  27.730  29.456  1.00  0.00    -0.014 A 
BRANCH  29  30
ATOM     30  C   UNL A   1      41.864  28.308  31.137  1.00  0.00     0.031 A 
ATOM     31  C   UNL A   1      40.555  29.560  30.704  1.00  0.00     0.074 A 
ATOM     32  C   UNL A   1      42.714  28.066  32.788  1.00  0.00     0.049 A 
ATOM     33  N   UNL A   1      40.269  30.639  31.430  1.00  0.00    -0.248 NA
ATOM     34  C   UNL A   1      39.618  29.431  29.572  1.00  0.00     0.031 C 
ATOM     35  C   UNL A   1      44.113  27.285  33.340  1.00  0.00     0.029 A 
ATOM     36  N   UNL A   1      42.588  28.688  34.180  1.00  0.00    -0.354 N 
ATOM     37  C   UNL A   1      39.130  31.217  30.971  1.00  0.00     0.074 A 
ATOM     38  C   UNL A   1      38.828  30.505  29.741  1.00  0.00     0.031 C 
ATOM     39  C   UNL A   1      44.373  27.431  34.634  1.00  0.00     0.029 A 
ATOM     40  C   UNL A   1      43.556  28.485  35.116  1.00  0.00     0.049 A 
ATOM     41  H   UNL A   1      41.802  29.239  34.401  1.00  0.00     0.167 HD
ATOM     42  C   UNL A   1      38.431  32.180  31.626  1.00  0.00     0.037 A 
ATOM     43  C   UNL A   1      43.851  29.258  36.176  1.00  0.00     0.037 A 
ATOM     44  C   UNL A   1      38.730  32.689  32.976  1.00  0.00     0.049 A 
ATOM     45  C   UNL A   1      43.001  30.452  36.468  1.00  0.00     0.074 A 
ATOM     46  C   UNL A   1      37.998  33.638  33.676  1.00  0.00     0.029 A 
ATOM     47  N   UNL A   1      39.771  32.302  33.850  1.00  0.00    -0.354 N 
ATOM     48  N   UNL A   1      42.037  30.986  35.747  1.00  0.00    -0.248 NA
ATOM     49  C   UNL A   1      43.276  31.122  37.734  1.00  0.00     0.031 C 
ATOM     50  C   UNL A   1      38.607  33.871  34.913  1.00  0.00     0.029 A 
ATOM     51  C   UNL A   1      39.700  33.026  35.054  1.00  0.00     0.049 A 
ATOM     52  H   UNL A   1      40.451  31.622  33.644  1.00  0.00     0.167 HD
ATOM     53  C   UNL A   1      41.562  32.060  36.490  1.00  0.00     0.074 A 
ATOM     54  C   UNL A   1      42.351  32.068  37.721  1.00  0.00     0.031 C 
ATOM     55  C   UNL A   1      40.570  32.957  36.228  1.00  0.00     0.037 A 
BRANCH  42  56
ATOM     56  C   UNL A   1      37.252  32.769  30.898  1.00  0.00     0.058 A 
ATOM     57  C   UNL A   1      37.388  33.722  29.879  1.00  0.00     0.135 A 
ATOM     58  C   UNL A   1      35.954  32.319  31.199  1.00  0.00     0.135 A 
ATOM     59  F   UNL A   1      38.604  34.174  29.532  1.00  0.00    -0.206 F 
ATOM     60  C   UNL A   1      36.278  34.248  29.222  1.00  0.00     0.059 A 
ATOM     61  C   UNL A   1      34.833  32.809  30.538  1.00  0.00     0.059 A 
ATOM     62  F   UNL A   1      35.765  31.384  32.144  1.00  0.00    -0.206 F 
ATOM     63  C   UNL A   1      35.003  33.795  29.569  1.00  0.00     0.060 A 
BRANCH  63  64
ATOM     64  S   UNL A   1      33.568  34.541  28.766  1.00  0.00     0.124 S 
ATOM     65  O   UNL A   1      33.172  33.484  27.840  1.00  0.00    -0.237 OA
ATOM     66  O   UNL A   1      32.666  34.772  29.888  1.00  0.00    -0.237 OA
ATOM     67  O   UNL A   1      34.112  35.745  28.143  1.00  0.00    -0.744 OA
ENDBRANCH  63  64
ENDBRANCH  42  56
BRANCH  43  68
ATOM     68  C   UNL A   1      45.079  28.915  36.926  1.00  0.00     0.058 A 
ATOM     69  C   UNL A   1      45.097  27.794  37.760  1.00  0.00     0.135 A 
ATOM     70  C   UNL A   1      46.302  29.523  36.588  1.00  0.00     0.135 A 
ATOM     71  F   UNL A   1      43.949  27.182  38.085  1.00  0.00    -0.206 F 
ATOM     72  C   UNL A   1      46.296  27.250  38.199  1.00  0.00     0.059 A 
ATOM     73  C   UNL A   1      47.513  28.977  36.989  1.00  0.00     0.059 A 
ATOM     74  F   UNL A   1      46.323  30.565  35.741  1.00  0.00    -0.206 F 
ATOM     75  C   UNL A   1      47.498  27.832  37.784  1.00  0.00     0.060 A 
BRANCH  75  76
ATOM     76  S   UNL A   1      49.041  27.003  38.213  1.00  0.00     0.124 S 
ATOM     77  O   UNL A   1      49.360  27.627  39.492  1.00  0.00    -0.237 OA
ATOM     78  O   UNL A   1      48.630  25.603  38.267  1.00  0.00    -0.237 OA
ATOM     79  O   UNL A   1      49.926  27.344  37.103  1.00  0.00    -0.744 OA
ENDBRANCH  75  76
ENDBRANCH  43  68
BRANCH  55  80
ATOM     80  C   UNL A   1      40.312  33.939  37.366  1.00  0.00     0.058 A 
ATOM     81  C   UNL A   1      39.400  33.662  38.402  1.00  0.00     0.135 A 
ATOM     82  C   UNL A   1      40.909  35.213  37.357  1.00  0.00     0.135 A 
ATOM     83  F   UNL A   1      38.763  32.481  38.441  1.00  0.00    -0.206 F 
ATOM     84  C   UNL A   1      39.055  34.624  39.352  1.00  0.00     0.059 A 
ATOM     85  C   UNL A   1      40.607  36.176  38.320  1.00  0.00     0.059 A 
ATOM     86  F   UNL A   1      41.780  35.542  36.391  1.00  0.00    -0.206 F 
ATOM     87  C   UNL A   1      39.661  35.880  39.299  1.00  0.00     0.060 A 
BRANCH  87  88
ATOM     88  S   UNL A   1      39.193  37.124  40.526  1.00  0.00     0.124 S 
ATOM     89  O   UNL A   1      40.498  37.572  41.003  1.00  0.00    -0.237 OA
ATOM     90  O   UNL A   1      38.448  38.089  39.724  1.00  0.00    -0.237 OA
ATOM     91  O   UNL A   1      38.398  36.371  41.490  1.00  0.00    -0.744 OA
ENDBRANCH  87  88
ENDBRANCH  55  80
ENDBRANCH  29  30
ENDBRANCH  22  24
ENDBRANCH  21  22
ENDBRANCH  20  21
ENDBRANCH   1  20
TORSDOF 17
ENDMDL
MODEL 3
REMARK VINA RESULT:     -11.2      3.292      9.534
REMARK SMILES C[C@@H](C(=O)OCCOC(=O)c1ccc(-c2c3nc(c(-c4c(F)cc(S(=O)(=O)[O-])cc4F)c4ccc([nH]4)c(-c4c(F)cc(S(=O)(=O)[O-])cc4F)c4nc(c(-c5c(F)cc(S(=O)(=O)[O-])cc5F)c5ccc2[nH]5)C=C4)C=C3)cc1)c1ccc(OC2CCCC2)cc1F
REMARK SMILES IDX 6 1 5 2 3 3 4 4 2 5 1 6 77 7 78 8 88 9 79 10 87 11 89 12
REMARK SMILES IDX 80 13 81 14 82 15 83 16 86 17 84 18 85 19 7 20 8 21 9 22
REMARK SMILES IDX 10 23 11 24 12 25 76 26 13 27 75 28 14 29 15 30 16 31 69 32
REMARK SMILES IDX 17 33 74 34 68 35 70 36 18 37 73 38 67 39 66 40 19 42 53 43
REMARK SMILES IDX 32 44 52 45 33 46 36 47 51 48 71 49 34 50 35 51 50 53 72 54
REMARK SMILES IDX 37 55 20 56 21 57 30 58 22 59 23 60 29 61 31 62 24 63 25 64
REMARK SMILES IDX 26 65 27 66 28 67 54 68 55 69 64 70 56 71 57 72 63 73 65 74
REMARK SMILES IDX 58 75 59 76 60 77 61 78 62 79 38 80 39 81 48 82 40 83 41 84
REMARK SMILES IDX 47 85 49 86 42 87 43 88 44 89 45 90 46 91
REMARK H PARENT 70 41 36 52
REMARK Flexibility Score: inf
ROOT
ATOM      1  C   UNL A   1      32.102  30.080  25.863  1.00  0.00     0.274 C 
ENDROOT
BRANCH   1   2
ATOM      2  O   UNL A   1      32.052  29.596  24.497  1.00  0.00    -0.462 OA
BRANCH   2   3
ATOM      3  C   UNL A   1      30.851  29.167  24.004  1.00  0.00     0.313 C 
ATOM      4  O   UNL A   1      29.869  29.892  23.882  1.00  0.00    -0.252 OA
BRANCH   3   5
ATOM      5  C   UNL A   1      30.838  27.669  23.645  1.00  0.00     0.129 C 
ATOM      6  C   UNL A   1      29.422  27.081  23.643  1.00  0.00     0.025 C 
BRANCH   5   7
ATOM      7  C   UNL A   1      31.847  26.850  24.453  1.00  0.00     0.002 A 
ATOM      8  C   UNL A   1      31.473  26.234  25.667  1.00  0.00     0.011 A 
ATOM      9  C   UNL A   1      33.148  26.607  23.994  1.00  0.00     0.130 A 
ATOM     10  C   UNL A   1      32.301  25.277  26.291  1.00  0.00     0.047 A 
ATOM     11  C   UNL A   1      34.005  25.727  24.653  1.00  0.00     0.086 A 
ATOM     12  F   UNL A   1      33.547  27.077  22.806  1.00  0.00    -0.207 F 
ATOM     13  C   UNL A   1      33.524  24.958  25.715  1.00  0.00     0.122 A 
BRANCH  13  14
ATOM     14  O   UNL A   1      34.268  23.850  25.982  1.00  0.00    -0.490 OA
BRANCH  14  15
ATOM     15  C   UNL A   1      35.350  23.473  25.100  1.00  0.00     0.173 C 
ATOM     16  C   UNL A   1      37.301  23.683  25.635  1.00  0.00     0.045 C 
ATOM     17  C   UNL A   1      35.018  21.511  24.677  1.00  0.00     0.045 C 
ATOM     18  C   UNL A   1      38.230  21.828  25.612  1.00  0.00     0.004 C 
ATOM     19  C   UNL A   1      36.822  20.454  24.992  1.00  0.00     0.004 C 
ENDBRANCH  14  15
ENDBRANCH  13  14
ENDBRANCH   5   7
ENDBRANCH   3   5
ENDBRANCH   2   3
ENDBRANCH   1   2
BRANCH   1  20
ATOM     20  C   UNL A   1      33.479  29.813  26.490  1.00  0.00     0.275 C 
BRANCH  20  21
ATOM     21  O   UNL A   1      33.556  30.497  27.757  1.00  0.00    -0.458 OA
BRANCH  21  22
ATOM     22  C   UNL A   1      34.586  31.368  27.962  1.00  0.00     0.338 C 
ATOM     23  O   UNL A   1      34.516  32.580  28.030  1.00  0.00    -0.246 OA
BRANCH  22  24
ATOM     24  C   UNL A   1      35.793  30.571  28.300  1.00  0.00     0.060 A 
ATOM     25  C   UNL A   1      36.744  30.540  27.318  1.00  0.00     0.016 A 
ATOM     26  C   UNL A   1      36.001  29.753  29.414  1.00  0.00     0.016 A 
ATOM     27  C   UNL A   1      37.816  29.667  27.412  1.00  0.00     0.010 A 
ATOM     28  C   UNL A   1      37.232  29.018  29.573  1.00  0.00     0.010 A 
ATOM     29  C   UNL A   1      38.222  28.971  28.560  1.00  0.00    -0.014 A 
BRANCH  29  30
ATOM     30  C   UNL A   1      39.821  28.188  28.733  1.00  0.00     0.031 A 
ATOM     31  C   UNL A   1      40.677  29.734  29.322  1.00  0.00     0.074 A 
ATOM     32  C   UNL A   1      40.602  26.542  28.301  1.00  0.00     0.049 A 
ATOM     33  N   UNL A   1      41.985  29.959  29.227  1.00  0.00    -0.248 NA
ATOM     34  C   UNL A   1      40.014  30.826  30.059  1.00  0.00     0.031 C 
ATOM     35  C   UNL A   1      40.135  25.153  27.451  1.00  0.00     0.029 A 
ATOM     36  N   UNL A   1      42.017  25.963  28.347  1.00  0.00    -0.354 N 
ATOM     37  C   UNL A   1      42.320  31.063  29.942  1.00  0.00     0.074 A 
ATOM     38  C   UNL A   1      41.047  31.639  30.341  1.00  0.00     0.031 C 
ATOM     39  C   UNL A   1      41.068  24.216  27.336  1.00  0.00     0.029 A 
ATOM     40  C   UNL A   1      42.308  24.803  27.694  1.00  0.00     0.049 A 
ATOM     41  H   UNL A   1      42.722  26.430  28.852  1.00  0.00     0.167 HD
ATOM     42  C   UNL A   1      43.589  31.429  30.256  1.00  0.00     0.037 A 
ATOM     43  C   UNL A   1      43.508  24.387  27.252  1.00  0.00     0.037 A 
ATOM     44  C   UNL A   1      44.804  30.649  29.961  1.00  0.00     0.049 A 
ATOM     45  C   UNL A   1      44.721  25.205  27.554  1.00  0.00     0.074 A 
ATOM     46  C   UNL A   1      46.102  30.987  30.317  1.00  0.00     0.029 A 
ATOM     47  N   UNL A   1      44.910  29.399  29.312  1.00  0.00    -0.354 N 
ATOM     48  N   UNL A   1      44.807  26.403  28.094  1.00  0.00    -0.248 NA
ATOM     49  C   UNL A   1      45.996  24.589  27.202  1.00  0.00     0.031 C 
ATOM     50  C   UNL A   1      46.981  30.007  29.844  1.00  0.00     0.029 A 
ATOM     51  C   UNL A   1      46.254  28.992  29.239  1.00  0.00     0.049 A 
ATOM     52  H   UNL A   1      44.148  28.886  28.958  1.00  0.00     0.167 HD
ATOM     53  C   UNL A   1      46.165  26.685  28.173  1.00  0.00     0.074 A 
ATOM     54  C   UNL A   1      46.844  25.508  27.633  1.00  0.00     0.031 C 
ATOM     55  C   UNL A   1      46.823  27.779  28.650  1.00  0.00     0.037 A 
BRANCH  42  56
ATOM     56  C   UNL A   1      43.754  32.746  30.965  1.00  0.00     0.058 A 
ATOM     57  C   UNL A   1      43.900  33.962  30.283  1.00  0.00     0.135 A 
ATOM     58  C   UNL A   1      43.709  32.790  32.370  1.00  0.00     0.135 A 
ATOM     59  F   UNL A   1      43.928  33.988  28.941  1.00  0.00    -0.206 F 
ATOM     60  C   UNL A   1      44.050  35.167  30.967  1.00  0.00     0.059 A 
ATOM     61  C   UNL A   1      43.829  33.983  33.074  1.00  0.00     0.059 A 
ATOM     62  F   UNL A   1      43.540  31.660  33.075  1.00  0.00    -0.206 F 
ATOM     63  C   UNL A   1      44.026  35.165  32.364  1.00  0.00     0.060 A 
BRANCH  63  64
ATOM     64  S   UNL A   1      44.300  36.720  33.239  1.00  0.00     0.124 S 
ATOM     65  O   UNL A   1      45.450  36.385  34.073  1.00  0.00    -0.237 OA
ATOM     66  O   UNL A   1      44.559  37.652  32.147  1.00  0.00    -0.237 OA
ATOM     67  O   UNL A   1      43.047  36.933  33.959  1.00  0.00    -0.744 OA
ENDBRANCH  63  64
ENDBRANCH  42  56
BRANCH  43  68
ATOM     68  C   UNL A   1      43.518  23.179  26.398  1.00  0.00     0.058 A 
ATOM     69  C   UNL A   1      43.941  23.267  25.069  1.00  0.00     0.135 A 
ATOM     70  C   UNL A   1      43.392  21.905  26.982  1.00  0.00     0.135 A 
ATOM     71  F   UNL A   1      44.088  24.468  24.491  1.00  0.00    -0.206 F 
ATOM     72  C   UNL A   1      44.289  22.130  24.354  1.00  0.00     0.059 A 
ATOM     73  C   UNL A   1      43.765  20.758  26.297  1.00  0.00     0.059 A 
ATOM     74  F   UNL A   1      43.045  21.789  28.275  1.00  0.00    -0.206 F 
ATOM     75  C   UNL A   1      44.225  20.884  24.986  1.00  0.00     0.060 A 
BRANCH  75  76
ATOM     76  S   UNL A   1      44.856  19.444  24.102  1.00  0.00     0.124 S 
ATOM     77  O   UNL A   1      46.290  19.564  24.338  1.00  0.00    -0.237 OA
ATOM     78  O   UNL A   1      44.183  18.346  24.789  1.00  0.00    -0.237 OA
ATOM     79  O   UNL A   1      44.417  19.674  22.729  1.00  0.00    -0.744 OA
ENDBRANCH  75  76
ENDBRANCH  43  68
BRANCH  55  80
ATOM     80  C   UNL A   1      48.342  27.642  28.627  1.00  0.00     0.058 A 
ATOM     81  C   UNL A   1      49.060  27.086  29.703  1.00  0.00     0.135 A 
ATOM     82  C   UNL A   1      49.089  28.169  27.559  1.00  0.00     0.135 A 
ATOM     83  F   UNL A   1      48.407  26.608  30.774  1.00  0.00    -0.206 F 
ATOM     84  C   UNL A   1      50.454  27.105  29.742  1.00  0.00     0.059 A 
ATOM     85  C   UNL A   1      50.484  28.163  27.560  1.00  0.00     0.059 A 
ATOM     86  F   UNL A   1      48.464  28.721  26.507  1.00  0.00    -0.206 F 
ATOM     87  C   UNL A   1      51.157  27.651  28.667  1.00  0.00     0.060 A 
BRANCH  87  88
ATOM     88  S   UNL A   1      52.964  27.684  28.735  1.00  0.00     0.124 S 
ATOM     89  O   UNL A   1      53.310  26.489  27.971  1.00  0.00    -0.237 OA
ATOM     90  O   UNL A   1      53.278  28.957  28.094  1.00  0.00    -0.237 OA
ATOM     91  O   UNL A   1      53.253  27.620  30.164  1.00  0.00    -0.744 OA
ENDBRANCH  87  88
ENDBRANCH  55  80
ENDBRANCH  29  30
ENDBRANCH  22  24
ENDBRANCH  21  22
ENDBRANCH  20  21
ENDBRANCH   1  20
TORSDOF 17
ENDMDL
