MODEL 1
REMARK VINA RESULT:     -11.8      0.000      0.000
REMARK SMILES CCOc1ccc(-c2cc(Cl)cc3c2O[C@H](C(F)(F)F)C(C(=O)OCCOC(=O)c2ccc(-c4c5nc(c(-c6c(F)cc(S(=O)(=O)[O-])cc6F)c6ccc([nH]6)c(-c6c(F)cc(S(=O)(=O)[O-])cc6F)c6nc(c(-c7c(F)cc(S(=O)(=O)[O-])cc7F)c7ccc4[nH]7)C=C6)C=C5)cc2)=C3)cc1
REMARK SMILES IDX 25 1 24 2 22 3 23 4 21 5 8 6 9 7 14 8 10 9 13 10 15 11 11 12
REMARK SMILES IDX 12 13 96 14 16 15 7 16 4 17 5 18 98 19 6 20 97 21 3 22 2 23
REMARK SMILES IDX 1 24 17 25 18 26 19 27 20 28 26 29 27 30 28 31 29 32 30 33
REMARK SMILES IDX 31 34 95 35 32 36 94 37 33 38 34 39 35 40 88 41 36 42 93 43
REMARK SMILES IDX 87 44 89 45 37 46 92 47 86 48 85 49 38 51 72 52 51 53 71 54
REMARK SMILES IDX 52 55 55 56 70 57 90 58 53 59 54 60 69 62 91 63 56 64 39 65
REMARK SMILES IDX 40 66 49 67 41 68 42 69 48 70 50 71 43 72 44 73 45 74 46 75
REMARK SMILES IDX 47 76 73 77 74 78 83 79 75 80 76 81 82 82 84 83 77 84 78 85
REMARK SMILES IDX 79 86 80 87 81 88 57 89 58 90 67 91 59 92 60 93 66 94 68 95
REMARK SMILES IDX 61 96 62 97 63 98 64 99 65 100
REMARK H PARENT 89 50 55 61
REMARK Flexibility Score: inf
ROOT
ATOM      1  C   UNL A   1      31.988  28.133  25.978  1.00  0.00     0.275 C 
ENDROOT
BRANCH   1   2
ATOM      2  O   UNL A   1      32.915  27.026  25.840  1.00  0.00    -0.459 OA
BRANCH   2   3
ATOM      3  C   UNL A   1      33.372  26.873  24.569  1.00  0.00     0.338 C 
ATOM      4  O   UNL A   1      34.182  27.623  24.034  1.00  0.00    -0.246 OA
BRANCH   3   5
ATOM      5  C   UNL A   1      32.833  25.682  23.859  1.00  0.00     0.087 C 
ATOM      6  C   UNL A   1      34.190  22.056  25.023  1.00  0.00     0.026 A 
ATOM      7  C   UNL A   1      35.422  22.435  25.603  1.00  0.00     0.033 A 
ATOM      8  C   UNL A   1      33.574  23.070  24.286  1.00  0.00     0.135 A 
ATOM      9  C   UNL A   1      36.088  23.628  25.304  1.00  0.00     0.042 A 
ATOM     10  C   UNL A   1      34.365  24.135  23.786  1.00  0.00     0.019 A 
ATOM     11  O   UNL A   1      32.195  23.259  24.212  1.00  0.00    -0.475 OA
ATOM     12  Cl  UNL A   1      37.453  24.203  26.166  1.00  0.00    -0.084 Cl
ATOM     13  C   UNL A   1      35.622  24.416  24.285  1.00  0.00     0.032 A 
ATOM     14  C   UNL A   1      33.703  25.171  22.971  1.00  0.00     0.027 C 
ATOM     15  C   UNL A   1      31.817  24.709  24.432  1.00  0.00     0.316 C 
BRANCH   6  16
ATOM     16  C   UNL A   1      33.932  20.581  25.045  1.00  0.00    -0.014 A 
ATOM     17  C   UNL A   1      33.334  17.936  24.083  1.00  0.00     0.119 A 
ATOM     18  C   UNL A   1      34.626  18.292  24.480  1.00  0.00     0.047 A 
ATOM     19  C   UNL A   1      32.324  18.872  24.236  1.00  0.00     0.047 A 
ATOM     20  C   UNL A   1      34.917  19.587  24.980  1.00  0.00     0.013 A 
ATOM     21  C   UNL A   1      32.620  20.163  24.714  1.00  0.00     0.013 A 
BRANCH  17  22
ATOM     22  O   UNL A   1      33.155  16.651  23.653  1.00  0.00    -0.494 OA
BRANCH  22  23
ATOM     23  C   UNL A   1      33.444  15.579  24.562  1.00  0.00     0.226 C 
ATOM     24  C   UNL A   1      32.417  15.480  25.681  1.00  0.00     0.049 C 
ENDBRANCH  22  23
ENDBRANCH  17  22
ENDBRANCH   6  16
BRANCH  15  25
ATOM     25  C   UNL A   1      30.495  25.047  23.732  1.00  0.00     0.430 C 
ATOM     26  F   UNL A   1      29.990  23.980  23.065  1.00  0.00    -0.167 F 
ATOM     27  F   UNL A   1      29.547  25.484  24.587  1.00  0.00    -0.167 F 
ATOM     28  F   UNL A   1      30.673  26.030  22.807  1.00  0.00    -0.167 F 
ENDBRANCH  15  25
ENDBRANCH   3   5
ENDBRANCH   2   3
ENDBRANCH   1   2
BRANCH   1  29
ATOM     29  C   UNL A   1      32.515  29.268  26.862  1.00  0.00     0.275 C 
BRANCH  29  30
ATOM     30  O   UNL A   1      33.822  28.975  27.388  1.00  0.00    -0.458 OA
BRANCH  30  31
ATOM     31  C   UNL A   1      34.482  30.063  27.854  1.00  0.00     0.338 C 
ATOM     32  O   UNL A   1      33.996  31.180  28.001  1.00  0.00    -0.246 OA
BRANCH  31  33
ATOM     33  C   UNL A   1      35.859  29.731  28.297  1.00  0.00     0.060 A 
ATOM     34  C   UNL A   1      36.843  29.755  27.315  1.00  0.00     0.016 A 
ATOM     35  C   UNL A   1      36.223  29.395  29.609  1.00  0.00     0.016 A 
ATOM     36  C   UNL A   1      38.173  29.502  27.656  1.00  0.00     0.010 A 
ATOM     37  C   UNL A   1      37.578  29.147  29.943  1.00  0.00     0.010 A 
ATOM     38  C   UNL A   1      38.585  29.234  28.973  1.00  0.00    -0.014 A 
BRANCH  38  39
ATOM     39  C   UNL A   1      40.062  29.032  29.210  1.00  0.00     0.031 A 
ATOM     40  C   UNL A   1      40.693  27.750  28.743  1.00  0.00     0.074 A 
ATOM     41  C   UNL A   1      40.897  30.014  29.632  1.00  0.00     0.049 A 
ATOM     42  N   UNL A   1      41.958  27.453  28.616  1.00  0.00    -0.248 NA
ATOM     43  C   UNL A   1      39.774  26.665  28.360  1.00  0.00     0.031 C 
ATOM     44  C   UNL A   1      40.471  31.326  30.082  1.00  0.00     0.029 A 
ATOM     45  N   UNL A   1      42.275  30.115  29.667  1.00  0.00    -0.354 N 
ATOM     46  C   UNL A   1      41.990  26.148  28.149  1.00  0.00     0.074 A 
ATOM     47  C   UNL A   1      40.618  25.727  27.962  1.00  0.00     0.031 C 
ATOM     48  C   UNL A   1      41.520  32.159  30.147  1.00  0.00     0.029 A 
ATOM     49  C   UNL A   1      42.741  31.389  29.948  1.00  0.00     0.049 A 
ATOM     50  H   UNL A   1      42.873  29.348  29.506  1.00  0.00     0.167 HD
ATOM     51  C   UNL A   1      43.062  25.349  27.950  1.00  0.00     0.037 A 
ATOM     52  C   UNL A   1      43.993  31.885  30.080  1.00  0.00     0.037 A 
ATOM     53  C   UNL A   1      44.425  25.714  28.215  1.00  0.00     0.049 A 
ATOM     54  C   UNL A   1      45.154  30.926  29.993  1.00  0.00     0.074 A 
ATOM     55  C   UNL A   1      45.554  24.921  28.104  1.00  0.00     0.029 A 
ATOM     56  N   UNL A   1      44.850  26.949  28.678  1.00  0.00    -0.354 N 
ATOM     57  N   UNL A   1      45.159  29.679  29.589  1.00  0.00    -0.248 NA
ATOM     58  C   UNL A   1      46.476  31.425  30.408  1.00  0.00     0.031 C 
ATOM     59  C   UNL A   1      46.649  25.649  28.575  1.00  0.00     0.029 A 
ATOM     60  C   UNL A   1      46.218  26.924  28.903  1.00  0.00     0.049 A 
ATOM     61  H   UNL A   1      44.267  27.729  28.826  1.00  0.00     0.167 HD
ATOM     62  C   UNL A   1      46.481  29.255  29.678  1.00  0.00     0.074 A 
ATOM     63  C   UNL A   1      47.253  30.381  30.156  1.00  0.00     0.031 C 
ATOM     64  C   UNL A   1      46.997  28.038  29.384  1.00  0.00     0.037 A 
BRANCH  51  65
ATOM     65  C   UNL A   1      42.773  23.936  27.550  1.00  0.00     0.058 A 
ATOM     66  C   UNL A   1      42.548  22.923  28.492  1.00  0.00     0.135 A 
ATOM     67  C   UNL A   1      42.721  23.602  26.187  1.00  0.00     0.135 A 
ATOM     68  F   UNL A   1      42.631  23.190  29.806  1.00  0.00    -0.206 F 
ATOM     69  C   UNL A   1      42.285  21.619  28.094  1.00  0.00     0.059 A 
ATOM     70  C   UNL A   1      42.439  22.311  25.767  1.00  0.00     0.059 A 
ATOM     71  F   UNL A   1      42.956  24.538  25.254  1.00  0.00    -0.206 F 
ATOM     72  C   UNL A   1      42.230  21.324  26.728  1.00  0.00     0.060 A 
BRANCH  72  73
ATOM     73  S   UNL A   1      41.878  19.628  26.226  1.00  0.00     0.124 S 
ATOM     74  O   UNL A   1      42.351  18.877  27.385  1.00  0.00    -0.237 OA
ATOM     75  O   UNL A   1      40.432  19.656  26.034  1.00  0.00    -0.237 OA
ATOM     76  O   UNL A   1      42.666  19.464  25.008  1.00  0.00    -0.744 OA
ENDBRANCH  72  73
ENDBRANCH  51  65
BRANCH  52  77
ATOM     77  C   UNL A   1      44.256  33.331  30.385  1.00  0.00     0.058 A 
ATOM     78  C   UNL A   1      44.281  33.807  31.710  1.00  0.00     0.135 A 
ATOM     79  C   UNL A   1      44.398  34.287  29.365  1.00  0.00     0.135 A 
ATOM     80  F   UNL A   1      44.128  32.950  32.732  1.00  0.00    -0.206 F 
ATOM     81  C   UNL A   1      44.400  35.165  32.007  1.00  0.00     0.059 A 
ATOM     82  C   UNL A   1      44.568  35.643  29.638  1.00  0.00     0.059 A 
ATOM     83  F   UNL A   1      44.368  33.911  28.078  1.00  0.00    -0.206 F 
ATOM     84  C   UNL A   1      44.540  36.077  30.960  1.00  0.00     0.060 A 
BRANCH  84  85
ATOM     85  S   UNL A   1      44.687  37.838  31.340  1.00  0.00     0.124 S 
ATOM     86  O   UNL A   1      43.794  37.965  32.485  1.00  0.00    -0.237 OA
ATOM     87  O   UNL A   1      46.112  37.975  31.621  1.00  0.00    -0.237 OA
ATOM     88  O   UNL A   1      44.233  38.483  30.111  1.00  0.00    -0.744 OA
ENDBRANCH  84  85
ENDBRANCH  52  77
BRANCH  64  89
ATOM     89  C   UNL A   1      48.482  27.845  29.536  1.00  0.00     0.058 A 
ATOM     90  C   UNL A   1      49.057  27.394  30.734  1.00  0.00     0.135 A 
ATOM     91  C   UNL A   1      49.335  28.050  28.438  1.00  0.00     0.135 A 
ATOM     92  F   UNL A   1      48.291  27.190  31.817  1.00  0.00    -0.206 F 
ATOM     93  C   UNL A   1      50.427  27.168  30.845  1.00  0.00     0.059 A 
ATOM     94  C   UNL A   1      50.702  27.797  28.516  1.00  0.00     0.059 A 
ATOM     95  F   UNL A   1      48.839  28.477  27.267  1.00  0.00    -0.206 F 
ATOM     96  C   UNL A   1      51.239  27.366  29.727  1.00  0.00     0.060 A 
BRANCH  96  97
ATOM     97  S   UNL A   1      53.005  27.018  29.866  1.00  0.00     0.124 S 
ATOM     98  O   UNL A   1      53.568  28.363  29.919  1.00  0.00    -0.237 OA
ATOM     99  O   UNL A   1      53.075  26.252  31.107  1.00  0.00    -0.237 OA
ATOM    100  O   UNL A   1      53.300  26.261  28.653  1.00  0.00    -0.744 OA
ENDBRANCH  96  97
ENDBRANCH  64  89
ENDBRANCH  38  39
ENDBRANCH  31  33
ENDBRANCH  30  31
ENDBRANCH  29  30
ENDBRANCH   1  29
TORSDOF 18
ENDMDL
MODEL 2
REMARK VINA RESULT:     -11.5      1.133      8.059
REMARK SMILES CCOc1ccc(-c2cc(Cl)cc3c2O[C@H](C(F)(F)F)C(C(=O)OCCOC(=O)c2ccc(-c4c5nc(c(-c6c(F)cc(S(=O)(=O)[O-])cc6F)c6ccc([nH]6)c(-c6c(F)cc(S(=O)(=O)[O-])cc6F)c6nc(c(-c7c(F)cc(S(=O)(=O)[O-])cc7F)c7ccc4[nH]7)C=C6)C=C5)cc2)=C3)cc1
REMARK SMILES IDX 25 1 24 2 22 3 23 4 21 5 8 6 9 7 14 8 10 9 13 10 15 11 11 12
REMARK SMILES IDX 12 13 96 14 16 15 7 16 4 17 5 18 98 19 6 20 97 21 3 22 2 23
REMARK SMILES IDX 1 24 17 25 18 26 19 27 20 28 26 29 27 30 28 31 29 32 30 33
REMARK SMILES IDX 31 34 95 35 32 36 94 37 33 38 34 39 35 40 88 41 36 42 93 43
REMARK SMILES IDX 87 44 89 45 37 46 92 47 86 48 85 49 38 51 72 52 51 53 71 54
REMARK SMILES IDX 52 55 55 56 70 57 90 58 53 59 54 60 69 62 91 63 56 64 39 65
REMARK SMILES IDX 40 66 49 67 41 68 42 69 48 70 50 71 43 72 44 73 45 74 46 75
REMARK SMILES IDX 47 76 73 77 74 78 83 79 75 80 76 81 82 82 84 83 77 84 78 85
REMARK SMILES IDX 79 86 80 87 81 88 57 89 58 90 67 91 59 92 60 93 66 94 68 95
REMARK SMILES IDX 61 96 62 97 63 98 64 99 65 100
REMARK H PARENT 89 50 55 61
REMARK Flexibility Score: inf
ROOT
ATOM      1  C   UNL A   1      32.639  27.784  26.528  1.00  0.00     0.275 C 
ENDROOT
BRANCH   1   2
ATOM      2  O   UNL A   1      33.594  26.969  25.800  1.00  0.00    -0.459 OA
BRANCH   2   3
ATOM      3  C   UNL A   1      33.504  27.123  24.453  1.00  0.00     0.338 C 
ATOM      4  O   UNL A   1      34.069  28.012  23.824  1.00  0.00    -0.246 OA
BRANCH   3   5
ATOM      5  C   UNL A   1      32.677  26.095  23.768  1.00  0.00     0.087 C 
ATOM      6  C   UNL A   1      33.420  22.222  24.656  1.00  0.00     0.026 A 
ATOM      7  C   UNL A   1      34.756  22.331  25.109  1.00  0.00     0.033 A 
ATOM      8  C   UNL A   1      32.940  23.371  24.025  1.00  0.00     0.135 A 
ATOM      9  C   UNL A   1      35.605  23.391  24.778  1.00  0.00     0.042 A 
ATOM     10  C   UNL A   1      33.866  24.293  23.476  1.00  0.00     0.019 A 
ATOM     11  O   UNL A   1      31.623  23.819  24.109  1.00  0.00    -0.475 OA
ATOM     12  Cl  UNL A   1      37.135  23.652  25.503  1.00  0.00    -0.084 Cl
ATOM     13  C   UNL A   1      35.198  24.306  23.843  1.00  0.00     0.032 A 
ATOM     14  C   UNL A   1      33.337  25.478  22.773  1.00  0.00     0.027 C 
ATOM     15  C   UNL A   1      31.555  25.301  24.417  1.00  0.00     0.316 C 
BRANCH   6  16
ATOM     16  C   UNL A   1      32.887  20.823  24.658  1.00  0.00    -0.014 A 
ATOM     17  C   UNL A   1      32.730  17.999  24.128  1.00  0.00     0.119 A 
ATOM     18  C   UNL A   1      33.052  18.485  25.398  1.00  0.00     0.047 A 
ATOM     19  C   UNL A   1      32.411  18.917  23.141  1.00  0.00     0.047 A 
ATOM     20  C   UNL A   1      33.104  19.876  25.668  1.00  0.00     0.013 A 
ATOM     21  C   UNL A   1      32.482  20.298  23.406  1.00  0.00     0.013 A 
BRANCH  17  22
ATOM     22  O   UNL A   1      32.670  16.641  23.986  1.00  0.00    -0.494 OA
BRANCH  22  23
ATOM     23  C   UNL A   1      33.381  15.823  24.928  1.00  0.00     0.226 C 
ATOM     24  C   UNL A   1      32.479  14.793  25.594  1.00  0.00     0.049 C 
ENDBRANCH  22  23
ENDBRANCH  17  22
ENDBRANCH   6  16
BRANCH  15  25
ATOM     25  C   UNL A   1      30.259  25.919  23.878  1.00  0.00     0.430 C 
ATOM     26  F   UNL A   1      29.446  26.339  24.879  1.00  0.00    -0.167 F 
ATOM     27  F   UNL A   1      30.481  26.968  23.061  1.00  0.00    -0.167 F 
ATOM     28  F   UNL A   1      29.547  25.007  23.162  1.00  0.00    -0.167 F 
ENDBRANCH  15  25
ENDBRANCH   3   5
ENDBRANCH   2   3
ENDBRANCH   1   2
BRANCH   1  29
ATOM     29  C   UNL A   1      33.283  28.684  27.587  1.00  0.00     0.275 C 
BRANCH  29  30
ATOM     30  O   UNL A   1      34.091  29.717  26.994  1.00  0.00    -0.458 OA
BRANCH  30  31
ATOM     31  C   UNL A   1      34.708  30.516  27.897  1.00  0.00     0.338 C 
ATOM     32  O   UNL A   1      34.191  31.467  28.476  1.00  0.00    -0.246 OA
BRANCH  31  33
ATOM     33  C   UNL A   1      36.077  30.040  28.219  1.00  0.00     0.060 A 
ATOM     34  C   UNL A   1      37.019  30.144  27.200  1.00  0.00     0.016 A 
ATOM     35  C   UNL A   1      36.471  29.498  29.450  1.00  0.00     0.016 A 
ATOM     36  C   UNL A   1      38.341  29.763  27.434  1.00  0.00     0.010 A 
ATOM     37  C   UNL A   1      37.820  29.121  29.676  1.00  0.00     0.010 A 
ATOM     38  C   UNL A   1      38.788  29.283  28.678  1.00  0.00    -0.014 A 
BRANCH  38  39
ATOM     39  C   UNL A   1      40.257  28.959  28.808  1.00  0.00     0.031 A 
ATOM     40  C   UNL A   1      41.115  29.857  29.656  1.00  0.00     0.074 A 
ATOM     41  C   UNL A   1      40.812  27.799  28.379  1.00  0.00     0.049 A 
ATOM     42  N   UNL A   1      42.323  29.655  30.109  1.00  0.00    -0.248 NA
ATOM     43  C   UNL A   1      40.527  31.148  30.052  1.00  0.00     0.031 C 
ATOM     44  C   UNL A   1      40.126  26.798  27.585  1.00  0.00     0.029 A 
ATOM     45  N   UNL A   1      42.038  27.208  28.619  1.00  0.00    -0.354 N 
ATOM     46  C   UNL A   1      42.645  30.791  30.834  1.00  0.00     0.074 A 
ATOM     47  C   UNL A   1      41.486  31.658  30.808  1.00  0.00     0.031 C 
ATOM     48  C   UNL A   1      40.826  25.654  27.572  1.00  0.00     0.029 A 
ATOM     49  C   UNL A   1      42.126  25.895  28.183  1.00  0.00     0.049 A 
ATOM     50  H   UNL A   1      42.783  27.678  29.060  1.00  0.00     0.167 HD
ATOM     51  C   UNL A   1      43.819  31.114  31.420  1.00  0.00     0.037 A 
ATOM     52  C   UNL A   1      43.138  24.997  28.221  1.00  0.00     0.037 A 
ATOM     53  C   UNL A   1      45.010  30.312  31.381  1.00  0.00     0.049 A 
ATOM     54  C   UNL A   1      44.475  25.448  28.752  1.00  0.00     0.074 A 
ATOM     55  C   UNL A   1      46.258  30.619  31.894  1.00  0.00     0.029 A 
ATOM     56  N   UNL A   1      45.123  29.072  30.771  1.00  0.00    -0.354 N 
ATOM     57  N   UNL A   1      44.771  26.548  29.399  1.00  0.00    -0.248 NA
ATOM     58  C   UNL A   1      45.625  24.555  28.533  1.00  0.00     0.031 C 
ATOM     59  C   UNL A   1      47.144  29.604  31.525  1.00  0.00     0.029 A 
ATOM     60  C   UNL A   1      46.432  28.624  30.854  1.00  0.00     0.049 A 
ATOM     61  H   UNL A   1      44.383  28.583  30.343  1.00  0.00     0.167 HD
ATOM     62  C   UNL A   1      46.131  26.469  29.684  1.00  0.00     0.074 A 
ATOM     63  C   UNL A   1      46.598  25.206  29.157  1.00  0.00     0.031 C 
ATOM     64  C   UNL A   1      46.911  27.369  30.328  1.00  0.00     0.037 A 
BRANCH  51  65
ATOM     65  C   UNL A   1      43.905  32.476  32.035  1.00  0.00     0.058 A 
ATOM     66  C   UNL A   1      44.325  33.599  31.310  1.00  0.00     0.135 A 
ATOM     67  C   UNL A   1      43.550  32.646  33.383  1.00  0.00     0.135 A 
ATOM     68  F   UNL A   1      44.714  33.472  30.031  1.00  0.00    -0.206 F 
ATOM     69  C   UNL A   1      44.398  34.852  31.906  1.00  0.00     0.059 A 
ATOM     70  C   UNL A   1      43.595  33.891  33.992  1.00  0.00     0.059 A 
ATOM     71  F   UNL A   1      43.166  31.591  34.119  1.00  0.00    -0.206 F 
ATOM     72  C   UNL A   1      44.027  34.988  33.247  1.00  0.00     0.060 A 
BRANCH  72  73
ATOM     73  S   UNL A   1      44.117  36.621  34.005  1.00  0.00     0.124 S 
ATOM     74  O   UNL A   1      43.697  36.331  35.372  1.00  0.00    -0.237 OA
ATOM     75  O   UNL A   1      45.524  36.966  33.832  1.00  0.00    -0.237 OA
ATOM     76  O   UNL A   1      43.178  37.414  33.216  1.00  0.00    -0.744 OA
ENDBRANCH  72  73
ENDBRANCH  51  65
BRANCH  52  77
ATOM     77  C   UNL A   1      42.993  23.602  27.684  1.00  0.00     0.058 A 
ATOM     78  C   UNL A   1      43.192  23.319  26.319  1.00  0.00     0.135 A 
ATOM     79  C   UNL A   1      42.565  22.538  28.496  1.00  0.00     0.135 A 
ATOM     80  F   UNL A   1      43.579  24.295  25.482  1.00  0.00    -0.206 F 
ATOM     81  C   UNL A   1      42.942  22.056  25.781  1.00  0.00     0.059 A 
ATOM     82  C   UNL A   1      42.356  21.257  27.991  1.00  0.00     0.059 A 
ATOM     83  F   UNL A   1      42.338  22.736  29.803  1.00  0.00    -0.206 F 
ATOM     84  C   UNL A   1      42.520  21.031  26.628  1.00  0.00     0.060 A 
BRANCH  84  85
ATOM     85  S   UNL A   1      42.187  19.396  25.933  1.00  0.00     0.124 S 
ATOM     86  O   UNL A   1      40.735  19.423  25.806  1.00  0.00    -0.237 OA
ATOM     87  O   UNL A   1      42.939  19.433  24.683  1.00  0.00    -0.237 OA
ATOM     88  O   UNL A   1      42.716  18.489  26.947  1.00  0.00    -0.744 OA
ENDBRANCH  84  85
ENDBRANCH  52  77
BRANCH  64  89
ATOM     89  C   UNL A   1      48.360  27.023  30.540  1.00  0.00     0.058 A 
ATOM     90  C   UNL A   1      49.380  27.556  29.736  1.00  0.00     0.135 A 
ATOM     91  C   UNL A   1      48.739  26.199  31.614  1.00  0.00     0.135 A 
ATOM     92  F   UNL A   1      49.075  28.343  28.692  1.00  0.00    -0.206 F 
ATOM     93  C   UNL A   1      50.721  27.271  29.976  1.00  0.00     0.059 A 
ATOM     94  C   UNL A   1      50.075  25.929  31.894  1.00  0.00     0.059 A 
ATOM     95  F   UNL A   1      47.806  25.665  32.418  1.00  0.00    -0.206 F 
ATOM     96  C   UNL A   1      51.058  26.461  31.063  1.00  0.00     0.060 A 
BRANCH  96  97
ATOM     97  S   UNL A   1      52.803  26.144  31.398  1.00  0.00     0.124 S 
ATOM     98  O   UNL A   1      53.344  26.016  30.049  1.00  0.00    -0.237 OA
ATOM     99  O   UNL A   1      53.205  27.341  32.130  1.00  0.00    -0.237 OA
ATOM    100  O   UNL A   1      52.781  24.914  32.185  1.00  0.00    -0.744 OA
ENDBRANCH  96  97
ENDBRANCH  64  89
ENDBRANCH  38  39
ENDBRANCH  31  33
ENDBRANCH  30  31
ENDBRANCH  29  30
ENDBRANCH   1  29
TORSDOF 18
ENDMDL
MODEL 3
REMARK VINA RESULT:     -11.2      6.308     12.246
REMARK SMILES CCOc1ccc(-c2cc(Cl)cc3c2O[C@H](C(F)(F)F)C(C(=O)OCCOC(=O)c2ccc(-c4c5nc(c(-c6c(F)cc(S(=O)(=O)[O-])cc6F)c6ccc([nH]6)c(-c6c(F)cc(S(=O)(=O)[O-])cc6F)c6nc(c(-c7c(F)cc(S(=O)(=O)[O-])cc7F)c7ccc4[nH]7)C=C6)C=C5)cc2)=C3)cc1
REMARK SMILES IDX 25 1 24 2 22 3 23 4 21 5 8 6 9 7 14 8 10 9 13 10 15 11 11 12
REMARK SMILES IDX 12 13 96 14 16 15 7 16 4 17 5 18 98 19 6 20 97 21 3 22 2 23
REMARK SMILES IDX 1 24 17 25 18 26 19 27 20 28 26 29 27 30 28 31 29 32 30 33
REMARK SMILES IDX 31 34 95 35 32 36 94 37 33 38 34 39 35 40 88 41 36 42 93 43
REMARK SMILES IDX 87 44 89 45 37 46 92 47 86 48 85 49 38 51 72 52 51 53 71 54
REMARK SMILES IDX 52 55 55 56 70 57 90 58 53 59 54 60 69 62 91 63 56 64 39 65
REMARK SMILES IDX 40 66 49 67 41 68 42 69 48 70 50 71 43 72 44 73 45 74 46 75
REMARK SMILES IDX 47 76 73 77 74 78 83 79 75 80 76 81 82 82 84 83 77 84 78 85
REMARK SMILES IDX 79 86 80 87 81 88 57 89 58 90 67 91 59 92 60 93 66 94 68 95
REMARK SMILES IDX 61 96 62 97 63 98 64 99 65 100
REMARK H PARENT 89 50 55 61
REMARK Flexibility Score: inf
ROOT
ATOM      1  C   UNL A   1      43.587  23.063  25.401  1.00  0.00     0.275 C 
ENDROOT
BRANCH   1   2
ATOM      2  O   UNL A   1      44.661  24.020  25.589  1.00  0.00    -0.459 OA
BRANCH   2   3
ATOM      3  C   UNL A   1      45.626  23.573  26.436  1.00  0.00     0.338 C 
ATOM      4  O   UNL A   1      46.400  22.658  26.175  1.00  0.00    -0.246 OA
BRANCH   3   5
ATOM      5  C   UNL A   1      45.704  24.310  27.725  1.00  0.00     0.087 C 
ATOM      6  C   UNL A   1      45.428  28.340  27.580  1.00  0.00     0.026 A 
ATOM      7  C   UNL A   1      45.837  28.561  26.244  1.00  0.00     0.033 A 
ATOM      8  C   UNL A   1      45.657  27.041  28.035  1.00  0.00     0.135 A 
ATOM      9  C   UNL A   1      46.598  27.652  25.503  1.00  0.00     0.042 A 
ATOM     10  C   UNL A   1      46.640  26.248  27.390  1.00  0.00     0.019 A 
ATOM     11  O   UNL A   1      44.820  26.360  28.918  1.00  0.00    -0.475 OA
ATOM     12  Cl  UNL A   1      46.899  27.803  23.823  1.00  0.00    -0.084 Cl
ATOM     13  C   UNL A   1      47.118  26.550  26.129  1.00  0.00     0.032 A 
ATOM     14  C   UNL A   1      46.900  24.894  27.916  1.00  0.00     0.027 C 
ATOM     15  C   UNL A   1      44.526  24.954  28.437  1.00  0.00     0.316 C 
BRANCH   6  16
ATOM     16  C   UNL A   1      45.120  29.593  28.340  1.00  0.00    -0.014 A 
ATOM     17  C   UNL A   1      43.641  31.868  29.298  1.00  0.00     0.119 A 
ATOM     18  C   UNL A   1      43.871  30.754  30.110  1.00  0.00     0.047 A 
ATOM     19  C   UNL A   1      44.211  31.883  28.035  1.00  0.00     0.047 A 
ATOM     20  C   UNL A   1      44.622  29.644  29.649  1.00  0.00     0.013 A 
ATOM     21  C   UNL A   1      44.940  30.771  27.573  1.00  0.00     0.013 A 
BRANCH  17  22
ATOM     22  O   UNL A   1      42.937  32.899  29.854  1.00  0.00    -0.494 OA
BRANCH  22  23
ATOM     23  C   UNL A   1      41.713  32.600  30.542  1.00  0.00     0.226 C 
ATOM     24  C   UNL A   1      40.928  33.856  30.894  1.00  0.00     0.049 C 
ENDBRANCH  22  23
ENDBRANCH  17  22
ENDBRANCH   6  16
BRANCH  15  25
ATOM     25  C   UNL A   1      44.208  24.023  29.613  1.00  0.00     0.430 C 
ATOM     26  F   UNL A   1      44.563  24.572  30.801  1.00  0.00    -0.167 F 
ATOM     27  F   UNL A   1      42.900  23.700  29.685  1.00  0.00    -0.167 F 
ATOM     28  F   UNL A   1      44.896  22.854  29.508  1.00  0.00    -0.167 F 
ENDBRANCH  15  25
ENDBRANCH   3   5
ENDBRANCH   2   3
ENDBRANCH   1   2
BRANCH   1  29
ATOM     29  C   UNL A   1      42.448  23.213  26.414  1.00  0.00     0.275 C 
BRANCH  29  30
ATOM     30  O   UNL A   1      41.369  24.012  25.894  1.00  0.00    -0.458 OA
BRANCH  30  31
ATOM     31  C   UNL A   1      41.640  25.338  25.852  1.00  0.00     0.338 C 
ATOM     32  O   UNL A   1      42.034  25.953  24.866  1.00  0.00    -0.246 OA
BRANCH  31  33
ATOM     33  C   UNL A   1      41.285  26.019  27.123  1.00  0.00     0.060 A 
ATOM     34  C   UNL A   1      41.906  27.242  27.359  1.00  0.00     0.016 A 
ATOM     35  C   UNL A   1      40.394  25.518  28.083  1.00  0.00     0.016 A 
ATOM     36  C   UNL A   1      41.593  27.970  28.507  1.00  0.00     0.010 A 
ATOM     37  C   UNL A   1      40.080  26.272  29.242  1.00  0.00     0.010 A 
ATOM     38  C   UNL A   1      40.650  27.534  29.455  1.00  0.00    -0.014 A 
BRANCH  38  39
ATOM     39  C   UNL A   1      40.367  28.447  30.624  1.00  0.00     0.031 A 
ATOM     40  C   UNL A   1      41.378  28.522  31.733  1.00  0.00     0.074 A 
ATOM     41  C   UNL A   1      39.360  29.356  30.641  1.00  0.00     0.049 A 
ATOM     42  N   UNL A   1      41.476  29.393  32.701  1.00  0.00    -0.248 NA
ATOM     43  C   UNL A   1      42.422  27.483  31.745  1.00  0.00     0.031 C 
ATOM     44  C   UNL A   1      38.319  29.457  29.637  1.00  0.00     0.029 A 
ATOM     45  N   UNL A   1      39.089  30.429  31.469  1.00  0.00    -0.354 N 
ATOM     46  C   UNL A   1      42.581  29.006  33.442  1.00  0.00     0.074 A 
ATOM     47  C   UNL A   1      43.155  27.853  32.782  1.00  0.00     0.031 C 
ATOM     48  C   UNL A   1      37.658  30.617  29.767  1.00  0.00     0.029 A 
ATOM     49  C   UNL A   1      38.084  31.261  31.001  1.00  0.00     0.049 A 
ATOM     50  H   UNL A   1      39.566  30.587  32.316  1.00  0.00     0.167 HD
ATOM     51  C   UNL A   1      43.044  29.523  34.602  1.00  0.00     0.037 A 
ATOM     52  C   UNL A   1      37.529  32.384  31.514  1.00  0.00     0.037 A 
ATOM     53  C   UNL A   1      42.438  30.608  35.322  1.00  0.00     0.049 A 
ATOM     54  C   UNL A   1      37.977  32.843  32.880  1.00  0.00     0.074 A 
ATOM     55  C   UNL A   1      42.818  31.132  36.545  1.00  0.00     0.029 A 
ATOM     56  N   UNL A   1      41.312  31.309  34.919  1.00  0.00    -0.354 N 
ATOM     57  N   UNL A   1      39.003  32.434  33.586  1.00  0.00    -0.248 NA
ATOM     58  C   UNL A   1      37.180  33.892  33.536  1.00  0.00     0.031 C 
ATOM     59  C   UNL A   1      41.876  32.094  36.920  1.00  0.00     0.029 A 
ATOM     60  C   UNL A   1      40.956  32.229  35.894  1.00  0.00     0.049 A 
ATOM     61  H   UNL A   1      40.836  31.174  34.069  1.00  0.00     0.167 HD
ATOM     62  C   UNL A   1      38.986  33.190  34.754  1.00  0.00     0.074 A 
ATOM     63  C   UNL A   1      37.862  34.095  34.654  1.00  0.00     0.031 C 
ATOM     64  C   UNL A   1      39.835  33.132  35.808  1.00  0.00     0.037 A 
BRANCH  51  65
ATOM     65  C   UNL A   1      44.198  28.812  35.235  1.00  0.00     0.058 A 
ATOM     66  C   UNL A   1      45.529  29.142  34.945  1.00  0.00     0.135 A 
ATOM     67  C   UNL A   1      43.952  27.780  36.154  1.00  0.00     0.135 A 
ATOM     68  F   UNL A   1      45.810  30.093  34.040  1.00  0.00    -0.206 F 
ATOM     69  C   UNL A   1      46.583  28.464  35.546  1.00  0.00     0.059 A 
ATOM     70  C   UNL A   1      44.988  27.104  36.781  1.00  0.00     0.059 A 
ATOM     71  F   UNL A   1      42.691  27.417  36.440  1.00  0.00    -0.206 F 
ATOM     72  C   UNL A   1      46.301  27.449  36.465  1.00  0.00     0.060 A 
BRANCH  72  73
ATOM     73  S   UNL A   1      47.679  26.584  37.243  1.00  0.00     0.124 S 
ATOM     74  O   UNL A   1      48.294  25.924  36.096  1.00  0.00    -0.237 OA
ATOM     75  O   UNL A   1      48.441  27.681  37.829  1.00  0.00    -0.237 OA
ATOM     76  O   UNL A   1      47.025  25.696  38.201  1.00  0.00    -0.744 OA
ENDBRANCH  72  73
ENDBRANCH  51  65
BRANCH  52  77
ATOM     77  C   UNL A   1      36.438  33.135  30.809  1.00  0.00     0.058 A 
ATOM     78  C   UNL A   1      36.725  34.028  29.758  1.00  0.00     0.135 A 
ATOM     79  C   UNL A   1      35.098  33.053  31.222  1.00  0.00     0.135 A 
ATOM     80  F   UNL A   1      37.989  34.173  29.329  1.00  0.00    -0.206 F 
ATOM     81  C   UNL A   1      35.741  34.826  29.175  1.00  0.00     0.059 A 
ATOM     82  C   UNL A   1      34.089  33.803  30.622  1.00  0.00     0.059 A 
ATOM     83  F   UNL A   1      34.751  32.237  32.228  1.00  0.00    -0.206 F 
ATOM     84  C   UNL A   1      34.423  34.707  29.617  1.00  0.00     0.060 A 
BRANCH  84  85
ATOM     85  S   UNL A   1      33.146  35.745  28.870  1.00  0.00     0.124 S 
ATOM     86  O   UNL A   1      32.500  36.308  30.049  1.00  0.00    -0.237 OA
ATOM     87  O   UNL A   1      33.934  36.673  28.067  1.00  0.00    -0.237 OA
ATOM     88  O   UNL A   1      32.345  34.791  28.107  1.00  0.00    -0.744 OA
ENDBRANCH  84  85
ENDBRANCH  52  77
BRANCH  64  89
ATOM     89  C   UNL A   1      39.616  34.094  36.945  1.00  0.00     0.058 A 
ATOM     90  C   UNL A   1      38.898  33.736  38.097  1.00  0.00     0.135 A 
ATOM     91  C   UNL A   1      40.197  35.373  36.908  1.00  0.00     0.135 A 
ATOM     92  F   UNL A   1      38.315  32.530  38.183  1.00  0.00    -0.206 F 
ATOM     93  C   UNL A   1      38.749  34.616  39.165  1.00  0.00     0.059 A 
ATOM     94  C   UNL A   1      40.090  36.256  37.978  1.00  0.00     0.059 A 
ATOM     95  F   UNL A   1      40.897  35.766  35.833  1.00  0.00    -0.206 F 
ATOM     96  C   UNL A   1      39.355  35.873  39.098  1.00  0.00     0.060 A 
BRANCH  96  97
ATOM     97  S   UNL A   1      39.201  36.985  40.511  1.00  0.00     0.124 S 
ATOM     98  O   UNL A   1      40.585  37.401  40.711  1.00  0.00    -0.237 OA
ATOM     99  O   UNL A   1      38.297  38.013  40.002  1.00  0.00    -0.237 OA
ATOM    100  O   UNL A   1      38.644  36.132  41.557  1.00  0.00    -0.744 OA
ENDBRANCH  96  97
ENDBRANCH  64  89
ENDBRANCH  38  39
ENDBRANCH  31  33
ENDBRANCH  30  31
ENDBRANCH  29  30
ENDBRANCH   1  29
TORSDOF 18
ENDMDL
