MODEL 1
REMARK VINA RESULT:     -10.9      0.000      0.000
REMARK SMILES CC(C)CN(C)S(=O)(=O)c1ccc(C(=O)OCCOC(=O)c2ccc(-c3c4nc(c(-c5c(F)cc(S(=O)(=O)[O-])cc5F)c5ccc([nH]5)c(-c5c(F)cc(S(=O)(=O)[O-])cc5F)c5nc(c(-c6c(F)cc(S(=O)(=O)[O-])cc6F)c6ccc3[nH]6)C=C5)C=C4)cc2)cc1
REMARK SMILES IDX 17 1 16 2 14 3 15 4 13 5 10 6 11 7 89 8 12 9 88 10 7 11 8 12
REMARK SMILES IDX 9 13 5 14 6 15 4 16 2 17 1 18 3 19 18 20 19 21 20 22 21 23
REMARK SMILES IDX 22 24 23 25 87 26 24 27 86 28 25 29 26 30 27 31 80 32 28 33
REMARK SMILES IDX 85 34 79 35 81 36 29 37 84 38 78 39 77 40 30 42 64 43 43 44
REMARK SMILES IDX 63 45 44 46 47 47 62 48 82 49 45 50 46 51 61 53 83 54 48 55
REMARK SMILES IDX 31 56 32 57 41 58 33 59 34 60 40 61 42 62 35 63 36 64 37 65
REMARK SMILES IDX 38 66 39 67 65 68 66 69 75 70 67 71 68 72 74 73 76 74 69 75
REMARK SMILES IDX 70 76 71 77 72 78 73 79 49 80 50 81 59 82 51 83 52 84 58 85
REMARK SMILES IDX 60 86 53 87 54 88 55 89 56 90 57 91
REMARK H PARENT 81 41 47 52
REMARK Flexibility Score: inf
ROOT
ATOM      1  C   UNL A   1      39.976  20.984  26.224  1.00  0.00     0.275 C 
ENDROOT
BRANCH   1   2
ATOM      2  O   UNL A   1      38.819  21.701  25.747  1.00  0.00    -0.458 OA
BRANCH   2   3
ATOM      3  C   UNL A   1      37.914  20.926  25.110  1.00  0.00     0.338 C 
ATOM      4  O   UNL A   1      38.030  19.749  24.814  1.00  0.00    -0.246 OA
BRANCH   3   5
ATOM      5  C   UNL A   1      36.682  21.673  24.815  1.00  0.00     0.060 A 
ATOM      6  C   UNL A   1      34.348  22.613  23.650  1.00  0.00     0.082 A 
ATOM      7  C   UNL A   1      34.289  21.535  24.538  1.00  0.00     0.022 A 
ATOM      8  C   UNL A   1      35.554  23.282  23.406  1.00  0.00     0.022 A 
ATOM      9  C   UNL A   1      35.459  21.074  25.129  1.00  0.00     0.017 A 
ATOM     10  C   UNL A   1      36.732  22.804  23.992  1.00  0.00     0.017 A 
BRANCH   6  11
ATOM     11  S   UNL A   1      32.891  22.964  22.695  1.00  0.00     0.242 S 
ATOM     12  O   UNL A   1      32.014  21.826  22.795  1.00  0.00    -0.207 OA
ATOM     13  O   UNL A   1      33.393  23.429  21.416  1.00  0.00    -0.207 OA
BRANCH  11  14
ATOM     14  N   UNL A   1      32.088  24.274  23.483  1.00  0.00    -0.201 NA
ATOM     15  C   UNL A   1      32.275  25.568  22.758  1.00  0.00     0.124 C 
BRANCH  14  16
ATOM     16  C   UNL A   1      32.554  24.451  24.916  1.00  0.00     0.105 C 
BRANCH  16  17
ATOM     17  C   UNL A   1      31.447  24.295  25.978  1.00  0.00    -0.002 C 
ATOM     18  C   UNL A   1      30.279  25.272  25.799  1.00  0.00     0.009 C 
ATOM     19  C   UNL A   1      30.882  22.868  25.901  1.00  0.00     0.009 C 
ENDBRANCH  16  17
ENDBRANCH  14  16
ENDBRANCH  11  14
ENDBRANCH   6  11
ENDBRANCH   3   5
ENDBRANCH   2   3
ENDBRANCH   1   2
BRANCH   1  20
ATOM     20  C   UNL A   1      41.233  21.852  26.189  1.00  0.00     0.275 C 
BRANCH  20  21
ATOM     21  O   UNL A   1      41.104  23.011  27.038  1.00  0.00    -0.458 OA
BRANCH  21  22
ATOM     22  C   UNL A   1      41.575  24.159  26.503  1.00  0.00     0.338 C 
ATOM     23  O   UNL A   1      42.318  24.269  25.540  1.00  0.00    -0.246 OA
BRANCH  22  24
ATOM     24  C   UNL A   1      41.067  25.344  27.214  1.00  0.00     0.060 A 
ATOM     25  C   UNL A   1      41.731  26.560  27.080  1.00  0.00     0.016 A 
ATOM     26  C   UNL A   1      40.114  25.173  28.222  1.00  0.00     0.016 A 
ATOM     27  C   UNL A   1      41.568  27.544  28.057  1.00  0.00     0.010 A 
ATOM     28  C   UNL A   1      39.866  26.213  29.127  1.00  0.00     0.010 A 
ATOM     29  C   UNL A   1      40.645  27.384  29.107  1.00  0.00    -0.014 A 
BRANCH  29  30
ATOM     30  C   UNL A   1      40.560  28.387  30.217  1.00  0.00     0.031 A 
ATOM     31  C   UNL A   1      41.553  28.354  31.362  1.00  0.00     0.074 A 
ATOM     32  C   UNL A   1      39.623  29.358  30.206  1.00  0.00     0.049 A 
ATOM     33  N   UNL A   1      41.541  29.020  32.492  1.00  0.00    -0.248 NA
ATOM     34  C   UNL A   1      42.697  27.437  31.231  1.00  0.00     0.031 C 
ATOM     35  C   UNL A   1      38.609  29.550  29.168  1.00  0.00     0.029 A 
ATOM     36  N   UNL A   1      39.387  30.386  31.088  1.00  0.00    -0.354 N 
ATOM     37  C   UNL A   1      42.620  28.545  33.232  1.00  0.00     0.074 A 
ATOM     38  C   UNL A   1      43.271  27.539  32.421  1.00  0.00     0.031 C 
ATOM     39  C   UNL A   1      37.907  30.661  29.436  1.00  0.00     0.029 A 
ATOM     40  C   UNL A   1      38.359  31.215  30.707  1.00  0.00     0.049 A 
ATOM     41  H   UNL A   1      39.906  30.515  31.915  1.00  0.00     0.167 HD
ATOM     42  C   UNL A   1      43.030  28.908  34.473  1.00  0.00     0.037 A 
ATOM     43  C   UNL A   1      37.816  32.287  31.317  1.00  0.00     0.037 A 
ATOM     44  C   UNL A   1      42.448  29.975  35.246  1.00  0.00     0.049 A 
ATOM     45  C   UNL A   1      38.333  32.719  32.661  1.00  0.00     0.074 A 
ATOM     46  C   UNL A   1      42.794  30.415  36.513  1.00  0.00     0.029 A 
ATOM     47  N   UNL A   1      41.422  30.799  34.809  1.00  0.00    -0.354 N 
ATOM     48  N   UNL A   1      39.285  32.187  33.386  1.00  0.00    -0.248 NA
ATOM     49  C   UNL A   1      37.685  33.887  33.275  1.00  0.00     0.031 C 
ATOM     50  C   UNL A   1      41.975  31.502  36.844  1.00  0.00     0.029 A 
ATOM     51  C   UNL A   1      41.136  31.754  35.772  1.00  0.00     0.049 A 
ATOM     52  H   UNL A   1      40.965  30.719  33.940  1.00  0.00     0.167 HD
ATOM     53  C   UNL A   1      39.352  32.954  34.544  1.00  0.00     0.074 A 
ATOM     54  C   UNL A   1      38.363  34.004  34.409  1.00  0.00     0.031 C 
ATOM     55  C   UNL A   1      40.152  32.795  35.626  1.00  0.00     0.037 A 
BRANCH  42  56
ATOM     56  C   UNL A   1      44.156  28.122  35.093  1.00  0.00     0.058 A 
ATOM     57  C   UNL A   1      43.932  26.960  35.846  1.00  0.00     0.135 A 
ATOM     58  C   UNL A   1      45.487  28.531  34.901  1.00  0.00     0.135 A 
ATOM     59  F   UNL A   1      42.679  26.535  36.074  1.00  0.00    -0.206 F 
ATOM     60  C   UNL A   1      44.985  26.247  36.413  1.00  0.00     0.059 A 
ATOM     61  C   UNL A   1      46.555  27.820  35.439  1.00  0.00     0.059 A 
ATOM     62  F   UNL A   1      45.759  29.633  34.185  1.00  0.00    -0.206 F 
ATOM     63  C   UNL A   1      46.294  26.689  36.210  1.00  0.00     0.060 A 
BRANCH  63  64
ATOM     64  S   UNL A   1      47.655  25.764  36.953  1.00  0.00     0.124 S 
ATOM     65  O   UNL A   1      48.267  26.781  37.802  1.00  0.00    -0.237 OA
ATOM     66  O   UNL A   1      46.962  24.688  37.656  1.00  0.00    -0.237 OA
ATOM     67  O   UNL A   1      48.448  25.345  35.802  1.00  0.00    -0.744 OA
ENDBRANCH  63  64
ENDBRANCH  42  56
BRANCH  43  68
ATOM     68  C   UNL A   1      36.698  33.017  30.665  1.00  0.00     0.058 A 
ATOM     69  C   UNL A   1      35.377  32.855  31.106  1.00  0.00     0.135 A 
ATOM     70  C   UNL A   1      36.933  33.909  29.607  1.00  0.00     0.135 A 
ATOM     71  F   UNL A   1      35.103  32.002  32.105  1.00  0.00    -0.206 F 
ATOM     72  C   UNL A   1      34.324  33.549  30.519  1.00  0.00     0.059 A 
ATOM     73  C   UNL A   1      35.900  34.633  29.021  1.00  0.00     0.059 A 
ATOM     74  F   UNL A   1      38.182  34.107  29.159  1.00  0.00    -0.206 F 
ATOM     75  C   UNL A   1      34.597  34.439  29.478  1.00  0.00     0.060 A 
BRANCH  75  76
ATOM     76  S   UNL A   1      33.242  35.395  28.763  1.00  0.00     0.124 S 
ATOM     77  O   UNL A   1      33.965  36.402  27.997  1.00  0.00    -0.237 OA
ATOM     78  O   UNL A   1      32.527  34.390  27.982  1.00  0.00    -0.237 OA
ATOM     79  O   UNL A   1      32.527  35.885  29.938  1.00  0.00    -0.744 OA
ENDBRANCH  75  76
ENDBRANCH  43  68
BRANCH  55  80
ATOM     80  C   UNL A   1      40.001  33.796  36.735  1.00  0.00     0.058 A 
ATOM     81  C   UNL A   1      39.052  33.622  37.755  1.00  0.00     0.135 A 
ATOM     82  C   UNL A   1      40.810  34.942  36.776  1.00  0.00     0.135 A 
ATOM     83  F   UNL A   1      38.253  32.545  37.757  1.00  0.00    -0.206 F 
ATOM     84  C   UNL A   1      38.885  34.570  38.759  1.00  0.00     0.059 A 
ATOM     85  C   UNL A   1      40.672  35.894  37.781  1.00  0.00     0.059 A 
ATOM     86  F   UNL A   1      41.738  35.149  35.829  1.00  0.00    -0.206 F 
ATOM     87  C   UNL A   1      39.693  35.709  38.758  1.00  0.00     0.060 A 
BRANCH  87  88
ATOM     88  S   UNL A   1      39.466  36.944  40.056  1.00  0.00     0.124 S 
ATOM     89  O   UNL A   1      40.828  37.435  40.234  1.00  0.00    -0.237 OA
ATOM     90  O   UNL A   1      38.529  37.881  39.445  1.00  0.00    -0.237 OA
ATOM     91  O   UNL A   1      38.927  36.167  41.168  1.00  0.00    -0.744 OA
ENDBRANCH  87  88
ENDBRANCH  55  80
ENDBRANCH  29  30
ENDBRANCH  22  24
ENDBRANCH  21  22
ENDBRANCH  20  21
ENDBRANCH   1  20
TORSDOF 18
ENDMDL
MODEL 2
REMARK VINA RESULT:     -10.8      6.813     11.701
REMARK SMILES CC(C)CN(C)S(=O)(=O)c1ccc(C(=O)OCCOC(=O)c2ccc(-c3c4nc(c(-c5c(F)cc(S(=O)(=O)[O-])cc5F)c5ccc([nH]5)c(-c5c(F)cc(S(=O)(=O)[O-])cc5F)c5nc(c(-c6c(F)cc(S(=O)(=O)[O-])cc6F)c6ccc3[nH]6)C=C5)C=C4)cc2)cc1
REMARK SMILES IDX 17 1 16 2 14 3 15 4 13 5 10 6 11 7 89 8 12 9 88 10 7 11 8 12
REMARK SMILES IDX 9 13 5 14 6 15 4 16 2 17 1 18 3 19 18 20 19 21 20 22 21 23
REMARK SMILES IDX 22 24 23 25 87 26 24 27 86 28 25 29 26 30 27 31 80 32 28 33
REMARK SMILES IDX 85 34 79 35 81 36 29 37 84 38 78 39 77 40 30 42 64 43 43 44
REMARK SMILES IDX 63 45 44 46 47 47 62 48 82 49 45 50 46 51 61 53 83 54 48 55
REMARK SMILES IDX 31 56 32 57 41 58 33 59 34 60 40 61 42 62 35 63 36 64 37 65
REMARK SMILES IDX 38 66 39 67 65 68 66 69 75 70 67 71 68 72 74 73 76 74 69 75
REMARK SMILES IDX 70 76 71 77 72 78 73 79 49 80 50 81 59 82 51 83 52 84 58 85
REMARK SMILES IDX 60 86 53 87 54 88 55 89 56 90 57 91
REMARK H PARENT 81 41 47 52
REMARK Flexibility Score: inf
ROOT
ATOM      1  C   UNL A   1      34.760  32.098  28.042  1.00  0.00     0.275 C 
ENDROOT
BRANCH   1   2
ATOM      2  O   UNL A   1      33.609  31.268  27.784  1.00  0.00    -0.458 OA
BRANCH   2   3
ATOM      3  C   UNL A   1      33.905  30.072  27.229  1.00  0.00     0.338 C 
ATOM      4  O   UNL A   1      34.685  29.236  27.653  1.00  0.00    -0.246 OA
BRANCH   3   5
ATOM      5  C   UNL A   1      33.126  29.844  26.002  1.00  0.00     0.060 A 
ATOM      6  C   UNL A   1      31.289  28.916  24.145  1.00  0.00     0.082 A 
ATOM      7  C   UNL A   1      30.951  29.993  24.969  1.00  0.00     0.022 A 
ATOM      8  C   UNL A   1      32.571  28.354  24.181  1.00  0.00     0.022 A 
ATOM      9  C   UNL A   1      31.878  30.463  25.891  1.00  0.00     0.017 A 
ATOM     10  C   UNL A   1      33.497  28.821  25.121  1.00  0.00     0.017 A 
BRANCH   6  11
ATOM     11  S   UNL A   1      29.979  28.162  23.210  1.00  0.00     0.242 S 
ATOM     12  O   UNL A   1      29.464  27.061  23.982  1.00  0.00    -0.207 OA
ATOM     13  O   UNL A   1      30.538  27.969  21.885  1.00  0.00    -0.207 OA
BRANCH  11  14
ATOM     14  N   UNL A   1      28.710  29.329  23.110  1.00  0.00    -0.201 NA
ATOM     15  C   UNL A   1      27.357  28.695  23.142  1.00  0.00     0.124 C 
BRANCH  14  16
ATOM     16  C   UNL A   1      28.816  30.182  21.860  1.00  0.00     0.105 C 
BRANCH  16  17
ATOM     17  C   UNL A   1      28.041  31.514  21.922  1.00  0.00    -0.002 C 
ATOM     18  C   UNL A   1      28.609  32.512  22.938  1.00  0.00     0.009 C 
ATOM     19  C   UNL A   1      28.084  32.178  20.536  1.00  0.00     0.009 C 
ENDBRANCH  16  17
ENDBRANCH  14  16
ENDBRANCH  11  14
ENDBRANCH   6  11
ENDBRANCH   3   5
ENDBRANCH   2   3
ENDBRANCH   1   2
BRANCH   1  20
ATOM     20  C   UNL A   1      35.032  32.238  29.540  1.00  0.00     0.275 C 
BRANCH  20  21
ATOM     21  O   UNL A   1      36.406  31.944  29.861  1.00  0.00    -0.458 OA
BRANCH  21  22
ATOM     22  C   UNL A   1      36.594  30.795  30.547  1.00  0.00     0.338 C 
ATOM     23  O   UNL A   1      35.938  30.390  31.494  1.00  0.00    -0.246 OA
BRANCH  22  24
ATOM     24  C   UNL A   1      37.717  30.011  30.005  1.00  0.00     0.060 A 
ATOM     25  C   UNL A   1      38.615  29.407  30.882  1.00  0.00     0.016 A 
ATOM     26  C   UNL A   1      38.029  30.121  28.648  1.00  0.00     0.016 A 
ATOM     27  C   UNL A   1      39.892  29.069  30.431  1.00  0.00     0.010 A 
ATOM     28  C   UNL A   1      39.268  29.665  28.180  1.00  0.00     0.010 A 
ATOM     29  C   UNL A   1      40.248  29.205  29.076  1.00  0.00    -0.014 A 
BRANCH  29  30
ATOM     30  C   UNL A   1      41.654  28.955  28.621  1.00  0.00     0.031 A 
ATOM     31  C   UNL A   1      42.055  27.600  28.071  1.00  0.00     0.074 A 
ATOM     32  C   UNL A   1      42.581  29.934  28.657  1.00  0.00     0.049 A 
ATOM     33  N   UNL A   1      43.250  27.138  27.789  1.00  0.00    -0.248 NA
ATOM     34  C   UNL A   1      40.976  26.630  27.827  1.00  0.00     0.031 C 
ATOM     35  C   UNL A   1      42.356  31.301  29.131  1.00  0.00     0.029 A 
ATOM     36  N   UNL A   1      43.898  29.936  28.265  1.00  0.00    -0.354 N 
ATOM     37  C   UNL A   1      43.073  25.809  27.417  1.00  0.00     0.074 A 
ATOM     38  C   UNL A   1      41.654  25.538  27.499  1.00  0.00     0.031 C 
ATOM     39  C   UNL A   1      43.471  32.023  28.941  1.00  0.00     0.029 A 
ATOM     40  C   UNL A   1      44.518  31.155  28.413  1.00  0.00     0.049 A 
ATOM     41  H   UNL A   1      44.356  29.139  27.912  1.00  0.00     0.167 HD
ATOM     42  C   UNL A   1      44.004  24.895  27.043  1.00  0.00     0.037 A 
ATOM     43  C   UNL A   1      45.789  31.535  28.179  1.00  0.00     0.037 A 
ATOM     44  C   UNL A   1      45.404  25.183  26.863  1.00  0.00     0.049 A 
ATOM     45  C   UNL A   1      46.790  30.524  27.695  1.00  0.00     0.074 A 
ATOM     46  C   UNL A   1      46.423  24.322  26.489  1.00  0.00     0.029 A 
ATOM     47  N   UNL A   1      45.978  26.437  27.006  1.00  0.00    -0.354 N 
ATOM     48  N   UNL A   1      46.620  29.248  27.451  1.00  0.00    -0.248 NA
ATOM     49  C   UNL A   1      48.162  31.004  27.474  1.00  0.00     0.031 C 
ATOM     50  C   UNL A   1      47.614  25.055  26.409  1.00  0.00     0.029 A 
ATOM     51  C   UNL A   1      47.331  26.377  26.710  1.00  0.00     0.049 A 
ATOM     52  H   UNL A   1      45.495  27.251  27.276  1.00  0.00     0.167 HD
ATOM     53  C   UNL A   1      47.862  28.771  27.048  1.00  0.00     0.074 A 
ATOM     54  C   UNL A   1      48.768  29.902  27.055  1.00  0.00     0.031 C 
ATOM     55  C   UNL A   1      48.221  27.507  26.716  1.00  0.00     0.037 A 
BRANCH  42  56
ATOM     56  C   UNL A   1      43.542  23.478  26.827  1.00  0.00     0.058 A 
ATOM     57  C   UNL A   1      43.169  22.642  27.889  1.00  0.00     0.135 A 
ATOM     58  C   UNL A   1      43.446  22.961  25.523  1.00  0.00     0.135 A 
ATOM     59  F   UNL A   1      43.257  23.079  29.155  1.00  0.00    -0.206 F 
ATOM     60  C   UNL A   1      42.746  21.334  27.671  1.00  0.00     0.059 A 
ATOM     61  C   UNL A   1      43.003  21.665  25.280  1.00  0.00     0.059 A 
ATOM     62  F   UNL A   1      43.786  23.720  24.469  1.00  0.00    -0.206 F 
ATOM     63  C   UNL A   1      42.673  20.851  26.362  1.00  0.00     0.060 A 
BRANCH  63  64
ATOM     64  S   UNL A   1      42.130  19.151  26.086  1.00  0.00     0.124 S 
ATOM     65  O   UNL A   1      40.689  19.327  25.938  1.00  0.00    -0.237 OA
ATOM     66  O   UNL A   1      42.849  18.780  24.871  1.00  0.00    -0.237 OA
ATOM     67  O   UNL A   1      42.557  18.458  27.297  1.00  0.00    -0.744 OA
ENDBRANCH  63  64
ENDBRANCH  42  56
BRANCH  43  68
ATOM     68  C   UNL A   1      46.192  32.945  28.422  1.00  0.00     0.058 A 
ATOM     69  C   UNL A   1      46.101  33.906  27.406  1.00  0.00     0.135 A 
ATOM     70  C   UNL A   1      46.651  33.361  29.682  1.00  0.00     0.135 A 
ATOM     71  F   UNL A   1      45.682  33.551  26.182  1.00  0.00    -0.206 F 
ATOM     72  C   UNL A   1      46.455  35.233  27.626  1.00  0.00     0.059 A 
ATOM     73  C   UNL A   1      46.986  34.687  29.933  1.00  0.00     0.059 A 
ATOM     74  F   UNL A   1      46.742  32.480  30.689  1.00  0.00    -0.206 F 
ATOM     75  C   UNL A   1      46.893  35.615  28.896  1.00  0.00     0.060 A 
BRANCH  75  76
ATOM     76  S   UNL A   1      47.283  37.351  29.204  1.00  0.00     0.124 S 
ATOM     77  O   UNL A   1      46.124  38.019  28.626  1.00  0.00    -0.237 OA
ATOM     78  O   UNL A   1      47.387  37.397  30.659  1.00  0.00    -0.237 OA
ATOM     79  O   UNL A   1      48.543  37.537  28.490  1.00  0.00    -0.744 OA
ENDBRANCH  75  76
ENDBRANCH  43  68
BRANCH  55  80
ATOM     80  C   UNL A   1      49.651  27.293  26.310  1.00  0.00     0.058 A 
ATOM     81  C   UNL A   1      50.650  27.022  27.259  1.00  0.00     0.135 A 
ATOM     82  C   UNL A   1      50.028  27.366  24.960  1.00  0.00     0.135 A 
ATOM     83  F   UNL A   1      50.340  26.948  28.562  1.00  0.00    -0.206 F 
ATOM     84  C   UNL A   1      51.981  26.865  26.887  1.00  0.00     0.059 A 
ATOM     85  C   UNL A   1      51.350  27.193  24.564  1.00  0.00     0.059 A 
ATOM     86  F   UNL A   1      49.108  27.614  24.014  1.00  0.00    -0.206 F 
ATOM     87  C   UNL A   1      52.323  26.963  25.537  1.00  0.00     0.060 A 
BRANCH  87  88
ATOM     88  S   UNL A   1      54.054  26.768  25.057  1.00  0.00     0.124 S 
ATOM     89  O   UNL A   1      54.014  25.509  24.322  1.00  0.00    -0.237 OA
ATOM     90  O   UNL A   1      54.298  27.963  24.255  1.00  0.00    -0.237 OA
ATOM     91  O   UNL A   1      54.754  26.729  26.337  1.00  0.00    -0.744 OA
ENDBRANCH  87  88
ENDBRANCH  55  80
ENDBRANCH  29  30
ENDBRANCH  22  24
ENDBRANCH  21  22
ENDBRANCH  20  21
ENDBRANCH   1  20
TORSDOF 18
ENDMDL
MODEL 3
REMARK VINA RESULT:     -10.8      6.205     11.938
REMARK SMILES CC(C)CN(C)S(=O)(=O)c1ccc(C(=O)OCCOC(=O)c2ccc(-c3c4nc(c(-c5c(F)cc(S(=O)(=O)[O-])cc5F)c5ccc([nH]5)c(-c5c(F)cc(S(=O)(=O)[O-])cc5F)c5nc(c(-c6c(F)cc(S(=O)(=O)[O-])cc6F)c6ccc3[nH]6)C=C5)C=C4)cc2)cc1
REMARK SMILES IDX 17 1 16 2 14 3 15 4 13 5 10 6 11 7 89 8 12 9 88 10 7 11 8 12
REMARK SMILES IDX 9 13 5 14 6 15 4 16 2 17 1 18 3 19 18 20 19 21 20 22 21 23
REMARK SMILES IDX 22 24 23 25 87 26 24 27 86 28 25 29 26 30 27 31 80 32 28 33
REMARK SMILES IDX 85 34 79 35 81 36 29 37 84 38 78 39 77 40 30 42 64 43 43 44
REMARK SMILES IDX 63 45 44 46 47 47 62 48 82 49 45 50 46 51 61 53 83 54 48 55
REMARK SMILES IDX 31 56 32 57 41 58 33 59 34 60 40 61 42 62 35 63 36 64 37 65
REMARK SMILES IDX 38 66 39 67 65 68 66 69 75 70 67 71 68 72 74 73 76 74 69 75
REMARK SMILES IDX 70 76 71 77 72 78 73 79 49 80 50 81 59 82 51 83 52 84 58 85
REMARK SMILES IDX 60 86 53 87 54 88 55 89 56 90 57 91
REMARK H PARENT 81 41 47 52
REMARK Flexibility Score: inf
ROOT
ATOM      1  C   UNL A   1      34.440  32.418  27.892  1.00  0.00     0.275 C 
ENDROOT
BRANCH   1   2
ATOM      2  O   UNL A   1      33.376  31.472  27.663  1.00  0.00    -0.458 OA
BRANCH   2   3
ATOM      3  C   UNL A   1      33.784  30.301  27.128  1.00  0.00     0.338 C 
ATOM      4  O   UNL A   1      34.933  29.912  26.993  1.00  0.00    -0.246 OA
BRANCH   3   5
ATOM      5  C   UNL A   1      32.640  29.467  26.726  1.00  0.00     0.060 A 
ATOM      6  C   UNL A   1      31.039  27.374  25.866  1.00  0.00     0.082 A 
ATOM      7  C   UNL A   1      31.342  27.496  27.225  1.00  0.00     0.022 A 
ATOM      8  C   UNL A   1      31.459  28.340  24.943  1.00  0.00     0.022 A 
ATOM      9  C   UNL A   1      32.135  28.553  27.655  1.00  0.00     0.017 A 
ATOM     10  C   UNL A   1      32.271  29.395  25.378  1.00  0.00     0.017 A 
BRANCH   6  11
ATOM     11  S   UNL A   1      30.289  25.855  25.331  1.00  0.00     0.242 S 
ATOM     12  O   UNL A   1      29.609  26.112  24.087  1.00  0.00    -0.207 OA
ATOM     13  O   UNL A   1      29.583  25.363  26.499  1.00  0.00    -0.207 OA
BRANCH  11  14
ATOM     14  N   UNL A   1      31.581  24.768  24.968  1.00  0.00    -0.201 NA
ATOM     15  C   UNL A   1      31.096  23.375  24.728  1.00  0.00     0.124 C 
BRANCH  14  16
ATOM     16  C   UNL A   1      32.625  24.734  26.068  1.00  0.00     0.105 C 
BRANCH  16  17
ATOM     17  C   UNL A   1      34.061  25.054  25.604  1.00  0.00    -0.002 C 
ATOM     18  C   UNL A   1      34.920  23.809  25.355  1.00  0.00     0.009 C 
ATOM     19  C   UNL A   1      33.993  25.850  24.291  1.00  0.00     0.009 C 
ENDBRANCH  16  17
ENDBRANCH  14  16
ENDBRANCH  11  14
ENDBRANCH   6  11
ENDBRANCH   3   5
ENDBRANCH   2   3
ENDBRANCH   1   2
BRANCH   1  20
ATOM     20  C   UNL A   1      34.729  32.595  29.382  1.00  0.00     0.275 C 
BRANCH  20  21
ATOM     21  O   UNL A   1      35.174  31.365  29.988  1.00  0.00    -0.458 OA
BRANCH  21  22
ATOM     22  C   UNL A   1      36.316  31.468  30.704  1.00  0.00     0.338 C 
ATOM     23  O   UNL A   1      36.511  32.183  31.674  1.00  0.00    -0.246 OA
BRANCH  22  24
ATOM     24  C   UNL A   1      37.365  30.570  30.194  1.00  0.00     0.060 A 
ATOM     25  C   UNL A   1      38.133  29.834  31.094  1.00  0.00     0.016 A 
ATOM     26  C   UNL A   1      37.765  30.681  28.860  1.00  0.00     0.016 A 
ATOM     27  C   UNL A   1      39.384  29.357  30.699  1.00  0.00     0.010 A 
ATOM     28  C   UNL A   1      38.966  30.092  28.442  1.00  0.00     0.010 A 
ATOM     29  C   UNL A   1      39.831  29.489  29.372  1.00  0.00    -0.014 A 
BRANCH  29  30
ATOM     30  C   UNL A   1      41.220  29.083  28.982  1.00  0.00     0.031 A 
ATOM     31  C   UNL A   1      42.371  30.062  29.104  1.00  0.00     0.074 A 
ATOM     32  C   UNL A   1      41.483  27.832  28.550  1.00  0.00     0.049 A 
ATOM     33  N   UNL A   1      43.601  29.958  28.661  1.00  0.00    -0.248 NA
ATOM     34  C   UNL A   1      42.098  31.335  29.792  1.00  0.00     0.031 C 
ATOM     35  C   UNL A   1      40.498  26.760  28.400  1.00  0.00     0.029 A 
ATOM     36  N   UNL A   1      42.668  27.243  28.179  1.00  0.00    -0.354 N 
ATOM     37  C   UNL A   1      44.218  31.174  28.943  1.00  0.00     0.074 A 
ATOM     38  C   UNL A   1      43.230  31.999  29.604  1.00  0.00     0.031 C 
ATOM     39  C   UNL A   1      41.126  25.632  28.034  1.00  0.00     0.029 A 
ATOM     40  C   UNL A   1      42.543  25.917  27.839  1.00  0.00     0.049 A 
ATOM     41  H   UNL A   1      43.526  27.726  28.157  1.00  0.00     0.167 HD
ATOM     42  C   UNL A   1      45.488  31.570  28.676  1.00  0.00     0.037 A 
ATOM     43  C   UNL A   1      43.454  25.029  27.395  1.00  0.00     0.037 A 
ATOM     44  C   UNL A   1      46.504  30.722  28.108  1.00  0.00     0.049 A 
ATOM     45  C   UNL A   1      44.874  25.467  27.173  1.00  0.00     0.074 A 
ATOM     46  C   UNL A   1      47.819  31.034  27.799  1.00  0.00     0.029 A 
ATOM     47  N   UNL A   1      46.335  29.380  27.801  1.00  0.00    -0.354 N 
ATOM     48  N   UNL A   1      45.407  26.651  27.349  1.00  0.00    -0.248 NA
ATOM     49  C   UNL A   1      45.811  24.450  26.674  1.00  0.00     0.031 C 
ATOM     50  C   UNL A   1      48.442  29.883  27.301  1.00  0.00     0.029 A 
ATOM     51  C   UNL A   1      47.522  28.848  27.323  1.00  0.00     0.049 A 
ATOM     52  H   UNL A   1      45.494  28.879  27.908  1.00  0.00     0.167 HD
ATOM     53  C   UNL A   1      46.742  26.523  26.982  1.00  0.00     0.074 A 
ATOM     54  C   UNL A   1      46.941  25.140  26.600  1.00  0.00     0.031 C 
ATOM     55  C   UNL A   1      47.710  27.470  26.951  1.00  0.00     0.037 A 
BRANCH  42  56
ATOM     56  C   UNL A   1      45.848  33.002  28.969  1.00  0.00     0.058 A 
ATOM     57  C   UNL A   1      46.415  33.397  30.190  1.00  0.00     0.135 A 
ATOM     58  C   UNL A   1      45.645  33.992  27.992  1.00  0.00     0.135 A 
ATOM     59  F   UNL A   1      46.616  32.494  31.163  1.00  0.00    -0.206 F 
ATOM     60  C   UNL A   1      46.741  34.726  30.444  1.00  0.00     0.059 A 
ATOM     61  C   UNL A   1      45.985  35.323  28.217  1.00  0.00     0.059 A 
ATOM     62  F   UNL A   1      45.109  33.670  26.804  1.00  0.00    -0.206 F 
ATOM     63  C   UNL A   1      46.515  35.684  29.454  1.00  0.00     0.060 A 
BRANCH  63  64
ATOM     64  S   UNL A   1      46.933  37.408  29.793  1.00  0.00     0.124 S 
ATOM     65  O   UNL A   1      47.117  37.382  31.240  1.00  0.00    -0.237 OA
ATOM     66  O   UNL A   1      48.147  37.602  29.005  1.00  0.00    -0.237 OA
ATOM     67  O   UNL A   1      45.762  38.139  29.321  1.00  0.00    -0.744 OA
ENDBRANCH  63  64
ENDBRANCH  42  56
BRANCH  43  68
ATOM     68  C   UNL A   1      43.039  23.630  27.108  1.00  0.00     0.058 A 
ATOM     69  C   UNL A   1      42.835  23.195  25.791  1.00  0.00     0.135 A 
ATOM     70  C   UNL A   1      42.864  22.699  28.144  1.00  0.00     0.135 A 
ATOM     71  F   UNL A   1      42.977  24.054  24.771  1.00  0.00    -0.206 F 
ATOM     72  C   UNL A   1      42.468  21.883  25.508  1.00  0.00     0.059 A 
ATOM     73  C   UNL A   1      42.523  21.376  27.883  1.00  0.00     0.059 A 
ATOM     74  F   UNL A   1      43.060  23.065  29.418  1.00  0.00    -0.206 F 
ATOM     75  C   UNL A   1      42.319  20.980  26.562  1.00  0.00     0.060 A 
BRANCH  75  76
ATOM     76  S   UNL A   1      41.913  19.259  26.191  1.00  0.00     0.124 S 
ATOM     77  O   UNL A   1      42.319  18.591  27.421  1.00  0.00    -0.237 OA
ATOM     78  O   UNL A   1      40.476  19.321  25.942  1.00  0.00    -0.237 OA
ATOM     79  O   UNL A   1      42.730  18.973  25.016  1.00  0.00    -0.744 OA
ENDBRANCH  75  76
ENDBRANCH  43  68
BRANCH  55  80
ATOM     80  C   UNL A   1      49.076  27.030  26.510  1.00  0.00     0.058 A 
ATOM     81  C   UNL A   1      49.448  27.036  25.156  1.00  0.00     0.135 A 
ATOM     82  C   UNL A   1      50.022  26.591  27.450  1.00  0.00     0.135 A 
ATOM     83  F   UNL A   1      48.577  27.442  24.219  1.00  0.00    -0.206 F 
ATOM     84  C   UNL A   1      50.699  26.588  24.745  1.00  0.00     0.059 A 
ATOM     85  C   UNL A   1      51.286  26.157  27.063  1.00  0.00     0.059 A 
ATOM     86  F   UNL A   1      49.718  26.575  28.758  1.00  0.00    -0.206 F 
ATOM     87  C   UNL A   1      51.608  26.141  25.706  1.00  0.00     0.060 A 
BRANCH  87  88
ATOM     88  S   UNL A   1      53.228  25.550  25.168  1.00  0.00     0.124 S 
ATOM     89  O   UNL A   1      54.119  26.302  26.045  1.00  0.00    -0.237 OA
ATOM     90  O   UNL A   1      53.146  24.116  25.426  1.00  0.00    -0.237 OA
ATOM     91  O   UNL A   1      53.271  25.924  23.758  1.00  0.00    -0.744 OA
ENDBRANCH  87  88
ENDBRANCH  55  80
ENDBRANCH  29  30
ENDBRANCH  22  24
ENDBRANCH  21  22
ENDBRANCH  20  21
ENDBRANCH   1  20
TORSDOF 18
ENDMDL
