MODEL 1
REMARK VINA RESULT:     -11.8      0.000      0.000
REMARK SMILES CCOC(=O)c1c(NC(=O)c2ncccc2C(=O)OCCOC(=O)c2ccc(-c3c4nc(c(-c5c(F)cc(S(=O)(=O)[O-])cc5F)c5ccc([nH]5)c(-c5c(F)cc(S(=O)(=O)[O-])cc5F)c5nc(c(-c6c(F)cc(S(=O)(=O)[O-])cc6F)c6ccc3[nH]6)C=C5)C=C4)cc2)sc2c1CC[C@H](C)C2
REMARK SMILES IDX 20 1 19 2 17 3 18 4 16 5 11 6 12 7 13 8 15 9 14 10 9 11 8 12
REMARK SMILES IDX 10 14 7 15 6 16 93 17 91 18 92 19 94 20 98 21 95 22 96 23
REMARK SMILES IDX 97 24 4 25 5 26 3 27 2 28 1 29 21 30 22 31 23 32 24 33 25 34
REMARK SMILES IDX 26 35 90 36 27 37 89 38 28 39 29 40 30 41 83 42 31 43 88 44
REMARK SMILES IDX 82 45 84 46 32 47 87 48 81 49 80 50 33 52 67 53 46 54 66 55
REMARK SMILES IDX 47 56 50 57 65 58 85 59 48 60 49 61 64 63 86 64 51 65 34 66
REMARK SMILES IDX 35 67 44 68 36 69 37 70 43 71 45 72 38 73 39 74 40 75 41 76
REMARK SMILES IDX 42 77 68 78 69 79 78 80 70 81 71 82 77 83 79 84 72 85 73 86
REMARK SMILES IDX 74 87 75 88 76 89 52 90 53 91 62 92 54 93 55 94 61 95 63 96
REMARK SMILES IDX 56 97 57 98 58 99 59 100 60 101
REMARK H PARENT 8 13 84 51 50 62
REMARK Flexibility Score: inf
ROOT
ATOM      1  C   UNL A   1      37.255  21.640  24.268  1.00  0.00     0.275 C 
ENDROOT
BRANCH   1   2
ATOM      2  O   UNL A   1      35.865  21.897  24.570  1.00  0.00    -0.458 OA
BRANCH   2   3
ATOM      3  C   UNL A   1      35.215  22.741  23.725  1.00  0.00     0.340 C 
ATOM      4  O   UNL A   1      35.697  23.673  23.102  1.00  0.00    -0.246 OA
BRANCH   3   5
ATOM      5  C   UNL A   1      33.768  22.536  23.824  1.00  0.00     0.091 A 
ATOM      6  C   UNL A   1      32.804  23.376  23.279  1.00  0.00     0.142 A 
ATOM      7  N   UNL A   1      31.540  23.453  23.806  1.00  0.00    -0.250 NA
ATOM      8  C   UNL A   1      31.234  22.649  24.844  1.00  0.00     0.112 A 
ATOM      9  C   UNL A   1      33.370  21.622  24.812  1.00  0.00     0.020 A 
ATOM     10  C   UNL A   1      32.082  21.676  25.328  1.00  0.00     0.021 A 
BRANCH   6  11
ATOM     11  C   UNL A   1      32.993  24.357  22.182  1.00  0.00     0.275 C 
ATOM     12  N   UNL A   1      33.194  25.715  22.373  1.00  0.00    -0.311 N 
ATOM     13  H   UNL A   1      33.706  26.159  21.659  1.00  0.00     0.171 HD
ATOM     14  O   UNL A   1      33.101  23.912  21.034  1.00  0.00    -0.267 OA
BRANCH  12  15
ATOM     15  C   UNL A   1      32.796  26.545  23.396  1.00  0.00     0.110 A 
ATOM     16  C   UNL A   1      31.725  27.354  23.721  1.00  0.00     0.098 A 
ATOM     17  C   UNL A   1      32.145  28.357  24.689  1.00  0.00    -0.017 A 
ATOM     18  S   UNL A   1      33.989  26.593  24.620  1.00  0.00    -0.122 S 
ATOM     19  C   UNL A   1      33.418  28.090  25.160  1.00  0.00     0.011 A 
ATOM     20  C   UNL A   1      31.348  29.504  25.245  1.00  0.00     0.038 C 
ATOM     21  C   UNL A   1      34.206  28.940  26.101  1.00  0.00     0.050 C 
ATOM     22  C   UNL A   1      32.193  30.470  26.110  1.00  0.00     0.008 C 
ATOM     23  C   UNL A   1      33.244  29.750  26.986  1.00  0.00    -0.009 C 
ATOM     24  C   UNL A   1      34.030  30.739  27.849  1.00  0.00     0.008 C 
BRANCH  16  25
ATOM     25  C   UNL A   1      30.387  27.161  23.185  1.00  0.00     0.341 C 
ATOM     26  O   UNL A   1      29.628  26.276  23.531  1.00  0.00    -0.246 OA
BRANCH  25  27
ATOM     27  O   UNL A   1      30.132  28.099  22.225  1.00  0.00    -0.462 OA
BRANCH  27  28
ATOM     28  C   UNL A   1      29.057  29.025  22.388  1.00  0.00     0.230 C 
ATOM     29  C   UNL A   1      29.287  30.378  21.756  1.00  0.00     0.049 C 
ENDBRANCH  27  28
ENDBRANCH  25  27
ENDBRANCH  16  25
ENDBRANCH  12  15
ENDBRANCH   6  11
ENDBRANCH   3   5
ENDBRANCH   2   3
ENDBRANCH   1   2
BRANCH   1  30
ATOM     30  C   UNL A   1      38.107  21.440  25.524  1.00  0.00     0.275 C 
BRANCH  30  31
ATOM     31  O   UNL A   1      38.285  22.643  26.289  1.00  0.00    -0.458 OA
BRANCH  31  32
ATOM     32  C   UNL A   1      39.550  22.787  26.736  1.00  0.00     0.338 C 
ATOM     33  O   UNL A   1      40.151  21.984  27.429  1.00  0.00    -0.246 OA
BRANCH  32  34
ATOM     34  C   UNL A   1      40.071  24.148  26.610  1.00  0.00     0.060 A 
ATOM     35  C   UNL A   1      41.420  24.284  26.947  1.00  0.00     0.016 A 
ATOM     36  C   UNL A   1      39.187  25.221  26.693  1.00  0.00     0.016 A 
ATOM     37  C   UNL A   1      41.796  25.371  27.702  1.00  0.00     0.010 A 
ATOM     38  C   UNL A   1      39.610  26.363  27.343  1.00  0.00     0.010 A 
ATOM     39  C   UNL A   1      40.856  26.369  27.979  1.00  0.00    -0.014 A 
BRANCH  39  40
ATOM     40  C   UNL A   1      41.246  27.430  28.910  1.00  0.00     0.031 A 
ATOM     41  C   UNL A   1      42.404  28.260  28.450  1.00  0.00     0.074 A 
ATOM     42  C   UNL A   1      40.529  27.707  30.020  1.00  0.00     0.049 A 
ATOM     43  N   UNL A   1      43.488  28.577  29.086  1.00  0.00    -0.248 NA
ATOM     44  C   UNL A   1      42.415  28.652  27.026  1.00  0.00     0.031 C 
ATOM     45  C   UNL A   1      39.281  27.084  30.481  1.00  0.00     0.029 A 
ATOM     46  N   UNL A   1      40.675  28.735  30.897  1.00  0.00    -0.354 N 
ATOM     47  C   UNL A   1      44.237  29.348  28.198  1.00  0.00     0.074 A 
ATOM     48  C   UNL A   1      43.611  29.221  26.909  1.00  0.00     0.031 C 
ATOM     49  C   UNL A   1      38.644  27.932  31.316  1.00  0.00     0.029 A 
ATOM     50  C   UNL A   1      39.500  29.079  31.551  1.00  0.00     0.049 A 
ATOM     51  H   UNL A   1      41.533  29.192  31.054  1.00  0.00     0.167 HD
ATOM     52  C   UNL A   1      45.214  30.207  28.594  1.00  0.00     0.037 A 
ATOM     53  C   UNL A   1      39.217  30.281  32.111  1.00  0.00     0.037 A 
ATOM     54  C   UNL A   1      45.677  29.936  29.924  1.00  0.00     0.049 A 
ATOM     55  C   UNL A   1      40.516  30.967  32.348  1.00  0.00     0.074 A 
ATOM     56  C   UNL A   1      46.342  28.883  30.519  1.00  0.00     0.029 A 
ATOM     57  N   UNL A   1      45.167  30.687  30.954  1.00  0.00    -0.354 N 
ATOM     58  N   UNL A   1      41.412  30.539  33.198  1.00  0.00    -0.248 NA
ATOM     59  C   UNL A   1      41.024  31.849  31.305  1.00  0.00     0.031 C 
ATOM     60  C   UNL A   1      45.795  28.792  31.831  1.00  0.00     0.029 A 
ATOM     61  C   UNL A   1      44.857  29.815  31.968  1.00  0.00     0.049 A 
ATOM     62  H   UNL A   1      45.045  31.665  30.963  1.00  0.00     0.167 HD
ATOM     63  C   UNL A   1      42.634  30.753  32.573  1.00  0.00     0.074 A 
ATOM     64  C   UNL A   1      42.335  31.636  31.447  1.00  0.00     0.031 C 
ATOM     65  C   UNL A   1      43.721  29.972  32.849  1.00  0.00     0.037 A 
BRANCH  52  66
ATOM     66  C   UNL A   1      45.516  31.489  27.867  1.00  0.00     0.058 A 
ATOM     67  C   UNL A   1      46.782  31.705  27.295  1.00  0.00     0.135 A 
ATOM     68  C   UNL A   1      44.673  32.620  27.947  1.00  0.00     0.135 A 
ATOM     69  F   UNL A   1      47.665  30.699  27.190  1.00  0.00    -0.206 F 
ATOM     70  C   UNL A   1      47.201  32.972  26.881  1.00  0.00     0.059 A 
ATOM     71  C   UNL A   1      45.046  33.876  27.489  1.00  0.00     0.059 A 
ATOM     72  F   UNL A   1      43.486  32.576  28.568  1.00  0.00    -0.206 F 
ATOM     73  C   UNL A   1      46.329  34.053  27.000  1.00  0.00     0.060 A 
BRANCH  73  74
ATOM     74  S   UNL A   1      46.908  35.711  26.599  1.00  0.00     0.124 S 
ATOM     75  O   UNL A   1      45.648  36.409  26.370  1.00  0.00    -0.237 OA
ATOM     76  O   UNL A   1      47.636  36.082  27.808  1.00  0.00    -0.237 OA
ATOM     77  O   UNL A   1      47.736  35.501  25.415  1.00  0.00    -0.744 OA
ENDBRANCH  73  74
ENDBRANCH  52  66
BRANCH  53  78
ATOM     78  C   UNL A   1      37.908  30.991  32.037  1.00  0.00     0.058 A 
ATOM     79  C   UNL A   1      37.205  31.364  33.193  1.00  0.00     0.135 A 
ATOM     80  C   UNL A   1      37.428  31.530  30.822  1.00  0.00     0.135 A 
ATOM     81  F   UNL A   1      37.610  30.931  34.397  1.00  0.00    -0.206 F 
ATOM     82  C   UNL A   1      36.107  32.235  33.151  1.00  0.00     0.059 A 
ATOM     83  C   UNL A   1      36.329  32.383  30.753  1.00  0.00     0.059 A 
ATOM     84  F   UNL A   1      38.067  31.316  29.663  1.00  0.00    -0.206 F 
ATOM     85  C   UNL A   1      35.684  32.749  31.925  1.00  0.00     0.060 A 
BRANCH  85  86
ATOM     86  S   UNL A   1      34.367  33.987  31.873  1.00  0.00     0.124 S 
ATOM     87  O   UNL A   1      33.433  33.476  32.870  1.00  0.00    -0.237 OA
ATOM     88  O   UNL A   1      35.080  35.209  32.232  1.00  0.00    -0.237 OA
ATOM     89  O   UNL A   1      33.897  33.927  30.491  1.00  0.00    -0.744 OA
ENDBRANCH  85  86
ENDBRANCH  53  78
BRANCH  65  90
ATOM     90  C   UNL A   1      43.619  29.004  34.000  1.00  0.00     0.058 A 
ATOM     91  C   UNL A   1      43.850  29.365  35.340  1.00  0.00     0.135 A 
ATOM     92  C   UNL A   1      43.114  27.718  33.767  1.00  0.00     0.135 A 
ATOM     93  F   UNL A   1      44.215  30.612  35.661  1.00  0.00    -0.206 F 
ATOM     94  C   UNL A   1      43.641  28.476  36.394  1.00  0.00     0.059 A 
ATOM     95  C   UNL A   1      42.867  26.822  34.806  1.00  0.00     0.059 A 
ATOM     96  F   UNL A   1      42.799  27.337  32.517  1.00  0.00    -0.206 F 
ATOM     97  C   UNL A   1      43.149  27.203  36.117  1.00  0.00     0.060 A 
BRANCH  97  98
ATOM     98  S   UNL A   1      42.810  26.082  37.491  1.00  0.00     0.124 S 
ATOM     99  O   UNL A   1      43.180  24.787  36.928  1.00  0.00    -0.237 OA
ATOM    100  O   UNL A   1      43.689  26.587  38.542  1.00  0.00    -0.237 OA
ATOM    101  O   UNL A   1      41.384  26.271  37.740  1.00  0.00    -0.744 OA
ENDBRANCH  97  98
ENDBRANCH  65  90
ENDBRANCH  39  40
ENDBRANCH  32  34
ENDBRANCH  31  32
ENDBRANCH  30  31
ENDBRANCH   1  30
TORSDOF 19
ENDMDL
MODEL 2
REMARK VINA RESULT:     -11.6      2.710      9.013
REMARK SMILES CCOC(=O)c1c(NC(=O)c2ncccc2C(=O)OCCOC(=O)c2ccc(-c3c4nc(c(-c5c(F)cc(S(=O)(=O)[O-])cc5F)c5ccc([nH]5)c(-c5c(F)cc(S(=O)(=O)[O-])cc5F)c5nc(c(-c6c(F)cc(S(=O)(=O)[O-])cc6F)c6ccc3[nH]6)C=C5)C=C4)cc2)sc2c1CC[C@H](C)C2
REMARK SMILES IDX 20 1 19 2 17 3 18 4 16 5 11 6 12 7 13 8 15 9 14 10 9 11 8 12
REMARK SMILES IDX 10 14 7 15 6 16 93 17 91 18 92 19 94 20 98 21 95 22 96 23
REMARK SMILES IDX 97 24 4 25 5 26 3 27 2 28 1 29 21 30 22 31 23 32 24 33 25 34
REMARK SMILES IDX 26 35 90 36 27 37 89 38 28 39 29 40 30 41 83 42 31 43 88 44
REMARK SMILES IDX 82 45 84 46 32 47 87 48 81 49 80 50 33 52 67 53 46 54 66 55
REMARK SMILES IDX 47 56 50 57 65 58 85 59 48 60 49 61 64 63 86 64 51 65 34 66
REMARK SMILES IDX 35 67 44 68 36 69 37 70 43 71 45 72 38 73 39 74 40 75 41 76
REMARK SMILES IDX 42 77 68 78 69 79 78 80 70 81 71 82 77 83 79 84 72 85 73 86
REMARK SMILES IDX 74 87 75 88 76 89 52 90 53 91 62 92 54 93 55 94 61 95 63 96
REMARK SMILES IDX 56 97 57 98 58 99 59 100 60 101
REMARK H PARENT 8 13 84 51 50 62
REMARK Flexibility Score: inf
ROOT
ATOM      1  C   UNL A   1      31.918  30.300  26.420  1.00  0.00     0.275 C 
ENDROOT
BRANCH   1   2
ATOM      2  O   UNL A   1      31.792  29.157  25.545  1.00  0.00    -0.458 OA
BRANCH   2   3
ATOM      3  C   UNL A   1      31.133  28.082  26.055  1.00  0.00     0.340 C 
ATOM      4  O   UNL A   1      31.054  27.759  27.230  1.00  0.00    -0.246 OA
BRANCH   3   5
ATOM      5  C   UNL A   1      30.700  27.196  24.972  1.00  0.00     0.091 A 
ATOM      6  C   UNL A   1      30.629  25.810  25.055  1.00  0.00     0.142 A 
ATOM      7  N   UNL A   1      30.731  25.019  23.940  1.00  0.00    -0.250 NA
ATOM      8  C   UNL A   1      30.853  25.623  22.742  1.00  0.00     0.112 A 
ATOM      9  C   UNL A   1      30.691  27.786  23.699  1.00  0.00     0.020 A 
ATOM     10  C   UNL A   1      30.764  26.988  22.565  1.00  0.00     0.021 A 
BRANCH   6  11
ATOM     11  C   UNL A   1      30.554  24.993  26.292  1.00  0.00     0.275 C 
ATOM     12  N   UNL A   1      31.656  24.527  26.991  1.00  0.00    -0.311 N 
ATOM     13  H   UNL A   1      31.504  24.389  27.954  1.00  0.00     0.171 HD
ATOM     14  O   UNL A   1      29.437  24.826  26.796  1.00  0.00    -0.267 OA
BRANCH  12  15
ATOM     15  C   UNL A   1      32.928  24.227  26.561  1.00  0.00     0.110 A 
ATOM     16  C   UNL A   1      33.920  24.787  25.781  1.00  0.00     0.098 A 
ATOM     17  C   UNL A   1      34.812  23.742  25.297  1.00  0.00    -0.017 A 
ATOM     18  S   UNL A   1      33.416  22.704  27.165  1.00  0.00    -0.122 S 
ATOM     19  C   UNL A   1      34.542  22.534  25.916  1.00  0.00     0.011 A 
ATOM     20  C   UNL A   1      35.962  23.871  24.339  1.00  0.00     0.038 C 
ATOM     21  C   UNL A   1      35.198  21.226  25.619  1.00  0.00     0.050 C 
ATOM     22  C   UNL A   1      36.558  22.507  23.916  1.00  0.00     0.008 C 
ATOM     23  C   UNL A   1      36.611  21.476  25.067  1.00  0.00    -0.009 C 
ATOM     24  C   UNL A   1      37.239  20.158  24.614  1.00  0.00     0.008 C 
BRANCH  16  25
ATOM     25  C   UNL A   1      34.040  26.218  25.547  1.00  0.00     0.341 C 
ATOM     26  O   UNL A   1      34.117  27.055  26.426  1.00  0.00    -0.246 OA
BRANCH  25  27
ATOM     27  O   UNL A   1      34.024  26.471  24.205  1.00  0.00    -0.462 OA
BRANCH  27  28
ATOM     28  C   UNL A   1      34.243  27.797  23.718  1.00  0.00     0.230 C 
ATOM     29  C   UNL A   1      34.010  27.971  22.235  1.00  0.00     0.049 C 
ENDBRANCH  27  28
ENDBRANCH  25  27
ENDBRANCH  16  25
ENDBRANCH  12  15
ENDBRANCH   6  11
ENDBRANCH   3   5
ENDBRANCH   2   3
ENDBRANCH   1   2
BRANCH   1  30
ATOM     30  C   UNL A   1      33.021  30.127  27.467  1.00  0.00     0.275 C 
BRANCH  30  31
ATOM     31  O   UNL A   1      34.340  30.367  26.950  1.00  0.00    -0.458 OA
BRANCH  31  32
ATOM     32  C   UNL A   1      35.031  31.256  27.694  1.00  0.00     0.338 C 
ATOM     33  O   UNL A   1      35.184  32.434  27.425  1.00  0.00    -0.246 OA
BRANCH  32  34
ATOM     34  C   UNL A   1      35.885  30.641  28.710  1.00  0.00     0.060 A 
ATOM     35  C   UNL A   1      36.629  31.550  29.466  1.00  0.00     0.016 A 
ATOM     36  C   UNL A   1      36.301  29.324  28.536  1.00  0.00     0.016 A 
ATOM     37  C   UNL A   1      37.944  31.250  29.734  1.00  0.00     0.010 A 
ATOM     38  C   UNL A   1      37.584  28.991  28.922  1.00  0.00     0.010 A 
ATOM     39  C   UNL A   1      38.447  29.995  29.372  1.00  0.00    -0.014 A 
BRANCH  39  40
ATOM     40  C   UNL A   1      39.885  29.768  29.532  1.00  0.00     0.031 A 
ATOM     41  C   UNL A   1      40.342  29.677  30.955  1.00  0.00     0.074 A 
ATOM     42  C   UNL A   1      40.693  29.529  28.477  1.00  0.00     0.049 A 
ATOM     43  N   UNL A   1      41.315  30.298  31.544  1.00  0.00    -0.248 NA
ATOM     44  C   UNL A   1      39.487  28.902  31.877  1.00  0.00     0.031 C 
ATOM     45  C   UNL A   1      40.332  29.416  27.057  1.00  0.00     0.029 A 
ATOM     46  N   UNL A   1      42.002  29.165  28.468  1.00  0.00    -0.354 N 
ATOM     47  C   UNL A   1      41.296  29.863  32.868  1.00  0.00     0.074 A 
ATOM     48  C   UNL A   1      40.063  29.143  33.052  1.00  0.00     0.031 C 
ATOM     49  C   UNL A   1      41.286  28.711  26.412  1.00  0.00     0.029 A 
ATOM     50  C   UNL A   1      42.373  28.452  27.337  1.00  0.00     0.049 A 
ATOM     51  H   UNL A   1      42.628  29.386  29.196  1.00  0.00     0.167 HD
ATOM     52  C   UNL A   1      42.372  29.941  33.697  1.00  0.00     0.037 A 
ATOM     53  C   UNL A   1      43.422  27.598  27.236  1.00  0.00     0.037 A 
ATOM     54  C   UNL A   1      43.358  30.872  33.229  1.00  0.00     0.049 A 
ATOM     55  C   UNL A   1      44.366  27.938  28.335  1.00  0.00     0.074 A 
ATOM     56  C   UNL A   1      43.383  32.239  33.043  1.00  0.00     0.029 A 
ATOM     57  N   UNL A   1      44.438  30.379  32.540  1.00  0.00    -0.354 N 
ATOM     58  N   UNL A   1      45.015  29.070  28.404  1.00  0.00    -0.248 NA
ATOM     59  C   UNL A   1      44.227  27.226  29.599  1.00  0.00     0.031 C 
ATOM     60  C   UNL A   1      44.178  32.441  31.878  1.00  0.00     0.029 A 
ATOM     61  C   UNL A   1      44.617  31.189  31.446  1.00  0.00     0.049 A 
ATOM     62  H   UNL A   1      44.982  29.594  32.784  1.00  0.00     0.167 HD
ATOM     63  C   UNL A   1      45.005  29.411  29.751  1.00  0.00     0.074 A 
ATOM     64  C   UNL A   1      44.577  28.198  30.446  1.00  0.00     0.031 C 
ATOM     65  C   UNL A   1      45.063  30.715  30.155  1.00  0.00     0.037 A 
BRANCH  52  66
ATOM     66  C   UNL A   1      42.649  28.926  34.772  1.00  0.00     0.058 A 
ATOM     67  C   UNL A   1      42.928  29.336  36.087  1.00  0.00     0.135 A 
ATOM     68  C   UNL A   1      42.907  27.567  34.479  1.00  0.00     0.135 A 
ATOM     69  F   UNL A   1      42.735  30.611  36.461  1.00  0.00    -0.206 F 
ATOM     70  C   UNL A   1      43.476  28.466  37.033  1.00  0.00     0.059 A 
ATOM     71  C   UNL A   1      43.397  26.671  35.419  1.00  0.00     0.059 A 
ATOM     72  F   UNL A   1      42.789  27.075  33.239  1.00  0.00    -0.206 F 
ATOM     73  C   UNL A   1      43.723  27.140  36.680  1.00  0.00     0.060 A 
BRANCH  73  74
ATOM     74  S   UNL A   1      44.557  26.049  37.847  1.00  0.00     0.124 S 
ATOM     75  O   UNL A   1      44.265  24.739  37.277  1.00  0.00    -0.237 OA
ATOM     76  O   UNL A   1      45.942  26.498  37.747  1.00  0.00    -0.237 OA
ATOM     77  O   UNL A   1      43.898  26.346  39.115  1.00  0.00    -0.744 OA
ENDBRANCH  73  74
ENDBRANCH  52  66
BRANCH  53  78
ATOM     78  C   UNL A   1      43.414  26.287  26.527  1.00  0.00     0.058 A 
ATOM     79  C   UNL A   1      44.282  26.022  25.456  1.00  0.00     0.135 A 
ATOM     80  C   UNL A   1      42.711  25.174  27.042  1.00  0.00     0.135 A 
ATOM     81  F   UNL A   1      45.019  27.010  24.926  1.00  0.00    -0.206 F 
ATOM     82  C   UNL A   1      44.458  24.730  24.940  1.00  0.00     0.059 A 
ATOM     83  C   UNL A   1      42.856  23.885  26.534  1.00  0.00     0.059 A 
ATOM     84  F   UNL A   1      41.919  25.286  28.118  1.00  0.00    -0.206 F 
ATOM     85  C   UNL A   1      43.748  23.665  25.495  1.00  0.00     0.060 A 
BRANCH  85  86
ATOM     86  S   UNL A   1      44.077  21.976  24.939  1.00  0.00     0.124 S 
ATOM     87  O   UNL A   1      44.259  22.161  23.504  1.00  0.00    -0.237 OA
ATOM     88  O   UNL A   1      45.276  21.631  25.698  1.00  0.00    -0.237 OA
ATOM     89  O   UNL A   1      42.870  21.249  25.326  1.00  0.00    -0.744 OA
ENDBRANCH  85  86
ENDBRANCH  53  78
BRANCH  65  90
ATOM     90  C   UNL A   1      45.348  31.764  29.110  1.00  0.00     0.058 A 
ATOM     91  C   UNL A   1      46.642  32.068  28.650  1.00  0.00     0.135 A 
ATOM     92  C   UNL A   1      44.277  32.363  28.436  1.00  0.00     0.135 A 
ATOM     93  F   UNL A   1      47.715  31.448  29.156  1.00  0.00    -0.206 F 
ATOM     94  C   UNL A   1      46.867  32.965  27.606  1.00  0.00     0.059 A 
ATOM     95  C   UNL A   1      44.474  33.239  27.369  1.00  0.00     0.059 A 
ATOM     96  F   UNL A   1      43.013  32.057  28.776  1.00  0.00    -0.206 F 
ATOM     97  C   UNL A   1      45.773  33.548  26.970  1.00  0.00     0.060 A 
BRANCH  97  98
ATOM     98  S   UNL A   1      46.065  34.650  25.570  1.00  0.00     0.124 S 
ATOM     99  O   UNL A   1      47.490  34.460  25.321  1.00  0.00    -0.237 OA
ATOM    100  O   UNL A   1      45.168  34.117  24.549  1.00  0.00    -0.237 OA
ATOM    101  O   UNL A   1      45.691  35.964  26.089  1.00  0.00    -0.744 OA
ENDBRANCH  97  98
ENDBRANCH  65  90
ENDBRANCH  39  40
ENDBRANCH  32  34
ENDBRANCH  31  32
ENDBRANCH  30  31
ENDBRANCH   1  30
TORSDOF 19
ENDMDL
MODEL 3
REMARK VINA RESULT:     -11.4      2.542      9.210
REMARK SMILES CCOC(=O)c1c(NC(=O)c2ncccc2C(=O)OCCOC(=O)c2ccc(-c3c4nc(c(-c5c(F)cc(S(=O)(=O)[O-])cc5F)c5ccc([nH]5)c(-c5c(F)cc(S(=O)(=O)[O-])cc5F)c5nc(c(-c6c(F)cc(S(=O)(=O)[O-])cc6F)c6ccc3[nH]6)C=C5)C=C4)cc2)sc2c1CC[C@H](C)C2
REMARK SMILES IDX 20 1 19 2 17 3 18 4 16 5 11 6 12 7 13 8 15 9 14 10 9 11 8 12
REMARK SMILES IDX 10 14 7 15 6 16 93 17 91 18 92 19 94 20 98 21 95 22 96 23
REMARK SMILES IDX 97 24 4 25 5 26 3 27 2 28 1 29 21 30 22 31 23 32 24 33 25 34
REMARK SMILES IDX 26 35 90 36 27 37 89 38 28 39 29 40 30 41 83 42 31 43 88 44
REMARK SMILES IDX 82 45 84 46 32 47 87 48 81 49 80 50 33 52 67 53 46 54 66 55
REMARK SMILES IDX 47 56 50 57 65 58 85 59 48 60 49 61 64 63 86 64 51 65 34 66
REMARK SMILES IDX 35 67 44 68 36 69 37 70 43 71 45 72 38 73 39 74 40 75 41 76
REMARK SMILES IDX 42 77 68 78 69 79 78 80 70 81 71 82 77 83 79 84 72 85 73 86
REMARK SMILES IDX 74 87 75 88 76 89 52 90 53 91 62 92 54 93 55 94 61 95 63 96
REMARK SMILES IDX 56 97 57 98 58 99 59 100 60 101
REMARK H PARENT 8 13 84 51 50 62
REMARK Flexibility Score: inf
ROOT
ATOM      1  C   UNL A   1      31.977  29.707  26.911  1.00  0.00     0.275 C 
ENDROOT
BRANCH   1   2
ATOM      2  O   UNL A   1      31.791  28.794  25.805  1.00  0.00    -0.458 OA
BRANCH   2   3
ATOM      3  C   UNL A   1      31.427  27.525  26.131  1.00  0.00     0.340 C 
ATOM      4  O   UNL A   1      31.603  26.962  27.200  1.00  0.00    -0.246 OA
BRANCH   3   5
ATOM      5  C   UNL A   1      30.983  26.806  24.935  1.00  0.00     0.091 A 
ATOM      6  C   UNL A   1      30.827  25.428  24.844  1.00  0.00     0.142 A 
ATOM      7  N   UNL A   1      30.923  24.773  23.643  1.00  0.00    -0.250 NA
ATOM      8  C   UNL A   1      31.124  25.509  22.533  1.00  0.00     0.112 A 
ATOM      9  C   UNL A   1      31.053  27.546  23.745  1.00  0.00     0.020 A 
ATOM     10  C   UNL A   1      31.121  26.888  22.523  1.00  0.00     0.021 A 
BRANCH   6  11
ATOM     11  C   UNL A   1      30.660  24.473  25.968  1.00  0.00     0.275 C 
ATOM     12  N   UNL A   1      31.680  23.696  26.494  1.00  0.00    -0.311 N 
ATOM     13  H   UNL A   1      31.565  23.454  27.441  1.00  0.00     0.171 HD
ATOM     14  O   UNL A   1      29.568  24.465  26.549  1.00  0.00    -0.267 OA
BRANCH  12  15
ATOM     15  C   UNL A   1      32.827  23.209  25.911  1.00  0.00     0.110 A 
ATOM     16  C   UNL A   1      33.239  22.106  25.192  1.00  0.00     0.098 A 
ATOM     17  C   UNL A   1      34.681  21.946  25.321  1.00  0.00    -0.017 A 
ATOM     18  S   UNL A   1      34.127  24.292  26.164  1.00  0.00    -0.122 S 
ATOM     19  C   UNL A   1      35.248  23.046  25.942  1.00  0.00     0.011 A 
ATOM     20  C   UNL A   1      35.544  20.832  24.800  1.00  0.00     0.038 C 
ATOM     21  C   UNL A   1      36.685  23.203  26.315  1.00  0.00     0.050 C 
ATOM     22  C   UNL A   1      37.008  20.911  25.298  1.00  0.00     0.008 C 
ATOM     23  C   UNL A   1      37.554  22.356  25.371  1.00  0.00    -0.009 C 
ATOM     24  C   UNL A   1      39.012  22.383  25.833  1.00  0.00     0.008 C 
BRANCH  16  25
ATOM     25  C   UNL A   1      32.336  21.284  24.401  1.00  0.00     0.341 C 
ATOM     26  O   UNL A   1      31.835  21.630  23.348  1.00  0.00    -0.246 OA
BRANCH  25  27
ATOM     27  O   UNL A   1      32.118  20.093  25.033  1.00  0.00    -0.462 OA
BRANCH  27  28
ATOM     28  C   UNL A   1      32.333  18.860  24.343  1.00  0.00     0.230 C 
ATOM     29  C   UNL A   1      33.193  17.864  25.085  1.00  0.00     0.049 C 
ENDBRANCH  27  28
ENDBRANCH  25  27
ENDBRANCH  16  25
ENDBRANCH  12  15
ENDBRANCH   6  11
ENDBRANCH   3   5
ENDBRANCH   2   3
ENDBRANCH   1   2
BRANCH   1  30
ATOM     30  C   UNL A   1      33.299  30.474  26.829  1.00  0.00     0.275 C 
BRANCH  30  31
ATOM     31  O   UNL A   1      33.695  31.060  28.081  1.00  0.00    -0.458 OA
BRANCH  31  32
ATOM     32  C   UNL A   1      35.001  31.399  28.100  1.00  0.00     0.338 C 
ATOM     33  O   UNL A   1      35.518  32.256  27.405  1.00  0.00    -0.246 OA
BRANCH  32  34
ATOM     34  C   UNL A   1      35.854  30.432  28.790  1.00  0.00     0.060 A 
ATOM     35  C   UNL A   1      36.482  30.929  29.935  1.00  0.00     0.016 A 
ATOM     36  C   UNL A   1      36.387  29.366  28.070  1.00  0.00     0.016 A 
ATOM     37  C   UNL A   1      37.804  30.609  30.142  1.00  0.00     0.010 A 
ATOM     38  C   UNL A   1      37.673  28.961  28.365  1.00  0.00     0.010 A 
ATOM     39  C   UNL A   1      38.427  29.690  29.291  1.00  0.00    -0.014 A 
BRANCH  39  40
ATOM     40  C   UNL A   1      39.869  29.491  29.446  1.00  0.00     0.031 A 
ATOM     41  C   UNL A   1      40.333  29.414  30.868  1.00  0.00     0.074 A 
ATOM     42  C   UNL A   1      40.678  29.264  28.389  1.00  0.00     0.049 A 
ATOM     43  N   UNL A   1      41.296  30.055  31.450  1.00  0.00    -0.248 NA
ATOM     44  C   UNL A   1      39.496  28.626  31.796  1.00  0.00     0.031 C 
ATOM     45  C   UNL A   1      40.314  29.138  26.971  1.00  0.00     0.029 A 
ATOM     46  N   UNL A   1      41.993  28.924  28.376  1.00  0.00    -0.354 N 
ATOM     47  C   UNL A   1      41.291  29.625  32.777  1.00  0.00     0.074 A 
ATOM     48  C   UNL A   1      40.073  28.883  32.967  1.00  0.00     0.031 C 
ATOM     49  C   UNL A   1      41.278  28.450  26.325  1.00  0.00     0.029 A 
ATOM     50  C   UNL A   1      42.374  28.214  27.246  1.00  0.00     0.049 A 
ATOM     51  H   UNL A   1      42.618  29.160  29.101  1.00  0.00     0.167 HD
ATOM     52  C   UNL A   1      42.368  29.727  33.600  1.00  0.00     0.037 A 
ATOM     53  C   UNL A   1      43.439  27.380  27.144  1.00  0.00     0.037 A 
ATOM     54  C   UNL A   1      43.335  30.674  33.125  1.00  0.00     0.049 A 
ATOM     55  C   UNL A   1      44.379  27.742  28.238  1.00  0.00     0.074 A 
ATOM     56  C   UNL A   1      43.333  32.041  32.934  1.00  0.00     0.029 A 
ATOM     57  N   UNL A   1      44.422  30.200  32.434  1.00  0.00    -0.354 N 
ATOM     58  N   UNL A   1      45.007  28.886  28.301  1.00  0.00    -0.248 NA
ATOM     59  C   UNL A   1      44.259  27.033  29.505  1.00  0.00     0.031 C 
ATOM     60  C   UNL A   1      44.119  32.254  31.765  1.00  0.00     0.029 A 
ATOM     61  C   UNL A   1      44.581  31.009  31.336  1.00  0.00     0.049 A 
ATOM     62  H   UNL A   1      44.981  29.427  32.679  1.00  0.00     0.167 HD
ATOM     63  C   UNL A   1      44.996  29.232  29.646  1.00  0.00     0.074 A 
ATOM     64  C   UNL A   1      44.594  28.014  30.348  1.00  0.00     0.031 C 
ATOM     65  C   UNL A   1      45.031  30.539  30.045  1.00  0.00     0.037 A 
BRANCH  52  66
ATOM     66  C   UNL A   1      42.669  28.721  34.678  1.00  0.00     0.058 A 
ATOM     67  C   UNL A   1      42.840  29.132  36.012  1.00  0.00     0.135 A 
ATOM     68  C   UNL A   1      43.054  27.393  34.385  1.00  0.00     0.135 A 
ATOM     69  F   UNL A   1      42.522  30.381  36.388  1.00  0.00    -0.206 F 
ATOM     70  C   UNL A   1      43.406  28.295  36.977  1.00  0.00     0.059 A 
ATOM     71  C   UNL A   1      43.565  26.526  35.341  1.00  0.00     0.059 A 
ATOM     72  F   UNL A   1      43.046  26.912  33.135  1.00  0.00    -0.206 F 
ATOM     73  C   UNL A   1      43.780  27.000  36.624  1.00  0.00     0.060 A 
BRANCH  73  74
ATOM     74  S   UNL A   1      44.637  25.963  37.824  1.00  0.00     0.124 S 
ATOM     75  O   UNL A   1      44.394  24.632  37.280  1.00  0.00    -0.237 OA
ATOM     76  O   UNL A   1      46.007  26.455  37.729  1.00  0.00    -0.237 OA
ATOM     77  O   UNL A   1      43.953  26.266  39.078  1.00  0.00    -0.744 OA
ENDBRANCH  73  74
ENDBRANCH  52  66
BRANCH  53  78
ATOM     78  C   UNL A   1      43.452  26.067  26.440  1.00  0.00     0.058 A 
ATOM     79  C   UNL A   1      44.357  25.796  25.401  1.00  0.00     0.135 A 
ATOM     80  C   UNL A   1      42.730  24.957  26.934  1.00  0.00     0.135 A 
ATOM     81  F   UNL A   1      45.114  26.781  24.894  1.00  0.00    -0.206 F 
ATOM     82  C   UNL A   1      44.549  24.502  24.896  1.00  0.00     0.059 A 
ATOM     83  C   UNL A   1      42.891  23.666  26.436  1.00  0.00     0.059 A 
ATOM     84  F   UNL A   1      41.901  25.074  27.982  1.00  0.00    -0.206 F 
ATOM     85  C   UNL A   1      43.817  23.440  25.430  1.00  0.00     0.060 A 
BRANCH  85  86
ATOM     86  S   UNL A   1      44.163  21.749  24.892  1.00  0.00     0.124 S 
ATOM     87  O   UNL A   1      44.320  21.916  23.452  1.00  0.00    -0.237 OA
ATOM     88  O   UNL A   1      45.378  21.432  25.636  1.00  0.00    -0.237 OA
ATOM     89  O   UNL A   1      42.972  21.010  25.308  1.00  0.00    -0.744 OA
ENDBRANCH  85  86
ENDBRANCH  53  78
BRANCH  65  90
ATOM     90  C   UNL A   1      45.292  31.589  28.996  1.00  0.00     0.058 A 
ATOM     91  C   UNL A   1      44.270  32.248  28.287  1.00  0.00     0.135 A 
ATOM     92  C   UNL A   1      46.597  32.064  28.816  1.00  0.00     0.135 A 
ATOM     93  F   UNL A   1      42.984  31.940  28.492  1.00  0.00    -0.206 F 
ATOM     94  C   UNL A   1      44.536  33.291  27.401  1.00  0.00     0.059 A 
ATOM     95  C   UNL A   1      46.885  33.126  27.960  1.00  0.00     0.059 A 
ATOM     96  F   UNL A   1      47.609  31.530  29.522  1.00  0.00    -0.206 F 
ATOM     97  C   UNL A   1      45.850  33.725  27.243  1.00  0.00     0.060 A 
BRANCH  97  98
ATOM     98  S   UNL A   1      46.182  35.125  26.152  1.00  0.00     0.124 S 
ATOM     99  O   UNL A   1      45.176  36.091  26.579  1.00  0.00    -0.237 OA
ATOM    100  O   UNL A   1      47.563  35.466  26.477  1.00  0.00    -0.237 OA
ATOM    101  O   UNL A   1      45.986  34.568  24.816  1.00  0.00    -0.744 OA
ENDBRANCH  97  98
ENDBRANCH  65  90
ENDBRANCH  39  40
ENDBRANCH  32  34
ENDBRANCH  31  32
ENDBRANCH  30  31
ENDBRANCH   1  30
TORSDOF 19
ENDMDL
