MODEL 1
REMARK VINA RESULT:      -9.9      0.000      0.000
REMARK SMILES CC(C)(C)c1ccc(CSc2ccnc(C(=O)OCCOC(=O)c3ccc(-c4c5nc(c(-c6c(F)cc(S(=O)(=O)[O-])cc6F)c6ccc([nH]6)c(-c6c(F)cc(S(=O)(=O)[O-])cc6F)c6nc(c(-c7c(F)cc(S(=O)(=O)[O-])cc7F)c7ccc4[nH]7)C=C6)C=C5)cc3)c2)cc1
REMARK SMILES IDX 19 1 18 2 16 3 17 4 15 5 11 6 12 7 90 8 13 9 14 10 10 11
REMARK SMILES IDX 9 12 8 13 5 14 6 15 92 16 7 17 91 18 2 19 1 20 3 21 4 22
REMARK SMILES IDX 20 23 21 24 22 25 23 26 24 27 25 28 89 29 26 30 88 31 27 32
REMARK SMILES IDX 28 33 29 34 82 35 30 36 87 37 81 38 83 39 31 40 86 41 80 42
REMARK SMILES IDX 79 43 32 45 66 46 45 47 65 48 46 49 49 50 64 51 84 52 47 53
REMARK SMILES IDX 48 54 63 56 85 57 50 58 33 59 34 60 43 61 35 62 36 63 42 64
REMARK SMILES IDX 44 65 37 66 38 67 39 68 40 69 41 70 67 71 68 72 77 73 69 74
REMARK SMILES IDX 70 75 76 76 78 77 71 78 72 79 73 80 74 81 75 82 51 83 52 84
REMARK SMILES IDX 61 85 53 86 54 87 60 88 62 89 55 90 56 91 57 92 58 93 59 94
REMARK H PARENT 83 44 49 55
REMARK Flexibility Score: inf
ROOT
ATOM      1  C   UNL A   1      33.892  34.197  28.277  1.00  0.00     0.275 C 
ENDROOT
BRANCH   1   2
ATOM      2  O   UNL A   1      32.832  34.683  29.122  1.00  0.00    -0.457 OA
BRANCH   2   3
ATOM      3  C   UNL A   1      32.869  36.013  29.411  1.00  0.00     0.357 C 
ATOM      4  O   UNL A   1      32.553  36.908  28.642  1.00  0.00    -0.244 OA
BRANCH   3   5
ATOM      5  C   UNL A   1      33.283  36.243  30.833  1.00  0.00     0.149 A 
ATOM      6  C   UNL A   1      34.200  35.549  32.916  1.00  0.00     0.011 A 
ATOM      7  C   UNL A   1      34.029  36.841  33.403  1.00  0.00     0.035 A 
ATOM      8  C   UNL A   1      33.765  35.223  31.631  1.00  0.00     0.051 A 
ATOM      9  C   UNL A   1      33.512  37.791  32.547  1.00  0.00     0.113 A 
ATOM     10  N   UNL A   1      33.185  37.529  31.267  1.00  0.00    -0.249 NA
BRANCH   6  11
ATOM     11  S   UNL A   1      35.078  34.350  33.905  1.00  0.00    -0.121 SA
BRANCH  11  12
ATOM     12  C   UNL A   1      35.563  33.190  32.565  1.00  0.00     0.110 C 
BRANCH  12  13
ATOM     13  C   UNL A   1      36.915  33.505  31.969  1.00  0.00    -0.038 A 
ATOM     14  C   UNL A   1      39.519  33.969  30.905  1.00  0.00    -0.043 A 
ATOM     15  C   UNL A   1      39.174  34.373  32.205  1.00  0.00     0.004 A 
ATOM     16  C   UNL A   1      38.524  33.317  30.154  1.00  0.00     0.004 A 
ATOM     17  C   UNL A   1      37.893  34.159  32.724  1.00  0.00     0.005 A 
ATOM     18  C   UNL A   1      37.240  33.096  30.672  1.00  0.00     0.005 A 
BRANCH  14  19
ATOM     19  C   UNL A   1      40.937  34.172  30.342  1.00  0.00    -0.013 C 
ATOM     20  C   UNL A   1      40.847  35.112  29.126  1.00  0.00     0.016 C 
ATOM     21  C   UNL A   1      41.594  32.851  29.878  1.00  0.00     0.016 C 
ATOM     22  C   UNL A   1      41.891  34.797  31.384  1.00  0.00     0.016 C 
ENDBRANCH  14  19
ENDBRANCH  12  13
ENDBRANCH  11  12
ENDBRANCH   6  11
ENDBRANCH   3   5
ENDBRANCH   2   3
ENDBRANCH   1   2
BRANCH   1  23
ATOM     23  C   UNL A   1      33.701  32.723  27.909  1.00  0.00     0.275 C 
BRANCH  23  24
ATOM     24  O   UNL A   1      34.624  31.865  28.601  1.00  0.00    -0.458 OA
BRANCH  24  25
ATOM     25  C   UNL A   1      34.849  30.672  28.000  1.00  0.00     0.338 C 
ATOM     26  O   UNL A   1      34.147  30.130  27.162  1.00  0.00    -0.246 OA
BRANCH  25  27
ATOM     27  C   UNL A   1      36.161  30.145  28.406  1.00  0.00     0.060 A 
ATOM     28  C   UNL A   1      36.214  29.390  29.576  1.00  0.00     0.016 A 
ATOM     29  C   UNL A   1      37.333  30.458  27.716  1.00  0.00     0.016 A 
ATOM     30  C   UNL A   1      37.431  28.953  30.082  1.00  0.00     0.010 A 
ATOM     31  C   UNL A   1      38.561  30.012  28.221  1.00  0.00     0.010 A 
ATOM     32  C   UNL A   1      38.618  29.270  29.415  1.00  0.00    -0.014 A 
BRANCH  32  33
ATOM     33  C   UNL A   1      39.912  28.875  30.023  1.00  0.00     0.031 A 
ATOM     34  C   UNL A   1      40.383  29.553  31.278  1.00  0.00     0.074 A 
ATOM     35  C   UNL A   1      40.631  27.875  29.480  1.00  0.00     0.049 A 
ATOM     36  N   UNL A   1      41.509  29.404  31.925  1.00  0.00    -0.248 NA
ATOM     37  C   UNL A   1      39.464  30.528  31.886  1.00  0.00     0.031 C 
ATOM     38  C   UNL A   1      40.244  27.103  28.297  1.00  0.00     0.029 A 
ATOM     39  N   UNL A   1      41.832  27.329  29.856  1.00  0.00    -0.354 N 
ATOM     40  C   UNL A   1      41.450  30.286  32.998  1.00  0.00     0.074 A 
ATOM     41  C   UNL A   1      40.179  30.974  32.909  1.00  0.00     0.031 C 
ATOM     42  C   UNL A   1      41.186  26.179  28.049  1.00  0.00     0.029 A 
ATOM     43  C   UNL A   1      42.264  26.325  29.024  1.00  0.00     0.049 A 
ATOM     44  H   UNL A   1      42.337  27.629  30.646  1.00  0.00     0.167 HD
ATOM     45  C   UNL A   1      42.371  30.499  33.967  1.00  0.00     0.037 A 
ATOM     46  C   UNL A   1      43.413  25.621  29.029  1.00  0.00     0.037 A 
ATOM     47  C   UNL A   1      43.620  29.789  34.062  1.00  0.00     0.049 A 
ATOM     48  C   UNL A   1      44.439  25.903  30.093  1.00  0.00     0.074 A 
ATOM     49  C   UNL A   1      44.622  29.928  35.007  1.00  0.00     0.029 A 
ATOM     50  N   UNL A   1      44.036  28.799  33.183  1.00  0.00    -0.354 N 
ATOM     51  N   UNL A   1      44.383  26.761  31.083  1.00  0.00    -0.248 NA
ATOM     52  C   UNL A   1      45.686  25.130  30.035  1.00  0.00     0.031 C 
ATOM     53  C   UNL A   1      45.657  29.045  34.681  1.00  0.00     0.029 A 
ATOM     54  C   UNL A   1      45.284  28.327  33.555  1.00  0.00     0.049 A 
ATOM     55  H   UNL A   1      43.520  28.479  32.408  1.00  0.00     0.167 HD
ATOM     56  C   UNL A   1      45.579  26.621  31.775  1.00  0.00     0.074 A 
ATOM     57  C   UNL A   1      46.334  25.585  31.099  1.00  0.00     0.031 C 
ATOM     58  C   UNL A   1      46.017  27.291  32.871  1.00  0.00     0.037 A 
BRANCH  45  59
ATOM     59  C   UNL A   1      42.077  31.567  34.983  1.00  0.00     0.058 A 
ATOM     60  C   UNL A   1      42.588  32.868  34.860  1.00  0.00     0.135 A 
ATOM     61  C   UNL A   1      41.255  31.287  36.086  1.00  0.00     0.135 A 
ATOM     62  F   UNL A   1      43.395  33.185  33.835  1.00  0.00    -0.206 F 
ATOM     63  C   UNL A   1      42.313  33.848  35.809  1.00  0.00     0.059 A 
ATOM     64  C   UNL A   1      40.948  32.257  37.035  1.00  0.00     0.059 A 
ATOM     65  F   UNL A   1      40.742  30.057  36.251  1.00  0.00    -0.206 F 
ATOM     66  C   UNL A   1      41.496  33.532  36.896  1.00  0.00     0.060 A 
BRANCH  66  67
ATOM     67  S   UNL A   1      41.150  34.810  38.123  1.00  0.00     0.124 S 
ATOM     68  O   UNL A   1      42.482  35.059  38.666  1.00  0.00    -0.237 OA
ATOM     69  O   UNL A   1      40.588  35.884  37.311  1.00  0.00    -0.237 OA
ATOM     70  O   UNL A   1      40.212  34.162  39.034  1.00  0.00    -0.744 OA
ENDBRANCH  66  67
ENDBRANCH  45  59
BRANCH  46  71
ATOM     71  C   UNL A   1      43.661  24.600  27.977  1.00  0.00     0.058 A 
ATOM     72  C   UNL A   1      44.426  24.899  26.841  1.00  0.00     0.135 A 
ATOM     73  C   UNL A   1      43.152  23.297  28.100  1.00  0.00     0.135 A 
ATOM     74  F   UNL A   1      44.924  26.133  26.674  1.00  0.00    -0.206 F 
ATOM     75  C   UNL A   1      44.671  23.946  25.857  1.00  0.00     0.059 A 
ATOM     76  C   UNL A   1      43.403  22.320  27.142  1.00  0.00     0.059 A 
ATOM     77  F   UNL A   1      42.423  22.957  29.174  1.00  0.00    -0.206 F 
ATOM     78  C   UNL A   1      44.157  22.657  26.018  1.00  0.00     0.060 A 
BRANCH  78  79
ATOM     79  S   UNL A   1      44.524  21.411  24.764  1.00  0.00     0.124 S 
ATOM     80  O   UNL A   1      45.879  21.017  25.130  1.00  0.00    -0.237 OA
ATOM     81  O   UNL A   1      43.483  20.416  25.001  1.00  0.00    -0.237 OA
ATOM     82  O   UNL A   1      44.398  22.150  23.511  1.00  0.00    -0.744 OA
ENDBRANCH  78  79
ENDBRANCH  46  71
BRANCH  58  83
ATOM     83  C   UNL A   1      47.359  26.905  33.422  1.00  0.00     0.058 A 
ATOM     84  C   UNL A   1      48.531  27.575  33.040  1.00  0.00     0.135 A 
ATOM     85  C   UNL A   1      47.466  25.886  34.381  1.00  0.00     0.135 A 
ATOM     86  F   UNL A   1      48.481  28.552  32.120  1.00  0.00    -0.206 F 
ATOM     87  C   UNL A   1      49.769  27.234  33.574  1.00  0.00     0.059 A 
ATOM     88  C   UNL A   1      48.691  25.543  34.946  1.00  0.00     0.059 A 
ATOM     89  F   UNL A   1      46.374  25.221  34.787  1.00  0.00    -0.206 F 
ATOM     90  C   UNL A   1      49.839  26.216  34.527  1.00  0.00     0.060 A 
BRANCH  90  91
ATOM     91  S   UNL A   1      51.445  25.804  35.241  1.00  0.00     0.124 S 
ATOM     92  O   UNL A   1      51.562  26.803  36.298  1.00  0.00    -0.237 OA
ATOM     93  O   UNL A   1      51.249  24.428  35.687  1.00  0.00    -0.237 OA
ATOM     94  O   UNL A   1      52.366  25.965  34.119  1.00  0.00    -0.744 OA
ENDBRANCH  90  91
ENDBRANCH  58  83
ENDBRANCH  32  33
ENDBRANCH  25  27
ENDBRANCH  24  25
ENDBRANCH  23  24
ENDBRANCH   1  23
TORSDOF 18
ENDMDL
MODEL 2
REMARK VINA RESULT:      -9.9      3.457     12.025
REMARK SMILES CC(C)(C)c1ccc(CSc2ccnc(C(=O)OCCOC(=O)c3ccc(-c4c5nc(c(-c6c(F)cc(S(=O)(=O)[O-])cc6F)c6ccc([nH]6)c(-c6c(F)cc(S(=O)(=O)[O-])cc6F)c6nc(c(-c7c(F)cc(S(=O)(=O)[O-])cc7F)c7ccc4[nH]7)C=C6)C=C5)cc3)c2)cc1
REMARK SMILES IDX 19 1 18 2 16 3 17 4 15 5 11 6 12 7 90 8 13 9 14 10 10 11
REMARK SMILES IDX 9 12 8 13 5 14 6 15 92 16 7 17 91 18 2 19 1 20 3 21 4 22
REMARK SMILES IDX 20 23 21 24 22 25 23 26 24 27 25 28 89 29 26 30 88 31 27 32
REMARK SMILES IDX 28 33 29 34 82 35 30 36 87 37 81 38 83 39 31 40 86 41 80 42
REMARK SMILES IDX 79 43 32 45 66 46 45 47 65 48 46 49 49 50 64 51 84 52 47 53
REMARK SMILES IDX 48 54 63 56 85 57 50 58 33 59 34 60 43 61 35 62 36 63 42 64
REMARK SMILES IDX 44 65 37 66 38 67 39 68 40 69 41 70 67 71 68 72 77 73 69 74
REMARK SMILES IDX 70 75 76 76 78 77 71 78 72 79 73 80 74 81 75 82 51 83 52 84
REMARK SMILES IDX 61 85 53 86 54 87 60 88 62 89 55 90 56 91 57 92 58 93 59 94
REMARK H PARENT 83 44 49 55
REMARK Flexibility Score: inf
ROOT
ATOM      1  C   UNL A   1      46.362  24.227  25.824  1.00  0.00     0.275 C 
ENDROOT
BRANCH   1   2
ATOM      2  O   UNL A   1      46.185  22.820  25.569  1.00  0.00    -0.457 OA
BRANCH   2   3
ATOM      3  C   UNL A   1      45.255  22.505  24.625  1.00  0.00     0.357 C 
ATOM      4  O   UNL A   1      45.130  23.067  23.547  1.00  0.00    -0.244 OA
BRANCH   3   5
ATOM      5  C   UNL A   1      44.442  21.319  25.045  1.00  0.00     0.149 A 
ATOM      6  C   UNL A   1      42.672  20.277  26.248  1.00  0.00     0.011 A 
ATOM      7  C   UNL A   1      43.024  19.058  25.678  1.00  0.00     0.035 A 
ATOM      8  C   UNL A   1      43.428  21.418  25.980  1.00  0.00     0.051 A 
ATOM      9  C   UNL A   1      44.069  19.044  24.777  1.00  0.00     0.113 A 
ATOM     10  N   UNL A   1      44.746  20.151  24.416  1.00  0.00    -0.249 NA
BRANCH   6  11
ATOM     11  S   UNL A   1      41.188  20.387  27.232  1.00  0.00    -0.121 SA
BRANCH  11  12
ATOM     12  C   UNL A   1      40.870  22.187  27.051  1.00  0.00     0.110 C 
BRANCH  12  13
ATOM     13  C   UNL A   1      39.515  22.494  26.456  1.00  0.00    -0.038 A 
ATOM     14  C   UNL A   1      36.895  23.009  25.457  1.00  0.00    -0.043 A 
ATOM     15  C   UNL A   1      37.534  21.777  25.242  1.00  0.00     0.004 A 
ATOM     16  C   UNL A   1      37.603  23.975  26.195  1.00  0.00     0.004 A 
ATOM     17  C   UNL A   1      38.824  21.527  25.719  1.00  0.00     0.005 A 
ATOM     18  C   UNL A   1      38.895  23.727  26.679  1.00  0.00     0.005 A 
BRANCH  14  19
ATOM     19  C   UNL A   1      35.462  23.277  24.962  1.00  0.00    -0.013 C 
ATOM     20  C   UNL A   1      34.506  22.322  25.700  1.00  0.00     0.016 C 
ATOM     21  C   UNL A   1      35.298  23.040  23.443  1.00  0.00     0.016 C 
ATOM     22  C   UNL A   1      35.018  24.733  25.232  1.00  0.00     0.016 C 
ENDBRANCH  14  19
ENDBRANCH  12  13
ENDBRANCH  11  12
ENDBRANCH   6  11
ENDBRANCH   3   5
ENDBRANCH   2   3
ENDBRANCH   1   2
BRANCH   1  23
ATOM     23  C   UNL A   1      45.268  24.784  26.740  1.00  0.00     0.275 C 
BRANCH  23  24
ATOM     24  O   UNL A   1      44.511  25.831  26.110  1.00  0.00    -0.458 OA
BRANCH  24  25
ATOM     25  C   UNL A   1      43.167  25.681  26.182  1.00  0.00     0.338 C 
ATOM     26  O   UNL A   1      42.477  24.928  25.515  1.00  0.00    -0.246 OA
BRANCH  25  27
ATOM     27  C   UNL A   1      42.633  26.479  27.297  1.00  0.00     0.060 A 
ATOM     28  C   UNL A   1      43.167  27.752  27.487  1.00  0.00     0.016 A 
ATOM     29  C   UNL A   1      41.697  25.967  28.196  1.00  0.00     0.016 A 
ATOM     30  C   UNL A   1      42.794  28.520  28.581  1.00  0.00     0.010 A 
ATOM     31  C   UNL A   1      41.313  26.743  29.297  1.00  0.00     0.010 A 
ATOM     32  C   UNL A   1      41.871  28.018  29.504  1.00  0.00    -0.014 A 
BRANCH  32  33
ATOM     33  C   UNL A   1      41.557  28.815  30.715  1.00  0.00     0.031 A 
ATOM     34  C   UNL A   1      40.366  29.731  30.716  1.00  0.00     0.074 A 
ATOM     35  C   UNL A   1      42.307  28.674  31.824  1.00  0.00     0.049 A 
ATOM     36  N   UNL A   1      39.962  30.560  31.642  1.00  0.00    -0.248 NA
ATOM     37  C   UNL A   1      39.516  29.709  29.515  1.00  0.00     0.031 C 
ATOM     38  C   UNL A   1      43.451  27.771  31.959  1.00  0.00     0.029 A 
ATOM     39  N   UNL A   1      42.215  29.281  33.050  1.00  0.00    -0.354 N 
ATOM     40  C   UNL A   1      38.830  31.182  31.127  1.00  0.00     0.074 A 
ATOM     41  C   UNL A   1      38.617  30.640  29.802  1.00  0.00     0.031 C 
ATOM     42  C   UNL A   1      43.950  27.877  33.202  1.00  0.00     0.029 A 
ATOM     43  C   UNL A   1      43.193  28.890  33.933  1.00  0.00     0.049 A 
ATOM     44  H   UNL A   1      41.515  29.936  33.277  1.00  0.00     0.167 HD
ATOM     45  C   UNL A   1      38.043  32.117  31.710  1.00  0.00     0.037 A 
ATOM     46  C   UNL A   1      43.465  29.320  35.180  1.00  0.00     0.037 A 
ATOM     47  C   UNL A   1      38.248  32.628  33.040  1.00  0.00     0.049 A 
ATOM     48  C   UNL A   1      42.600  30.389  35.791  1.00  0.00     0.074 A 
ATOM     49  C   UNL A   1      37.506  33.576  33.723  1.00  0.00     0.029 A 
ATOM     50  N   UNL A   1      39.268  32.230  33.893  1.00  0.00    -0.354 N 
ATOM     51  N   UNL A   1      41.551  30.989  35.281  1.00  0.00    -0.248 NA
ATOM     52  C   UNL A   1      42.958  30.844  37.141  1.00  0.00     0.031 C 
ATOM     53  C   UNL A   1      38.094  33.773  34.978  1.00  0.00     0.029 A 
ATOM     54  C   UNL A   1      39.182  32.920  35.091  1.00  0.00     0.049 A 
ATOM     55  H   UNL A   1      39.952  31.555  33.678  1.00  0.00     0.167 HD
ATOM     56  C   UNL A   1      41.116  31.883  36.253  1.00  0.00     0.074 A 
ATOM     57  C   UNL A   1      42.006  31.734  37.386  1.00  0.00     0.031 C 
ATOM     58  C   UNL A   1      40.075  32.752  36.210  1.00  0.00     0.037 A 
BRANCH  45  59
ATOM     59  C   UNL A   1      36.907  32.673  30.897  1.00  0.00     0.058 A 
ATOM     60  C   UNL A   1      35.592  32.207  31.045  1.00  0.00     0.135 A 
ATOM     61  C   UNL A   1      37.138  33.701  29.970  1.00  0.00     0.135 A 
ATOM     62  F   UNL A   1      35.319  31.212  31.903  1.00  0.00    -0.206 F 
ATOM     63  C   UNL A   1      34.549  32.724  30.284  1.00  0.00     0.059 A 
ATOM     64  C   UNL A   1      36.107  34.250  29.214  1.00  0.00     0.059 A 
ATOM     65  F   UNL A   1      38.379  34.182  29.788  1.00  0.00    -0.206 F 
ATOM     66  C   UNL A   1      34.817  33.743  29.367  1.00  0.00     0.060 A 
BRANCH  66  67
ATOM     67  S   UNL A   1      33.455  34.404  28.382  1.00  0.00     0.124 S 
ATOM     68  O   UNL A   1      34.130  35.451  27.621  1.00  0.00    -0.237 OA
ATOM     69  O   UNL A   1      33.027  33.240  27.614  1.00  0.00    -0.237 OA
ATOM     70  O   UNL A   1      32.505  34.872  29.387  1.00  0.00    -0.744 OA
ENDBRANCH  66  67
ENDBRANCH  45  59
BRANCH  46  71
ATOM     71  C   UNL A   1      44.624  28.756  35.922  1.00  0.00     0.058 A 
ATOM     72  C   UNL A   1      44.468  27.668  36.793  1.00  0.00     0.135 A 
ATOM     73  C   UNL A   1      45.914  29.284  35.757  1.00  0.00     0.135 A 
ATOM     74  F   UNL A   1      43.253  27.136  36.992  1.00  0.00    -0.206 F 
ATOM     75  C   UNL A   1      45.550  27.129  37.483  1.00  0.00     0.059 A 
ATOM     76  C   UNL A   1      47.014  28.747  36.417  1.00  0.00     0.059 A 
ATOM     77  F   UNL A   1      46.117  30.318  34.926  1.00  0.00    -0.206 F 
ATOM     78  C   UNL A   1      46.821  27.674  37.286  1.00  0.00     0.060 A 
BRANCH  78  79
ATOM     79  S   UNL A   1      48.228  26.935  38.144  1.00  0.00     0.124 S 
ATOM     80  O   UNL A   1      47.810  27.040  39.537  1.00  0.00    -0.237 OA
ATOM     81  O   UNL A   1      48.258  25.587  37.586  1.00  0.00    -0.237 OA
ATOM     82  O   UNL A   1      49.344  27.791  37.753  1.00  0.00    -0.744 OA
ENDBRANCH  78  79
ENDBRANCH  46  71
BRANCH  58  83
ATOM     83  C   UNL A   1      39.826  33.586  37.433  1.00  0.00     0.058 A 
ATOM     84  C   UNL A   1      40.488  34.805  37.639  1.00  0.00     0.135 A 
ATOM     85  C   UNL A   1      38.876  33.184  38.385  1.00  0.00     0.135 A 
ATOM     86  F   UNL A   1      41.411  35.229  36.760  1.00  0.00    -0.206 F 
ATOM     87  C   UNL A   1      40.233  35.590  38.759  1.00  0.00     0.059 A 
ATOM     88  C   UNL A   1      38.588  33.963  39.502  1.00  0.00     0.059 A 
ATOM     89  F   UNL A   1      38.208  32.030  38.230  1.00  0.00    -0.206 F 
ATOM     90  C   UNL A   1      39.281  35.160  39.685  1.00  0.00     0.060 A 
BRANCH  90  91
ATOM     91  S   UNL A   1      38.931  36.201  41.118  1.00  0.00     0.124 S 
ATOM     92  O   UNL A   1      38.631  37.481  40.484  1.00  0.00    -0.237 OA
ATOM     93  O   UNL A   1      37.799  35.518  41.736  1.00  0.00    -0.237 OA
ATOM     94  O   UNL A   1      40.175  36.154  41.883  1.00  0.00    -0.744 OA
ENDBRANCH  90  91
ENDBRANCH  58  83
ENDBRANCH  32  33
ENDBRANCH  25  27
ENDBRANCH  24  25
ENDBRANCH  23  24
ENDBRANCH   1  23
TORSDOF 18
ENDMDL
MODEL 3
REMARK VINA RESULT:      -9.6      3.125     11.735
REMARK SMILES CC(C)(C)c1ccc(CSc2ccnc(C(=O)OCCOC(=O)c3ccc(-c4c5nc(c(-c6c(F)cc(S(=O)(=O)[O-])cc6F)c6ccc([nH]6)c(-c6c(F)cc(S(=O)(=O)[O-])cc6F)c6nc(c(-c7c(F)cc(S(=O)(=O)[O-])cc7F)c7ccc4[nH]7)C=C6)C=C5)cc3)c2)cc1
REMARK SMILES IDX 19 1 18 2 16 3 17 4 15 5 11 6 12 7 90 8 13 9 14 10 10 11
REMARK SMILES IDX 9 12 8 13 5 14 6 15 92 16 7 17 91 18 2 19 1 20 3 21 4 22
REMARK SMILES IDX 20 23 21 24 22 25 23 26 24 27 25 28 89 29 26 30 88 31 27 32
REMARK SMILES IDX 28 33 29 34 82 35 30 36 87 37 81 38 83 39 31 40 86 41 80 42
REMARK SMILES IDX 79 43 32 45 66 46 45 47 65 48 46 49 49 50 64 51 84 52 47 53
REMARK SMILES IDX 48 54 63 56 85 57 50 58 33 59 34 60 43 61 35 62 36 63 42 64
REMARK SMILES IDX 44 65 37 66 38 67 39 68 40 69 41 70 67 71 68 72 77 73 69 74
REMARK SMILES IDX 70 75 76 76 78 77 71 78 72 79 73 80 74 81 75 82 51 83 52 84
REMARK SMILES IDX 61 85 53 86 54 87 60 88 62 89 55 90 56 91 57 92 58 93 59 94
REMARK H PARENT 83 44 49 55
REMARK Flexibility Score: inf
ROOT
ATOM      1  C   UNL A   1      41.961  22.013  25.857  1.00  0.00     0.275 C 
ENDROOT
BRANCH   1   2
ATOM      2  O   UNL A   1      43.397  21.895  25.843  1.00  0.00    -0.457 OA
BRANCH   2   3
ATOM      3  C   UNL A   1      44.044  22.676  24.934  1.00  0.00     0.357 C 
ATOM      4  O   UNL A   1      44.161  22.419  23.745  1.00  0.00    -0.244 OA
BRANCH   3   5
ATOM      5  C   UNL A   1      44.539  23.941  25.566  1.00  0.00     0.149 A 
ATOM      6  C   UNL A   1      45.862  25.159  27.126  1.00  0.00     0.011 A 
ATOM      7  C   UNL A   1      45.380  26.346  26.582  1.00  0.00     0.035 A 
ATOM      8  C   UNL A   1      45.390  23.933  26.655  1.00  0.00     0.051 A 
ATOM      9  C   UNL A   1      44.510  26.261  25.516  1.00  0.00     0.113 A 
ATOM     10  N   UNL A   1      44.122  25.092  24.971  1.00  0.00    -0.249 NA
BRANCH   6  11
ATOM     11  S   UNL A   1      47.164  25.219  28.344  1.00  0.00    -0.121 SA
BRANCH  11  12
ATOM     12  C   UNL A   1      46.404  26.428  29.499  1.00  0.00     0.110 C 
BRANCH  12  13
ATOM     13  C   UNL A   1      45.826  25.784  30.738  1.00  0.00    -0.038 A 
ATOM     14  C   UNL A   1      44.829  24.448  33.051  1.00  0.00    -0.043 A 
ATOM     15  C   UNL A   1      44.301  24.198  31.774  1.00  0.00     0.004 A 
ATOM     16  C   UNL A   1      45.878  25.382  33.136  1.00  0.00     0.004 A 
ATOM     17  C   UNL A   1      44.779  24.863  30.640  1.00  0.00     0.005 A 
ATOM     18  C   UNL A   1      46.363  26.046  32.002  1.00  0.00     0.005 A 
BRANCH  14  19
ATOM     19  C   UNL A   1      44.328  23.696  34.297  1.00  0.00    -0.013 C 
ATOM     20  C   UNL A   1      44.046  22.235  33.903  1.00  0.00     0.016 C 
ATOM     21  C   UNL A   1      43.025  24.295  34.877  1.00  0.00     0.016 C 
ATOM     22  C   UNL A   1      45.367  23.712  35.440  1.00  0.00     0.016 C 
ENDBRANCH  14  19
ENDBRANCH  12  13
ENDBRANCH  11  12
ENDBRANCH   6  11
ENDBRANCH   3   5
ENDBRANCH   2   3
ENDBRANCH   1   2
BRANCH   1  23
ATOM     23  C   UNL A   1      41.454  22.684  27.137  1.00  0.00     0.275 C 
BRANCH  23  24
ATOM     24  O   UNL A   1      40.354  23.575  26.886  1.00  0.00    -0.458 OA
BRANCH  24  25
ATOM     25  C   UNL A   1      40.712  24.817  26.484  1.00  0.00     0.338 C 
ATOM     26  O   UNL A   1      40.866  25.200  25.335  1.00  0.00    -0.246 OA
BRANCH  25  27
ATOM     27  C   UNL A   1      40.777  25.721  27.643  1.00  0.00     0.060 A 
ATOM     28  C   UNL A   1      39.669  25.759  28.488  1.00  0.00     0.016 A 
ATOM     29  C   UNL A   1      41.853  26.583  27.853  1.00  0.00     0.016 A 
ATOM     30  C   UNL A   1      39.610  26.667  29.537  1.00  0.00     0.010 A 
ATOM     31  C   UNL A   1      41.800  27.495  28.917  1.00  0.00     0.010 A 
ATOM     32  C   UNL A   1      40.671  27.551  29.755  1.00  0.00    -0.014 A 
BRANCH  32  33
ATOM     33  C   UNL A   1      40.547  28.574  30.821  1.00  0.00     0.031 A 
ATOM     34  C   UNL A   1      41.462  28.524  32.012  1.00  0.00     0.074 A 
ATOM     35  C   UNL A   1      39.655  29.574  30.692  1.00  0.00     0.049 A 
ATOM     36  N   UNL A   1      41.471  29.278  33.080  1.00  0.00    -0.248 NA
ATOM     37  C   UNL A   1      42.506  27.487  31.998  1.00  0.00     0.031 C 
ATOM     38  C   UNL A   1      38.756  29.760  29.552  1.00  0.00     0.029 A 
ATOM     39  N   UNL A   1      39.363  30.627  31.522  1.00  0.00    -0.354 N 
ATOM     40  C   UNL A   1      42.498  28.790  33.880  1.00  0.00     0.074 A 
ATOM     41  C   UNL A   1      43.084  27.668  33.177  1.00  0.00     0.031 C 
ATOM     42  C   UNL A   1      38.018  30.865  29.750  1.00  0.00     0.029 A 
ATOM     43  C   UNL A   1      38.357  31.436  31.051  1.00  0.00     0.049 A 
ATOM     44  H   UNL A   1      39.830  30.787  32.374  1.00  0.00     0.167 HD
ATOM     45  C   UNL A   1      42.913  29.240  35.088  1.00  0.00     0.037 A 
ATOM     46  C   UNL A   1      37.756  32.500  31.617  1.00  0.00     0.037 A 
ATOM     47  C   UNL A   1      42.341  30.374  35.765  1.00  0.00     0.049 A 
ATOM     48  C   UNL A   1      38.208  32.957  32.978  1.00  0.00     0.074 A 
ATOM     49  C   UNL A   1      42.691  30.912  36.991  1.00  0.00     0.029 A 
ATOM     50  N   UNL A   1      41.303  31.151  35.270  1.00  0.00    -0.354 N 
ATOM     51  N   UNL A   1      39.160  32.468  33.736  1.00  0.00    -0.248 NA
ATOM     52  C   UNL A   1      37.500  34.103  33.564  1.00  0.00     0.031 C 
ATOM     53  C   UNL A   1      41.843  31.995  37.252  1.00  0.00     0.029 A 
ATOM     54  C   UNL A   1      40.990  32.156  36.171  1.00  0.00     0.049 A 
ATOM     55  H   UNL A   1      40.854  31.008  34.406  1.00  0.00     0.167 HD
ATOM     56  C   UNL A   1      39.175  33.254  34.882  1.00  0.00     0.074 A 
ATOM     57  C   UNL A   1      38.146  34.261  34.711  1.00  0.00     0.031 C 
ATOM     58  C   UNL A   1      39.966  33.152  35.979  1.00  0.00     0.037 A 
BRANCH  45  59
ATOM     59  C   UNL A   1      44.017  28.481  35.770  1.00  0.00     0.058 A 
ATOM     60  C   UNL A   1      43.754  27.450  36.684  1.00  0.00     0.135 A 
ATOM     61  C   UNL A   1      45.359  28.780  35.488  1.00  0.00     0.135 A 
ATOM     62  F   UNL A   1      42.488  27.137  37.005  1.00  0.00    -0.206 F 
ATOM     63  C   UNL A   1      44.783  26.758  37.314  1.00  0.00     0.059 A 
ATOM     64  C   UNL A   1      46.405  28.086  36.088  1.00  0.00     0.059 A 
ATOM     65  F   UNL A   1      45.666  29.759  34.622  1.00  0.00    -0.206 F 
ATOM     66  C   UNL A   1      46.106  27.086  37.013  1.00  0.00     0.060 A 
BRANCH  66  67
ATOM     67  S   UNL A   1      47.434  26.183  37.840  1.00  0.00     0.124 S 
ATOM     68  O   UNL A   1      47.976  25.393  36.739  1.00  0.00    -0.237 OA
ATOM     69  O   UNL A   1      48.290  27.259  38.329  1.00  0.00    -0.237 OA
ATOM     70  O   UNL A   1      46.736  25.424  38.873  1.00  0.00    -0.744 OA
ENDBRANCH  66  67
ENDBRANCH  45  59
BRANCH  46  71
ATOM     71  C   UNL A   1      36.647  33.189  30.907  1.00  0.00     0.058 A 
ATOM     72  C   UNL A   1      35.310  32.988  31.281  1.00  0.00     0.135 A 
ATOM     73  C   UNL A   1      36.905  34.079  29.852  1.00  0.00     0.135 A 
ATOM     74  F   UNL A   1      35.012  32.139  32.276  1.00  0.00    -0.206 F 
ATOM     75  C   UNL A   1      34.267  33.637  30.627  1.00  0.00     0.059 A 
ATOM     76  C   UNL A   1      35.881  34.757  29.200  1.00  0.00     0.059 A 
ATOM     77  F   UNL A   1      38.168  34.314  29.464  1.00  0.00    -0.206 F 
ATOM     78  C   UNL A   1      34.562  34.522  29.589  1.00  0.00     0.060 A 
BRANCH  78  79
ATOM     79  S   UNL A   1      33.208  35.401  28.781  1.00  0.00     0.124 S 
ATOM     80  O   UNL A   1      32.464  35.910  29.928  1.00  0.00    -0.237 OA
ATOM     81  O   UNL A   1      33.915  36.399  27.986  1.00  0.00    -0.237 OA
ATOM     82  O   UNL A   1      32.542  34.355  28.011  1.00  0.00    -0.744 OA
ENDBRANCH  78  79
ENDBRANCH  46  71
BRANCH  58  83
ATOM     83  C   UNL A   1      39.770  34.170  37.065  1.00  0.00     0.058 A 
ATOM     84  C   UNL A   1      39.041  33.874  38.227  1.00  0.00     0.135 A 
ATOM     85  C   UNL A   1      40.361  35.439  36.963  1.00  0.00     0.135 A 
ATOM     86  F   UNL A   1      38.452  32.676  38.367  1.00  0.00    -0.206 F 
ATOM     87  C   UNL A   1      38.887  34.810  39.244  1.00  0.00     0.059 A 
ATOM     88  C   UNL A   1      40.238  36.383  37.978  1.00  0.00     0.059 A 
ATOM     89  F   UNL A   1      41.075  35.768  35.877  1.00  0.00    -0.206 F 
ATOM     90  C   UNL A   1      39.489  36.062  39.111  1.00  0.00     0.060 A 
BRANCH  90  91
ATOM     91  S   UNL A   1      39.312  37.258  40.451  1.00  0.00     0.124 S 
ATOM     92  O   UNL A   1      38.517  38.301  39.812  1.00  0.00    -0.237 OA
ATOM     93  O   UNL A   1      38.629  36.479  41.480  1.00  0.00    -0.237 OA
ATOM     94  O   UNL A   1      40.691  37.622  40.765  1.00  0.00    -0.744 OA
ENDBRANCH  90  91
ENDBRANCH  58  83
ENDBRANCH  32  33
ENDBRANCH  25  27
ENDBRANCH  24  25
ENDBRANCH  23  24
ENDBRANCH   1  23
TORSDOF 18
ENDMDL
