MODEL 1
REMARK VINA RESULT:     -11.6      0.000      0.000
REMARK SMILES Cc1cc(-n2cnc(C(=O)OCCOC(=O)c3ccc(-c4c5nc(c(-c6c(F)cc(S(=O)(=O)[O-])cc6F)c6ccc([nH]6)c(-c6c(F)cc(S(=O)(=O)[O-])cc6F)c6nc(c(-c7c(F)cc(S(=O)(=O)[O-])cc7F)c7ccc4[nH]7)C=C6)C=C5)cc3)c2)nc(Cl)n1
REMARK SMILES IDX 13 1 12 2 11 3 9 4 10 5 8 6 5 7 6 8 83 9 7 10 4 11 1 12 2 13
REMARK SMILES IDX 3 14 87 15 85 16 84 17 86 18 14 19 15 20 16 21 17 22 18 23
REMARK SMILES IDX 82 24 19 25 81 26 20 27 21 28 22 29 75 30 23 31 80 32 74 33
REMARK SMILES IDX 76 34 24 35 79 36 73 37 72 38 25 40 59 41 38 42 58 43 39 44
REMARK SMILES IDX 42 45 57 46 77 47 40 48 41 49 56 51 78 52 43 53 26 54 27 55
REMARK SMILES IDX 36 56 28 57 29 58 35 59 37 60 30 61 31 62 32 63 33 64 34 65
REMARK SMILES IDX 60 66 61 67 70 68 62 69 63 70 69 71 71 72 64 73 65 74 66 75
REMARK SMILES IDX 67 76 68 77 44 78 45 79 54 80 46 81 47 82 53 83 55 84 48 85
REMARK SMILES IDX 49 86 50 87 51 88 52 89
REMARK H PARENT 76 39 42 50
REMARK Flexibility Score: inf
ROOT
ATOM      1  C   UNL A   1      41.944  19.248  26.108  1.00  0.00     0.275 C 
ENDROOT
BRANCH   1   2
ATOM      2  C   UNL A   1      43.224  18.419  26.114  1.00  0.00     0.275 C 
BRANCH   2   3
ATOM      3  O   UNL A   1      43.894  18.450  24.843  1.00  0.00    -0.457 OA
BRANCH   3   4
ATOM      4  C   UNL A   1      45.172  18.961  24.851  1.00  0.00     0.358 C 
ATOM      5  O   UNL A   1      46.182  18.280  24.945  1.00  0.00    -0.244 OA
BRANCH   4   6
ATOM      6  C   UNL A   1      45.172  20.416  24.675  1.00  0.00     0.166 A 
ATOM      7  N   UNL A   1      45.429  22.574  25.028  1.00  0.00    -0.289 N 
ATOM      8  C   UNL A   1      44.743  22.366  23.859  1.00  0.00     0.206 A 
ATOM      9  C   UNL A   1      45.605  21.340  25.603  1.00  0.00     0.130 A 
ATOM     10  N   UNL A   1      44.662  21.082  23.570  1.00  0.00    -0.229 NA
BRANCH   7  11
ATOM     11  C   UNL A   1      45.972  23.795  25.487  1.00  0.00     0.143 A 
ATOM     12  C   UNL A   1      46.670  25.394  28.786  1.00  0.00     0.067 C 
ATOM     13  C   UNL A   1      46.565  25.157  27.309  1.00  0.00     0.044 A 
ATOM     14  C   UNL A   1      45.897  24.045  26.847  1.00  0.00     0.071 A 
ATOM     15  N   UNL A   1      47.158  26.031  26.477  1.00  0.00    -0.223 NA
ATOM     16  C   UNL A   1      47.131  25.709  25.173  1.00  0.00     0.224 A 
ATOM     17  N   UNL A   1      46.621  24.598  24.624  1.00  0.00    -0.200 NA
ATOM     18  Cl  UNL A   1      47.817  26.848  24.106  1.00  0.00    -0.041 Cl
ENDBRANCH   7  11
ENDBRANCH   4   6
ENDBRANCH   3   4
ENDBRANCH   2   3
ENDBRANCH   1   2
BRANCH   1  19
ATOM     19  O   UNL A   1      42.225  20.645  26.145  1.00  0.00    -0.458 OA
BRANCH  19  20
ATOM     20  C   UNL A   1      41.376  21.357  26.923  1.00  0.00     0.338 C 
ATOM     21  O   UNL A   1      40.255  21.021  27.274  1.00  0.00    -0.246 OA
BRANCH  20  22
ATOM     22  C   UNL A   1      41.896  22.707  27.111  1.00  0.00     0.060 A 
ATOM     23  C   UNL A   1      42.615  22.964  28.282  1.00  0.00     0.016 A 
ATOM     24  C   UNL A   1      41.358  23.732  26.321  1.00  0.00     0.016 A 
ATOM     25  C   UNL A   1      42.635  24.256  28.762  1.00  0.00     0.010 A 
ATOM     26  C   UNL A   1      41.351  25.010  26.819  1.00  0.00     0.010 A 
ATOM     27  C   UNL A   1      41.929  25.241  28.065  1.00  0.00    -0.014 A 
BRANCH  27  28
ATOM     28  C   UNL A   1      41.888  26.576  28.618  1.00  0.00     0.031 A 
ATOM     29  C   UNL A   1      43.030  27.402  28.174  1.00  0.00     0.074 A 
ATOM     30  C   UNL A   1      40.843  27.023  29.339  1.00  0.00     0.049 A 
ATOM     31  N   UNL A   1      44.034  27.798  28.880  1.00  0.00    -0.248 NA
ATOM     32  C   UNL A   1      43.175  27.657  26.729  1.00  0.00     0.031 C 
ATOM     33  C   UNL A   1      39.548  26.361  29.531  1.00  0.00     0.029 A 
ATOM     34  N   UNL A   1      40.671  28.221  29.962  1.00  0.00    -0.354 N 
ATOM     35  C   UNL A   1      44.804  28.565  28.015  1.00  0.00     0.074 A 
ATOM     36  C   UNL A   1      44.367  28.253  26.683  1.00  0.00     0.031 C 
ATOM     37  C   UNL A   1      38.659  27.259  30.014  1.00  0.00     0.029 A 
ATOM     38  C   UNL A   1      39.350  28.507  30.287  1.00  0.00     0.049 A 
ATOM     39  H   UNL A   1      41.417  28.830  30.164  1.00  0.00     0.167 HD
ATOM     40  C   UNL A   1      45.512  29.632  28.474  1.00  0.00     0.037 A 
ATOM     41  C   UNL A   1      38.871  29.718  30.673  1.00  0.00     0.037 A 
ATOM     42  C   UNL A   1      45.577  29.634  29.910  1.00  0.00     0.049 A 
ATOM     43  C   UNL A   1      40.024  30.487  31.213  1.00  0.00     0.074 A 
ATOM     44  C   UNL A   1      46.288  28.959  30.876  1.00  0.00     0.029 A 
ATOM     45  N   UNL A   1      44.475  30.183  30.513  1.00  0.00    -0.354 N 
ATOM     46  N   UNL A   1      40.692  30.139  32.279  1.00  0.00    -0.248 NA
ATOM     47  C   UNL A   1      40.682  31.479  30.366  1.00  0.00     0.031 C 
ATOM     48  C   UNL A   1      45.486  28.991  32.055  1.00  0.00     0.029 A 
ATOM     49  C   UNL A   1      44.322  29.712  31.790  1.00  0.00     0.049 A 
ATOM     50  H   UNL A   1      43.872  30.832  30.084  1.00  0.00     0.167 HD
ATOM     51  C   UNL A   1      41.991  30.532  32.020  1.00  0.00     0.074 A 
ATOM     52  C   UNL A   1      41.893  31.492  30.929  1.00  0.00     0.031 C 
ATOM     53  C   UNL A   1      43.052  29.810  32.481  1.00  0.00     0.037 A 
BRANCH  40  54
ATOM     54  C   UNL A   1      45.733  30.893  27.679  1.00  0.00     0.058 A 
ATOM     55  C   UNL A   1      47.044  31.314  27.390  1.00  0.00     0.135 A 
ATOM     56  C   UNL A   1      44.714  31.838  27.421  1.00  0.00     0.135 A 
ATOM     57  F   UNL A   1      48.090  30.512  27.645  1.00  0.00    -0.206 F 
ATOM     58  C   UNL A   1      47.321  32.586  26.883  1.00  0.00     0.059 A 
ATOM     59  C   UNL A   1      44.960  33.084  26.862  1.00  0.00     0.059 A 
ATOM     60  F   UNL A   1      43.443  31.631  27.791  1.00  0.00    -0.206 F 
ATOM     61  C   UNL A   1      46.270  33.462  26.620  1.00  0.00     0.060 A 
BRANCH  61  62
ATOM     62  S   UNL A   1      46.626  35.114  25.997  1.00  0.00     0.124 S 
ATOM     63  O   UNL A   1      47.822  35.465  26.753  1.00  0.00    -0.237 OA
ATOM     64  O   UNL A   1      46.819  34.864  24.573  1.00  0.00    -0.237 OA
ATOM     65  O   UNL A   1      45.421  35.867  26.334  1.00  0.00    -0.744 OA
ENDBRANCH  61  62
ENDBRANCH  40  54
BRANCH  41  66
ATOM     66  C   UNL A   1      37.604  30.376  30.244  1.00  0.00     0.058 A 
ATOM     67  C   UNL A   1      36.666  30.808  31.200  1.00  0.00     0.135 A 
ATOM     68  C   UNL A   1      37.430  30.878  28.938  1.00  0.00     0.135 A 
ATOM     69  F   UNL A   1      36.748  30.378  32.470  1.00  0.00    -0.206 F 
ATOM     70  C   UNL A   1      35.680  31.757  30.906  1.00  0.00     0.059 A 
ATOM     71  C   UNL A   1      36.447  31.813  28.618  1.00  0.00     0.059 A 
ATOM     72  F   UNL A   1      38.272  30.552  27.947  1.00  0.00    -0.206 F 
ATOM     73  C   UNL A   1      35.602  32.280  29.617  1.00  0.00     0.060 A 
BRANCH  73  74
ATOM     74  S   UNL A   1      34.492  33.669  29.289  1.00  0.00     0.124 S 
ATOM     75  O   UNL A   1      33.853  33.858  30.587  1.00  0.00    -0.237 OA
ATOM     76  O   UNL A   1      35.423  34.712  28.877  1.00  0.00    -0.237 OA
ATOM     77  O   UNL A   1      33.620  33.162  28.232  1.00  0.00    -0.744 OA
ENDBRANCH  73  74
ENDBRANCH  41  66
BRANCH  53  78
ATOM     78  C   UNL A   1      42.849  28.961  33.700  1.00  0.00     0.058 A 
ATOM     79  C   UNL A   1      42.735  29.443  35.014  1.00  0.00     0.135 A 
ATOM     80  C   UNL A   1      42.652  27.586  33.497  1.00  0.00     0.135 A 
ATOM     81  F   UNL A   1      42.840  30.753  35.280  1.00  0.00    -0.206 F 
ATOM     82  C   UNL A   1      42.457  28.586  36.082  1.00  0.00     0.059 A 
ATOM     83  C   UNL A   1      42.343  26.721  34.539  1.00  0.00     0.059 A 
ATOM     84  F   UNL A   1      42.710  27.076  32.255  1.00  0.00    -0.206 F 
ATOM     85  C   UNL A   1      42.255  27.227  35.832  1.00  0.00     0.060 A 
BRANCH  85  86
ATOM     86  S   UNL A   1      41.820  26.130  37.199  1.00  0.00     0.124 S 
ATOM     87  O   UNL A   1      42.886  26.396  38.159  1.00  0.00    -0.237 OA
ATOM     88  O   UNL A   1      40.493  26.610  37.576  1.00  0.00    -0.237 OA
ATOM     89  O   UNL A   1      41.844  24.801  36.594  1.00  0.00    -0.744 OA
ENDBRANCH  85  86
ENDBRANCH  53  78
ENDBRANCH  27  28
ENDBRANCH  20  22
ENDBRANCH  19  20
ENDBRANCH   1  19
TORSDOF 15
ENDMDL
MODEL 2
REMARK VINA RESULT:     -11.4      3.629     12.097
REMARK SMILES Cc1cc(-n2cnc(C(=O)OCCOC(=O)c3ccc(-c4c5nc(c(-c6c(F)cc(S(=O)(=O)[O-])cc6F)c6ccc([nH]6)c(-c6c(F)cc(S(=O)(=O)[O-])cc6F)c6nc(c(-c7c(F)cc(S(=O)(=O)[O-])cc7F)c7ccc4[nH]7)C=C6)C=C5)cc3)c2)nc(Cl)n1
REMARK SMILES IDX 13 1 12 2 11 3 9 4 10 5 8 6 5 7 6 8 83 9 7 10 4 11 1 12 2 13
REMARK SMILES IDX 3 14 87 15 85 16 84 17 86 18 14 19 15 20 16 21 17 22 18 23
REMARK SMILES IDX 82 24 19 25 81 26 20 27 21 28 22 29 75 30 23 31 80 32 74 33
REMARK SMILES IDX 76 34 24 35 79 36 73 37 72 38 25 40 59 41 38 42 58 43 39 44
REMARK SMILES IDX 42 45 57 46 77 47 40 48 41 49 56 51 78 52 43 53 26 54 27 55
REMARK SMILES IDX 36 56 28 57 29 58 35 59 37 60 30 61 31 62 32 63 33 64 34 65
REMARK SMILES IDX 60 66 61 67 70 68 62 69 63 70 69 71 71 72 64 73 65 74 66 75
REMARK SMILES IDX 67 76 68 77 44 78 45 79 54 80 46 81 47 82 53 83 55 84 48 85
REMARK SMILES IDX 49 86 50 87 51 88 52 89
REMARK H PARENT 76 39 42 50
REMARK Flexibility Score: inf
ROOT
ATOM      1  C   UNL A   1      33.743  33.373  28.215  1.00  0.00     0.275 C 
ENDROOT
BRANCH   1   2
ATOM      2  C   UNL A   1      33.575  34.820  28.667  1.00  0.00     0.275 C 
BRANCH   2   3
ATOM      3  O   UNL A   1      32.767  34.926  29.851  1.00  0.00    -0.457 OA
BRANCH   3   4
ATOM      4  C   UNL A   1      32.998  36.031  30.638  1.00  0.00     0.358 C 
ATOM      5  O   UNL A   1      32.615  37.159  30.364  1.00  0.00    -0.244 OA
BRANCH   4   6
ATOM      6  C   UNL A   1      33.709  35.678  31.870  1.00  0.00     0.166 A 
ATOM      7  N   UNL A   1      34.799  34.552  33.416  1.00  0.00    -0.289 N 
ATOM      8  C   UNL A   1      34.472  35.799  33.884  1.00  0.00     0.206 A 
ATOM      9  C   UNL A   1      34.218  34.434  32.178  1.00  0.00     0.130 A 
ATOM     10  N   UNL A   1      33.906  36.532  32.944  1.00  0.00    -0.229 NA
BRANCH   7  11
ATOM     11  C   UNL A   1      35.674  33.623  34.022  1.00  0.00     0.143 A 
ATOM     12  C   UNL A   1      37.594  30.604  32.960  1.00  0.00     0.067 C 
ATOM     13  C   UNL A   1      37.020  31.708  33.796  1.00  0.00     0.044 A 
ATOM     14  C   UNL A   1      36.048  32.525  33.263  1.00  0.00     0.071 A 
ATOM     15  N   UNL A   1      37.500  31.885  35.039  1.00  0.00    -0.223 NA
ATOM     16  C   UNL A   1      37.033  32.958  35.699  1.00  0.00     0.224 A 
ATOM     17  N   UNL A   1      36.183  33.886  35.238  1.00  0.00    -0.200 NA
ATOM     18  Cl  UNL A   1      37.581  33.148  37.302  1.00  0.00    -0.041 Cl
ENDBRANCH   7  11
ENDBRANCH   4   6
ENDBRANCH   3   4
ENDBRANCH   2   3
ENDBRANCH   1   2
BRANCH   1  19
ATOM     19  O   UNL A   1      34.823  32.735  28.894  1.00  0.00    -0.458 OA
BRANCH  19  20
ATOM     20  C   UNL A   1      35.154  31.525  28.386  1.00  0.00     0.338 C 
ATOM     21  O   UNL A   1      34.505  30.870  27.584  1.00  0.00    -0.246 OA
BRANCH  20  22
ATOM     22  C   UNL A   1      36.305  30.988  29.104  1.00  0.00     0.060 A 
ATOM     23  C   UNL A   1      37.385  31.847  29.325  1.00  0.00     0.016 A 
ATOM     24  C   UNL A   1      36.421  29.595  29.207  1.00  0.00     0.016 A 
ATOM     25  C   UNL A   1      38.638  31.292  29.471  1.00  0.00     0.010 A 
ATOM     26  C   UNL A   1      37.673  29.047  29.319  1.00  0.00     0.010 A 
ATOM     27  C   UNL A   1      38.770  29.903  29.379  1.00  0.00    -0.014 A 
BRANCH  27  28
ATOM     28  C   UNL A   1      40.097  29.334  29.453  1.00  0.00     0.031 A 
ATOM     29  C   UNL A   1      40.529  29.094  30.846  1.00  0.00     0.074 A 
ATOM     30  C   UNL A   1      40.777  28.952  28.355  1.00  0.00     0.049 A 
ATOM     31  N   UNL A   1      41.428  29.736  31.510  1.00  0.00    -0.248 NA
ATOM     32  C   UNL A   1      39.732  28.159  31.661  1.00  0.00     0.031 C 
ATOM     33  C   UNL A   1      40.269  28.864  26.982  1.00  0.00     0.029 A 
ATOM     34  N   UNL A   1      42.037  28.449  28.250  1.00  0.00    -0.354 N 
ATOM     35  C   UNL A   1      41.479  29.108  32.749  1.00  0.00     0.074 A 
ATOM     36  C   UNL A   1      40.280  28.324  32.866  1.00  0.00     0.031 C 
ATOM     37  C   UNL A   1      41.126  28.126  26.240  1.00  0.00     0.029 A 
ATOM     38  C   UNL A   1      42.294  27.808  27.043  1.00  0.00     0.049 A 
ATOM     39  H   UNL A   1      42.708  28.533  28.965  1.00  0.00     0.167 HD
ATOM     40  C   UNL A   1      42.647  29.024  33.440  1.00  0.00     0.037 A 
ATOM     41  C   UNL A   1      43.359  27.010  26.778  1.00  0.00     0.037 A 
ATOM     42  C   UNL A   1      43.648  29.889  32.876  1.00  0.00     0.049 A 
ATOM     43  C   UNL A   1      44.430  27.383  27.740  1.00  0.00     0.074 A 
ATOM     44  C   UNL A   1      43.925  31.237  32.896  1.00  0.00     0.029 A 
ATOM     45  N   UNL A   1      44.311  29.345  31.807  1.00  0.00    -0.354 N 
ATOM     46  N   UNL A   1      45.004  28.556  27.766  1.00  0.00    -0.248 NA
ATOM     47  C   UNL A   1      44.638  26.566  28.934  1.00  0.00     0.031 C 
ATOM     48  C   UNL A   1      44.656  31.510  31.703  1.00  0.00     0.029 A 
ATOM     49  C   UNL A   1      44.836  30.319  31.001  1.00  0.00     0.049 A 
ATOM     50  H   UNL A   1      44.399  28.379  31.641  1.00  0.00     0.167 HD
ATOM     51  C   UNL A   1      45.275  28.782  29.102  1.00  0.00     0.074 A 
ATOM     52  C   UNL A   1      45.193  27.475  29.739  1.00  0.00     0.031 C 
ATOM     53  C   UNL A   1      45.217  30.038  29.631  1.00  0.00     0.037 A 
BRANCH  40  54
ATOM     54  C   UNL A   1      43.025  27.849  34.302  1.00  0.00     0.058 A 
ATOM     55  C   UNL A   1      43.200  28.027  35.687  1.00  0.00     0.135 A 
ATOM     56  C   UNL A   1      43.479  26.616  33.781  1.00  0.00     0.135 A 
ATOM     57  F   UNL A   1      42.849  29.181  36.276  1.00  0.00    -0.206 F 
ATOM     58  C   UNL A   1      43.788  27.050  36.494  1.00  0.00     0.059 A 
ATOM     59  C   UNL A   1      44.011  25.607  34.572  1.00  0.00     0.059 A 
ATOM     60  F   UNL A   1      43.517  26.373  32.464  1.00  0.00    -0.206 F 
ATOM     61  C   UNL A   1      44.186  25.842  35.926  1.00  0.00     0.060 A 
BRANCH  61  62
ATOM     62  S   UNL A   1      44.974  24.593  36.957  1.00  0.00     0.124 S 
ATOM     63  O   UNL A   1      44.503  23.359  36.340  1.00  0.00    -0.237 OA
ATOM     64  O   UNL A   1      46.389  24.900  36.774  1.00  0.00    -0.237 OA
ATOM     65  O   UNL A   1      44.448  24.874  38.289  1.00  0.00    -0.744 OA
ENDBRANCH  61  62
ENDBRANCH  40  54
BRANCH  41  66
ATOM     66  C   UNL A   1      43.367  25.714  26.041  1.00  0.00     0.058 A 
ATOM     67  C   UNL A   1      44.417  25.403  25.156  1.00  0.00     0.135 A 
ATOM     68  C   UNL A   1      42.539  24.637  26.418  1.00  0.00     0.135 A 
ATOM     69  F   UNL A   1      45.254  26.366  24.737  1.00  0.00    -0.206 F 
ATOM     70  C   UNL A   1      44.691  24.092  24.751  1.00  0.00     0.059 A 
ATOM     71  C   UNL A   1      42.784  23.325  26.016  1.00  0.00     0.059 A 
ATOM     72  F   UNL A   1      41.519  24.806  27.271  1.00  0.00    -0.206 F 
ATOM     73  C   UNL A   1      43.888  23.054  25.217  1.00  0.00     0.060 A 
BRANCH  73  74
ATOM     74  S   UNL A   1      44.372  21.343  24.890  1.00  0.00     0.124 S 
ATOM     75  O   UNL A   1      44.575  21.357  23.446  1.00  0.00    -0.237 OA
ATOM     76  O   UNL A   1      45.575  21.207  25.703  1.00  0.00    -0.237 OA
ATOM     77  O   UNL A   1      43.220  20.571  25.351  1.00  0.00    -0.744 OA
ENDBRANCH  73  74
ENDBRANCH  41  66
BRANCH  53  78
ATOM     78  C   UNL A   1      45.427  31.200  28.708  1.00  0.00     0.058 A 
ATOM     79  C   UNL A   1      46.673  31.661  28.253  1.00  0.00     0.135 A 
ATOM     80  C   UNL A   1      44.280  31.809  28.173  1.00  0.00     0.135 A 
ATOM     81  F   UNL A   1      47.812  31.085  28.663  1.00  0.00    -0.206 F 
ATOM     82  C   UNL A   1      46.771  32.698  27.322  1.00  0.00     0.059 A 
ATOM     83  C   UNL A   1      44.352  32.819  27.223  1.00  0.00     0.059 A 
ATOM     84  F   UNL A   1      43.059  31.381  28.542  1.00  0.00    -0.206 F 
ATOM     85  C   UNL A   1      45.603  33.265  26.807  1.00  0.00     0.060 A 
BRANCH  85  86
ATOM     86  S   UNL A   1      45.725  34.551  25.546  1.00  0.00     0.124 S 
ATOM     87  O   UNL A   1      47.156  34.567  25.259  1.00  0.00    -0.237 OA
ATOM     88  O   UNL A   1      44.871  34.031  24.483  1.00  0.00    -0.237 OA
ATOM     89  O   UNL A   1      45.213  35.742  26.219  1.00  0.00    -0.744 OA
ENDBRANCH  85  86
ENDBRANCH  53  78
ENDBRANCH  27  28
ENDBRANCH  20  22
ENDBRANCH  19  20
ENDBRANCH   1  19
TORSDOF 15
ENDMDL
MODEL 3
REMARK VINA RESULT:     -11.1      2.985      4.414
REMARK SMILES Cc1cc(-n2cnc(C(=O)OCCOC(=O)c3ccc(-c4c5nc(c(-c6c(F)cc(S(=O)(=O)[O-])cc6F)c6ccc([nH]6)c(-c6c(F)cc(S(=O)(=O)[O-])cc6F)c6nc(c(-c7c(F)cc(S(=O)(=O)[O-])cc7F)c7ccc4[nH]7)C=C6)C=C5)cc3)c2)nc(Cl)n1
REMARK SMILES IDX 13 1 12 2 11 3 9 4 10 5 8 6 5 7 6 8 83 9 7 10 4 11 1 12 2 13
REMARK SMILES IDX 3 14 87 15 85 16 84 17 86 18 14 19 15 20 16 21 17 22 18 23
REMARK SMILES IDX 82 24 19 25 81 26 20 27 21 28 22 29 75 30 23 31 80 32 74 33
REMARK SMILES IDX 76 34 24 35 79 36 73 37 72 38 25 40 59 41 38 42 58 43 39 44
REMARK SMILES IDX 42 45 57 46 77 47 40 48 41 49 56 51 78 52 43 53 26 54 27 55
REMARK SMILES IDX 36 56 28 57 29 58 35 59 37 60 30 61 31 62 32 63 33 64 34 65
REMARK SMILES IDX 60 66 61 67 70 68 62 69 63 70 69 71 71 72 64 73 65 74 66 75
REMARK SMILES IDX 67 76 68 77 44 78 45 79 54 80 46 81 47 82 53 83 55 84 48 85
REMARK SMILES IDX 49 86 50 87 51 88 52 89
REMARK H PARENT 76 39 42 50
REMARK Flexibility Score: inf
ROOT
ATOM      1  C   UNL A   1      44.427  19.234  24.797  1.00  0.00     0.275 C 
ENDROOT
BRANCH   1   2
ATOM      2  C   UNL A   1      43.197  18.741  25.553  1.00  0.00     0.275 C 
BRANCH   2   3
ATOM      3  O   UNL A   1      42.112  19.680  25.491  1.00  0.00    -0.457 OA
BRANCH   3   4
ATOM      4  C   UNL A   1      41.481  19.949  26.684  1.00  0.00     0.358 C 
ATOM      5  O   UNL A   1      41.824  19.482  27.760  1.00  0.00    -0.244 OA
BRANCH   4   6
ATOM      6  C   UNL A   1      40.385  20.907  26.512  1.00  0.00     0.166 A 
ATOM      7  N   UNL A   1      38.511  21.857  25.858  1.00  0.00    -0.289 N 
ATOM      8  C   UNL A   1      39.268  22.751  26.571  1.00  0.00     0.206 A 
ATOM      9  C   UNL A   1      39.268  20.721  25.725  1.00  0.00     0.130 A 
ATOM     10  N   UNL A   1      40.352  22.180  27.061  1.00  0.00    -0.229 NA
BRANCH   7  11
ATOM     11  C   UNL A   1      37.165  22.017  25.457  1.00  0.00     0.143 A 
ATOM     12  C   UNL A   1      34.251  19.791  24.760  1.00  0.00     0.067 C 
ATOM     13  C   UNL A   1      35.109  21.011  24.921  1.00  0.00     0.044 A 
ATOM     14  C   UNL A   1      36.457  20.865  25.157  1.00  0.00     0.071 A 
ATOM     15  N   UNL A   1      34.521  22.218  24.861  1.00  0.00    -0.223 NA
ATOM     16  C   UNL A   1      35.315  23.270  25.126  1.00  0.00     0.224 A 
ATOM     17  N   UNL A   1      36.605  23.240  25.486  1.00  0.00    -0.200 NA
ATOM     18  Cl  UNL A   1      34.594  24.808  24.979  1.00  0.00    -0.041 Cl
ENDBRANCH   7  11
ENDBRANCH   4   6
ENDBRANCH   3   4
ENDBRANCH   2   3
ENDBRANCH   1   2
BRANCH   1  19
ATOM     19  O   UNL A   1      44.244  20.560  24.308  1.00  0.00    -0.458 OA
BRANCH  19  20
ATOM     20  C   UNL A   1      45.062  21.475  24.879  1.00  0.00     0.338 C 
ATOM     21  O   UNL A   1      46.284  21.473  24.858  1.00  0.00    -0.246 OA
BRANCH  20  22
ATOM     22  C   UNL A   1      44.284  22.366  25.734  1.00  0.00     0.060 A 
ATOM     23  C   UNL A   1      43.407  23.256  25.108  1.00  0.00     0.016 A 
ATOM     24  C   UNL A   1      44.706  22.535  27.059  1.00  0.00     0.016 A 
ATOM     25  C   UNL A   1      43.096  24.430  25.761  1.00  0.00     0.010 A 
ATOM     26  C   UNL A   1      44.422  23.718  27.693  1.00  0.00     0.010 A 
ATOM     27  C   UNL A   1      43.680  24.677  27.008  1.00  0.00    -0.014 A 
BRANCH  27  28
ATOM     28  C   UNL A   1      43.412  25.944  27.650  1.00  0.00     0.031 A 
ATOM     29  C   UNL A   1      44.446  26.956  27.348  1.00  0.00     0.074 A 
ATOM     30  C   UNL A   1      42.272  26.181  28.325  1.00  0.00     0.049 A 
ATOM     31  N   UNL A   1      45.337  27.430  28.150  1.00  0.00    -0.248 NA
ATOM     32  C   UNL A   1      44.638  27.344  25.939  1.00  0.00     0.031 C 
ATOM     33  C   UNL A   1      41.078  25.330  28.378  1.00  0.00     0.029 A 
ATOM     34  N   UNL A   1      41.891  27.289  29.018  1.00  0.00    -0.354 N 
ATOM     35  C   UNL A   1      46.038  28.365  27.398  1.00  0.00     0.074 A 
ATOM     36  C   UNL A   1      45.731  28.103  26.019  1.00  0.00     0.031 C 
ATOM     37  C   UNL A   1      40.040  26.053  28.859  1.00  0.00     0.029 A 
ATOM     38  C   UNL A   1      40.525  27.360  29.269  1.00  0.00     0.049 A 
ATOM     39  H   UNL A   1      42.526  27.978  29.315  1.00  0.00     0.167 HD
ATOM     40  C   UNL A   1      46.554  29.481  27.980  1.00  0.00     0.037 A 
ATOM     41  C   UNL A   1      39.853  28.455  29.705  1.00  0.00     0.037 A 
ATOM     42  C   UNL A   1      46.533  29.376  29.414  1.00  0.00     0.049 A 
ATOM     43  C   UNL A   1      40.847  29.334  30.378  1.00  0.00     0.074 A 
ATOM     44  C   UNL A   1      47.276  28.732  30.376  1.00  0.00     0.029 A 
ATOM     45  N   UNL A   1      45.329  29.715  29.974  1.00  0.00    -0.354 N 
ATOM     46  N   UNL A   1      41.494  28.998  31.462  1.00  0.00    -0.248 NA
ATOM     47  C   UNL A   1      41.404  30.473  29.652  1.00  0.00     0.031 C 
ATOM     48  C   UNL A   1      46.409  28.556  31.495  1.00  0.00     0.029 A 
ATOM     49  C   UNL A   1      45.170  29.126  31.201  1.00  0.00     0.049 A 
ATOM     50  H   UNL A   1      44.665  30.305  29.551  1.00  0.00     0.167 HD
ATOM     51  C   UNL A   1      42.735  29.589  31.323  1.00  0.00     0.074 A 
ATOM     52  C   UNL A   1      42.564  30.611  30.299  1.00  0.00     0.031 C 
ATOM     53  C   UNL A   1      43.860  28.989  31.806  1.00  0.00     0.037 A 
BRANCH  40  54
ATOM     54  C   UNL A   1      46.637  30.819  27.294  1.00  0.00     0.058 A 
ATOM     55  C   UNL A   1      47.886  31.449  27.141  1.00  0.00     0.135 A 
ATOM     56  C   UNL A   1      45.507  31.623  27.019  1.00  0.00     0.135 A 
ATOM     57  F   UNL A   1      49.021  30.791  27.424  1.00  0.00    -0.206 F 
ATOM     58  C   UNL A   1      48.002  32.785  26.748  1.00  0.00     0.059 A 
ATOM     59  C   UNL A   1      45.600  32.933  26.569  1.00  0.00     0.059 A 
ATOM     60  F   UNL A   1      44.260  31.204  27.270  1.00  0.00    -0.206 F 
ATOM     61  C   UNL A   1      46.852  33.516  26.461  1.00  0.00     0.060 A 
BRANCH  61  62
ATOM     62  S   UNL A   1      46.995  35.247  25.984  1.00  0.00     0.124 S 
ATOM     63  O   UNL A   1      45.692  35.496  25.380  1.00  0.00    -0.237 OA
ATOM     64  O   UNL A   1      47.239  35.893  27.269  1.00  0.00    -0.237 OA
ATOM     65  O   UNL A   1      48.130  35.251  25.066  1.00  0.00    -0.744 OA
ENDBRANCH  61  62
ENDBRANCH  40  54
BRANCH  41  66
ATOM     66  C   UNL A   1      38.531  28.962  29.235  1.00  0.00     0.058 A 
ATOM     67  C   UNL A   1      37.491  29.197  30.154  1.00  0.00     0.135 A 
ATOM     68  C   UNL A   1      38.360  29.520  27.952  1.00  0.00     0.135 A 
ATOM     69  F   UNL A   1      37.563  28.699  31.398  1.00  0.00    -0.206 F 
ATOM     70  C   UNL A   1      36.399  30.020  29.853  1.00  0.00     0.059 A 
ATOM     71  C   UNL A   1      37.275  30.332  27.625  1.00  0.00     0.059 A 
ATOM     72  F   UNL A   1      39.293  29.380  27.000  1.00  0.00    -0.206 F 
ATOM     73  C   UNL A   1      36.320  30.612  28.595  1.00  0.00     0.060 A 
BRANCH  73  74
ATOM     74  S   UNL A   1      35.045  31.854  28.278  1.00  0.00     0.124 S 
ATOM     75  O   UNL A   1      34.657  32.240  29.630  1.00  0.00    -0.237 OA
ATOM     76  O   UNL A   1      35.780  32.856  27.514  1.00  0.00    -0.237 OA
ATOM     77  O   UNL A   1      34.034  31.117  27.524  1.00  0.00    -0.744 OA
ENDBRANCH  73  74
ENDBRANCH  41  66
BRANCH  53  78
ATOM     78  C   UNL A   1      43.711  28.024  32.944  1.00  0.00     0.058 A 
ATOM     79  C   UNL A   1      43.468  28.379  34.281  1.00  0.00     0.135 A 
ATOM     80  C   UNL A   1      43.708  26.657  32.628  1.00  0.00     0.135 A 
ATOM     81  F   UNL A   1      43.385  29.666  34.649  1.00  0.00    -0.206 F 
ATOM     82  C   UNL A   1      43.253  27.410  35.264  1.00  0.00     0.059 A 
ATOM     83  C   UNL A   1      43.464  25.677  33.582  1.00  0.00     0.059 A 
ATOM     84  F   UNL A   1      43.895  26.260  31.357  1.00  0.00    -0.206 F 
ATOM     85  C   UNL A   1      43.246  26.061  34.902  1.00  0.00     0.060 A 
BRANCH  85  86
ATOM     86  S   UNL A   1      42.891  24.810  36.155  1.00  0.00     0.124 S 
ATOM     87  O   UNL A   1      44.191  24.638  36.796  1.00  0.00    -0.237 OA
ATOM     88  O   UNL A   1      41.865  25.459  36.966  1.00  0.00    -0.237 OA
ATOM     89  O   UNL A   1      42.425  23.666  35.375  1.00  0.00    -0.744 OA
ENDBRANCH  85  86
ENDBRANCH  53  78
ENDBRANCH  27  28
ENDBRANCH  20  22
ENDBRANCH  19  20
ENDBRANCH   1  19
TORSDOF 15
ENDMDL
