MODEL 1
REMARK VINA RESULT:     -11.9      0.000      0.000
REMARK SMILES Cc1occc1C(=O)NN1C(=O)/C(=C\c2ccc(O[C@H](C)C(=O)OCCOC(=O)c3ccc(-c4c5nc(c(-c6c(F)cc(S(=O)(=O)[O-])cc6F)c6ccc([nH]6)c(-c6c(F)cc(S(=O)(=O)[O-])cc6F)c6nc(c(-c7c(F)cc(S(=O)(=O)[O-])cc7F)c7ccc4[nH]7)C=C6)C=C5)cc3)cc2)SC1=S
REMARK SMILES IDX 25 1 24 2 22 3 23 4 20 5 21 6 19 7 18 8 15 9 16 10 97 11
REMARK SMILES IDX 17 12 96 13 14 14 10 15 11 16 99 17 12 18 13 19 98 20 100 21
REMARK SMILES IDX 9 22 7 23 8 24 6 26 1 27 2 28 3 29 4 30 5 31 26 32 27 33
REMARK SMILES IDX 28 34 29 35 30 36 31 37 95 38 32 39 94 40 33 41 34 42 35 43
REMARK SMILES IDX 88 44 36 45 93 46 87 47 89 48 37 49 92 50 86 51 85 52 38 54
REMARK SMILES IDX 72 55 51 56 71 57 52 58 55 59 70 60 90 61 53 62 54 63 69 65
REMARK SMILES IDX 91 66 56 67 39 68 40 69 49 70 41 71 42 72 48 73 50 74 43 75
REMARK SMILES IDX 44 76 45 77 46 78 47 79 73 80 74 81 83 82 75 83 76 84 82 85
REMARK SMILES IDX 84 86 77 87 78 88 79 89 80 90 81 91 57 92 58 93 67 94 59 95
REMARK SMILES IDX 60 96 66 97 68 98 61 99 62 100 63 101 64 102 65 103
REMARK H PARENT 9 25 89 53 55 64
REMARK Flexibility Score: inf
ROOT
ATOM      1  C   UNL A   1      42.674  21.185  26.155  1.00  0.00     0.274 C 
ENDROOT
BRANCH   1   2
ATOM      2  O   UNL A   1      41.449  21.103  26.907  1.00  0.00    -0.459 OA
BRANCH   2   3
ATOM      3  C   UNL A   1      40.407  20.514  26.260  1.00  0.00     0.347 C 
ATOM      4  O   UNL A   1      40.463  19.414  25.717  1.00  0.00    -0.248 OA
BRANCH   3   5
ATOM      5  C   UNL A   1      39.151  21.383  26.230  1.00  0.00     0.279 C 
ATOM      6  C   UNL A   1      39.340  22.871  26.533  1.00  0.00     0.066 C 
BRANCH   5   7
ATOM      7  O   UNL A   1      38.330  21.033  25.120  1.00  0.00    -0.479 OA
BRANCH   7   8
ATOM      8  C   UNL A   1      37.073  21.505  24.940  1.00  0.00     0.120 A 
ATOM      9  C   UNL A   1      34.599  22.506  24.071  1.00  0.00    -0.024 A 
ATOM     10  C   UNL A   1      34.660  21.462  24.999  1.00  0.00     0.012 A 
ATOM     11  C   UNL A   1      35.784  23.149  23.709  1.00  0.00     0.012 A 
ATOM     12  C   UNL A   1      35.893  20.980  25.449  1.00  0.00     0.047 A 
ATOM     13  C   UNL A   1      37.011  22.629  24.117  1.00  0.00     0.047 A 
BRANCH   9  14
ATOM     14  C   UNL A   1      33.296  22.846  23.484  1.00  0.00     0.029 C 
ATOM     15  N   UNL A   1      31.363  25.210  25.457  1.00  0.00    -0.198 N 
ATOM     16  C   UNL A   1      32.577  24.603  25.184  1.00  0.00     0.285 C 
ATOM     17  C   UNL A   1      30.418  25.240  24.456  1.00  0.00     0.168 C 
ATOM     18  O   UNL A   1      33.594  24.774  25.839  1.00  0.00    -0.266 OA
ATOM     19  C   UNL A   1      32.446  23.774  23.949  1.00  0.00     0.082 C 
ATOM     20  S   UNL A   1      30.953  24.168  23.155  1.00  0.00    -0.052 SA
ATOM     21  S   UNL A   1      29.002  26.114  24.395  1.00  0.00    -0.050 S 
BRANCH  15  22
ATOM     22  N   UNL A   1      31.297  25.971  26.620  1.00  0.00    -0.254 N 
ATOM     23  C   UNL A   1      31.573  27.312  26.756  1.00  0.00     0.273 C 
ATOM     24  O   UNL A   1      31.281  27.838  27.833  1.00  0.00    -0.267 OA
ATOM     25  H   UNL A   1      31.020  25.497  27.437  1.00  0.00     0.192 HD
BRANCH  23  26
ATOM     26  C   UNL A   1      32.292  28.080  25.746  1.00  0.00     0.082 A 
ATOM     27  C   UNL A   1      30.600  29.533  24.288  1.00  0.00     0.088 C 
ATOM     28  C   UNL A   1      31.877  28.954  24.750  1.00  0.00     0.113 A 
ATOM     29  O   UNL A   1      32.957  29.435  24.064  1.00  0.00    -0.469 OA
ATOM     30  C   UNL A   1      34.071  28.942  24.648  1.00  0.00     0.196 A 
ATOM     31  C   UNL A   1      33.727  28.129  25.694  1.00  0.00     0.056 A 
ENDBRANCH  23  26
ENDBRANCH  15  22
ENDBRANCH   9  14
ENDBRANCH   7   8
ENDBRANCH   5   7
ENDBRANCH   3   5
ENDBRANCH   2   3
ENDBRANCH   1   2
BRANCH   1  32
ATOM     32  C   UNL A   1      42.918  22.591  25.597  1.00  0.00     0.275 C 
BRANCH  32  33
ATOM     33  O   UNL A   1      42.684  23.619  26.578  1.00  0.00    -0.458 OA
BRANCH  33  34
ATOM     34  C   UNL A   1      42.599  24.873  26.075  1.00  0.00     0.338 C 
ATOM     35  O   UNL A   1      42.734  25.206  24.910  1.00  0.00    -0.246 OA
BRANCH  34  36
ATOM     36  C   UNL A   1      42.165  25.810  27.121  1.00  0.00     0.060 A 
ATOM     37  C   UNL A   1      42.806  27.049  27.192  1.00  0.00     0.016 A 
ATOM     38  C   UNL A   1      41.224  25.446  28.083  1.00  0.00     0.016 A 
ATOM     39  C   UNL A   1      42.541  27.921  28.238  1.00  0.00     0.010 A 
ATOM     40  C   UNL A   1      40.941  26.334  29.129  1.00  0.00     0.010 A 
ATOM     41  C   UNL A   1      41.611  27.567  29.220  1.00  0.00    -0.014 A 
BRANCH  41  42
ATOM     42  C   UNL A   1      41.385  28.482  30.361  1.00  0.00     0.031 A 
ATOM     43  C   UNL A   1      42.270  28.399  31.570  1.00  0.00     0.074 A 
ATOM     44  C   UNL A   1      40.416  29.414  30.285  1.00  0.00     0.049 A 
ATOM     45  N   UNL A   1      42.186  29.049  32.701  1.00  0.00    -0.248 NA
ATOM     46  C   UNL A   1      43.401  27.460  31.496  1.00  0.00     0.031 C 
ATOM     47  C   UNL A   1      39.538  29.625  29.133  1.00  0.00     0.029 A 
ATOM     48  N   UNL A   1      40.009  30.356  31.194  1.00  0.00    -0.354 N 
ATOM     49  C   UNL A   1      43.233  28.582  33.484  1.00  0.00     0.074 A 
ATOM     50  C   UNL A   1      43.936  27.587  32.703  1.00  0.00     0.031 C 
ATOM     51  C   UNL A   1      38.694  30.635  29.406  1.00  0.00     0.029 A 
ATOM     52  C   UNL A   1      38.940  31.106  30.765  1.00  0.00     0.049 A 
ATOM     53  H   UNL A   1      40.442  30.484  32.069  1.00  0.00     0.167 HD
ATOM     54  C   UNL A   1      43.574  28.953  34.742  1.00  0.00     0.037 A 
ATOM     55  C   UNL A   1      38.220  32.043  31.410  1.00  0.00     0.037 A 
ATOM     56  C   UNL A   1      42.877  29.957  35.503  1.00  0.00     0.049 A 
ATOM     57  C   UNL A   1      38.586  32.400  32.824  1.00  0.00     0.074 A 
ATOM     58  C   UNL A   1      43.141  30.405  36.785  1.00  0.00     0.029 A 
ATOM     59  N   UNL A   1      41.780  30.674  35.046  1.00  0.00    -0.354 N 
ATOM     60  N   UNL A   1      39.560  31.929  33.566  1.00  0.00    -0.248 NA
ATOM     61  C   UNL A   1      37.750  33.405  33.493  1.00  0.00     0.031 C 
ATOM     62  C   UNL A   1      42.184  31.371  37.117  1.00  0.00     0.029 A 
ATOM     63  C   UNL A   1      41.345  31.551  36.027  1.00  0.00     0.049 A 
ATOM     64  H   UNL A   1      41.370  30.574  34.157  1.00  0.00     0.167 HD
ATOM     65  C   UNL A   1      39.463  32.590  34.784  1.00  0.00     0.074 A 
ATOM     66  C   UNL A   1      38.344  33.504  34.675  1.00  0.00     0.031 C 
ATOM     67  C   UNL A   1      40.229  32.452  35.895  1.00  0.00     0.037 A 
BRANCH  54  68
ATOM     68  C   UNL A   1      44.730  28.242  35.385  1.00  0.00     0.058 A 
ATOM     69  C   UNL A   1      46.029  28.774  35.368  1.00  0.00     0.135 A 
ATOM     70  C   UNL A   1      44.531  27.018  36.043  1.00  0.00     0.135 A 
ATOM     71  F   UNL A   1      46.276  29.931  34.733  1.00  0.00    -0.206 F 
ATOM     72  C   UNL A   1      47.094  28.106  35.963  1.00  0.00     0.059 A 
ATOM     73  C   UNL A   1      45.578  26.344  36.664  1.00  0.00     0.059 A 
ATOM     74  F   UNL A   1      43.309  26.464  36.085  1.00  0.00    -0.206 F 
ATOM     75  C   UNL A   1      46.859  26.888  36.605  1.00  0.00     0.060 A 
BRANCH  75  76
ATOM     76  S   UNL A   1      48.251  26.028  37.369  1.00  0.00     0.124 S 
ATOM     77  O   UNL A   1      49.285  27.058  37.329  1.00  0.00    -0.237 OA
ATOM     78  O   UNL A   1      47.732  25.703  38.694  1.00  0.00    -0.237 OA
ATOM     79  O   UNL A   1      48.469  24.886  36.488  1.00  0.00    -0.744 OA
ENDBRANCH  75  76
ENDBRANCH  54  68
BRANCH  55  80
ATOM     80  C   UNL A   1      37.062  32.681  30.733  1.00  0.00     0.058 A 
ATOM     81  C   UNL A   1      35.753  32.238  30.961  1.00  0.00     0.135 A 
ATOM     82  C   UNL A   1      37.245  33.760  29.854  1.00  0.00     0.135 A 
ATOM     83  F   UNL A   1      35.530  31.203  31.787  1.00  0.00    -0.206 F 
ATOM     84  C   UNL A   1      34.663  32.833  30.335  1.00  0.00     0.059 A 
ATOM     85  C   UNL A   1      36.170  34.387  29.233  1.00  0.00     0.059 A 
ATOM     86  F   UNL A   1      38.479  34.230  29.611  1.00  0.00    -0.206 F 
ATOM     87  C   UNL A   1      34.882  33.909  29.473  1.00  0.00     0.060 A 
BRANCH  87  88
ATOM     88  S   UNL A   1      33.460  34.713  28.702  1.00  0.00     0.124 S 
ATOM     89  O   UNL A   1      34.076  35.897  28.114  1.00  0.00    -0.237 OA
ATOM     90  O   UNL A   1      33.002  33.697  27.759  1.00  0.00    -0.237 OA
ATOM     91  O   UNL A   1      32.564  34.959  29.827  1.00  0.00    -0.744 OA
ENDBRANCH  87  88
ENDBRANCH  55  80
BRANCH  67  92
ATOM     92  C   UNL A   1      39.895  33.325  37.069  1.00  0.00     0.058 A 
ATOM     93  C   UNL A   1      38.915  32.953  38.003  1.00  0.00     0.135 A 
ATOM     94  C   UNL A   1      40.592  34.524  37.287  1.00  0.00     0.135 A 
ATOM     95  F   UNL A   1      38.216  31.819  37.833  1.00  0.00    -0.206 F 
ATOM     96  C   UNL A   1      38.625  33.750  39.105  1.00  0.00     0.059 A 
ATOM     97  C   UNL A   1      40.332  35.325  38.394  1.00  0.00     0.059 A 
ATOM     98  F   UNL A   1      41.543  34.918  36.427  1.00  0.00    -0.206 F 
ATOM     99  C   UNL A   1      39.339  34.935  39.291  1.00  0.00     0.060 A 
BRANCH  99 100
ATOM    100  S   UNL A   1      38.980  35.947  40.743  1.00  0.00     0.124 S 
ATOM    101  O   UNL A   1      38.617  37.221  40.130  1.00  0.00    -0.237 OA
ATOM    102  O   UNL A   1      37.887  35.215  41.375  1.00  0.00    -0.237 OA
ATOM    103  O   UNL A   1      40.240  35.939  41.481  1.00  0.00    -0.744 OA
ENDBRANCH  99 100
ENDBRANCH  67  92
ENDBRANCH  41  42
ENDBRANCH  34  36
ENDBRANCH  33  34
ENDBRANCH  32  33
ENDBRANCH   1  32
TORSDOF 19
ENDMDL
MODEL 2
REMARK VINA RESULT:     -11.9      5.750     11.979
REMARK SMILES Cc1occc1C(=O)NN1C(=O)/C(=C\c2ccc(O[C@H](C)C(=O)OCCOC(=O)c3ccc(-c4c5nc(c(-c6c(F)cc(S(=O)(=O)[O-])cc6F)c6ccc([nH]6)c(-c6c(F)cc(S(=O)(=O)[O-])cc6F)c6nc(c(-c7c(F)cc(S(=O)(=O)[O-])cc7F)c7ccc4[nH]7)C=C6)C=C5)cc3)cc2)SC1=S
REMARK SMILES IDX 25 1 24 2 22 3 23 4 20 5 21 6 19 7 18 8 15 9 16 10 97 11
REMARK SMILES IDX 17 12 96 13 14 14 10 15 11 16 99 17 12 18 13 19 98 20 100 21
REMARK SMILES IDX 9 22 7 23 8 24 6 26 1 27 2 28 3 29 4 30 5 31 26 32 27 33
REMARK SMILES IDX 28 34 29 35 30 36 31 37 95 38 32 39 94 40 33 41 34 42 35 43
REMARK SMILES IDX 88 44 36 45 93 46 87 47 89 48 37 49 92 50 86 51 85 52 38 54
REMARK SMILES IDX 72 55 51 56 71 57 52 58 55 59 70 60 90 61 53 62 54 63 69 65
REMARK SMILES IDX 91 66 56 67 39 68 40 69 49 70 41 71 42 72 48 73 50 74 43 75
REMARK SMILES IDX 44 76 45 77 46 78 47 79 73 80 74 81 83 82 75 83 76 84 82 85
REMARK SMILES IDX 84 86 77 87 78 88 79 89 80 90 81 91 57 92 58 93 67 94 59 95
REMARK SMILES IDX 60 96 66 97 68 98 61 99 62 100 63 101 64 102 65 103
REMARK H PARENT 9 25 89 53 55 64
REMARK Flexibility Score: inf
ROOT
ATOM      1  C   UNL A   1      35.366  34.141  31.835  1.00  0.00     0.274 C 
ENDROOT
BRANCH   1   2
ATOM      2  O   UNL A   1      35.506  34.331  30.415  1.00  0.00    -0.459 OA
BRANCH   2   3
ATOM      3  C   UNL A   1      34.394  34.063  29.679  1.00  0.00     0.347 C 
ATOM      4  O   UNL A   1      33.282  34.528  29.913  1.00  0.00    -0.248 OA
BRANCH   3   5
ATOM      5  C   UNL A   1      34.651  33.077  28.541  1.00  0.00     0.279 C 
ATOM      6  C   UNL A   1      36.028  33.139  27.878  1.00  0.00     0.066 C 
BRANCH   5   7
ATOM      7  O   UNL A   1      34.134  31.791  28.871  1.00  0.00    -0.479 OA
BRANCH   7   8
ATOM      8  C   UNL A   1      34.058  30.765  27.989  1.00  0.00     0.120 A 
ATOM      9  C   UNL A   1      33.806  29.009  25.814  1.00  0.00    -0.024 A 
ATOM     10  C   UNL A   1      34.842  28.854  26.738  1.00  0.00     0.012 A 
ATOM     11  C   UNL A   1      32.806  29.947  26.079  1.00  0.00     0.012 A 
ATOM     12  C   UNL A   1      34.954  29.716  27.834  1.00  0.00     0.047 A 
ATOM     13  C   UNL A   1      32.952  30.838  27.142  1.00  0.00     0.047 A 
BRANCH   9  14
ATOM     14  C   UNL A   1      33.841  28.209  24.583  1.00  0.00     0.029 C 
ATOM     15  N   UNL A   1      32.915  24.726  25.061  1.00  0.00    -0.198 N 
ATOM     16  C   UNL A   1      32.944  26.024  25.540  1.00  0.00     0.285 C 
ATOM     17  C   UNL A   1      32.995  24.540  23.698  1.00  0.00     0.168 C 
ATOM     18  O   UNL A   1      32.573  26.353  26.656  1.00  0.00    -0.266 OA
ATOM     19  C   UNL A   1      33.436  26.935  24.464  1.00  0.00     0.082 C 
ATOM     20  S   UNL A   1      33.443  26.080  22.953  1.00  0.00    -0.052 SA
ATOM     21  S   UNL A   1      32.721  23.149  22.825  1.00  0.00    -0.050 S 
BRANCH  15  22
ATOM     22  N   UNL A   1      32.539  23.738  25.965  1.00  0.00    -0.254 N 
ATOM     23  C   UNL A   1      33.355  22.823  26.589  1.00  0.00     0.273 C 
ATOM     24  O   UNL A   1      32.854  22.148  27.490  1.00  0.00    -0.267 OA
ATOM     25  H   UNL A   1      31.580  23.688  26.183  1.00  0.00     0.192 HD
BRANCH  23  26
ATOM     26  C   UNL A   1      34.718  22.547  26.147  1.00  0.00     0.082 A 
ATOM     27  C   UNL A   1      34.841  20.201  24.890  1.00  0.00     0.088 C 
ATOM     28  C   UNL A   1      35.297  21.474  25.481  1.00  0.00     0.113 A 
ATOM     29  O   UNL A   1      36.629  21.706  25.283  1.00  0.00    -0.469 OA
ATOM     30  C   UNL A   1      36.908  22.943  25.746  1.00  0.00     0.196 A 
ATOM     31  C   UNL A   1      35.775  23.512  26.263  1.00  0.00     0.056 A 
ENDBRANCH  23  26
ENDBRANCH  15  22
ENDBRANCH   9  14
ENDBRANCH   7   8
ENDBRANCH   5   7
ENDBRANCH   3   5
ENDBRANCH   2   3
ENDBRANCH   1   2
BRANCH   1  32
ATOM     32  C   UNL A   1      36.082  32.878  32.325  1.00  0.00     0.275 C 
BRANCH  32  33
ATOM     33  O   UNL A   1      36.929  32.301  31.314  1.00  0.00    -0.458 OA
BRANCH  33  34
ATOM     34  C   UNL A   1      36.786  30.964  31.150  1.00  0.00     0.338 C 
ATOM     35  O   UNL A   1      35.776  30.308  31.331  1.00  0.00    -0.246 OA
BRANCH  34  36
ATOM     36  C   UNL A   1      38.008  30.393  30.564  1.00  0.00     0.060 A 
ATOM     37  C   UNL A   1      38.964  29.870  31.437  1.00  0.00     0.016 A 
ATOM     38  C   UNL A   1      38.264  30.462  29.196  1.00  0.00     0.016 A 
ATOM     39  C   UNL A   1      40.196  29.443  30.959  1.00  0.00     0.010 A 
ATOM     40  C   UNL A   1      39.498  30.014  28.709  1.00  0.00     0.010 A 
ATOM     41  C   UNL A   1      40.476  29.519  29.591  1.00  0.00    -0.014 A 
BRANCH  41  42
ATOM     42  C   UNL A   1      41.815  29.116  29.107  1.00  0.00     0.031 A 
ATOM     43  C   UNL A   1      42.933  30.118  29.087  1.00  0.00     0.074 A 
ATOM     44  C   UNL A   1      42.031  27.841  28.733  1.00  0.00     0.049 A 
ATOM     45  N   UNL A   1      44.149  29.989  28.625  1.00  0.00    -0.248 NA
ATOM     46  C   UNL A   1      42.643  31.440  29.665  1.00  0.00     0.031 C 
ATOM     47  C   UNL A   1      41.034  26.770  28.771  1.00  0.00     0.029 A 
ATOM     48  N   UNL A   1      43.160  27.232  28.248  1.00  0.00    -0.354 N 
ATOM     49  C   UNL A   1      44.763  31.216  28.830  1.00  0.00     0.074 A 
ATOM     50  C   UNL A   1      43.784  32.082  29.453  1.00  0.00     0.031 C 
ATOM     51  C   UNL A   1      41.597  25.634  28.327  1.00  0.00     0.029 A 
ATOM     52  C   UNL A   1      42.974  25.908  27.928  1.00  0.00     0.049 A 
ATOM     53  H   UNL A   1      44.021  27.697  28.140  1.00  0.00     0.167 HD
ATOM     54  C   UNL A   1      46.031  31.584  28.526  1.00  0.00     0.037 A 
ATOM     55  C   UNL A   1      43.810  25.027  27.349  1.00  0.00     0.037 A 
ATOM     56  C   UNL A   1      47.001  30.708  27.923  1.00  0.00     0.049 A 
ATOM     57  C   UNL A   1      45.195  25.474  26.973  1.00  0.00     0.074 A 
ATOM     58  C   UNL A   1      48.311  30.983  27.573  1.00  0.00     0.029 A 
ATOM     59  N   UNL A   1      46.767  29.382  27.586  1.00  0.00    -0.354 N 
ATOM     60  N   UNL A   1      45.756  26.648  27.144  1.00  0.00    -0.248 NA
ATOM     61  C   UNL A   1      46.058  24.484  26.315  1.00  0.00     0.031 C 
ATOM     62  C   UNL A   1      48.860  29.833  26.995  1.00  0.00     0.029 A 
ATOM     63  C   UNL A   1      47.904  28.830  27.018  1.00  0.00     0.049 A 
ATOM     64  H   UNL A   1      45.918  28.905  27.729  1.00  0.00     0.167 HD
ATOM     65  C   UNL A   1      47.041  26.535  26.628  1.00  0.00     0.074 A 
ATOM     66  C   UNL A   1      47.180  25.173  26.151  1.00  0.00     0.031 C 
ATOM     67  C   UNL A   1      48.018  27.471  26.552  1.00  0.00     0.037 A 
BRANCH  54  68
ATOM     68  C   UNL A   1      46.426  33.006  28.807  1.00  0.00     0.058 A 
ATOM     69  C   UNL A   1      46.253  34.024  27.856  1.00  0.00     0.135 A 
ATOM     70  C   UNL A   1      46.969  33.356  30.053  1.00  0.00     0.135 A 
ATOM     71  F   UNL A   1      45.758  33.738  26.642  1.00  0.00    -0.206 F 
ATOM     72  C   UNL A   1      46.627  35.337  28.125  1.00  0.00     0.059 A 
ATOM     73  C   UNL A   1      47.329  34.667  30.350  1.00  0.00     0.059 A 
ATOM     74  F   UNL A   1      47.159  32.419  30.995  1.00  0.00    -0.206 F 
ATOM     75  C   UNL A   1      47.168  35.648  29.374  1.00  0.00     0.060 A 
BRANCH  75  76
ATOM     76  S   UNL A   1      47.653  37.355  29.708  1.00  0.00     0.124 S 
ATOM     77  O   UNL A   1      49.007  37.383  29.162  1.00  0.00    -0.237 OA
ATOM     78  O   UNL A   1      46.655  38.118  28.966  1.00  0.00    -0.237 OA
ATOM     79  O   UNL A   1      47.561  37.456  31.161  1.00  0.00    -0.744 OA
ENDBRANCH  75  76
ENDBRANCH  54  68
BRANCH  55  80
ATOM     80  C   UNL A   1      43.346  23.646  27.060  1.00  0.00     0.058 A 
ATOM     81  C   UNL A   1      42.981  23.259  25.764  1.00  0.00     0.135 A 
ATOM     82  C   UNL A   1      43.272  22.681  28.077  1.00  0.00     0.135 A 
ATOM     83  F   UNL A   1      43.027  24.149  24.760  1.00  0.00    -0.206 F 
ATOM     84  C   UNL A   1      42.550  21.967  25.485  1.00  0.00     0.059 A 
ATOM     85  C   UNL A   1      42.866  21.377  27.820  1.00  0.00     0.059 A 
ATOM     86  F   UNL A   1      43.621  22.999  29.334  1.00  0.00    -0.206 F 
ATOM     87  C   UNL A   1      42.496  21.031  26.520  1.00  0.00     0.060 A 
BRANCH  87  88
ATOM     88  S   UNL A   1      41.985  19.341  26.143  1.00  0.00     0.124 S 
ATOM     89  O   UNL A   1      40.550  19.507  25.943  1.00  0.00    -0.237 OA
ATOM     90  O   UNL A   1      42.765  19.039  24.947  1.00  0.00    -0.237 OA
ATOM     91  O   UNL A   1      42.375  18.599  27.339  1.00  0.00    -0.744 OA
ENDBRANCH  87  88
ENDBRANCH  55  80
BRANCH  67  92
ATOM     92  C   UNL A   1      49.327  27.048  25.952  1.00  0.00     0.058 A 
ATOM     93  C   UNL A   1      49.579  27.178  24.578  1.00  0.00     0.135 A 
ATOM     94  C   UNL A   1      50.356  26.549  26.767  1.00  0.00     0.135 A 
ATOM     95  F   UNL A   1      48.624  27.643  23.757  1.00  0.00    -0.206 F 
ATOM     96  C   UNL A   1      50.803  26.811  24.027  1.00  0.00     0.059 A 
ATOM     97  C   UNL A   1      51.594  26.195  26.241  1.00  0.00     0.059 A 
ATOM     98  F   UNL A   1      50.166  26.414  28.088  1.00  0.00    -0.206 F 
ATOM     99  C   UNL A   1      51.804  26.319  24.868  1.00  0.00     0.060 A 
BRANCH  99 100
ATOM    100  S   UNL A   1      53.401  25.876  24.150  1.00  0.00     0.124 S 
ATOM    101  O   UNL A   1      53.127  26.010  22.723  1.00  0.00    -0.237 OA
ATOM    102  O   UNL A   1      54.292  26.880  24.722  1.00  0.00    -0.237 OA
ATOM    103  O   UNL A   1      53.617  24.512  24.624  1.00  0.00    -0.744 OA
ENDBRANCH  99 100
ENDBRANCH  67  92
ENDBRANCH  41  42
ENDBRANCH  34  36
ENDBRANCH  33  34
ENDBRANCH  32  33
ENDBRANCH   1  32
TORSDOF 19
ENDMDL
MODEL 3
REMARK VINA RESULT:     -11.6      0.625      7.971
REMARK SMILES Cc1occc1C(=O)NN1C(=O)/C(=C\c2ccc(O[C@H](C)C(=O)OCCOC(=O)c3ccc(-c4c5nc(c(-c6c(F)cc(S(=O)(=O)[O-])cc6F)c6ccc([nH]6)c(-c6c(F)cc(S(=O)(=O)[O-])cc6F)c6nc(c(-c7c(F)cc(S(=O)(=O)[O-])cc7F)c7ccc4[nH]7)C=C6)C=C5)cc3)cc2)SC1=S
REMARK SMILES IDX 25 1 24 2 22 3 23 4 20 5 21 6 19 7 18 8 15 9 16 10 97 11
REMARK SMILES IDX 17 12 96 13 14 14 10 15 11 16 99 17 12 18 13 19 98 20 100 21
REMARK SMILES IDX 9 22 7 23 8 24 6 26 1 27 2 28 3 29 4 30 5 31 26 32 27 33
REMARK SMILES IDX 28 34 29 35 30 36 31 37 95 38 32 39 94 40 33 41 34 42 35 43
REMARK SMILES IDX 88 44 36 45 93 46 87 47 89 48 37 49 92 50 86 51 85 52 38 54
REMARK SMILES IDX 72 55 51 56 71 57 52 58 55 59 70 60 90 61 53 62 54 63 69 65
REMARK SMILES IDX 91 66 56 67 39 68 40 69 49 70 41 71 42 72 48 73 50 74 43 75
REMARK SMILES IDX 44 76 45 77 46 78 47 79 73 80 74 81 83 82 75 83 76 84 82 85
REMARK SMILES IDX 84 86 77 87 78 88 79 89 80 90 81 91 57 92 58 93 67 94 59 95
REMARK SMILES IDX 60 96 66 97 68 98 61 99 62 100 63 101 64 102 65 103
REMARK H PARENT 9 25 89 53 55 64
REMARK Flexibility Score: inf
ROOT
ATOM      1  C   UNL A   1      42.695  21.927  25.754  1.00  0.00     0.274 C 
ENDROOT
BRANCH   1   2
ATOM      2  O   UNL A   1      41.631  21.875  26.724  1.00  0.00    -0.459 OA
BRANCH   2   3
ATOM      3  C   UNL A   1      40.579  21.079  26.391  1.00  0.00     0.347 C 
ATOM      4  O   UNL A   1      40.679  19.896  26.082  1.00  0.00    -0.248 OA
BRANCH   3   5
ATOM      5  C   UNL A   1      39.243  21.819  26.395  1.00  0.00     0.279 C 
ATOM      6  C   UNL A   1      39.287  23.313  26.723  1.00  0.00     0.066 C 
BRANCH   5   7
ATOM      7  O   UNL A   1      38.444  21.409  25.289  1.00  0.00    -0.479 OA
BRANCH   7   8
ATOM      8  C   UNL A   1      37.182  21.852  25.072  1.00  0.00     0.120 A 
ATOM      9  C   UNL A   1      34.704  22.769  24.125  1.00  0.00    -0.024 A 
ATOM     10  C   UNL A   1      34.769  21.778  25.108  1.00  0.00     0.012 A 
ATOM     11  C   UNL A   1      35.883  23.409  23.741  1.00  0.00     0.012 A 
ATOM     12  C   UNL A   1      36.004  21.339  25.596  1.00  0.00     0.047 A 
ATOM     13  C   UNL A   1      37.114  22.930  24.189  1.00  0.00     0.047 A 
BRANCH   9  14
ATOM     14  C   UNL A   1      33.403  23.058  23.508  1.00  0.00     0.029 C 
ATOM     15  N   UNL A   1      31.293  25.264  25.482  1.00  0.00    -0.198 N 
ATOM     16  C   UNL A   1      32.544  24.727  25.231  1.00  0.00     0.285 C 
ATOM     17  C   UNL A   1      30.377  25.273  24.454  1.00  0.00     0.168 C 
ATOM     18  O   UNL A   1      33.531  24.932  25.921  1.00  0.00    -0.266 OA
ATOM     19  C   UNL A   1      32.492  23.928  23.971  1.00  0.00     0.082 C 
ATOM     20  S   UNL A   1      31.004  24.267  23.142  1.00  0.00    -0.052 SA
ATOM     21  S   UNL A   1      28.919  26.075  24.372  1.00  0.00    -0.050 S 
BRANCH  15  22
ATOM     22  N   UNL A   1      31.152  25.988  26.662  1.00  0.00    -0.254 N 
ATOM     23  C   UNL A   1      31.326  27.341  26.836  1.00  0.00     0.273 C 
ATOM     24  O   UNL A   1      30.980  27.816  27.921  1.00  0.00    -0.267 OA
ATOM     25  H   UNL A   1      30.899  25.473  27.462  1.00  0.00     0.192 HD
BRANCH  23  26
ATOM     26  C   UNL A   1      32.002  28.186  25.858  1.00  0.00     0.082 A 
ATOM     27  C   UNL A   1      34.550  28.560  26.539  1.00  0.00     0.088 C 
ATOM     28  C   UNL A   1      33.297  28.680  25.769  1.00  0.00     0.113 A 
ATOM     29  O   UNL A   1      33.441  29.424  24.632  1.00  0.00    -0.469 OA
ATOM     30  C   UNL A   1      32.280  29.361  23.946  1.00  0.00     0.196 A 
ATOM     31  C   UNL A   1      31.374  28.600  24.634  1.00  0.00     0.056 A 
ENDBRANCH  23  26
ENDBRANCH  15  22
ENDBRANCH   9  14
ENDBRANCH   7   8
ENDBRANCH   5   7
ENDBRANCH   3   5
ENDBRANCH   2   3
ENDBRANCH   1   2
BRANCH   1  32
ATOM     32  C   UNL A   1      43.264  23.341  25.593  1.00  0.00     0.275 C 
BRANCH  32  33
ATOM     33  O   UNL A   1      42.762  24.251  26.589  1.00  0.00    -0.458 OA
BRANCH  33  34
ATOM     34  C   UNL A   1      42.430  25.477  26.120  1.00  0.00     0.338 C 
ATOM     35  O   UNL A   1      42.386  25.828  24.954  1.00  0.00    -0.246 OA
BRANCH  34  36
ATOM     36  C   UNL A   1      41.969  26.333  27.223  1.00  0.00     0.060 A 
ATOM     37  C   UNL A   1      42.645  27.535  27.439  1.00  0.00     0.016 A 
ATOM     38  C   UNL A   1      40.964  25.921  28.097  1.00  0.00     0.016 A 
ATOM     39  C   UNL A   1      42.351  28.321  28.545  1.00  0.00     0.010 A 
ATOM     40  C   UNL A   1      40.652  26.722  29.203  1.00  0.00     0.010 A 
ATOM     41  C   UNL A   1      41.356  27.916  29.440  1.00  0.00    -0.014 A 
BRANCH  41  42
ATOM     42  C   UNL A   1      41.097  28.734  30.646  1.00  0.00     0.031 A 
ATOM     43  C   UNL A   1      39.980  29.737  30.640  1.00  0.00     0.074 A 
ATOM     44  C   UNL A   1      41.836  28.539  31.754  1.00  0.00     0.049 A 
ATOM     45  N   UNL A   1      39.644  30.605  31.558  1.00  0.00    -0.248 NA
ATOM     46  C   UNL A   1      39.126  29.766  29.441  1.00  0.00     0.031 C 
ATOM     47  C   UNL A   1      42.905  27.550  31.891  1.00  0.00     0.029 A 
ATOM     48  N   UNL A   1      41.798  29.164  32.974  1.00  0.00    -0.354 N 
ATOM     49  C   UNL A   1      38.560  31.301  31.042  1.00  0.00     0.074 A 
ATOM     50  C   UNL A   1      38.296  30.760  29.726  1.00  0.00     0.031 C 
ATOM     51  C   UNL A   1      43.423  27.635  33.128  1.00  0.00     0.029 A 
ATOM     52  C   UNL A   1      42.757  28.715  33.850  1.00  0.00     0.049 A 
ATOM     53  H   UNL A   1      41.147  29.867  33.201  1.00  0.00     0.167 HD
ATOM     54  C   UNL A   1      37.850  32.301  31.618  1.00  0.00     0.037 A 
ATOM     55  C   UNL A   1      43.083  29.149  35.082  1.00  0.00     0.037 A 
ATOM     56  C   UNL A   1      38.111  32.818  32.937  1.00  0.00     0.049 A 
ATOM     57  C   UNL A   1      42.314  30.294  35.679  1.00  0.00     0.074 A 
ATOM     58  C   UNL A   1      37.451  33.829  33.612  1.00  0.00     0.029 A 
ATOM     59  N   UNL A   1      39.110  32.357  33.783  1.00  0.00    -0.354 N 
ATOM     60  N   UNL A   1      41.309  30.966  35.169  1.00  0.00    -0.248 NA
ATOM     61  C   UNL A   1      42.728  30.749  37.013  1.00  0.00     0.031 C 
ATOM     62  C   UNL A   1      38.072  34.003  34.854  1.00  0.00     0.029 A 
ATOM     63  C   UNL A   1      39.095  33.074  34.968  1.00  0.00     0.049 A 
ATOM     64  H   UNL A   1      39.737  31.628  33.572  1.00  0.00     0.167 HD
ATOM     65  C   UNL A   1      40.962  31.914  36.123  1.00  0.00     0.074 A 
ATOM     66  C   UNL A   1      41.855  31.720  37.248  1.00  0.00     0.031 C 
ATOM     67  C   UNL A   1      39.994  32.862  36.074  1.00  0.00     0.037 A 
BRANCH  54  68
ATOM     68  C   UNL A   1      36.748  32.924  30.810  1.00  0.00     0.058 A 
ATOM     69  C   UNL A   1      37.005  33.910  29.845  1.00  0.00     0.135 A 
ATOM     70  C   UNL A   1      35.418  32.513  30.991  1.00  0.00     0.135 A 
ATOM     71  F   UNL A   1      38.257  34.352  29.648  1.00  0.00    -0.206 F 
ATOM     72  C   UNL A   1      35.977  34.484  29.104  1.00  0.00     0.059 A 
ATOM     73  C   UNL A   1      34.377  33.058  30.246  1.00  0.00     0.059 A 
ATOM     74  F   UNL A   1      35.119  31.576  31.904  1.00  0.00    -0.206 F 
ATOM     75  C   UNL A   1      34.665  34.055  29.315  1.00  0.00     0.060 A 
BRANCH  75  76
ATOM     76  S   UNL A   1      33.339  34.811  28.350  1.00  0.00     0.124 S 
ATOM     77  O   UNL A   1      34.098  35.603  27.386  1.00  0.00    -0.237 OA
ATOM     78  O   UNL A   1      32.642  33.649  27.807  1.00  0.00    -0.237 OA
ATOM     79  O   UNL A   1      32.593  35.578  29.342  1.00  0.00    -0.744 OA
ENDBRANCH  75  76
ENDBRANCH  54  68
BRANCH  55  80
ATOM     80  C   UNL A   1      44.210  28.517  35.815  1.00  0.00     0.058 A 
ATOM     81  C   UNL A   1      45.528  28.961  35.642  1.00  0.00     0.135 A 
ATOM     82  C   UNL A   1      43.986  27.463  36.715  1.00  0.00     0.135 A 
ATOM     83  F   UNL A   1      45.792  29.959  34.785  1.00  0.00    -0.206 F 
ATOM     84  C   UNL A   1      46.588  28.377  36.328  1.00  0.00     0.059 A 
ATOM     85  C   UNL A   1      45.026  26.879  37.430  1.00  0.00     0.059 A 
ATOM     86  F   UNL A   1      42.740  27.010  36.925  1.00  0.00    -0.206 F 
ATOM     87  C   UNL A   1      46.326  27.337  37.221  1.00  0.00     0.060 A 
BRANCH  87  88
ATOM     88  S   UNL A   1      47.699  26.617  38.148  1.00  0.00     0.124 S 
ATOM     89  O   UNL A   1      48.487  26.011  37.081  1.00  0.00    -0.237 OA
ATOM     90  O   UNL A   1      48.289  27.788  38.790  1.00  0.00    -0.237 OA
ATOM     91  O   UNL A   1      47.037  25.684  39.055  1.00  0.00    -0.744 OA
ENDBRANCH  87  88
ENDBRANCH  55  80
BRANCH  67  92
ATOM     92  C   UNL A   1      39.837  33.744  37.278  1.00  0.00     0.058 A 
ATOM     93  C   UNL A   1      40.524  34.963  37.387  1.00  0.00     0.135 A 
ATOM     94  C   UNL A   1      38.959  33.387  38.314  1.00  0.00     0.135 A 
ATOM     95  F   UNL A   1      41.381  35.344  36.427  1.00  0.00    -0.206 F 
ATOM     96  C   UNL A   1      40.357  35.792  38.492  1.00  0.00     0.059 A 
ATOM     97  C   UNL A   1      38.761  34.210  39.417  1.00  0.00     0.059 A 
ATOM     98  F   UNL A   1      38.274  32.235  38.251  1.00  0.00    -0.206 F 
ATOM     99  C   UNL A   1      39.474  35.406  39.502  1.00  0.00     0.060 A 
BRANCH  99 100
ATOM    100  S   UNL A   1      39.239  36.504  40.917  1.00  0.00     0.124 S 
ATOM    101  O   UNL A   1      38.056  35.923  41.544  1.00  0.00    -0.237 OA
ATOM    102  O   UNL A   1      40.489  36.343  41.652  1.00  0.00    -0.237 OA
ATOM    103  O   UNL A   1      39.045  37.813  40.299  1.00  0.00    -0.744 OA
ENDBRANCH  99 100
ENDBRANCH  67  92
ENDBRANCH  41  42
ENDBRANCH  34  36
ENDBRANCH  33  34
ENDBRANCH  32  33
ENDBRANCH   1  32
TORSDOF 19
ENDMDL
