MODEL 1
REMARK VINA RESULT:     -11.6      0.000      0.000
REMARK SMILES N#Cc1ccc(C[N@H+]2CCCC[C@H]2C(=O)OCCOC(=O)c2ccc(-c3c4nc(c(-c5c(F)cc(S(=O)(=O)[O-])cc5F)c5ccc([nH]5)c(-c5c(F)cc(S(=O)(=O)[O-])cc5F)c5nc(c(-c6c(F)cc(S(=O)(=O)[O-])cc6F)c6ccc3[nH]6)C=C5)C=C4)cc2)c(F)c1
REMARK SMILES IDX 17 1 16 2 14 3 15 4 13 5 8 6 9 7 10 9 12 10 11 11 7 12 6 13
REMARK SMILES IDX 3 14 4 15 90 16 5 17 88 18 89 19 2 20 1 21 18 22 19 23 20 24
REMARK SMILES IDX 21 25 22 26 23 27 87 28 24 29 86 30 25 31 26 32 27 33 80 34
REMARK SMILES IDX 28 35 85 36 79 37 81 38 29 39 84 40 78 41 77 42 30 44 64 45
REMARK SMILES IDX 43 46 63 47 44 48 47 49 62 50 82 51 45 52 46 53 61 55 83 56
REMARK SMILES IDX 48 57 31 58 32 59 41 60 33 61 34 62 40 63 42 64 35 65 36 66
REMARK SMILES IDX 37 67 38 68 39 69 65 70 66 71 75 72 67 73 68 74 74 75 76 76
REMARK SMILES IDX 69 77 70 78 71 79 72 80 73 81 49 82 50 83 59 84 51 85 52 86
REMARK SMILES IDX 58 87 60 88 53 89 54 90 55 91 56 92 57 93
REMARK H PARENT 8 8 81 43 47 54
REMARK Flexibility Score: inf
ROOT
ATOM      1  C   UNL A   1      31.827  26.882  26.839  1.00  0.00     0.274 C 
ENDROOT
BRANCH   1   2
ATOM      2  O   UNL A   1      32.056  25.904  25.787  1.00  0.00    -0.458 OA
BRANCH   2   3
ATOM      3  C   UNL A   1      30.972  25.116  25.611  1.00  0.00     0.365 C 
ATOM      4  O   UNL A   1      30.621  24.371  26.509  1.00  0.00    -0.245 OA
BRANCH   3   5
ATOM      5  C   UNL A   1      30.281  25.128  24.240  1.00  0.00     0.295 C 
ATOM      6  N   UNL A   1      30.646  26.345  23.449  1.00  0.00    -0.319 N 
ATOM      7  C   UNL A   1      32.057  26.340  23.040  1.00  0.00     0.263 C 
ATOM      8  H   UNL A   1      30.099  26.233  22.595  1.00  0.00     0.349 HD
ATOM      9  C   UNL A   1      32.552  25.056  22.358  1.00  0.00     0.062 C 
ATOM     10  C   UNL A   1      30.639  23.870  23.432  1.00  0.00     0.078 C 
ATOM     11  C   UNL A   1      32.128  23.802  23.111  1.00  0.00     0.013 C 
BRANCH   6  12
ATOM     12  C   UNL A   1      30.066  27.675  23.854  1.00  0.00     0.302 C 
BRANCH  12  13
ATOM     13  C   UNL A   1      29.446  28.664  22.858  1.00  0.00     0.042 A 
ATOM     14  C   UNL A   1      28.396  30.968  21.585  1.00  0.00     0.055 A 
ATOM     15  C   UNL A   1      29.730  30.612  21.391  1.00  0.00     0.020 A 
ATOM     16  C   UNL A   1      27.544  30.062  22.215  1.00  0.00     0.059 A 
ATOM     17  C   UNL A   1      30.237  29.441  21.990  1.00  0.00     0.014 A 
ATOM     18  C   UNL A   1      28.069  28.913  22.821  1.00  0.00     0.133 A 
ATOM     19  F   UNL A   1      27.233  28.138  23.527  1.00  0.00    -0.206 F 
BRANCH  14  20
ATOM     20  C   UNL A   1      27.923  32.283  21.243  1.00  0.00     0.099 C 
ATOM     21  N   UNL A   1      27.589  33.366  21.010  1.00  0.00    -0.192 NA
ENDBRANCH  14  20
ENDBRANCH  12  13
ENDBRANCH   6  12
ENDBRANCH   3   5
ENDBRANCH   2   3
ENDBRANCH   1   2
BRANCH   1  22
ATOM     22  C   UNL A   1      32.502  28.276  26.658  1.00  0.00     0.275 C 
BRANCH  22  23
ATOM     23  O   UNL A   1      33.824  28.435  27.260  1.00  0.00    -0.458 OA
BRANCH  23  24
ATOM     24  C   UNL A   1      34.189  29.694  27.639  1.00  0.00     0.338 C 
ATOM     25  O   UNL A   1      33.440  30.662  27.665  1.00  0.00    -0.246 OA
BRANCH  24  26
ATOM     26  C   UNL A   1      35.601  29.816  28.138  1.00  0.00     0.060 A 
ATOM     27  C   UNL A   1      36.605  30.130  27.246  1.00  0.00     0.016 A 
ATOM     28  C   UNL A   1      36.007  29.317  29.373  1.00  0.00     0.016 A 
ATOM     29  C   UNL A   1      37.938  29.760  27.446  1.00  0.00     0.010 A 
ATOM     30  C   UNL A   1      37.386  29.129  29.659  1.00  0.00     0.010 A 
ATOM     31  C   UNL A   1      38.380  29.295  28.672  1.00  0.00    -0.014 A 
BRANCH  31  32
ATOM     32  C   UNL A   1      39.825  28.916  28.855  1.00  0.00     0.031 A 
ATOM     33  C   UNL A   1      40.794  29.935  29.401  1.00  0.00     0.074 A 
ATOM     34  C   UNL A   1      40.295  27.669  28.614  1.00  0.00     0.049 A 
ATOM     35  N   UNL A   1      42.100  29.953  29.350  1.00  0.00    -0.248 NA
ATOM     36  C   UNL A   1      40.204  31.095  30.087  1.00  0.00     0.031 C 
ATOM     37  C   UNL A   1      39.491  26.500  28.247  1.00  0.00     0.029 A 
ATOM     38  N   UNL A   1      41.579  27.164  28.642  1.00  0.00    -0.354 N 
ATOM     39  C   UNL A   1      42.485  31.171  29.902  1.00  0.00     0.074 A 
ATOM     40  C   UNL A   1      41.270  31.854  30.294  1.00  0.00     0.031 C 
ATOM     41  C   UNL A   1      40.277  25.421  28.138  1.00  0.00     0.029 A 
ATOM     42  C   UNL A   1      41.664  25.843  28.255  1.00  0.00     0.049 A 
ATOM     43  H   UNL A   1      42.360  27.697  28.914  1.00  0.00     0.167 HD
ATOM     44  C   UNL A   1      43.735  31.677  30.042  1.00  0.00     0.037 A 
ATOM     45  C   UNL A   1      42.723  25.071  27.931  1.00  0.00     0.037 A 
ATOM     46  C   UNL A   1      44.933  30.952  29.694  1.00  0.00     0.049 A 
ATOM     47  C   UNL A   1      44.094  25.684  27.957  1.00  0.00     0.074 A 
ATOM     48  C   UNL A   1      46.250  31.371  29.775  1.00  0.00     0.029 A 
ATOM     49  N   UNL A   1      44.962  29.652  29.205  1.00  0.00    -0.354 N 
ATOM     50  N   UNL A   1      44.449  26.887  28.342  1.00  0.00    -0.248 NA
ATOM     51  C   UNL A   1      45.204  24.851  27.478  1.00  0.00     0.031 C 
ATOM     52  C   UNL A   1      47.065  30.353  29.267  1.00  0.00     0.029 A 
ATOM     53  C   UNL A   1      46.267  29.267  28.947  1.00  0.00     0.049 A 
ATOM     54  H   UNL A   1      44.168  29.086  29.061  1.00  0.00     0.167 HD
ATOM     55  C   UNL A   1      45.827  26.946  28.182  1.00  0.00     0.074 A 
ATOM     56  C   UNL A   1      46.242  25.653  27.672  1.00  0.00     0.031 C 
ATOM     57  C   UNL A   1      46.671  27.975  28.441  1.00  0.00     0.037 A 
BRANCH  44  58
ATOM     58  C   UNL A   1      43.856  33.112  30.494  1.00  0.00     0.058 A 
ATOM     59  C   UNL A   1      43.879  34.195  29.603  1.00  0.00     0.135 A 
ATOM     60  C   UNL A   1      43.995  33.398  31.864  1.00  0.00     0.135 A 
ATOM     61  F   UNL A   1      43.763  33.988  28.281  1.00  0.00    -0.206 F 
ATOM     62  C   UNL A   1      44.103  35.498  30.043  1.00  0.00     0.059 A 
ATOM     63  C   UNL A   1      44.177  34.696  32.332  1.00  0.00     0.059 A 
ATOM     64  F   UNL A   1      43.976  32.406  32.769  1.00  0.00    -0.206 F 
ATOM     65  C   UNL A   1      44.260  35.736  31.410  1.00  0.00     0.060 A 
BRANCH  65  66
ATOM     66  S   UNL A   1      44.607  37.419  31.962  1.00  0.00     0.124 S 
ATOM     67  O   UNL A   1      46.061  37.474  31.834  1.00  0.00    -0.237 OA
ATOM     68  O   UNL A   1      43.856  38.223  31.003  1.00  0.00    -0.237 OA
ATOM     69  O   UNL A   1      44.098  37.443  33.330  1.00  0.00    -0.744 OA
ENDBRANCH  65  66
ENDBRANCH  44  58
BRANCH  45  70
ATOM     70  C   UNL A   1      42.521  23.659  27.492  1.00  0.00     0.058 A 
ATOM     71  C   UNL A   1      42.389  23.341  26.132  1.00  0.00     0.135 A 
ATOM     72  C   UNL A   1      42.489  22.594  28.411  1.00  0.00     0.135 A 
ATOM     73  F   UNL A   1      42.387  24.319  25.214  1.00  0.00    -0.206 F 
ATOM     74  C   UNL A   1      42.250  22.026  25.697  1.00  0.00     0.059 A 
ATOM     75  C   UNL A   1      42.384  21.269  27.998  1.00  0.00     0.059 A 
ATOM     76  F   UNL A   1      42.607  22.836  29.726  1.00  0.00    -0.206 F 
ATOM     77  C   UNL A   1      42.267  20.995  26.637  1.00  0.00     0.060 A 
BRANCH  77  78
ATOM     78  S   UNL A   1      42.188  19.288  26.049  1.00  0.00     0.124 S 
ATOM     79  O   UNL A   1      42.611  18.547  27.230  1.00  0.00    -0.237 OA
ATOM     80  O   UNL A   1      40.780  19.161  25.684  1.00  0.00    -0.237 OA
ATOM     81  O   UNL A   1      43.122  19.275  24.926  1.00  0.00    -0.744 OA
ENDBRANCH  77  78
ENDBRANCH  45  70
BRANCH  57  82
ATOM     82  C   UNL A   1      48.142  27.730  28.234  1.00  0.00     0.058 A 
ATOM     83  C   UNL A   1      48.950  27.152  29.225  1.00  0.00     0.135 A 
ATOM     84  C   UNL A   1      48.740  28.047  27.003  1.00  0.00     0.135 A 
ATOM     85  F   UNL A   1      48.434  26.843  30.425  1.00  0.00    -0.206 F 
ATOM     86  C   UNL A   1      50.305  26.919  29.010  1.00  0.00     0.059 A 
ATOM     87  C   UNL A   1      50.083  27.788  26.754  1.00  0.00     0.059 A 
ATOM     88  F   UNL A   1      48.012  28.598  26.018  1.00  0.00    -0.206 F 
ATOM     89  C   UNL A   1      50.860  27.234  27.769  1.00  0.00     0.060 A 
BRANCH  89  90
ATOM     90  S   UNL A   1      52.610  26.888  27.492  1.00  0.00     0.124 S 
ATOM     91  O   UNL A   1      52.559  25.540  26.936  1.00  0.00    -0.237 OA
ATOM     92  O   UNL A   1      52.989  27.945  26.559  1.00  0.00    -0.237 OA
ATOM     93  O   UNL A   1      53.194  26.996  28.825  1.00  0.00    -0.744 OA
ENDBRANCH  89  90
ENDBRANCH  57  82
ENDBRANCH  31  32
ENDBRANCH  24  26
ENDBRANCH  23  24
ENDBRANCH  22  23
ENDBRANCH   1  22
TORSDOF 17
ENDMDL
MODEL 2
REMARK VINA RESULT:     -11.5      2.467      4.551
REMARK SMILES N#Cc1ccc(C[N@H+]2CCCC[C@H]2C(=O)OCCOC(=O)c2ccc(-c3c4nc(c(-c5c(F)cc(S(=O)(=O)[O-])cc5F)c5ccc([nH]5)c(-c5c(F)cc(S(=O)(=O)[O-])cc5F)c5nc(c(-c6c(F)cc(S(=O)(=O)[O-])cc6F)c6ccc3[nH]6)C=C5)C=C4)cc2)c(F)c1
REMARK SMILES IDX 17 1 16 2 14 3 15 4 13 5 8 6 9 7 10 9 12 10 11 11 7 12 6 13
REMARK SMILES IDX 3 14 4 15 90 16 5 17 88 18 89 19 2 20 1 21 18 22 19 23 20 24
REMARK SMILES IDX 21 25 22 26 23 27 87 28 24 29 86 30 25 31 26 32 27 33 80 34
REMARK SMILES IDX 28 35 85 36 79 37 81 38 29 39 84 40 78 41 77 42 30 44 64 45
REMARK SMILES IDX 43 46 63 47 44 48 47 49 62 50 82 51 45 52 46 53 61 55 83 56
REMARK SMILES IDX 48 57 31 58 32 59 41 60 33 61 34 62 40 63 42 64 35 65 36 66
REMARK SMILES IDX 37 67 38 68 39 69 65 70 66 71 75 72 67 73 68 74 74 75 76 76
REMARK SMILES IDX 69 77 70 78 71 79 72 80 73 81 49 82 50 83 59 84 51 85 52 86
REMARK SMILES IDX 58 87 60 88 53 89 54 90 55 91 56 92 57 93
REMARK H PARENT 8 8 81 43 47 54
REMARK Flexibility Score: inf
ROOT
ATOM      1  C   UNL A   1      33.401  26.729  25.914  1.00  0.00     0.274 C 
ENDROOT
BRANCH   1   2
ATOM      2  O   UNL A   1      34.112  26.080  24.824  1.00  0.00    -0.458 OA
BRANCH   2   3
ATOM      3  C   UNL A   1      34.070  24.735  24.948  1.00  0.00     0.365 C 
ATOM      4  O   UNL A   1      34.451  24.217  25.983  1.00  0.00    -0.245 OA
BRANCH   3   5
ATOM      5  C   UNL A   1      33.629  23.908  23.733  1.00  0.00     0.295 C 
ATOM      6  N   UNL A   1      32.398  23.109  24.027  1.00  0.00    -0.319 N 
ATOM      7  C   UNL A   1      31.216  23.959  24.218  1.00  0.00     0.263 C 
ATOM      8  H   UNL A   1      32.247  22.597  23.158  1.00  0.00     0.349 HD
ATOM      9  C   UNL A   1      30.960  25.006  23.123  1.00  0.00     0.062 C 
ATOM     10  C   UNL A   1      33.370  24.811  22.516  1.00  0.00     0.078 C 
ATOM     11  C   UNL A   1      32.219  25.780  22.759  1.00  0.00     0.013 C 
BRANCH   6  12
ATOM     12  C   UNL A   1      32.512  21.902  24.922  1.00  0.00     0.302 C 
BRANCH  12  13
ATOM     13  C   UNL A   1      33.193  20.595  24.493  1.00  0.00     0.042 A 
ATOM     14  C   UNL A   1      34.215  17.955  24.375  1.00  0.00     0.055 A 
ATOM     15  C   UNL A   1      32.975  18.248  23.809  1.00  0.00     0.020 A 
ATOM     16  C   UNL A   1      35.032  19.008  24.786  1.00  0.00     0.059 A 
ATOM     17  C   UNL A   1      32.490  19.571  23.831  1.00  0.00     0.014 A 
ATOM     18  C   UNL A   1      34.525  20.314  24.819  1.00  0.00     0.133 A 
ATOM     19  F   UNL A   1      35.301  21.273  25.344  1.00  0.00    -0.206 F 
BRANCH  14  20
ATOM     20  C   UNL A   1      34.609  16.595  24.632  1.00  0.00     0.099 C 
ATOM     21  N   UNL A   1      34.861  15.488  24.855  1.00  0.00    -0.192 NA
ENDBRANCH  14  20
ENDBRANCH  12  13
ENDBRANCH   6  12
ENDBRANCH   3   5
ENDBRANCH   2   3
ENDBRANCH   1   2
BRANCH   1  22
ATOM     22  C   UNL A   1      33.722  28.235  26.161  1.00  0.00     0.275 C 
BRANCH  22  23
ATOM     23  O   UNL A   1      33.920  28.633  27.553  1.00  0.00    -0.458 OA
BRANCH  23  24
ATOM     24  C   UNL A   1      34.371  29.901  27.780  1.00  0.00     0.338 C 
ATOM     25  O   UNL A   1      33.687  30.912  27.699  1.00  0.00    -0.246 OA
BRANCH  24  26
ATOM     26  C   UNL A   1      35.795  29.986  28.252  1.00  0.00     0.060 A 
ATOM     27  C   UNL A   1      36.788  30.284  27.342  1.00  0.00     0.016 A 
ATOM     28  C   UNL A   1      36.214  29.467  29.474  1.00  0.00     0.016 A 
ATOM     29  C   UNL A   1      38.116  29.882  27.513  1.00  0.00     0.010 A 
ATOM     30  C   UNL A   1      37.594  29.244  29.731  1.00  0.00     0.010 A 
ATOM     31  C   UNL A   1      38.571  29.396  28.726  1.00  0.00    -0.014 A 
BRANCH  31  32
ATOM     32  C   UNL A   1      40.010  28.983  28.877  1.00  0.00     0.031 A 
ATOM     33  C   UNL A   1      41.016  29.979  29.398  1.00  0.00     0.074 A 
ATOM     34  C   UNL A   1      40.445  27.724  28.627  1.00  0.00     0.049 A 
ATOM     35  N   UNL A   1      42.321  29.965  29.317  1.00  0.00    -0.248 NA
ATOM     36  C   UNL A   1      40.471  31.153  30.095  1.00  0.00     0.031 C 
ATOM     37  C   UNL A   1      39.604  26.575  28.280  1.00  0.00     0.029 A 
ATOM     38  N   UNL A   1      41.716  27.188  28.627  1.00  0.00    -0.354 N 
ATOM     39  C   UNL A   1      42.748  31.174  29.858  1.00  0.00     0.074 A 
ATOM     40  C   UNL A   1      41.559  31.887  30.276  1.00  0.00     0.031 C 
ATOM     41  C   UNL A   1      40.362  25.477  28.156  1.00  0.00     0.029 A 
ATOM     42  C   UNL A   1      41.761  25.865  28.240  1.00  0.00     0.049 A 
ATOM     43  H   UNL A   1      42.517  27.702  28.880  1.00  0.00     0.167 HD
ATOM     44  C   UNL A   1      44.013  31.650  29.969  1.00  0.00     0.037 A 
ATOM     45  C   UNL A   1      42.793  25.067  27.894  1.00  0.00     0.037 A 
ATOM     46  C   UNL A   1      45.185  30.895  29.594  1.00  0.00     0.049 A 
ATOM     47  C   UNL A   1      44.178  25.647  27.887  1.00  0.00     0.074 A 
ATOM     48  C   UNL A   1      46.513  31.282  29.645  1.00  0.00     0.029 A 
ATOM     49  N   UNL A   1      45.170  29.595  29.107  1.00  0.00    -0.354 N 
ATOM     50  N   UNL A   1      44.571  26.841  28.262  1.00  0.00    -0.248 NA
ATOM     51  C   UNL A   1      45.257  24.786  27.385  1.00  0.00     0.031 C 
ATOM     52  C   UNL A   1      47.291  30.244  29.120  1.00  0.00     0.029 A 
ATOM     53  C   UNL A   1      46.460  29.177  28.820  1.00  0.00     0.049 A 
ATOM     54  H   UNL A   1      44.360  29.048  28.983  1.00  0.00     0.167 HD
ATOM     55  C   UNL A   1      45.947  26.866  28.070  1.00  0.00     0.074 A 
ATOM     56  C   UNL A   1      46.318  25.563  27.553  1.00  0.00     0.031 C 
ATOM     57  C   UNL A   1      46.821  27.875  28.308  1.00  0.00     0.037 A 
BRANCH  44  58
ATOM     58  C   UNL A   1      44.179  33.082  30.415  1.00  0.00     0.058 A 
ATOM     59  C   UNL A   1      44.170  34.166  29.525  1.00  0.00     0.135 A 
ATOM     60  C   UNL A   1      44.395  33.364  31.776  1.00  0.00     0.135 A 
ATOM     61  F   UNL A   1      43.981  33.963  28.211  1.00  0.00    -0.206 F 
ATOM     62  C   UNL A   1      44.436  35.465  29.954  1.00  0.00     0.059 A 
ATOM     63  C   UNL A   1      44.620  34.658  32.234  1.00  0.00     0.059 A 
ATOM     64  F   UNL A   1      44.408  32.371  32.680  1.00  0.00    -0.206 F 
ATOM     65  C   UNL A   1      44.670  35.698  31.311  1.00  0.00     0.060 A 
BRANCH  65  66
ATOM     66  S   UNL A   1      45.070  37.375  31.845  1.00  0.00     0.124 S 
ATOM     67  O   UNL A   1      44.289  38.175  30.906  1.00  0.00    -0.237 OA
ATOM     68  O   UNL A   1      44.599  37.383  33.227  1.00  0.00    -0.237 OA
ATOM     69  O   UNL A   1      46.518  37.451  31.678  1.00  0.00    -0.744 OA
ENDBRANCH  65  66
ENDBRANCH  44  58
BRANCH  45  70
ATOM     70  C   UNL A   1      42.547  23.660  27.462  1.00  0.00     0.058 A 
ATOM     71  C   UNL A   1      42.460  23.330  26.101  1.00  0.00     0.135 A 
ATOM     72  C   UNL A   1      42.427  22.610  28.390  1.00  0.00     0.135 A 
ATOM     73  F   UNL A   1      42.542  24.295  25.173  1.00  0.00    -0.206 F 
ATOM     74  C   UNL A   1      42.281  22.017  25.676  1.00  0.00     0.059 A 
ATOM     75  C   UNL A   1      42.281  21.285  27.989  1.00  0.00     0.059 A 
ATOM     76  F   UNL A   1      42.499  22.863  29.707  1.00  0.00    -0.206 F 
ATOM     77  C   UNL A   1      42.210  20.999  26.627  1.00  0.00     0.060 A 
BRANCH  77  78
ATOM     78  S   UNL A   1      42.080  19.290  26.055  1.00  0.00     0.124 S 
ATOM     79  O   UNL A   1      40.646  19.162  25.824  1.00  0.00    -0.237 OA
ATOM     80  O   UNL A   1      42.920  19.308  24.861  1.00  0.00    -0.237 OA
ATOM     81  O   UNL A   1      42.612  18.518  27.174  1.00  0.00    -0.744 OA
ENDBRANCH  77  78
ENDBRANCH  45  70
BRANCH  57  82
ATOM     82  C   UNL A   1      48.280  27.595  28.068  1.00  0.00     0.058 A 
ATOM     83  C   UNL A   1      49.112  27.061  29.063  1.00  0.00     0.135 A 
ATOM     84  C   UNL A   1      48.842  27.831  26.802  1.00  0.00     0.135 A 
ATOM     85  F   UNL A   1      48.631  26.829  30.295  1.00  0.00    -0.206 F 
ATOM     86  C   UNL A   1      50.455  26.793  28.819  1.00  0.00     0.059 A 
ATOM     87  C   UNL A   1      50.172  27.536  26.525  1.00  0.00     0.059 A 
ATOM     88  F   UNL A   1      48.089  28.337  25.811  1.00  0.00    -0.206 F 
ATOM     89  C   UNL A   1      50.974  27.027  27.545  1.00  0.00     0.060 A 
BRANCH  89  90
ATOM     90  S   UNL A   1      52.708  26.637  27.232  1.00  0.00     0.124 S 
ATOM     91  O   UNL A   1      53.281  26.746  28.569  1.00  0.00    -0.237 OA
ATOM     92  O   UNL A   1      52.626  25.286  26.684  1.00  0.00    -0.237 OA
ATOM     93  O   UNL A   1      53.124  27.668  26.285  1.00  0.00    -0.744 OA
ENDBRANCH  89  90
ENDBRANCH  57  82
ENDBRANCH  31  32
ENDBRANCH  24  26
ENDBRANCH  23  24
ENDBRANCH  22  23
ENDBRANCH   1  22
TORSDOF 17
ENDMDL
MODEL 3
REMARK VINA RESULT:     -11.4      4.156      6.678
REMARK SMILES N#Cc1ccc(C[N@H+]2CCCC[C@H]2C(=O)OCCOC(=O)c2ccc(-c3c4nc(c(-c5c(F)cc(S(=O)(=O)[O-])cc5F)c5ccc([nH]5)c(-c5c(F)cc(S(=O)(=O)[O-])cc5F)c5nc(c(-c6c(F)cc(S(=O)(=O)[O-])cc6F)c6ccc3[nH]6)C=C5)C=C4)cc2)c(F)c1
REMARK SMILES IDX 17 1 16 2 14 3 15 4 13 5 8 6 9 7 10 9 12 10 11 11 7 12 6 13
REMARK SMILES IDX 3 14 4 15 90 16 5 17 88 18 89 19 2 20 1 21 18 22 19 23 20 24
REMARK SMILES IDX 21 25 22 26 23 27 87 28 24 29 86 30 25 31 26 32 27 33 80 34
REMARK SMILES IDX 28 35 85 36 79 37 81 38 29 39 84 40 78 41 77 42 30 44 64 45
REMARK SMILES IDX 43 46 63 47 44 48 47 49 62 50 82 51 45 52 46 53 61 55 83 56
REMARK SMILES IDX 48 57 31 58 32 59 41 60 33 61 34 62 40 63 42 64 35 65 36 66
REMARK SMILES IDX 37 67 38 68 39 69 65 70 66 71 75 72 67 73 68 74 74 75 76 76
REMARK SMILES IDX 69 77 70 78 71 79 72 80 73 81 49 82 50 83 59 84 51 85 52 86
REMARK SMILES IDX 58 87 60 88 53 89 54 90 55 91 56 92 57 93
REMARK H PARENT 8 8 81 43 47 54
REMARK Flexibility Score: inf
ROOT
ATOM      1  C   UNL A   1      34.155  34.993  28.377  1.00  0.00     0.274 C 
ENDROOT
BRANCH   1   2
ATOM      2  O   UNL A   1      34.229  35.393  29.772  1.00  0.00    -0.458 OA
BRANCH   2   3
ATOM      3  C   UNL A   1      33.000  35.653  30.271  1.00  0.00     0.365 C 
ATOM      4  O   UNL A   1      32.263  36.421  29.677  1.00  0.00    -0.245 OA
BRANCH   3   5
ATOM      5  C   UNL A   1      32.619  35.035  31.623  1.00  0.00     0.295 C 
ATOM      6  N   UNL A   1      33.816  34.490  32.337  1.00  0.00    -0.319 N 
ATOM      7  C   UNL A   1      34.733  35.551  32.774  1.00  0.00     0.263 C 
ATOM      8  H   UNL A   1      33.412  34.091  33.185  1.00  0.00     0.349 HD
ATOM      9  C   UNL A   1      34.093  36.711  33.551  1.00  0.00     0.062 C 
ATOM     10  C   UNL A   1      31.916  36.066  32.521  1.00  0.00     0.078 C 
ATOM     11  C   UNL A   1      32.831  37.232  32.876  1.00  0.00     0.013 C 
BRANCH   6  12
ATOM     12  C   UNL A   1      34.448  33.219  31.831  1.00  0.00     0.302 C 
BRANCH  12  13
ATOM     13  C   UNL A   1      35.899  32.820  32.131  1.00  0.00     0.042 A 
ATOM     14  C   UNL A   1      38.555  32.697  33.109  1.00  0.00     0.055 A 
ATOM     15  C   UNL A   1      37.546  31.968  33.738  1.00  0.00     0.020 A 
ATOM     16  C   UNL A   1      38.286  33.291  31.877  1.00  0.00     0.059 A 
ATOM     17  C   UNL A   1      36.235  31.998  33.222  1.00  0.00     0.014 A 
ATOM     18  C   UNL A   1      36.973  33.326  31.389  1.00  0.00     0.133 A 
ATOM     19  F   UNL A   1      36.741  34.020  30.266  1.00  0.00    -0.206 F 
BRANCH  14  20
ATOM     20  C   UNL A   1      39.817  32.927  33.760  1.00  0.00     0.099 C 
ATOM     21  N   UNL A   1      40.800  33.156  34.326  1.00  0.00    -0.192 NA
ENDBRANCH  14  20
ENDBRANCH  12  13
ENDBRANCH   6  12
ENDBRANCH   3   5
ENDBRANCH   2   3
ENDBRANCH   1   2
BRANCH   1  22
ATOM     22  C   UNL A   1      33.688  33.533  28.091  1.00  0.00     0.275 C 
BRANCH  22  23
ATOM     23  O   UNL A   1      34.524  32.469  28.641  1.00  0.00    -0.458 OA
BRANCH  23  24
ATOM     24  C   UNL A   1      34.322  31.206  28.163  1.00  0.00     0.338 C 
ATOM     25  O   UNL A   1      33.287  30.813  27.641  1.00  0.00    -0.246 OA
BRANCH  24  26
ATOM     26  C   UNL A   1      35.526  30.309  28.227  1.00  0.00     0.060 A 
ATOM     27  C   UNL A   1      36.058  29.985  29.457  1.00  0.00     0.016 A 
ATOM     28  C   UNL A   1      36.330  30.051  27.119  1.00  0.00     0.016 A 
ATOM     29  C   UNL A   1      37.401  29.640  29.633  1.00  0.00     0.010 A 
ATOM     30  C   UNL A   1      37.631  29.505  27.282  1.00  0.00     0.010 A 
ATOM     31  C   UNL A   1      38.216  29.342  28.555  1.00  0.00    -0.014 A 
BRANCH  31  32
ATOM     32  C   UNL A   1      39.655  28.965  28.782  1.00  0.00     0.031 A 
ATOM     33  C   UNL A   1      40.605  29.984  29.359  1.00  0.00     0.074 A 
ATOM     34  C   UNL A   1      40.134  27.718  28.553  1.00  0.00     0.049 A 
ATOM     35  N   UNL A   1      41.913  30.004  29.349  1.00  0.00    -0.248 NA
ATOM     36  C   UNL A   1      39.994  31.142  30.028  1.00  0.00     0.031 C 
ATOM     37  C   UNL A   1      39.343  26.550  28.160  1.00  0.00     0.029 A 
ATOM     38  N   UNL A   1      41.417  27.215  28.621  1.00  0.00    -0.354 N 
ATOM     39  C   UNL A   1      42.279  31.221  29.914  1.00  0.00     0.074 A 
ATOM     40  C   UNL A   1      41.051  31.902  30.269  1.00  0.00     0.031 C 
ATOM     41  C   UNL A   1      40.133  25.472  28.074  1.00  0.00     0.029 A 
ATOM     42  C   UNL A   1      41.515  25.894  28.234  1.00  0.00     0.049 A 
ATOM     43  H   UNL A   1      42.189  27.748  28.918  1.00  0.00     0.167 HD
ATOM     44  C   UNL A   1      43.523  31.728  30.094  1.00  0.00     0.037 A 
ATOM     45  C   UNL A   1      42.584  25.124  27.943  1.00  0.00     0.037 A 
ATOM     46  C   UNL A   1      44.733  31.005  29.781  1.00  0.00     0.049 A 
ATOM     47  C   UNL A   1      43.953  25.739  28.012  1.00  0.00     0.074 A 
ATOM     48  C   UNL A   1      46.046  31.425  29.905  1.00  0.00     0.029 A 
ATOM     49  N   UNL A   1      44.778  29.706  29.292  1.00  0.00    -0.354 N 
ATOM     50  N   UNL A   1      44.295  26.941  28.410  1.00  0.00    -0.248 NA
ATOM     51  C   UNL A   1      45.079  24.907  27.566  1.00  0.00     0.031 C 
ATOM     52  C   UNL A   1      46.878  30.408  29.421  1.00  0.00     0.029 A 
ATOM     53  C   UNL A   1      46.091  29.322  29.074  1.00  0.00     0.049 A 
ATOM     54  H   UNL A   1      43.990  29.139  29.123  1.00  0.00     0.167 HD
ATOM     55  C   UNL A   1      45.677  27.001  28.293  1.00  0.00     0.074 A 
ATOM     56  C   UNL A   1      46.109  25.710  27.793  1.00  0.00     0.031 C 
ATOM     57  C   UNL A   1      46.512  28.031  28.579  1.00  0.00     0.037 A 
BRANCH  44  58
ATOM     58  C   UNL A   1      43.629  33.162  30.551  1.00  0.00     0.058 A 
ATOM     59  C   UNL A   1      43.691  34.246  29.662  1.00  0.00     0.135 A 
ATOM     60  C   UNL A   1      43.712  33.448  31.926  1.00  0.00     0.135 A 
ATOM     61  F   UNL A   1      43.629  34.040  28.337  1.00  0.00    -0.206 F 
ATOM     62  C   UNL A   1      43.899  35.548  30.113  1.00  0.00     0.059 A 
ATOM     63  C   UNL A   1      43.877  34.745  32.401  1.00  0.00     0.059 A 
ATOM     64  F   UNL A   1      43.653  32.455  32.829  1.00  0.00    -0.206 F 
ATOM     65  C   UNL A   1      44.001  35.785  31.485  1.00  0.00     0.060 A 
BRANCH  65  66
ATOM     66  S   UNL A   1      44.328  37.467  32.052  1.00  0.00     0.124 S 
ATOM     67  O   UNL A   1      45.777  37.439  32.228  1.00  0.00    -0.237 OA
ATOM     68  O   UNL A   1      43.841  38.273  30.937  1.00  0.00    -0.237 OA
ATOM     69  O   UNL A   1      43.551  37.571  33.283  1.00  0.00    -0.744 OA
ENDBRANCH  65  66
ENDBRANCH  44  58
BRANCH  45  70
ATOM     70  C   UNL A   1      42.398  23.712  27.495  1.00  0.00     0.058 A 
ATOM     71  C   UNL A   1      42.350  23.391  26.131  1.00  0.00     0.135 A 
ATOM     72  C   UNL A   1      42.297  22.651  28.413  1.00  0.00     0.135 A 
ATOM     73  F   UNL A   1      42.415  24.366  25.212  1.00  0.00    -0.206 F 
ATOM     74  C   UNL A   1      42.227  22.076  25.691  1.00  0.00     0.059 A 
ATOM     75  C   UNL A   1      42.207  21.325  27.998  1.00  0.00     0.059 A 
ATOM     76  F   UNL A   1      42.334  22.896  29.732  1.00  0.00    -0.206 F 
ATOM     77  C   UNL A   1      42.174  21.048  26.634  1.00  0.00     0.060 A 
BRANCH  77  78
ATOM     78  S   UNL A   1      42.117  19.340  26.046  1.00  0.00     0.124 S 
ATOM     79  O   UNL A   1      42.598  18.609  27.211  1.00  0.00    -0.237 OA
ATOM     80  O   UNL A   1      40.700  19.178  25.730  1.00  0.00    -0.237 OA
ATOM     81  O   UNL A   1      43.011  19.351  24.892  1.00  0.00    -0.744 OA
ENDBRANCH  77  78
ENDBRANCH  45  70
BRANCH  57  82
ATOM     82  C   UNL A   1      47.988  27.789  28.418  1.00  0.00     0.058 A 
ATOM     83  C   UNL A   1      48.674  28.107  27.235  1.00  0.00     0.135 A 
ATOM     84  C   UNL A   1      48.735  27.263  29.486  1.00  0.00     0.135 A 
ATOM     85  F   UNL A   1      48.007  28.598  26.179  1.00  0.00    -0.206 F 
ATOM     86  C   UNL A   1      50.042  27.891  27.109  1.00  0.00     0.059 A 
ATOM     87  C   UNL A   1      50.109  27.074  29.395  1.00  0.00     0.059 A 
ATOM     88  F   UNL A   1      48.131  26.945  30.643  1.00  0.00    -0.206 F 
ATOM     89  C   UNL A   1      50.752  27.380  28.197  1.00  0.00     0.060 A 
BRANCH  89  90
ATOM     90  S   UNL A   1      52.534  27.143  28.032  1.00  0.00     0.124 S 
ATOM     91  O   UNL A   1      52.927  28.351  27.315  1.00  0.00    -0.237 OA
ATOM     92  O   UNL A   1      52.965  27.064  29.425  1.00  0.00    -0.237 OA
ATOM     93  O   UNL A   1      52.644  25.899  27.276  1.00  0.00    -0.744 OA
ENDBRANCH  89  90
ENDBRANCH  57  82
ENDBRANCH  31  32
ENDBRANCH  24  26
ENDBRANCH  23  24
ENDBRANCH  22  23
ENDBRANCH   1  22
TORSDOF 17
ENDMDL
