MODEL 1
REMARK VINA RESULT:     -11.1      0.000      0.000
REMARK SMILES O=C(CN(CC(=O)OCCOC(=O)c1ccc(-c2c3nc(c(-c4c(F)cc(S(=O)(=O)[O-])cc4F)c4ccc([nH]4)c(-c4c(F)cc(S(=O)(=O)[O-])cc4F)c4nc(c(-c5c(F)cc(S(=O)(=O)[O-])cc5F)c5ccc2[nH]5)C=C4)C=C3)cc1)c1ccccc1)NCc1ccccc1
REMARK SMILES IDX 9 1 8 2 6 3 7 4 5 5 4 6 3 7 2 8 1 9 86 10 87 12 88 13 89 14
REMARK SMILES IDX 93 15 90 16 92 17 91 18 80 19 81 20 85 21 82 22 84 23 83 24
REMARK SMILES IDX 10 25 11 26 12 27 13 28 14 29 15 30 79 31 16 32 78 33 17 34
REMARK SMILES IDX 18 35 19 36 72 37 20 38 77 39 71 40 73 41 21 42 76 43 70 44
REMARK SMILES IDX 69 45 22 47 56 48 35 49 55 50 36 51 39 52 54 53 74 54 37 55
REMARK SMILES IDX 38 56 53 58 75 59 40 60 23 61 24 62 33 63 25 64 26 65 32 66
REMARK SMILES IDX 34 67 27 68 28 69 29 70 30 71 31 72 57 73 58 74 67 75 59 76
REMARK SMILES IDX 60 77 66 78 68 79 61 80 62 81 63 82 64 83 65 84 41 85 42 86
REMARK SMILES IDX 51 87 43 88 44 89 50 90 52 91 45 92 46 93 47 94 48 95 49 96
REMARK H PARENT 86 11 73 46 39 57
REMARK Flexibility Score: inf
ROOT
ATOM      1  C   UNL A   1      33.675  29.535  26.646  1.00  0.00     0.274 C 
ENDROOT
BRANCH   1   2
ATOM      2  O   UNL A   1      33.178  28.501  27.518  1.00  0.00    -0.461 OA
BRANCH   2   3
ATOM      3  C   UNL A   1      31.880  28.143  27.330  1.00  0.00     0.325 C 
ATOM      4  O   UNL A   1      31.097  27.892  28.243  1.00  0.00    -0.250 OA
BRANCH   3   5
ATOM      5  C   UNL A   1      31.421  28.120  25.875  1.00  0.00     0.239 C 
BRANCH   5   6
ATOM      6  N   UNL A   1      31.259  26.803  25.253  1.00  0.00    -0.351 N 
BRANCH   6   7
ATOM      7  C   UNL A   1      30.234  25.867  25.738  1.00  0.00     0.217 C 
BRANCH   7   8
ATOM      8  C   UNL A   1      30.790  24.492  26.158  1.00  0.00     0.239 C 
ATOM      9  O   UNL A   1      31.368  24.329  27.231  1.00  0.00    -0.273 OA
ATOM     10  N   UNL A   1      30.529  23.452  25.289  1.00  0.00    -0.350 N 
ATOM     11  H   UNL A   1      29.871  23.588  24.568  1.00  0.00     0.163 HD
BRANCH  10  12
ATOM     12  C   UNL A   1      31.189  22.170  25.400  1.00  0.00     0.151 C 
BRANCH  12  13
ATOM     13  C   UNL A   1      32.632  22.148  24.962  1.00  0.00    -0.029 A 
ATOM     14  C   UNL A   1      33.670  21.698  25.787  1.00  0.00     0.005 A 
ATOM     15  C   UNL A   1      32.960  22.695  23.709  1.00  0.00     0.005 A 
ATOM     16  C   UNL A   1      34.999  21.776  25.363  1.00  0.00     0.000 A 
ATOM     17  C   UNL A   1      34.289  22.777  23.289  1.00  0.00     0.000 A 
ATOM     18  C   UNL A   1      35.309  22.317  24.116  1.00  0.00     0.000 A 
ENDBRANCH  12  13
ENDBRANCH  10  12
ENDBRANCH   7   8
ENDBRANCH   6   7
BRANCH   6  19
ATOM     19  C   UNL A   1      31.849  26.578  24.019  1.00  0.00     0.038 A 
ATOM     20  C   UNL A   1      31.064  26.360  22.884  1.00  0.00     0.026 A 
ATOM     21  C   UNL A   1      33.241  26.533  23.866  1.00  0.00     0.026 A 
ATOM     22  C   UNL A   1      31.648  26.088  21.642  1.00  0.00     0.002 A 
ATOM     23  C   UNL A   1      33.832  26.285  22.624  1.00  0.00     0.002 A 
ATOM     24  C   UNL A   1      33.033  26.054  21.511  1.00  0.00     0.000 A 
ENDBRANCH   6  19
ENDBRANCH   5   6
ENDBRANCH   3   5
ENDBRANCH   2   3
ENDBRANCH   1   2
BRANCH   1  25
ATOM     25  C   UNL A   1      34.619  30.469  27.400  1.00  0.00     0.275 C 
BRANCH  25  26
ATOM     26  O   UNL A   1      35.357  29.730  28.388  1.00  0.00    -0.458 OA
BRANCH  26  27
ATOM     27  C   UNL A   1      36.129  30.484  29.201  1.00  0.00     0.338 C 
ATOM     28  O   UNL A   1      35.758  31.372  29.957  1.00  0.00    -0.246 OA
BRANCH  27  29
ATOM     29  C   UNL A   1      37.548  30.168  28.997  1.00  0.00     0.060 A 
ATOM     30  C   UNL A   1      38.070  29.929  27.722  1.00  0.00     0.016 A 
ATOM     31  C   UNL A   1      38.343  30.011  30.133  1.00  0.00     0.016 A 
ATOM     32  C   UNL A   1      39.383  29.471  27.590  1.00  0.00     0.010 A 
ATOM     33  C   UNL A   1      39.668  29.608  29.994  1.00  0.00     0.010 A 
ATOM     34  C   UNL A   1      40.191  29.311  28.727  1.00  0.00    -0.014 A 
BRANCH  34  35
ATOM     35  C   UNL A   1      41.601  28.868  28.624  1.00  0.00     0.031 A 
ATOM     36  C   UNL A   1      42.714  29.873  28.690  1.00  0.00     0.074 A 
ATOM     37  C   UNL A   1      41.861  27.571  28.375  1.00  0.00     0.049 A 
ATOM     38  N   UNL A   1      43.980  29.721  28.403  1.00  0.00    -0.248 NA
ATOM     39  C   UNL A   1      42.354  31.231  29.126  1.00  0.00     0.031 C 
ATOM     40  C   UNL A   1      40.856  26.508  28.304  1.00  0.00     0.029 A 
ATOM     41  N   UNL A   1      43.043  26.933  28.101  1.00  0.00    -0.354 N 
ATOM     42  C   UNL A   1      44.566  30.967  28.596  1.00  0.00     0.074 A 
ATOM     43  C   UNL A   1      43.514  31.865  29.025  1.00  0.00     0.031 C 
ATOM     44  C   UNL A   1      41.461  25.354  27.987  1.00  0.00     0.029 A 
ATOM     45  C   UNL A   1      42.883  25.607  27.778  1.00  0.00     0.049 A 
ATOM     46  H   UNL A   1      43.919  27.380  28.134  1.00  0.00     0.167 HD
ATOM     47  C   UNL A   1      45.862  31.324  28.423  1.00  0.00     0.037 A 
ATOM     48  C   UNL A   1      43.771  24.707  27.315  1.00  0.00     0.037 A 
ATOM     49  C   UNL A   1      46.897  30.415  27.999  1.00  0.00     0.049 A 
ATOM     50  C   UNL A   1      45.192  25.132  27.096  1.00  0.00     0.074 A 
ATOM     51  C   UNL A   1      48.244  30.668  27.807  1.00  0.00     0.029 A 
ATOM     52  N   UNL A   1      46.696  29.074  27.699  1.00  0.00    -0.354 N 
ATOM     53  N   UNL A   1      45.732  26.314  27.273  1.00  0.00    -0.248 NA
ATOM     54  C   UNL A   1      46.125  24.109  26.605  1.00  0.00     0.031 C 
ATOM     55  C   UNL A   1      48.852  29.487  27.365  1.00  0.00     0.029 A 
ATOM     56  C   UNL A   1      47.891  28.490  27.312  1.00  0.00     0.049 A 
ATOM     57  H   UNL A   1      45.831  28.606  27.753  1.00  0.00     0.167 HD
ATOM     58  C   UNL A   1      47.069  26.177  26.926  1.00  0.00     0.074 A 
ATOM     59  C   UNL A   1      47.259  24.793  26.537  1.00  0.00     0.031 C 
ATOM     60  C   UNL A   1      48.052  27.110  26.929  1.00  0.00     0.037 A 
BRANCH  47  61
ATOM     61  C   UNL A   1      46.231  32.760  28.666  1.00  0.00     0.058 A 
ATOM     62  C   UNL A   1      46.664  33.206  29.924  1.00  0.00     0.135 A 
ATOM     63  C   UNL A   1      46.189  33.693  27.619  1.00  0.00     0.135 A 
ATOM     64  F   UNL A   1      46.709  32.358  30.964  1.00  0.00    -0.206 F 
ATOM     65  C   UNL A   1      47.024  34.533  30.140  1.00  0.00     0.059 A 
ATOM     66  C   UNL A   1      46.561  35.022  27.807  1.00  0.00     0.059 A 
ATOM     67  F   UNL A   1      45.782  33.318  26.396  1.00  0.00    -0.206 F 
ATOM     68  C   UNL A   1      46.965  35.435  29.075  1.00  0.00     0.060 A 
BRANCH  68  69
ATOM     69  S   UNL A   1      47.433  37.156  29.368  1.00  0.00     0.124 S 
ATOM     70  O   UNL A   1      47.382  37.226  30.824  1.00  0.00    -0.237 OA
ATOM     71  O   UNL A   1      48.766  37.225  28.776  1.00  0.00    -0.237 OA
ATOM     72  O   UNL A   1      46.401  37.911  28.664  1.00  0.00    -0.744 OA
ENDBRANCH  68  69
ENDBRANCH  47  61
BRANCH  48  73
ATOM     73  C   UNL A   1      43.315  23.329  27.008  1.00  0.00     0.058 A 
ATOM     74  C   UNL A   1      43.160  22.902  25.682  1.00  0.00     0.135 A 
ATOM     75  C   UNL A   1      43.093  22.394  28.031  1.00  0.00     0.135 A 
ATOM     76  F   UNL A   1      43.357  23.764  24.674  1.00  0.00    -0.206 F 
ATOM     77  C   UNL A   1      42.806  21.593  25.378  1.00  0.00     0.059 A 
ATOM     78  C   UNL A   1      42.757  21.073  27.752  1.00  0.00     0.059 A 
ATOM     79  F   UNL A   1      43.246  22.753  29.316  1.00  0.00    -0.206 F 
ATOM     80  C   UNL A   1      42.613  20.683  26.420  1.00  0.00     0.060 A 
BRANCH  80  81
ATOM     81  S   UNL A   1      42.243  18.962  26.018  1.00  0.00     0.124 S 
ATOM     82  O   UNL A   1      42.650  18.281  27.241  1.00  0.00    -0.237 OA
ATOM     83  O   UNL A   1      40.806  19.005  25.759  1.00  0.00    -0.237 OA
ATOM     84  O   UNL A   1      43.074  18.708  24.845  1.00  0.00    -0.744 OA
ENDBRANCH  80  81
ENDBRANCH  48  73
BRANCH  60  85
ATOM     85  C   UNL A   1      49.423  26.657  26.521  1.00  0.00     0.058 A 
ATOM     86  C   UNL A   1      50.271  25.994  27.420  1.00  0.00     0.135 A 
ATOM     87  C   UNL A   1      49.871  26.849  25.205  1.00  0.00     0.135 A 
ATOM     88  F   UNL A   1      49.886  25.797  28.691  1.00  0.00    -0.206 F 
ATOM     89  C   UNL A   1      51.527  25.544  27.030  1.00  0.00     0.059 A 
ATOM     90  C   UNL A   1      51.118  26.393  24.790  1.00  0.00     0.059 A 
ATOM     91  F   UNL A   1      49.092  27.475  24.309  1.00  0.00    -0.206 F 
ATOM     92  C   UNL A   1      51.942  25.749  25.713  1.00  0.00     0.060 A 
BRANCH  92  93
ATOM     93  S   UNL A   1      53.559  25.128  25.204  1.00  0.00     0.124 S 
ATOM     94  O   UNL A   1      53.655  25.643  23.843  1.00  0.00    -0.237 OA
ATOM     95  O   UNL A   1      54.455  25.741  26.179  1.00  0.00    -0.237 OA
ATOM     96  O   UNL A   1      53.415  23.680  25.319  1.00  0.00    -0.744 OA
ENDBRANCH  92  93
ENDBRANCH  60  85
ENDBRANCH  34  35
ENDBRANCH  27  29
ENDBRANCH  26  27
ENDBRANCH  25  26
ENDBRANCH   1  25
TORSDOF 20
ENDMDL
MODEL 2
REMARK VINA RESULT:     -11.0      1.144      2.112
REMARK SMILES O=C(CN(CC(=O)OCCOC(=O)c1ccc(-c2c3nc(c(-c4c(F)cc(S(=O)(=O)[O-])cc4F)c4ccc([nH]4)c(-c4c(F)cc(S(=O)(=O)[O-])cc4F)c4nc(c(-c5c(F)cc(S(=O)(=O)[O-])cc5F)c5ccc2[nH]5)C=C4)C=C3)cc1)c1ccccc1)NCc1ccccc1
REMARK SMILES IDX 9 1 8 2 6 3 7 4 5 5 4 6 3 7 2 8 1 9 86 10 87 12 88 13 89 14
REMARK SMILES IDX 93 15 90 16 92 17 91 18 80 19 81 20 85 21 82 22 84 23 83 24
REMARK SMILES IDX 10 25 11 26 12 27 13 28 14 29 15 30 79 31 16 32 78 33 17 34
REMARK SMILES IDX 18 35 19 36 72 37 20 38 77 39 71 40 73 41 21 42 76 43 70 44
REMARK SMILES IDX 69 45 22 47 56 48 35 49 55 50 36 51 39 52 54 53 74 54 37 55
REMARK SMILES IDX 38 56 53 58 75 59 40 60 23 61 24 62 33 63 25 64 26 65 32 66
REMARK SMILES IDX 34 67 27 68 28 69 29 70 30 71 31 72 57 73 58 74 67 75 59 76
REMARK SMILES IDX 60 77 66 78 68 79 61 80 62 81 63 82 64 83 65 84 41 85 42 86
REMARK SMILES IDX 51 87 43 88 44 89 50 90 52 91 45 92 46 93 47 94 48 95 49 96
REMARK H PARENT 86 11 73 46 39 57
REMARK Flexibility Score: inf
ROOT
ATOM      1  C   UNL A   1      33.162  29.961  27.077  1.00  0.00     0.274 C 
ENDROOT
BRANCH   1   2
ATOM      2  O   UNL A   1      33.250  28.618  27.590  1.00  0.00    -0.461 OA
BRANCH   2   3
ATOM      3  C   UNL A   1      32.217  27.794  27.272  1.00  0.00     0.325 C 
ATOM      4  O   UNL A   1      31.103  27.857  27.789  1.00  0.00    -0.250 OA
BRANCH   3   5
ATOM      5  C   UNL A   1      32.511  26.788  26.164  1.00  0.00     0.239 C 
BRANCH   5   6
ATOM      6  N   UNL A   1      32.558  27.307  24.794  1.00  0.00    -0.351 N 
BRANCH   6   7
ATOM      7  C   UNL A   1      33.742  27.089  23.951  1.00  0.00     0.217 C 
BRANCH   7   8
ATOM      8  C   UNL A   1      33.617  25.889  22.993  1.00  0.00     0.239 C 
ATOM      9  O   UNL A   1      33.779  26.011  21.779  1.00  0.00    -0.273 OA
ATOM     10  N   UNL A   1      33.388  24.667  23.592  1.00  0.00    -0.350 N 
ATOM     11  H   UNL A   1      33.497  24.589  24.568  1.00  0.00     0.163 HD
BRANCH  10  12
ATOM     12  C   UNL A   1      32.994  23.498  22.837  1.00  0.00     0.151 C 
BRANCH  12  13
ATOM     13  C   UNL A   1      33.222  22.178  23.529  1.00  0.00    -0.029 A 
ATOM     14  C   UNL A   1      34.351  21.918  24.316  1.00  0.00     0.005 A 
ATOM     15  C   UNL A   1      32.315  21.131  23.292  1.00  0.00     0.005 A 
ATOM     16  C   UNL A   1      34.556  20.650  24.868  1.00  0.00     0.000 A 
ATOM     17  C   UNL A   1      32.524  19.863  23.839  1.00  0.00     0.000 A 
ATOM     18  C   UNL A   1      33.644  19.624  24.627  1.00  0.00     0.000 A 
ENDBRANCH  12  13
ENDBRANCH  10  12
ENDBRANCH   7   8
ENDBRANCH   6   7
BRANCH   6  19
ATOM     19  C   UNL A   1      31.373  27.715  24.201  1.00  0.00     0.038 A 
ATOM     20  C   UNL A   1      30.254  26.877  24.197  1.00  0.00     0.026 A 
ATOM     21  C   UNL A   1      31.258  28.957  23.564  1.00  0.00     0.026 A 
ATOM     22  C   UNL A   1      29.067  27.259  23.564  1.00  0.00     0.002 A 
ATOM     23  C   UNL A   1      30.068  29.356  22.950  1.00  0.00     0.002 A 
ATOM     24  C   UNL A   1      28.973  28.501  22.943  1.00  0.00     0.000 A 
ENDBRANCH   6  19
ENDBRANCH   5   6
ENDBRANCH   3   5
ENDBRANCH   2   3
ENDBRANCH   1   2
BRANCH   1  25
ATOM     25  C   UNL A   1      34.375  30.783  27.502  1.00  0.00     0.275 C 
BRANCH  25  26
ATOM     26  O   UNL A   1      35.419  29.913  27.973  1.00  0.00    -0.458 OA
BRANCH  26  27
ATOM     27  C   UNL A   1      36.148  30.405  28.998  1.00  0.00     0.338 C 
ATOM     28  O   UNL A   1      35.802  31.250  29.812  1.00  0.00    -0.246 OA
BRANCH  27  29
ATOM     29  C   UNL A   1      37.509  29.854  28.968  1.00  0.00     0.060 A 
ATOM     30  C   UNL A   1      38.204  29.554  30.143  1.00  0.00     0.016 A 
ATOM     31  C   UNL A   1      38.129  29.735  27.724  1.00  0.00     0.016 A 
ATOM     32  C   UNL A   1      39.551  29.189  30.072  1.00  0.00     0.010 A 
ATOM     33  C   UNL A   1      39.455  29.317  27.653  1.00  0.00     0.010 A 
ATOM     34  C   UNL A   1      40.183  29.065  28.825  1.00  0.00    -0.014 A 
BRANCH  34  35
ATOM     35  C   UNL A   1      41.597  28.640  28.707  1.00  0.00     0.031 A 
ATOM     36  C   UNL A   1      42.699  29.659  28.764  1.00  0.00     0.074 A 
ATOM     37  C   UNL A   1      41.871  27.348  28.451  1.00  0.00     0.049 A 
ATOM     38  N   UNL A   1      43.964  29.524  28.464  1.00  0.00    -0.248 NA
ATOM     39  C   UNL A   1      42.326  31.011  29.209  1.00  0.00     0.031 C 
ATOM     40  C   UNL A   1      40.879  26.273  28.386  1.00  0.00     0.029 A 
ATOM     41  N   UNL A   1      43.058  26.725  28.163  1.00  0.00    -0.354 N 
ATOM     42  C   UNL A   1      44.536  30.775  28.655  1.00  0.00     0.074 A 
ATOM     43  C   UNL A   1      43.478  31.660  29.098  1.00  0.00     0.031 C 
ATOM     44  C   UNL A   1      41.494  25.127  28.059  1.00  0.00     0.029 A 
ATOM     45  C   UNL A   1      42.910  25.398  27.836  1.00  0.00     0.049 A 
ATOM     46  H   UNL A   1      43.929  27.183  28.187  1.00  0.00     0.167 HD
ATOM     47  C   UNL A   1      45.826  31.149  28.470  1.00  0.00     0.037 A 
ATOM     48  C   UNL A   1      43.804  24.511  27.361  1.00  0.00     0.037 A 
ATOM     49  C   UNL A   1      46.867  30.254  28.033  1.00  0.00     0.049 A 
ATOM     50  C   UNL A   1      45.218  24.953  27.128  1.00  0.00     0.074 A 
ATOM     51  C   UNL A   1      48.209  30.524  27.828  1.00  0.00     0.029 A 
ATOM     52  N   UNL A   1      46.680  28.912  27.730  1.00  0.00    -0.354 N 
ATOM     53  N   UNL A   1      45.745  26.142  27.304  1.00  0.00    -0.248 NA
ATOM     54  C   UNL A   1      46.158  23.944  26.624  1.00  0.00     0.031 C 
ATOM     55  C   UNL A   1      48.827  29.352  27.375  1.00  0.00     0.029 A 
ATOM     56  C   UNL A   1      47.877  28.344  27.328  1.00  0.00     0.049 A 
ATOM     57  H   UNL A   1      45.821  28.434  27.791  1.00  0.00     0.167 HD
ATOM     58  C   UNL A   1      47.080  26.022  26.943  1.00  0.00     0.074 A 
ATOM     59  C   UNL A   1      47.283  24.642  26.547  1.00  0.00     0.031 C 
ATOM     60  C   UNL A   1      48.052  26.967  26.939  1.00  0.00     0.037 A 
BRANCH  47  61
ATOM     61  C   UNL A   1      46.180  32.588  28.714  1.00  0.00     0.058 A 
ATOM     62  C   UNL A   1      46.108  33.548  27.693  1.00  0.00     0.135 A 
ATOM     63  C   UNL A   1      46.559  33.021  29.995  1.00  0.00     0.135 A 
ATOM     64  F   UNL A   1      45.766  33.186  26.447  1.00  0.00    -0.206 F 
ATOM     65  C   UNL A   1      46.419  34.885  27.929  1.00  0.00     0.059 A 
ATOM     66  C   UNL A   1      46.857  34.356  30.258  1.00  0.00     0.059 A 
ATOM     67  F   UNL A   1      46.644  32.143  31.007  1.00  0.00    -0.206 F 
ATOM     68  C   UNL A   1      46.796  35.278  29.215  1.00  0.00     0.060 A 
BRANCH  68  69
ATOM     69  S   UNL A   1      47.199  37.014  29.509  1.00  0.00     0.124 S 
ATOM     70  O   UNL A   1      48.417  36.899  30.304  1.00  0.00    -0.237 OA
ATOM     71  O   UNL A   1      47.372  37.532  28.155  1.00  0.00    -0.237 OA
ATOM     72  O   UNL A   1      46.028  37.517  30.221  1.00  0.00    -0.744 OA
ENDBRANCH  68  69
ENDBRANCH  47  61
BRANCH  48  73
ATOM     73  C   UNL A   1      43.362  23.128  27.054  1.00  0.00     0.058 A 
ATOM     74  C   UNL A   1      43.243  22.690  25.728  1.00  0.00     0.135 A 
ATOM     75  C   UNL A   1      43.116  22.201  28.079  1.00  0.00     0.135 A 
ATOM     76  F   UNL A   1      43.464  23.544  24.718  1.00  0.00    -0.206 F 
ATOM     77  C   UNL A   1      42.903  21.376  25.427  1.00  0.00     0.059 A 
ATOM     78  C   UNL A   1      42.793  20.876  27.802  1.00  0.00     0.059 A 
ATOM     79  F   UNL A   1      43.235  22.571  29.364  1.00  0.00    -0.206 F 
ATOM     80  C   UNL A   1      42.686  20.474  26.471  1.00  0.00     0.060 A 
BRANCH  80  81
ATOM     81  S   UNL A   1      42.333  18.748  26.074  1.00  0.00     0.124 S 
ATOM     82  O   UNL A   1      40.930  18.819  25.683  1.00  0.00    -0.237 OA
ATOM     83  O   UNL A   1      43.283  18.476  24.999  1.00  0.00    -0.237 OA
ATOM     84  O   UNL A   1      42.607  18.056  27.329  1.00  0.00    -0.744 OA
ENDBRANCH  80  81
ENDBRANCH  48  73
BRANCH  60  85
ATOM     85  C   UNL A   1      49.423  26.533  26.516  1.00  0.00     0.058 A 
ATOM     86  C   UNL A   1      49.874  26.713  25.200  1.00  0.00     0.135 A 
ATOM     87  C   UNL A   1      50.310  25.973  27.449  1.00  0.00     0.135 A 
ATOM     88  F   UNL A   1      49.056  27.237  24.273  1.00  0.00    -0.206 F 
ATOM     89  C   UNL A   1      51.158  26.341  24.818  1.00  0.00     0.059 A 
ATOM     90  C   UNL A   1      51.604  25.608  27.092  1.00  0.00     0.059 A 
ATOM     91  F   UNL A   1      49.924  25.785  28.721  1.00  0.00    -0.206 F 
ATOM     92  C   UNL A   1      52.016  25.789  25.772  1.00  0.00     0.060 A 
BRANCH  92  93
ATOM     93  S   UNL A   1      53.693  25.344  25.278  1.00  0.00     0.124 S 
ATOM     94  O   UNL A   1      53.495  24.001  24.743  1.00  0.00    -0.237 OA
ATOM     95  O   UNL A   1      54.020  26.375  24.298  1.00  0.00    -0.237 OA
ATOM     96  O   UNL A   1      54.444  25.418  26.528  1.00  0.00    -0.744 OA
ENDBRANCH  92  93
ENDBRANCH  60  85
ENDBRANCH  34  35
ENDBRANCH  27  29
ENDBRANCH  26  27
ENDBRANCH  25  26
ENDBRANCH   1  25
TORSDOF 20
ENDMDL
MODEL 3
REMARK VINA RESULT:     -10.8      2.378      3.392
REMARK SMILES O=C(CN(CC(=O)OCCOC(=O)c1ccc(-c2c3nc(c(-c4c(F)cc(S(=O)(=O)[O-])cc4F)c4ccc([nH]4)c(-c4c(F)cc(S(=O)(=O)[O-])cc4F)c4nc(c(-c5c(F)cc(S(=O)(=O)[O-])cc5F)c5ccc2[nH]5)C=C4)C=C3)cc1)c1ccccc1)NCc1ccccc1
REMARK SMILES IDX 9 1 8 2 6 3 7 4 5 5 4 6 3 7 2 8 1 9 86 10 87 12 88 13 89 14
REMARK SMILES IDX 93 15 90 16 92 17 91 18 80 19 81 20 85 21 82 22 84 23 83 24
REMARK SMILES IDX 10 25 11 26 12 27 13 28 14 29 15 30 79 31 16 32 78 33 17 34
REMARK SMILES IDX 18 35 19 36 72 37 20 38 77 39 71 40 73 41 21 42 76 43 70 44
REMARK SMILES IDX 69 45 22 47 56 48 35 49 55 50 36 51 39 52 54 53 74 54 37 55
REMARK SMILES IDX 38 56 53 58 75 59 40 60 23 61 24 62 33 63 25 64 26 65 32 66
REMARK SMILES IDX 34 67 27 68 28 69 29 70 30 71 31 72 57 73 58 74 67 75 59 76
REMARK SMILES IDX 60 77 66 78 68 79 61 80 62 81 63 82 64 83 65 84 41 85 42 86
REMARK SMILES IDX 51 87 43 88 44 89 50 90 52 91 45 92 46 93 47 94 48 95 49 96
REMARK H PARENT 86 11 73 46 39 57
REMARK Flexibility Score: inf
ROOT
ATOM      1  C   UNL A   1      32.239  27.935  25.882  1.00  0.00     0.274 C 
ENDROOT
BRANCH   1   2
ATOM      2  O   UNL A   1      32.948  26.741  26.267  1.00  0.00    -0.461 OA
BRANCH   2   3
ATOM      3  C   UNL A   1      32.192  25.618  26.391  1.00  0.00     0.325 C 
ATOM      4  O   UNL A   1      30.965  25.620  26.459  1.00  0.00    -0.250 OA
BRANCH   3   5
ATOM      5  C   UNL A   1      32.975  24.309  26.389  1.00  0.00     0.239 C 
BRANCH   5   6
ATOM      6  N   UNL A   1      33.593  23.909  25.122  1.00  0.00    -0.351 N 
BRANCH   6   7
ATOM      7  C   UNL A   1      32.980  24.284  23.839  1.00  0.00     0.217 C 
BRANCH   7   8
ATOM      8  C   UNL A   1      32.013  23.227  23.274  1.00  0.00     0.239 C 
ATOM      9  O   UNL A   1      30.792  23.358  23.355  1.00  0.00    -0.273 OA
ATOM     10  N   UNL A   1      32.604  22.170  22.610  1.00  0.00    -0.350 N 
ATOM     11  H   UNL A   1      33.558  22.231  22.375  1.00  0.00     0.163 HD
BRANCH  10  12
ATOM     12  C   UNL A   1      31.870  20.978  22.250  1.00  0.00     0.151 C 
BRANCH  12  13
ATOM     13  C   UNL A   1      32.225  19.740  23.035  1.00  0.00    -0.029 A 
ATOM     14  C   UNL A   1      32.425  19.752  24.421  1.00  0.00     0.005 A 
ATOM     15  C   UNL A   1      32.465  18.546  22.333  1.00  0.00     0.005 A 
ATOM     16  C   UNL A   1      32.834  18.595  25.090  1.00  0.00     0.000 A 
ATOM     17  C   UNL A   1      32.879  17.392  23.002  1.00  0.00     0.000 A 
ATOM     18  C   UNL A   1      33.063  17.417  24.380  1.00  0.00     0.000 A 
ENDBRANCH  12  13
ENDBRANCH  10  12
ENDBRANCH   7   8
ENDBRANCH   6   7
BRANCH   6  19
ATOM     19  C   UNL A   1      34.905  23.462  25.138  1.00  0.00     0.038 A 
ATOM     20  C   UNL A   1      35.229  22.189  24.660  1.00  0.00     0.026 A 
ATOM     21  C   UNL A   1      35.944  24.247  25.654  1.00  0.00     0.026 A 
ATOM     22  C   UNL A   1      36.542  21.709  24.712  1.00  0.00     0.002 A 
ATOM     23  C   UNL A   1      37.262  23.784  25.688  1.00  0.00     0.002 A 
ATOM     24  C   UNL A   1      37.560  22.509  25.223  1.00  0.00     0.000 A 
ENDBRANCH   6  19
ENDBRANCH   5   6
ENDBRANCH   3   5
ENDBRANCH   2   3
ENDBRANCH   1   2
BRANCH   1  25
ATOM     25  C   UNL A   1      32.561  29.085  26.832  1.00  0.00     0.275 C 
BRANCH  25  26
ATOM     26  O   UNL A   1      33.888  28.927  27.364  1.00  0.00    -0.458 OA
BRANCH  26  27
ATOM     27  C   UNL A   1      34.404  30.035  27.939  1.00  0.00     0.338 C 
ATOM     28  O   UNL A   1      33.824  31.089  28.164  1.00  0.00    -0.246 OA
BRANCH  27  29
ATOM     29  C   UNL A   1      35.839  29.859  28.193  1.00  0.00     0.060 A 
ATOM     30  C   UNL A   1      36.790  30.035  27.182  1.00  0.00     0.016 A 
ATOM     31  C   UNL A   1      36.219  29.406  29.456  1.00  0.00     0.016 A 
ATOM     32  C   UNL A   1      38.123  29.697  27.424  1.00  0.00     0.010 A 
ATOM     33  C   UNL A   1      37.558  29.124  29.712  1.00  0.00     0.010 A 
ATOM     34  C   UNL A   1      38.516  29.242  28.693  1.00  0.00    -0.014 A 
BRANCH  34  35
ATOM     35  C   UNL A   1      39.927  28.914  29.001  1.00  0.00     0.031 A 
ATOM     36  C   UNL A   1      40.863  29.985  29.483  1.00  0.00     0.074 A 
ATOM     37  C   UNL A   1      40.378  27.671  28.750  1.00  0.00     0.049 A 
ATOM     38  N   UNL A   1      42.165  29.955  29.593  1.00  0.00    -0.248 NA
ATOM     39  C   UNL A   1      40.254  31.263  29.886  1.00  0.00     0.031 C 
ATOM     40  C   UNL A   1      39.553  26.552  28.291  1.00  0.00     0.029 A 
ATOM     41  N   UNL A   1      41.645  27.151  28.810  1.00  0.00    -0.354 N 
ATOM     42  C   UNL A   1      42.538  31.213  30.050  1.00  0.00     0.074 A 
ATOM     43  C   UNL A   1      41.321  31.986  30.197  1.00  0.00     0.031 C 
ATOM     44  C   UNL A   1      40.337  25.482  28.093  1.00  0.00     0.029 A 
ATOM     45  C   UNL A   1      41.723  25.856  28.355  1.00  0.00     0.049 A 
ATOM     46  H   UNL A   1      42.421  27.654  29.146  1.00  0.00     0.167 HD
ATOM     47  C   UNL A   1      43.783  31.678  30.315  1.00  0.00     0.037 A 
ATOM     48  C   UNL A   1      42.794  25.074  28.126  1.00  0.00     0.037 A 
ATOM     49  C   UNL A   1      44.982  30.893  30.167  1.00  0.00     0.049 A 
ATOM     50  C   UNL A   1      44.166  25.620  28.390  1.00  0.00     0.074 A 
ATOM     51  C   UNL A   1      46.292  31.260  30.423  1.00  0.00     0.029 A 
ATOM     52  N   UNL A   1      45.016  29.579  29.721  1.00  0.00    -0.354 N 
ATOM     53  N   UNL A   1      44.506  26.814  28.813  1.00  0.00    -0.248 NA
ATOM     54  C   UNL A   1      45.300  24.722  28.138  1.00  0.00     0.031 C 
ATOM     55  C   UNL A   1      47.120  30.177  30.105  1.00  0.00     0.029 A 
ATOM     56  C   UNL A   1      46.324  29.124  29.682  1.00  0.00     0.049 A 
ATOM     57  H   UNL A   1      44.227  29.047  29.469  1.00  0.00     0.167 HD
ATOM     58  C   UNL A   1      45.892  26.808  28.890  1.00  0.00     0.074 A 
ATOM     59  C   UNL A   1      46.328  25.488  28.477  1.00  0.00     0.031 C 
ATOM     60  C   UNL A   1      46.730  27.805  29.267  1.00  0.00     0.037 A 
BRANCH  47  61
ATOM     61  C   UNL A   1      43.916  33.104  30.767  1.00  0.00     0.058 A 
ATOM     62  C   UNL A   1      43.909  33.450  32.127  1.00  0.00     0.135 A 
ATOM     63  C   UNL A   1      44.093  34.135  29.830  1.00  0.00     0.135 A 
ATOM     64  F   UNL A   1      43.728  32.506  33.064  1.00  0.00    -0.206 F 
ATOM     65  C   UNL A   1      44.052  34.772  32.542  1.00  0.00     0.059 A 
ATOM     66  C   UNL A   1      44.256  35.461  30.222  1.00  0.00     0.059 A 
ATOM     67  F   UNL A   1      44.107  33.858  28.516  1.00  0.00    -0.206 F 
ATOM     68  C   UNL A   1      44.222  35.771  31.580  1.00  0.00     0.060 A 
BRANCH  68  69
ATOM     69  S   UNL A   1      44.405  37.482  32.130  1.00  0.00     0.124 S 
ATOM     70  O   UNL A   1      45.837  37.545  32.407  1.00  0.00    -0.237 OA
ATOM     71  O   UNL A   1      43.952  38.238  30.967  1.00  0.00    -0.237 OA
ATOM     72  O   UNL A   1      43.534  37.557  33.299  1.00  0.00    -0.744 OA
ENDBRANCH  68  69
ENDBRANCH  47  61
BRANCH  48  73
ATOM     73  C   UNL A   1      42.593  23.705  27.591  1.00  0.00     0.058 A 
ATOM     74  C   UNL A   1      42.669  23.453  26.214  1.00  0.00     0.135 A 
ATOM     75  C   UNL A   1      42.388  22.614  28.450  1.00  0.00     0.135 A 
ATOM     76  F   UNL A   1      42.857  24.467  25.357  1.00  0.00    -0.206 F 
ATOM     77  C   UNL A   1      42.556  22.164  25.706  1.00  0.00     0.059 A 
ATOM     78  C   UNL A   1      42.292  21.313  27.966  1.00  0.00     0.059 A 
ATOM     79  F   UNL A   1      42.326  22.805  29.777  1.00  0.00    -0.206 F 
ATOM     80  C   UNL A   1      42.375  21.098  26.591  1.00  0.00     0.060 A 
BRANCH  80  81
ATOM     81  S   UNL A   1      42.320  19.418  25.933  1.00  0.00     0.124 S 
ATOM     82  O   UNL A   1      40.889  19.230  25.727  1.00  0.00    -0.237 OA
ATOM     83  O   UNL A   1      43.130  19.531  24.723  1.00  0.00    -0.237 OA
ATOM     84  O   UNL A   1      42.916  18.623  27.002  1.00  0.00    -0.744 OA
ENDBRANCH  80  81
ENDBRANCH  48  73
BRANCH  60  85
ATOM     85  C   UNL A   1      48.198  27.496  29.273  1.00  0.00     0.058 A 
ATOM     86  C   UNL A   1      49.003  27.749  28.153  1.00  0.00     0.135 A 
ATOM     87  C   UNL A   1      48.811  26.984  30.427  1.00  0.00     0.135 A 
ATOM     88  F   UNL A   1      48.457  28.230  27.024  1.00  0.00    -0.206 F 
ATOM     89  C   UNL A   1      50.369  27.493  28.171  1.00  0.00     0.059 A 
ATOM     90  C   UNL A   1      50.179  26.737  30.473  1.00  0.00     0.059 A 
ATOM     91  F   UNL A   1      48.081  26.731  31.525  1.00  0.00    -0.206 F 
ATOM     92  C   UNL A   1      50.948  26.987  29.337  1.00  0.00     0.060 A 
BRANCH  92  93
ATOM     93  S   UNL A   1      52.729  26.693  29.367  1.00  0.00     0.124 S 
ATOM     94  O   UNL A   1      52.877  25.917  30.593  1.00  0.00    -0.237 OA
ATOM     95  O   UNL A   1      52.951  25.963  28.123  1.00  0.00    -0.237 OA
ATOM     96  O   UNL A   1      53.291  28.040  29.403  1.00  0.00    -0.744 OA
ENDBRANCH  92  93
ENDBRANCH  60  85
ENDBRANCH  34  35
ENDBRANCH  27  29
ENDBRANCH  26  27
ENDBRANCH  25  26
ENDBRANCH   1  25
TORSDOF 20
ENDMDL
