MODEL 1
REMARK VINA RESULT:     -12.1      0.000      0.000
REMARK SMILES O=C(OCCOC(=O)C1(c2ccccc2)CCN(S(=O)(=O)c2cccs2)CC1)c1ccc(-c2c3nc(c(-c4c(F)cc(S(=O)(=O)[O-])cc4F)c4ccc([nH]4)c(-c4c(F)cc(S(=O)(=O)[O-])cc4F)c4nc(c(-c5c(F)cc(S(=O)(=O)[O-])cc5F)c5ccc2[nH]5)C=C4)C=C3)cc1
REMARK SMILES IDX 4 1 3 2 2 3 1 4 29 5 30 6 94 7 31 8 93 9 32 10 33 11 34 12
REMARK SMILES IDX 87 13 35 14 92 15 86 16 88 17 36 18 91 19 85 20 84 21 37 23
REMARK SMILES IDX 71 24 50 25 70 26 51 27 54 28 69 29 89 30 52 31 53 32 68 34
REMARK SMILES IDX 90 35 55 36 38 37 39 38 48 39 40 40 41 41 47 42 49 43 42 44
REMARK SMILES IDX 43 45 44 46 45 47 46 48 72 49 73 50 82 51 74 52 75 53 81 54
REMARK SMILES IDX 83 55 76 56 77 57 78 58 79 59 80 60 56 61 57 62 66 63 58 64
REMARK SMILES IDX 59 65 65 66 67 67 60 68 61 69 62 70 63 71 64 72 5 73 6 74
REMARK SMILES IDX 7 75 8 76 9 77 16 78 28 79 17 80 27 81 18 82 10 83 11 84
REMARK SMILES IDX 15 85 12 86 14 87 13 88 19 89 20 90 21 91 22 92 23 93 26 94
REMARK SMILES IDX 24 95 25 96
REMARK H PARENT 88 22 54 33
REMARK Flexibility Score: inf
ROOT
ATOM      1  C   UNL A   1      33.654  28.148  26.526  1.00  0.00     0.275 C 
ENDROOT
BRANCH   1   2
ATOM      2  O   UNL A   1      33.493  29.201  27.486  1.00  0.00    -0.458 OA
BRANCH   2   3
ATOM      3  C   UNL A   1      34.382  30.117  27.933  1.00  0.00     0.338 C 
ATOM      4  O   UNL A   1      34.031  31.297  27.950  1.00  0.00    -0.246 OA
BRANCH   3   5
ATOM      5  C   UNL A   1      35.803  29.815  28.307  1.00  0.00     0.060 A 
ATOM      6  C   UNL A   1      36.273  29.412  29.560  1.00  0.00     0.016 A 
ATOM      7  C   UNL A   1      36.752  29.952  27.276  1.00  0.00     0.016 A 
ATOM      8  C   UNL A   1      37.620  29.068  29.753  1.00  0.00     0.010 A 
ATOM      9  C   UNL A   1      38.090  29.576  27.454  1.00  0.00     0.010 A 
ATOM     10  C   UNL A   1      38.539  29.133  28.701  1.00  0.00    -0.014 A 
BRANCH  10  11
ATOM     11  C   UNL A   1      39.984  28.932  28.982  1.00  0.00     0.031 A 
ATOM     12  C   UNL A   1      40.588  27.615  28.603  1.00  0.00     0.074 A 
ATOM     13  C   UNL A   1      40.757  29.908  29.498  1.00  0.00     0.049 A 
ATOM     14  N   UNL A   1      41.841  27.252  28.620  1.00  0.00    -0.248 NA
ATOM     15  C   UNL A   1      39.654  26.553  28.192  1.00  0.00     0.031 C 
ATOM     16  C   UNL A   1      40.263  31.169  30.035  1.00  0.00     0.029 A 
ATOM     17  N   UNL A   1      42.120  30.012  29.645  1.00  0.00    -0.354 N 
ATOM     18  C   UNL A   1      41.840  25.921  28.231  1.00  0.00     0.074 A 
ATOM     19  C   UNL A   1      40.463  25.517  28.070  1.00  0.00     0.031 C 
ATOM     20  C   UNL A   1      41.299  31.954  30.376  1.00  0.00     0.029 A 
ATOM     21  C   UNL A   1      42.537  31.253  30.082  1.00  0.00     0.049 A 
ATOM     22  H   UNL A   1      42.739  29.271  29.455  1.00  0.00     0.167 HD
ATOM     23  C   UNL A   1      42.895  25.115  27.983  1.00  0.00     0.037 A 
ATOM     24  C   UNL A   1      43.778  31.771  30.194  1.00  0.00     0.037 A 
ATOM     25  C   UNL A   1      44.258  25.528  28.143  1.00  0.00     0.049 A 
ATOM     26  C   UNL A   1      44.942  30.883  29.831  1.00  0.00     0.074 A 
ATOM     27  C   UNL A   1      45.413  24.793  27.963  1.00  0.00     0.029 A 
ATOM     28  N   UNL A   1      44.645  26.808  28.519  1.00  0.00    -0.354 N 
ATOM     29  N   UNL A   1      44.923  29.641  29.403  1.00  0.00    -0.248 NA
ATOM     30  C   UNL A   1      46.289  31.451  29.967  1.00  0.00     0.031 C 
ATOM     31  C   UNL A   1      46.501  25.628  28.241  1.00  0.00     0.029 A 
ATOM     32  C   UNL A   1      46.023  26.891  28.559  1.00  0.00     0.049 A 
ATOM     33  H   UNL A   1      44.028  27.548  28.726  1.00  0.00     0.167 HD
ATOM     34  C   UNL A   1      46.251  29.279  29.227  1.00  0.00     0.074 A 
ATOM     35  C   UNL A   1      47.047  30.450  29.544  1.00  0.00     0.031 C 
ATOM     36  C   UNL A   1      46.774  28.082  28.865  1.00  0.00     0.037 A 
BRANCH  23  37
ATOM     37  C   UNL A   1      42.568  23.733  27.507  1.00  0.00     0.058 A 
ATOM     38  C   UNL A   1      42.435  22.670  28.419  1.00  0.00     0.135 A 
ATOM     39  C   UNL A   1      42.495  23.441  26.138  1.00  0.00     0.135 A 
ATOM     40  F   UNL A   1      42.542  22.895  29.739  1.00  0.00    -0.206 F 
ATOM     41  C   UNL A   1      42.294  21.358  27.987  1.00  0.00     0.059 A 
ATOM     42  C   UNL A   1      42.324  22.136  25.685  1.00  0.00     0.059 A 
ATOM     43  F   UNL A   1      42.633  24.418  25.228  1.00  0.00    -0.206 F 
ATOM     44  C   UNL A   1      42.248  21.101  26.617  1.00  0.00     0.060 A 
BRANCH  44  45
ATOM     45  S   UNL A   1      42.106  19.386  26.072  1.00  0.00     0.124 S 
ATOM     46  O   UNL A   1      42.976  19.380  24.900  1.00  0.00    -0.237 OA
ATOM     47  O   UNL A   1      42.602  18.650  27.232  1.00  0.00    -0.237 OA
ATOM     48  O   UNL A   1      40.680  19.235  25.800  1.00  0.00    -0.744 OA
ENDBRANCH  44  45
ENDBRANCH  23  37
BRANCH  24  49
ATOM     49  C   UNL A   1      44.007  33.188  30.613  1.00  0.00     0.058 A 
ATOM     50  C   UNL A   1      44.251  33.512  31.959  1.00  0.00     0.135 A 
ATOM     51  C   UNL A   1      43.935  34.253  29.702  1.00  0.00     0.135 A 
ATOM     52  F   UNL A   1      44.333  32.536  32.878  1.00  0.00    -0.206 F 
ATOM     53  C   UNL A   1      44.366  34.831  32.393  1.00  0.00     0.059 A 
ATOM     54  C   UNL A   1      44.076  35.580  30.106  1.00  0.00     0.059 A 
ATOM     55  F   UNL A   1      43.725  34.010  28.399  1.00  0.00    -0.206 F 
ATOM     56  C   UNL A   1      44.267  35.861  31.459  1.00  0.00     0.060 A 
BRANCH  56  57
ATOM     57  S   UNL A   1      44.415  37.572  32.025  1.00  0.00     0.124 S 
ATOM     58  O   UNL A   1      43.430  37.613  33.099  1.00  0.00    -0.237 OA
ATOM     59  O   UNL A   1      45.814  37.641  32.438  1.00  0.00    -0.237 OA
ATOM     60  O   UNL A   1      44.086  38.345  30.832  1.00  0.00    -0.744 OA
ENDBRANCH  56  57
ENDBRANCH  24  49
BRANCH  36  61
ATOM     61  C   UNL A   1      48.268  27.986  28.784  1.00  0.00     0.058 A 
ATOM     62  C   UNL A   1      48.954  28.276  27.595  1.00  0.00     0.135 A 
ATOM     63  C   UNL A   1      49.021  27.674  29.927  1.00  0.00     0.135 A 
ATOM     64  F   UNL A   1      48.273  28.574  26.477  1.00  0.00    -0.206 F 
ATOM     65  C   UNL A   1      50.341  28.246  27.537  1.00  0.00     0.059 A 
ATOM     66  C   UNL A   1      50.410  27.664  29.897  1.00  0.00     0.059 A 
ATOM     67  F   UNL A   1      48.408  27.399  31.088  1.00  0.00    -0.206 F 
ATOM     68  C   UNL A   1      51.061  27.943  28.695  1.00  0.00     0.060 A 
BRANCH  68  69
ATOM     69  S   UNL A   1      52.862  27.960  28.620  1.00  0.00     0.124 S 
ATOM     70  O   UNL A   1      53.095  28.039  27.182  1.00  0.00    -0.237 OA
ATOM     71  O   UNL A   1      53.197  29.158  29.385  1.00  0.00    -0.237 OA
ATOM     72  O   UNL A   1      53.239  26.698  29.250  1.00  0.00    -0.744 OA
ENDBRANCH  68  69
ENDBRANCH  36  61
ENDBRANCH  10  11
ENDBRANCH   3   5
ENDBRANCH   2   3
ENDBRANCH   1   2
BRANCH   1  73
ATOM     73  C   UNL A   1      33.621  28.624  25.078  1.00  0.00     0.274 C 
BRANCH  73  74
ATOM     74  O   UNL A   1      32.307  28.583  24.494  1.00  0.00    -0.461 OA
BRANCH  74  75
ATOM     75  C   UNL A   1      32.076  27.527  23.659  1.00  0.00     0.316 C 
ATOM     76  O   UNL A   1      32.919  27.078  22.887  1.00  0.00    -0.251 OA
BRANCH  75  77
ATOM     77  C   UNL A   1      30.603  27.026  23.687  1.00  0.00     0.095 C 
ATOM     78  C   UNL A   1      30.046  26.750  25.090  1.00  0.00     0.040 C 
ATOM     79  C   UNL A   1      30.588  25.643  22.979  1.00  0.00     0.040 C 
ATOM     80  C   UNL A   1      30.778  25.660  25.852  1.00  0.00     0.104 C 
ATOM     81  C   UNL A   1      31.410  24.587  23.734  1.00  0.00     0.104 C 
ATOM     82  N   UNL A   1      30.869  24.384  25.101  1.00  0.00    -0.197 NA
BRANCH  77  83
ATOM     83  C   UNL A   1      29.698  28.109  23.036  1.00  0.00    -0.031 A 
ATOM     84  C   UNL A   1      28.315  28.170  23.251  1.00  0.00     0.005 A 
ATOM     85  C   UNL A   1      30.268  29.145  22.258  1.00  0.00     0.005 A 
ATOM     86  C   UNL A   1      27.544  29.211  22.715  1.00  0.00     0.000 A 
ATOM     87  C   UNL A   1      29.498  30.176  21.714  1.00  0.00     0.000 A 
ATOM     88  C   UNL A   1      28.132  30.209  21.944  1.00  0.00     0.000 A 
ENDBRANCH  77  83
BRANCH  82  89
ATOM     89  S   UNL A   1      31.741  23.237  26.071  1.00  0.00     0.252 S 
ATOM     90  O   UNL A   1      31.629  23.685  27.450  1.00  0.00    -0.206 OA
ATOM     91  O   UNL A   1      31.317  21.914  25.682  1.00  0.00    -0.206 OA
BRANCH  89  92
ATOM     92  C   UNL A   1      33.480  23.374  25.730  1.00  0.00     0.135 A 
ATOM     93  C   UNL A   1      34.334  24.460  25.808  1.00  0.00     0.033 A 
ATOM     94  S   UNL A   1      34.321  21.951  25.298  1.00  0.00    -0.131 S 
ATOM     95  C   UNL A   1      35.678  24.123  25.488  1.00  0.00     0.013 A 
ATOM     96  C   UNL A   1      35.814  22.782  25.211  1.00  0.00     0.066 A 
ENDBRANCH  89  92
ENDBRANCH  82  89
ENDBRANCH  75  77
ENDBRANCH  74  75
ENDBRANCH  73  74
ENDBRANCH   1  73
TORSDOF 17
ENDMDL
MODEL 2
REMARK VINA RESULT:     -12.1      0.953      1.702
REMARK SMILES O=C(OCCOC(=O)C1(c2ccccc2)CCN(S(=O)(=O)c2cccs2)CC1)c1ccc(-c2c3nc(c(-c4c(F)cc(S(=O)(=O)[O-])cc4F)c4ccc([nH]4)c(-c4c(F)cc(S(=O)(=O)[O-])cc4F)c4nc(c(-c5c(F)cc(S(=O)(=O)[O-])cc5F)c5ccc2[nH]5)C=C4)C=C3)cc1
REMARK SMILES IDX 4 1 3 2 2 3 1 4 29 5 30 6 94 7 31 8 93 9 32 10 33 11 34 12
REMARK SMILES IDX 87 13 35 14 92 15 86 16 88 17 36 18 91 19 85 20 84 21 37 23
REMARK SMILES IDX 71 24 50 25 70 26 51 27 54 28 69 29 89 30 52 31 53 32 68 34
REMARK SMILES IDX 90 35 55 36 38 37 39 38 48 39 40 40 41 41 47 42 49 43 42 44
REMARK SMILES IDX 43 45 44 46 45 47 46 48 72 49 73 50 82 51 74 52 75 53 81 54
REMARK SMILES IDX 83 55 76 56 77 57 78 58 79 59 80 60 56 61 57 62 66 63 58 64
REMARK SMILES IDX 59 65 65 66 67 67 60 68 61 69 62 70 63 71 64 72 5 73 6 74
REMARK SMILES IDX 7 75 8 76 9 77 16 78 28 79 17 80 27 81 18 82 10 83 11 84
REMARK SMILES IDX 15 85 12 86 14 87 13 88 19 89 20 90 21 91 22 92 23 93 26 94
REMARK SMILES IDX 24 95 25 96
REMARK H PARENT 88 22 54 33
REMARK Flexibility Score: inf
ROOT
ATOM      1  C   UNL A   1      32.143  29.289  27.145  1.00  0.00     0.275 C 
ENDROOT
BRANCH   1   2
ATOM      2  O   UNL A   1      33.558  29.201  27.362  1.00  0.00    -0.458 OA
BRANCH   2   3
ATOM      3  C   UNL A   1      34.413  30.090  27.918  1.00  0.00     0.338 C 
ATOM      4  O   UNL A   1      34.028  31.253  28.047  1.00  0.00    -0.246 OA
BRANCH   3   5
ATOM      5  C   UNL A   1      35.835  29.789  28.288  1.00  0.00     0.060 A 
ATOM      6  C   UNL A   1      36.308  29.378  29.537  1.00  0.00     0.016 A 
ATOM      7  C   UNL A   1      36.782  29.935  27.257  1.00  0.00     0.016 A 
ATOM      8  C   UNL A   1      37.656  29.036  29.726  1.00  0.00     0.010 A 
ATOM      9  C   UNL A   1      38.121  29.561  27.429  1.00  0.00     0.010 A 
ATOM     10  C   UNL A   1      38.573  29.111  28.673  1.00  0.00    -0.014 A 
BRANCH  10  11
ATOM     11  C   UNL A   1      40.019  28.911  28.951  1.00  0.00     0.031 A 
ATOM     12  C   UNL A   1      40.623  27.593  28.575  1.00  0.00     0.074 A 
ATOM     13  C   UNL A   1      40.793  29.889  29.462  1.00  0.00     0.049 A 
ATOM     14  N   UNL A   1      41.875  27.230  28.590  1.00  0.00    -0.248 NA
ATOM     15  C   UNL A   1      39.688  26.529  28.171  1.00  0.00     0.031 C 
ATOM     16  C   UNL A   1      40.301  31.152  29.995  1.00  0.00     0.029 A 
ATOM     17  N   UNL A   1      42.156  29.994  29.604  1.00  0.00    -0.354 N 
ATOM     18  C   UNL A   1      41.874  25.898  28.205  1.00  0.00     0.074 A 
ATOM     19  C   UNL A   1      40.497  25.493  28.050  1.00  0.00     0.031 C 
ATOM     20  C   UNL A   1      41.337  31.938  30.330  1.00  0.00     0.029 A 
ATOM     21  C   UNL A   1      42.575  31.237  30.035  1.00  0.00     0.049 A 
ATOM     22  H   UNL A   1      42.776  29.252  29.415  1.00  0.00     0.167 HD
ATOM     23  C   UNL A   1      42.929  25.091  27.957  1.00  0.00     0.037 A 
ATOM     24  C   UNL A   1      43.816  31.756  30.142  1.00  0.00     0.037 A 
ATOM     25  C   UNL A   1      44.292  25.506  28.112  1.00  0.00     0.049 A 
ATOM     26  C   UNL A   1      44.978  30.866  29.778  1.00  0.00     0.074 A 
ATOM     27  C   UNL A   1      45.446  24.770  27.932  1.00  0.00     0.029 A 
ATOM     28  N   UNL A   1      44.679  26.787  28.482  1.00  0.00    -0.354 N 
ATOM     29  N   UNL A   1      44.959  29.623  29.355  1.00  0.00    -0.248 NA
ATOM     30  C   UNL A   1      46.326  31.435  29.909  1.00  0.00     0.031 C 
ATOM     31  C   UNL A   1      46.535  25.607  28.204  1.00  0.00     0.029 A 
ATOM     32  C   UNL A   1      46.057  26.870  28.519  1.00  0.00     0.049 A 
ATOM     33  H   UNL A   1      44.062  27.527  28.688  1.00  0.00     0.167 HD
ATOM     34  C   UNL A   1      46.287  29.261  29.178  1.00  0.00     0.074 A 
ATOM     35  C   UNL A   1      47.083  30.433  29.488  1.00  0.00     0.031 C 
ATOM     36  C   UNL A   1      46.809  28.063  28.818  1.00  0.00     0.037 A 
BRANCH  23  37
ATOM     37  C   UNL A   1      42.601  23.707  27.488  1.00  0.00     0.058 A 
ATOM     38  C   UNL A   1      42.439  22.655  28.406  1.00  0.00     0.135 A 
ATOM     39  C   UNL A   1      42.555  23.403  26.120  1.00  0.00     0.135 A 
ATOM     40  F   UNL A   1      42.519  22.891  29.726  1.00  0.00    -0.206 F 
ATOM     41  C   UNL A   1      42.297  21.340  27.983  1.00  0.00     0.059 A 
ATOM     42  C   UNL A   1      42.383  22.095  25.675  1.00  0.00     0.059 A 
ATOM     43  F   UNL A   1      42.721  24.370  25.205  1.00  0.00    -0.206 F 
ATOM     44  C   UNL A   1      42.279  21.069  26.615  1.00  0.00     0.060 A 
BRANCH  44  45
ATOM     45  S   UNL A   1      42.135  19.351  26.084  1.00  0.00     0.124 S 
ATOM     46  O   UNL A   1      42.627  18.640  27.260  1.00  0.00    -0.237 OA
ATOM     47  O   UNL A   1      40.704  19.226  25.822  1.00  0.00    -0.237 OA
ATOM     48  O   UNL A   1      42.993  19.289  24.905  1.00  0.00    -0.744 OA
ENDBRANCH  44  45
ENDBRANCH  23  37
BRANCH  24  49
ATOM     49  C   UNL A   1      44.045  33.174  30.555  1.00  0.00     0.058 A 
ATOM     50  C   UNL A   1      44.174  33.518  31.912  1.00  0.00     0.135 A 
ATOM     51  C   UNL A   1      44.087  34.222  29.623  1.00  0.00     0.135 A 
ATOM     52  F   UNL A   1      44.145  32.560  32.852  1.00  0.00    -0.206 F 
ATOM     53  C   UNL A   1      44.287  34.842  32.332  1.00  0.00     0.059 A 
ATOM     54  C   UNL A   1      44.228  35.553  30.015  1.00  0.00     0.059 A 
ATOM     55  F   UNL A   1      43.990  33.959  28.311  1.00  0.00    -0.206 F 
ATOM     56  C   UNL A   1      44.302  35.855  31.374  1.00  0.00     0.060 A 
BRANCH  56  57
ATOM     57  S   UNL A   1      44.447  37.573  31.921  1.00  0.00     0.124 S 
ATOM     58  O   UNL A   1      45.890  37.714  32.067  1.00  0.00    -0.237 OA
ATOM     59  O   UNL A   1      43.842  38.303  30.811  1.00  0.00    -0.237 OA
ATOM     60  O   UNL A   1      43.679  37.592  33.162  1.00  0.00    -0.744 OA
ENDBRANCH  56  57
ENDBRANCH  24  49
BRANCH  36  61
ATOM     61  C   UNL A   1      48.303  27.967  28.734  1.00  0.00     0.058 A 
ATOM     62  C   UNL A   1      49.073  27.586  29.843  1.00  0.00     0.135 A 
ATOM     63  C   UNL A   1      48.959  28.185  27.512  1.00  0.00     0.135 A 
ATOM     64  F   UNL A   1      48.488  27.373  31.032  1.00  0.00    -0.206 F 
ATOM     65  C   UNL A   1      50.451  27.438  29.748  1.00  0.00     0.059 A 
ATOM     66  C   UNL A   1      50.333  28.016  27.389  1.00  0.00     0.059 A 
ATOM     67  F   UNL A   1      48.261  28.541  26.423  1.00  0.00    -0.206 F 
ATOM     68  C   UNL A   1      51.071  27.651  28.515  1.00  0.00     0.060 A 
BRANCH  68  69
ATOM     69  S   UNL A   1      52.853  27.403  28.391  1.00  0.00     0.124 S 
ATOM     70  O   UNL A   1      53.266  27.554  29.782  1.00  0.00    -0.237 OA
ATOM     71  O   UNL A   1      52.944  26.052  27.844  1.00  0.00    -0.237 OA
ATOM     72  O   UNL A   1      53.281  28.467  27.489  1.00  0.00    -0.744 OA
ENDBRANCH  68  69
ENDBRANCH  36  61
ENDBRANCH  10  11
ENDBRANCH   3   5
ENDBRANCH   2   3
ENDBRANCH   1   2
BRANCH   1  73
ATOM     73  C   UNL A   1      31.741  29.223  25.676  1.00  0.00     0.274 C 
BRANCH  73  74
ATOM     74  O   UNL A   1      32.110  27.988  25.038  1.00  0.00    -0.461 OA
BRANCH  74  75
ATOM     75  C   UNL A   1      31.117  27.053  24.962  1.00  0.00     0.316 C 
ATOM     76  O   UNL A   1      30.719  26.411  25.929  1.00  0.00    -0.251 OA
BRANCH  75  77
ATOM     77  C   UNL A   1      30.625  26.788  23.510  1.00  0.00     0.095 C 
ATOM     78  C   UNL A   1      30.034  25.391  23.278  1.00  0.00     0.040 C 
ATOM     79  C   UNL A   1      31.880  26.841  22.596  1.00  0.00     0.040 C 
ATOM     80  C   UNL A   1      31.011  24.252  23.507  1.00  0.00     0.104 C 
ATOM     81  C   UNL A   1      32.886  25.725  22.914  1.00  0.00     0.104 C 
ATOM     82  N   UNL A   1      32.263  24.391  22.723  1.00  0.00    -0.197 NA
BRANCH  77  83
ATOM     83  C   UNL A   1      29.516  27.821  23.166  1.00  0.00    -0.031 A 
ATOM     84  C   UNL A   1      28.179  27.655  23.552  1.00  0.00     0.005 A 
ATOM     85  C   UNL A   1      29.844  29.034  22.513  1.00  0.00     0.005 A 
ATOM     86  C   UNL A   1      27.222  28.648  23.297  1.00  0.00     0.000 A 
ATOM     87  C   UNL A   1      28.889  30.018  22.249  1.00  0.00     0.000 A 
ATOM     88  C   UNL A   1      27.574  29.825  22.643  1.00  0.00     0.000 A 
ENDBRANCH  77  83
BRANCH  82  89
ATOM     89  S   UNL A   1      33.293  23.041  23.091  1.00  0.00     0.252 S 
ATOM     90  O   UNL A   1      32.557  21.842  22.725  1.00  0.00    -0.206 OA
ATOM     91  O   UNL A   1      34.596  23.313  22.534  1.00  0.00    -0.206 OA
BRANCH  89  92
ATOM     92  C   UNL A   1      33.473  22.897  24.853  1.00  0.00     0.135 A 
ATOM     93  C   UNL A   1      33.904  23.814  25.796  1.00  0.00     0.033 A 
ATOM     94  S   UNL A   1      32.982  21.434  25.586  1.00  0.00    -0.131 S 
ATOM     95  C   UNL A   1      33.852  23.301  27.121  1.00  0.00     0.013 A 
ATOM     96  C   UNL A   1      33.348  22.020  27.152  1.00  0.00     0.066 A 
ENDBRANCH  89  92
ENDBRANCH  82  89
ENDBRANCH  75  77
ENDBRANCH  74  75
ENDBRANCH  73  74
ENDBRANCH   1  73
TORSDOF 17
ENDMDL
MODEL 3
REMARK VINA RESULT:     -11.7      4.128      9.801
REMARK SMILES O=C(OCCOC(=O)C1(c2ccccc2)CCN(S(=O)(=O)c2cccs2)CC1)c1ccc(-c2c3nc(c(-c4c(F)cc(S(=O)(=O)[O-])cc4F)c4ccc([nH]4)c(-c4c(F)cc(S(=O)(=O)[O-])cc4F)c4nc(c(-c5c(F)cc(S(=O)(=O)[O-])cc5F)c5ccc2[nH]5)C=C4)C=C3)cc1
REMARK SMILES IDX 4 1 3 2 2 3 1 4 29 5 30 6 94 7 31 8 93 9 32 10 33 11 34 12
REMARK SMILES IDX 87 13 35 14 92 15 86 16 88 17 36 18 91 19 85 20 84 21 37 23
REMARK SMILES IDX 71 24 50 25 70 26 51 27 54 28 69 29 89 30 52 31 53 32 68 34
REMARK SMILES IDX 90 35 55 36 38 37 39 38 48 39 40 40 41 41 47 42 49 43 42 44
REMARK SMILES IDX 43 45 44 46 45 47 46 48 72 49 73 50 82 51 74 52 75 53 81 54
REMARK SMILES IDX 83 55 76 56 77 57 78 58 79 59 80 60 56 61 57 62 66 63 58 64
REMARK SMILES IDX 59 65 65 66 67 67 60 68 61 69 62 70 63 71 64 72 5 73 6 74
REMARK SMILES IDX 7 75 8 76 9 77 16 78 28 79 17 80 27 81 18 82 10 83 11 84
REMARK SMILES IDX 15 85 12 86 14 87 13 88 19 89 20 90 21 91 22 92 23 93 26 94
REMARK SMILES IDX 24 95 25 96
REMARK H PARENT 88 22 54 33
REMARK Flexibility Score: inf
ROOT
ATOM      1  C   UNL A   1      37.288  22.309  24.490  1.00  0.00     0.275 C 
ENDROOT
BRANCH   1   2
ATOM      2  O   UNL A   1      37.764  23.283  25.429  1.00  0.00    -0.458 OA
BRANCH   2   3
ATOM      3  C   UNL A   1      38.943  23.357  26.088  1.00  0.00     0.338 C 
ATOM      4  O   UNL A   1      39.633  22.339  26.148  1.00  0.00    -0.246 OA
BRANCH   3   5
ATOM      5  C   UNL A   1      39.422  24.561  26.846  1.00  0.00     0.060 A 
ATOM      6  C   UNL A   1      40.248  25.580  26.365  1.00  0.00     0.016 A 
ATOM      7  C   UNL A   1      38.981  24.663  28.179  1.00  0.00     0.016 A 
ATOM      8  C   UNL A   1      40.546  26.704  27.151  1.00  0.00     0.010 A 
ATOM      9  C   UNL A   1      39.246  25.798  28.956  1.00  0.00     0.010 A 
ATOM     10  C   UNL A   1      40.038  26.831  28.448  1.00  0.00    -0.014 A 
BRANCH  10  11
ATOM     11  C   UNL A   1      40.514  27.943  29.310  1.00  0.00     0.031 A 
ATOM     12  C   UNL A   1      39.598  29.112  29.506  1.00  0.00     0.074 A 
ATOM     13  C   UNL A   1      41.696  27.895  29.956  1.00  0.00     0.049 A 
ATOM     14  N   UNL A   1      39.727  30.130  30.311  1.00  0.00    -0.248 NA
ATOM     15  C   UNL A   1      38.401  29.163  28.650  1.00  0.00     0.031 C 
ATOM     16  C   UNL A   1      42.727  26.889  29.738  1.00  0.00     0.029 A 
ATOM     17  N   UNL A   1      42.232  28.691  30.941  1.00  0.00    -0.354 N 
ATOM     18  C   UNL A   1      38.633  30.941  30.051  1.00  0.00     0.074 A 
ATOM     19  C   UNL A   1      37.902  30.346  28.957  1.00  0.00     0.031 C 
ATOM     20  C   UNL A   1      43.732  27.071  30.610  1.00  0.00     0.029 A 
ATOM     21  C   UNL A   1      43.420  28.210  31.457  1.00  0.00     0.049 A 
ATOM     22  H   UNL A   1      41.809  29.525  31.248  1.00  0.00     0.167 HD
ATOM     23  C   UNL A   1      38.243  32.062  30.696  1.00  0.00     0.037 A 
ATOM     24  C   UNL A   1      44.146  28.625  32.515  1.00  0.00     0.037 A 
ATOM     25  C   UNL A   1      38.976  32.643  31.782  1.00  0.00     0.049 A 
ATOM     26  C   UNL A   1      43.649  29.829  33.276  1.00  0.00     0.074 A 
ATOM     27  C   UNL A   1      38.706  33.797  32.490  1.00  0.00     0.029 A 
ATOM     28  N   UNL A   1      40.132  32.094  32.323  1.00  0.00    -0.354 N 
ATOM     29  N   UNL A   1      42.575  30.552  33.055  1.00  0.00    -0.248 NA
ATOM     30  C   UNL A   1      44.453  30.281  34.419  1.00  0.00     0.031 C 
ATOM     31  C   UNL A   1      39.708  33.953  33.455  1.00  0.00     0.029 A 
ATOM     32  C   UNL A   1      40.580  32.877  33.369  1.00  0.00     0.049 A 
ATOM     33  H   UNL A   1      40.567  31.269  32.007  1.00  0.00     0.167 HD
ATOM     34  C   UNL A   1      42.580  31.546  34.025  1.00  0.00     0.074 A 
ATOM     35  C   UNL A   1      43.734  31.300  34.867  1.00  0.00     0.031 C 
ATOM     36  C   UNL A   1      41.727  32.586  34.192  1.00  0.00     0.037 A 
BRANCH  23  37
ATOM     37  C   UNL A   1      36.966  32.684  30.218  1.00  0.00     0.058 A 
ATOM     38  C   UNL A   1      36.968  33.610  29.160  1.00  0.00     0.135 A 
ATOM     39  C   UNL A   1      35.756  32.444  30.883  1.00  0.00     0.135 A 
ATOM     40  F   UNL A   1      38.112  33.905  28.522  1.00  0.00    -0.206 F 
ATOM     41  C   UNL A   1      35.824  34.315  28.813  1.00  0.00     0.059 A 
ATOM     42  C   UNL A   1      34.591  33.119  30.531  1.00  0.00     0.059 A 
ATOM     43  F   UNL A   1      35.706  31.582  31.911  1.00  0.00    -0.206 F 
ATOM     44  C   UNL A   1      34.642  34.069  29.511  1.00  0.00     0.060 A 
BRANCH  44  45
ATOM     45  S   UNL A   1      33.174  35.024  29.074  1.00  0.00     0.124 S 
ATOM     46  O   UNL A   1      32.531  35.181  30.375  1.00  0.00    -0.237 OA
ATOM     47  O   UNL A   1      33.752  36.238  28.504  1.00  0.00    -0.237 OA
ATOM     48  O   UNL A   1      32.478  34.160  28.127  1.00  0.00    -0.744 OA
ENDBRANCH  44  45
ENDBRANCH  23  37
BRANCH  24  49
ATOM     49  C   UNL A   1      45.375  27.900  32.962  1.00  0.00     0.058 A 
ATOM     50  C   UNL A   1      46.649  28.298  32.519  1.00  0.00     0.135 A 
ATOM     51  C   UNL A   1      45.310  26.768  33.789  1.00  0.00     0.135 A 
ATOM     52  F   UNL A   1      46.776  29.375  31.728  1.00  0.00    -0.206 F 
ATOM     53  C   UNL A   1      47.800  27.579  32.837  1.00  0.00     0.059 A 
ATOM     54  C   UNL A   1      46.450  26.048  34.146  1.00  0.00     0.059 A 
ATOM     55  F   UNL A   1      44.127  26.348  34.262  1.00  0.00    -0.206 F 
ATOM     56  C   UNL A   1      47.689  26.448  33.644  1.00  0.00     0.060 A 
BRANCH  56  57
ATOM     57  S   UNL A   1      49.183  25.516  34.054  1.00  0.00     0.124 S 
ATOM     58  O   UNL A   1      48.828  24.947  35.348  1.00  0.00    -0.237 OA
ATOM     59  O   UNL A   1      49.275  24.573  32.944  1.00  0.00    -0.237 OA
ATOM     60  O   UNL A   1      50.219  26.545  34.076  1.00  0.00    -0.744 OA
ENDBRANCH  56  57
ENDBRANCH  24  49
BRANCH  36  61
ATOM     61  C   UNL A   1      42.006  33.523  35.328  1.00  0.00     0.058 A 
ATOM     62  C   UNL A   1      42.794  34.670  35.151  1.00  0.00     0.135 A 
ATOM     63  C   UNL A   1      41.418  33.308  36.584  1.00  0.00     0.135 A 
ATOM     64  F   UNL A   1      43.381  34.911  33.967  1.00  0.00    -0.206 F 
ATOM     65  C   UNL A   1      43.003  35.569  36.188  1.00  0.00     0.059 A 
ATOM     66  C   UNL A   1      41.592  34.210  37.627  1.00  0.00     0.059 A 
ATOM     67  F   UNL A   1      40.648  32.230  36.796  1.00  0.00    -0.206 F 
ATOM     68  C   UNL A   1      42.394  35.332  37.422  1.00  0.00     0.060 A 
BRANCH  68  69
ATOM     69  S   UNL A   1      42.628  36.535  38.744  1.00  0.00     0.124 S 
ATOM     70  O   UNL A   1      42.807  35.666  39.902  1.00  0.00    -0.237 OA
ATOM     71  O   UNL A   1      43.817  37.259  38.304  1.00  0.00    -0.237 OA
ATOM     72  O   UNL A   1      41.390  37.308  38.723  1.00  0.00    -0.744 OA
ENDBRANCH  68  69
ENDBRANCH  36  61
ENDBRANCH  10  11
ENDBRANCH   3   5
ENDBRANCH   2   3
ENDBRANCH   1   2
BRANCH   1  73
ATOM     73  C   UNL A   1      36.400  22.891  23.396  1.00  0.00     0.274 C 
BRANCH  73  74
ATOM     74  O   UNL A   1      35.128  23.357  23.881  1.00  0.00    -0.461 OA
BRANCH  74  75
ATOM     75  C   UNL A   1      34.056  23.041  23.096  1.00  0.00     0.316 C 
ATOM     76  O   UNL A   1      33.995  23.305  21.898  1.00  0.00    -0.251 OA
BRANCH  75  77
ATOM     77  C   UNL A   1      32.866  22.430  23.889  1.00  0.00     0.095 C 
ATOM     78  C   UNL A   1      31.483  22.708  23.284  1.00  0.00     0.040 C 
ATOM     79  C   UNL A   1      32.839  23.136  25.272  1.00  0.00     0.040 C 
ATOM     80  C   UNL A   1      31.113  24.179  23.218  1.00  0.00     0.104 C 
ATOM     81  C   UNL A   1      32.547  24.640  25.159  1.00  0.00     0.104 C 
ATOM     82  N   UNL A   1      31.223  24.867  24.527  1.00  0.00    -0.197 NA
BRANCH  77  83
ATOM     83  C   UNL A   1      33.045  20.887  23.941  1.00  0.00    -0.031 A 
ATOM     84  C   UNL A   1      32.256  20.006  23.189  1.00  0.00     0.005 A 
ATOM     85  C   UNL A   1      34.093  20.313  24.699  1.00  0.00     0.005 A 
ATOM     86  C   UNL A   1      32.501  18.626  23.197  1.00  0.00     0.000 A 
ATOM     87  C   UNL A   1      34.331  18.936  24.716  1.00  0.00     0.000 A 
ATOM     88  C   UNL A   1      33.533  18.090  23.962  1.00  0.00     0.000 A 
ENDBRANCH  77  83
BRANCH  82  89
ATOM     89  S   UNL A   1      30.793  26.537  24.307  1.00  0.00     0.252 S 
ATOM     90  O   UNL A   1      31.356  26.948  23.032  1.00  0.00    -0.206 OA
ATOM     91  O   UNL A   1      29.382  26.669  24.575  1.00  0.00    -0.206 OA
BRANCH  89  92
ATOM     92  C   UNL A   1      31.668  27.534  25.489  1.00  0.00     0.135 A 
ATOM     93  C   UNL A   1      31.490  27.684  26.853  1.00  0.00     0.033 A 
ATOM     94  S   UNL A   1      33.013  28.429  24.935  1.00  0.00    -0.131 S 
ATOM     95  C   UNL A   1      32.450  28.556  27.437  1.00  0.00     0.013 A 
ATOM     96  C   UNL A   1      33.352  29.017  26.505  1.00  0.00     0.066 A 
ENDBRANCH  89  92
ENDBRANCH  82  89
ENDBRANCH  75  77
ENDBRANCH  74  75
ENDBRANCH  73  74
ENDBRANCH   1  73
TORSDOF 17
ENDMDL
