MODEL 1
REMARK VINA RESULT:     -12.5      0.000      0.000
REMARK SMILES CC1CC[NH+]([C@H](c2ccc(F)cc2)c2ccc([C@@H](C)C(=O)OCCOC(=O)c3ccc(-c4c5nc(c(-c6c(F)cc(S(=O)(=O)[O-])cc6F)c6ccc([nH]6)c(-c6c(F)cc(S(=O)(=O)[O-])cc6F)c6nc(c(-c7c(F)cc(S(=O)(=O)[O-])cc7F)c7ccc4[nH]7)C=C6)C=C5)cc3)cc2-c2ccc(C(F)(F)F)cc2)CC1
REMARK SMILES IDX 23 1 22 2 20 3 21 4 18 5 19 6 17 7 14 8 15 9 95 10 16 11
REMARK SMILES IDX 94 12 6 13 5 14 1 15 2 16 3 17 107 18 4 19 106 20 7 22 8 23
REMARK SMILES IDX 13 24 9 25 12 26 10 27 11 28 96 29 97 30 105 31 98 32 104 33
REMARK SMILES IDX 99 34 100 35 101 36 102 37 103 38 24 39 25 40 26 41 27 42
REMARK SMILES IDX 28 43 29 44 93 45 30 46 92 47 31 48 32 49 33 50 86 51 34 52
REMARK SMILES IDX 91 53 85 54 87 55 35 56 90 57 84 58 83 59 36 61 70 62 49 63
REMARK SMILES IDX 69 64 50 65 53 66 68 67 88 68 51 69 52 70 67 72 89 73 54 74
REMARK SMILES IDX 37 75 38 76 47 77 39 78 40 79 46 80 48 81 41 82 42 83 43 84
REMARK SMILES IDX 44 85 45 86 71 87 72 88 81 89 73 90 74 91 80 92 82 93 75 94
REMARK SMILES IDX 76 95 77 96 78 97 79 98 55 99 56 100 65 101 57 102 58 103
REMARK SMILES IDX 64 104 66 105 59 106 60 107 61 108 62 109 63 110
REMARK H PARENT 5 21 87 60 53 71
REMARK Flexibility Score: inf
ROOT
ATOM      1  C   UNL A   1      42.561  21.742  26.080  1.00  0.00     0.274 C 
ENDROOT
BRANCH   1   2
ATOM      2  O   UNL A   1      41.348  21.357  25.406  1.00  0.00    -0.462 OA
BRANCH   2   3
ATOM      3  C   UNL A   1      40.195  21.359  26.126  1.00  0.00     0.313 C 
ATOM      4  O   UNL A   1      39.908  20.510  26.965  1.00  0.00    -0.252 OA
BRANCH   3   5
ATOM      5  C   UNL A   1      39.241  22.496  25.751  1.00  0.00     0.126 C 
ATOM      6  C   UNL A   1      39.307  23.591  26.813  1.00  0.00     0.025 C 
BRANCH   5   7
ATOM      7  C   UNL A   1      37.809  22.073  25.452  1.00  0.00    -0.033 A 
ATOM      8  C   UNL A   1      35.137  21.248  24.812  1.00  0.00     0.022 A 
ATOM      9  C   UNL A   1      36.079  20.386  25.407  1.00  0.00     0.011 A 
ATOM     10  C   UNL A   1      35.563  22.581  24.544  1.00  0.00    -0.009 A 
ATOM     11  C   UNL A   1      37.366  20.790  25.748  1.00  0.00     0.005 A 
ATOM     12  C   UNL A   1      36.893  22.960  24.861  1.00  0.00     0.013 A 
BRANCH   8  13
ATOM     13  C   UNL A   1      33.688  20.767  24.512  1.00  0.00     0.247 C 
BRANCH  13  14
ATOM     14  N   UNL A   1      32.550  21.476  25.196  1.00  0.00    -0.325 N 
ATOM     15  C   UNL A   1      30.347  25.049  26.500  1.00  0.00     0.008 C 
ATOM     16  C   UNL A   1      31.320  24.028  25.923  1.00  0.00    -0.003 C 
ATOM     17  C   UNL A   1      30.654  23.138  24.876  1.00  0.00     0.065 C 
ATOM     18  C   UNL A   1      31.870  23.111  27.010  1.00  0.00     0.065 C 
ATOM     19  C   UNL A   1      31.655  22.158  24.258  1.00  0.00     0.263 C 
ATOM     20  C   UNL A   1      32.919  22.155  26.440  1.00  0.00     0.263 C 
ATOM     21  H   UNL A   1      31.933  20.760  25.579  1.00  0.00     0.348 HD
ENDBRANCH  13  14
BRANCH  13  22
ATOM     22  C   UNL A   1      33.494  19.242  24.581  1.00  0.00     0.014 A 
ATOM     23  C   UNL A   1      32.899  18.617  25.693  1.00  0.00     0.013 A 
ATOM     24  C   UNL A   1      33.901  18.442  23.495  1.00  0.00     0.013 A 
ATOM     25  C   UNL A   1      32.709  17.233  25.710  1.00  0.00     0.040 A 
ATOM     26  C   UNL A   1      33.729  17.056  23.525  1.00  0.00     0.040 A 
ATOM     27  C   UNL A   1      33.126  16.468  24.628  1.00  0.00     0.123 A 
ATOM     28  F   UNL A   1      32.936  15.142  24.646  1.00  0.00    -0.207 F 
ENDBRANCH  13  22
ENDBRANCH   8  13
BRANCH  10  29
ATOM     29  C   UNL A   1      34.688  23.606  23.940  1.00  0.00    -0.018 A 
ATOM     30  C   UNL A   1      34.426  24.811  24.613  1.00  0.00     0.009 A 
ATOM     31  C   UNL A   1      34.097  23.408  22.683  1.00  0.00     0.009 A 
ATOM     32  C   UNL A   1      33.638  25.807  24.025  1.00  0.00     0.014 A 
ATOM     33  C   UNL A   1      33.316  24.406  22.090  1.00  0.00     0.014 A 
ATOM     34  C   UNL A   1      33.091  25.623  22.748  1.00  0.00     0.056 A 
BRANCH  34  35
ATOM     35  C   UNL A   1      32.272  26.716  22.104  1.00  0.00     0.416 C 
ATOM     36  F   UNL A   1      31.335  27.232  22.944  1.00  0.00    -0.166 F 
ATOM     37  F   UNL A   1      33.031  27.763  21.681  1.00  0.00    -0.166 F 
ATOM     38  F   UNL A   1      31.588  26.289  21.003  1.00  0.00    -0.166 F 
ENDBRANCH  34  35
ENDBRANCH  10  29
ENDBRANCH   5   7
ENDBRANCH   3   5
ENDBRANCH   2   3
ENDBRANCH   1   2
BRANCH   1  39
ATOM     39  C   UNL A   1      43.112  23.041  25.491  1.00  0.00     0.275 C 
BRANCH  39  40
ATOM     40  O   UNL A   1      42.995  24.112  26.442  1.00  0.00    -0.458 OA
BRANCH  40  41
ATOM     41  C   UNL A   1      42.644  25.313  25.928  1.00  0.00     0.338 C 
ATOM     42  O   UNL A   1      42.578  25.633  24.756  1.00  0.00    -0.246 OA
BRANCH  41  43
ATOM     43  C   UNL A   1      42.230  26.188  27.033  1.00  0.00     0.060 A 
ATOM     44  C   UNL A   1      42.761  27.477  27.094  1.00  0.00     0.016 A 
ATOM     45  C   UNL A   1      41.369  25.725  28.028  1.00  0.00     0.016 A 
ATOM     46  C   UNL A   1      42.444  28.315  28.156  1.00  0.00     0.010 A 
ATOM     47  C   UNL A   1      41.044  26.570  29.092  1.00  0.00     0.010 A 
ATOM     48  C   UNL A   1      41.589  27.864  29.168  1.00  0.00    -0.014 A 
BRANCH  48  49
ATOM     49  C   UNL A   1      41.309  28.733  30.333  1.00  0.00     0.031 A 
ATOM     50  C   UNL A   1      42.158  28.621  31.565  1.00  0.00     0.074 A 
ATOM     51  C   UNL A   1      40.305  29.627  30.278  1.00  0.00     0.049 A 
ATOM     52  N   UNL A   1      42.032  29.232  32.713  1.00  0.00    -0.248 NA
ATOM     53  C   UNL A   1      43.298  27.694  31.495  1.00  0.00     0.031 C 
ATOM     54  C   UNL A   1      39.444  29.851  29.116  1.00  0.00     0.029 A 
ATOM     55  N   UNL A   1      39.839  30.508  31.220  1.00  0.00    -0.354 N 
ATOM     56  C   UNL A   1      43.056  28.745  33.514  1.00  0.00     0.074 A 
ATOM     57  C   UNL A   1      43.790  27.779  32.722  1.00  0.00     0.031 C 
ATOM     58  C   UNL A   1      38.555  30.813  29.414  1.00  0.00     0.029 A 
ATOM     59  C   UNL A   1      38.753  31.237  30.798  1.00  0.00     0.049 A 
ATOM     60  H   UNL A   1      40.244  30.609  32.111  1.00  0.00     0.167 HD
ATOM     61  C   UNL A   1      43.353  29.076  34.793  1.00  0.00     0.037 A 
ATOM     62  C   UNL A   1      37.988  32.126  31.461  1.00  0.00     0.037 A 
ATOM     63  C   UNL A   1      42.627  30.051  35.563  1.00  0.00     0.049 A 
ATOM     64  C   UNL A   1      38.308  32.449  32.892  1.00  0.00     0.074 A 
ATOM     65  C   UNL A   1      42.872  30.484  36.854  1.00  0.00     0.029 A 
ATOM     66  N   UNL A   1      41.509  30.743  35.115  1.00  0.00    -0.354 N 
ATOM     67  N   UNL A   1      39.280  31.983  33.641  1.00  0.00    -0.248 NA
ATOM     68  C   UNL A   1      37.429  33.408  33.574  1.00  0.00     0.031 C 
ATOM     69  C   UNL A   1      41.877  31.404  37.202  1.00  0.00     0.029 A 
ATOM     70  C   UNL A   1      41.036  31.578  36.114  1.00  0.00     0.049 A 
ATOM     71  H   UNL A   1      41.111  30.652  34.219  1.00  0.00     0.167 HD
ATOM     72  C   UNL A   1      39.133  32.594  34.880  1.00  0.00     0.074 A 
ATOM     73  C   UNL A   1      37.987  33.474  34.777  1.00  0.00     0.031 C 
ATOM     74  C   UNL A   1      39.882  32.438  36.000  1.00  0.00     0.037 A 
BRANCH  61  75
ATOM     75  C   UNL A   1      44.488  28.342  35.450  1.00  0.00     0.058 A 
ATOM     76  C   UNL A   1      45.796  28.843  35.361  1.00  0.00     0.135 A 
ATOM     77  C   UNL A   1      44.290  27.147  36.161  1.00  0.00     0.135 A 
ATOM     78  F   UNL A   1      46.040  29.987  34.702  1.00  0.00    -0.206 F 
ATOM     79  C   UNL A   1      46.869  28.187  35.955  1.00  0.00     0.059 A 
ATOM     80  C   UNL A   1      45.347  26.486  36.784  1.00  0.00     0.059 A 
ATOM     81  F   UNL A   1      43.055  26.640  36.298  1.00  0.00    -0.206 F 
ATOM     82  C   UNL A   1      46.634  27.010  36.667  1.00  0.00     0.060 A 
BRANCH  82  83
ATOM     83  S   UNL A   1      48.026  26.213  37.496  1.00  0.00     0.124 S 
ATOM     84  O   UNL A   1      49.146  26.610  36.650  1.00  0.00    -0.237 OA
ATOM     85  O   UNL A   1      47.985  26.819  38.824  1.00  0.00    -0.237 OA
ATOM     86  O   UNL A   1      47.677  24.796  37.454  1.00  0.00    -0.744 OA
ENDBRANCH  82  83
ENDBRANCH  61  75
BRANCH  62  87
ATOM     87  C   UNL A   1      36.845  32.755  30.753  1.00  0.00     0.058 A 
ATOM     88  C   UNL A   1      37.031  33.887  29.944  1.00  0.00     0.135 A 
ATOM     89  C   UNL A   1      35.533  32.304  30.958  1.00  0.00     0.135 A 
ATOM     90  F   UNL A   1      38.267  34.360  29.720  1.00  0.00    -0.206 F 
ATOM     91  C   UNL A   1      35.953  34.583  29.408  1.00  0.00     0.059 A 
ATOM     92  C   UNL A   1      34.439  32.973  30.415  1.00  0.00     0.059 A 
ATOM     93  F   UNL A   1      35.309  31.216  31.710  1.00  0.00    -0.206 F 
ATOM     94  C   UNL A   1      34.659  34.128  29.666  1.00  0.00     0.060 A 
BRANCH  94  95
ATOM     95  S   UNL A   1      33.270  35.095  29.036  1.00  0.00     0.124 S 
ATOM     96  O   UNL A   1      33.959  36.199  28.377  1.00  0.00    -0.237 OA
ATOM     97  O   UNL A   1      32.608  34.141  28.151  1.00  0.00    -0.237 OA
ATOM     98  O   UNL A   1      32.529  35.447  30.242  1.00  0.00    -0.744 OA
ENDBRANCH  94  95
ENDBRANCH  62  87
BRANCH  74  99
ATOM     99  C   UNL A   1      39.491  33.230  37.215  1.00  0.00     0.058 A 
ATOM    100  C   UNL A   1      40.149  34.430  37.526  1.00  0.00     0.135 A 
ATOM    101  C   UNL A   1      38.523  32.758  38.115  1.00  0.00     0.135 A 
ATOM    102  F   UNL A   1      41.085  34.924  36.701  1.00  0.00    -0.206 F 
ATOM    103  C   UNL A   1      39.876  35.124  38.701  1.00  0.00     0.059 A 
ATOM    104  C   UNL A   1      38.219  33.447  39.286  1.00  0.00     0.059 A 
ATOM    105  F   UNL A   1      37.857  31.622  37.854  1.00  0.00    -0.206 F 
ATOM    106  C   UNL A   1      38.915  34.620  39.579  1.00  0.00     0.060 A 
BRANCH 106 107
ATOM    107  S   UNL A   1      38.573  35.533  41.098  1.00  0.00     0.124 S 
ATOM    108  O   UNL A   1      37.294  34.962  41.508  1.00  0.00    -0.237 OA
ATOM    109  O   UNL A   1      39.719  35.187  41.933  1.00  0.00    -0.237 OA
ATOM    110  O   UNL A   1      38.528  36.923  40.656  1.00  0.00    -0.744 OA
ENDBRANCH 106 107
ENDBRANCH  74  99
ENDBRANCH  48  49
ENDBRANCH  41  43
ENDBRANCH  40  41
ENDBRANCH  39  40
ENDBRANCH   1  39
TORSDOF 20
ENDMDL
MODEL 2
REMARK VINA RESULT:     -12.3      3.088      9.219
REMARK SMILES CC1CC[NH+]([C@H](c2ccc(F)cc2)c2ccc([C@@H](C)C(=O)OCCOC(=O)c3ccc(-c4c5nc(c(-c6c(F)cc(S(=O)(=O)[O-])cc6F)c6ccc([nH]6)c(-c6c(F)cc(S(=O)(=O)[O-])cc6F)c6nc(c(-c7c(F)cc(S(=O)(=O)[O-])cc7F)c7ccc4[nH]7)C=C6)C=C5)cc3)cc2-c2ccc(C(F)(F)F)cc2)CC1
REMARK SMILES IDX 23 1 22 2 20 3 21 4 18 5 19 6 17 7 14 8 15 9 95 10 16 11
REMARK SMILES IDX 94 12 6 13 5 14 1 15 2 16 3 17 107 18 4 19 106 20 7 22 8 23
REMARK SMILES IDX 13 24 9 25 12 26 10 27 11 28 96 29 97 30 105 31 98 32 104 33
REMARK SMILES IDX 99 34 100 35 101 36 102 37 103 38 24 39 25 40 26 41 27 42
REMARK SMILES IDX 28 43 29 44 93 45 30 46 92 47 31 48 32 49 33 50 86 51 34 52
REMARK SMILES IDX 91 53 85 54 87 55 35 56 90 57 84 58 83 59 36 61 70 62 49 63
REMARK SMILES IDX 69 64 50 65 53 66 68 67 88 68 51 69 52 70 67 72 89 73 54 74
REMARK SMILES IDX 37 75 38 76 47 77 39 78 40 79 46 80 48 81 41 82 42 83 43 84
REMARK SMILES IDX 44 85 45 86 71 87 72 88 81 89 73 90 74 91 80 92 82 93 75 94
REMARK SMILES IDX 76 95 77 96 78 97 79 98 55 99 56 100 65 101 57 102 58 103
REMARK SMILES IDX 64 104 66 105 59 106 60 107 61 108 62 109 63 110
REMARK H PARENT 5 21 87 60 53 71
REMARK Flexibility Score: inf
ROOT
ATOM      1  C   UNL A   1      33.275  34.054  28.177  1.00  0.00     0.274 C 
ENDROOT
BRANCH   1   2
ATOM      2  O   UNL A   1      33.964  32.923  28.741  1.00  0.00    -0.462 OA
BRANCH   2   3
ATOM      3  C   UNL A   1      34.996  32.392  28.032  1.00  0.00     0.313 C 
ATOM      4  O   UNL A   1      35.807  33.058  27.397  1.00  0.00    -0.252 OA
BRANCH   3   5
ATOM      5  C   UNL A   1      35.021  30.861  28.045  1.00  0.00     0.126 C 
ATOM      6  C   UNL A   1      36.458  30.371  27.878  1.00  0.00     0.025 C 
BRANCH   5   7
ATOM      7  C   UNL A   1      34.069  30.185  27.068  1.00  0.00    -0.033 A 
ATOM      8  C   UNL A   1      32.233  28.877  25.293  1.00  0.00     0.022 A 
ATOM      9  C   UNL A   1      31.985  30.150  25.844  1.00  0.00     0.011 A 
ATOM     10  C   UNL A   1      33.463  28.251  25.646  1.00  0.00    -0.009 A 
ATOM     11  C   UNL A   1      32.887  30.802  26.679  1.00  0.00     0.005 A 
ATOM     12  C   UNL A   1      34.348  28.916  26.534  1.00  0.00     0.013 A 
BRANCH   8  13
ATOM     13  C   UNL A   1      31.223  28.219  24.309  1.00  0.00     0.247 C 
BRANCH  13  14
ATOM     14  N   UNL A   1      29.985  28.993  23.943  1.00  0.00    -0.325 N 
ATOM     15  C   UNL A   1      27.666  31.769  21.446  1.00  0.00     0.008 C 
ATOM     16  C   UNL A   1      28.709  30.870  22.099  1.00  0.00    -0.003 C 
ATOM     17  C   UNL A   1      28.267  29.409  22.117  1.00  0.00     0.065 C 
ATOM     18  C   UNL A   1      28.967  31.280  23.544  1.00  0.00     0.065 C 
ATOM     19  C   UNL A   1      29.349  28.505  22.717  1.00  0.00     0.263 C 
ATOM     20  C   UNL A   1      30.085  30.438  24.161  1.00  0.00     0.263 C 
ATOM     21  H   UNL A   1      29.273  28.774  24.640  1.00  0.00     0.348 HD
ENDBRANCH  13  14
BRANCH  13  22
ATOM     22  C   UNL A   1      30.869  26.759  24.638  1.00  0.00     0.014 A 
ATOM     23  C   UNL A   1      30.914  25.743  23.665  1.00  0.00     0.013 A 
ATOM     24  C   UNL A   1      30.509  26.413  25.956  1.00  0.00     0.013 A 
ATOM     25  C   UNL A   1      30.617  24.421  24.005  1.00  0.00     0.040 A 
ATOM     26  C   UNL A   1      30.191  25.095  26.288  1.00  0.00     0.040 A 
ATOM     27  C   UNL A   1      30.258  24.111  25.311  1.00  0.00     0.123 A 
ATOM     28  F   UNL A   1      29.980  22.841  25.634  1.00  0.00    -0.207 F 
ENDBRANCH  13  22
ENDBRANCH   8  13
BRANCH  10  29
ATOM     29  C   UNL A   1      33.873  26.926  25.139  1.00  0.00    -0.018 A 
ATOM     30  C   UNL A   1      34.032  25.841  26.017  1.00  0.00     0.009 A 
ATOM     31  C   UNL A   1      34.114  26.712  23.773  1.00  0.00     0.009 A 
ATOM     32  C   UNL A   1      34.373  24.571  25.538  1.00  0.00     0.014 A 
ATOM     33  C   UNL A   1      34.446  25.442  23.291  1.00  0.00     0.014 A 
ATOM     34  C   UNL A   1      34.563  24.353  24.167  1.00  0.00     0.056 A 
BRANCH  34  35
ATOM     35  C   UNL A   1      34.894  22.973  23.652  1.00  0.00     0.416 C 
ATOM     36  F   UNL A   1      35.893  22.985  22.729  1.00  0.00    -0.166 F 
ATOM     37  F   UNL A   1      35.288  22.124  24.639  1.00  0.00    -0.166 F 
ATOM     38  F   UNL A   1      33.834  22.364  23.045  1.00  0.00    -0.166 F 
ENDBRANCH  34  35
ENDBRANCH  10  29
ENDBRANCH   5   7
ENDBRANCH   3   5
ENDBRANCH   2   3
ENDBRANCH   1   2
BRANCH   1  39
ATOM     39  C   UNL A   1      33.288  35.231  29.154  1.00  0.00     0.275 C 
BRANCH  39  40
ATOM     40  O   UNL A   1      32.431  34.961  30.275  1.00  0.00    -0.458 OA
BRANCH  40  41
ATOM     41  C   UNL A   1      32.769  35.579  31.430  1.00  0.00     0.338 C 
ATOM     42  O   UNL A   1      32.191  36.495  31.984  1.00  0.00    -0.246 OA
BRANCH  41  43
ATOM     43  C   UNL A   1      33.929  34.884  32.006  1.00  0.00     0.060 A 
ATOM     44  C   UNL A   1      35.204  35.381  31.729  1.00  0.00     0.016 A 
ATOM     45  C   UNL A   1      33.765  33.727  32.765  1.00  0.00     0.016 A 
ATOM     46  C   UNL A   1      36.330  34.718  32.202  1.00  0.00     0.010 A 
ATOM     47  C   UNL A   1      34.897  33.064  33.248  1.00  0.00     0.010 A 
ATOM     48  C   UNL A   1      36.185  33.550  32.958  1.00  0.00    -0.014 A 
BRANCH  48  49
ATOM     49  C   UNL A   1      37.388  32.808  33.401  1.00  0.00     0.031 A 
ATOM     50  C   UNL A   1      38.020  33.137  34.720  1.00  0.00     0.074 A 
ATOM     51  C   UNL A   1      37.899  31.836  32.624  1.00  0.00     0.049 A 
ATOM     52  N   UNL A   1      39.113  32.661  35.254  1.00  0.00    -0.248 NA
ATOM     53  C   UNL A   1      37.330  34.138  35.548  1.00  0.00     0.031 C 
ATOM     54  C   UNL A   1      37.341  31.403  31.342  1.00  0.00     0.029 A 
ATOM     55  N   UNL A   1      39.002  31.039  32.798  1.00  0.00    -0.354 N 
ATOM     56  C   UNL A   1      39.263  33.322  36.465  1.00  0.00     0.074 A 
ATOM     57  C   UNL A   1      38.150  34.242  36.584  1.00  0.00     0.031 C 
ATOM     58  C   UNL A   1      38.104  30.416  30.847  1.00  0.00     0.029 A 
ATOM     59  C   UNL A   1      39.228  30.179  31.751  1.00  0.00     0.049 A 
ATOM     60  H   UNL A   1      39.576  31.080  33.597  1.00  0.00     0.167 HD
ATOM     61  C   UNL A   1      40.239  33.173  37.390  1.00  0.00     0.037 A 
ATOM     62  C   UNL A   1      40.240  29.317  31.532  1.00  0.00     0.037 A 
ATOM     63  C   UNL A   1      41.330  32.242  37.268  1.00  0.00     0.049 A 
ATOM     64  C   UNL A   1      41.336  29.196  32.551  1.00  0.00     0.074 A 
ATOM     65  C   UNL A   1      42.350  31.990  38.168  1.00  0.00     0.029 A 
ATOM     66  N   UNL A   1      41.546  31.413  36.176  1.00  0.00    -0.354 N 
ATOM     67  N   UNL A   1      41.467  29.827  33.694  1.00  0.00    -0.248 NA
ATOM     68  C   UNL A   1      42.426  28.258  32.252  1.00  0.00     0.031 C 
ATOM     69  C   UNL A   1      43.208  31.040  37.601  1.00  0.00     0.029 A 
ATOM     70  C   UNL A   1      42.699  30.668  36.366  1.00  0.00     0.049 A 
ATOM     71  H   UNL A   1      40.965  31.362  35.382  1.00  0.00     0.167 HD
ATOM     72  C   UNL A   1      42.650  29.359  34.254  1.00  0.00     0.074 A 
ATOM     73  C   UNL A   1      43.190  28.383  33.330  1.00  0.00     0.031 C 
ATOM     74  C   UNL A   1      43.233  29.710  35.428  1.00  0.00     0.037 A 
BRANCH  61  75
ATOM     75  C   UNL A   1      40.192  34.071  38.595  1.00  0.00     0.058 A 
ATOM     76  C   UNL A   1      39.403  33.723  39.703  1.00  0.00     0.135 A 
ATOM     77  C   UNL A   1      40.917  35.272  38.658  1.00  0.00     0.135 A 
ATOM     78  F   UNL A   1      38.698  32.580  39.699  1.00  0.00    -0.206 F 
ATOM     79  C   UNL A   1      39.335  34.532  40.831  1.00  0.00     0.059 A 
ATOM     80  C   UNL A   1      40.882  36.086  39.787  1.00  0.00     0.059 A 
ATOM     81  F   UNL A   1      41.707  35.637  37.636  1.00  0.00    -0.206 F 
ATOM     82  C   UNL A   1      40.081  35.711  40.866  1.00  0.00     0.060 A 
BRANCH  82  83
ATOM     83  S   UNL A   1      40.041  36.711  42.369  1.00  0.00     0.124 S 
ATOM     84  O   UNL A   1      41.451  36.751  42.740  1.00  0.00    -0.237 OA
ATOM     85  O   UNL A   1      39.473  37.968  41.889  1.00  0.00    -0.237 OA
ATOM     86  O   UNL A   1      39.176  35.945  43.261  1.00  0.00    -0.744 OA
ENDBRANCH  82  83
ENDBRANCH  61  75
BRANCH  62  87
ATOM     87  C   UNL A   1      40.240  28.516  30.281  1.00  0.00     0.058 A 
ATOM     88  C   UNL A   1      39.482  27.340  30.177  1.00  0.00     0.135 A 
ATOM     89  C   UNL A   1      41.081  28.852  29.211  1.00  0.00     0.135 A 
ATOM     90  F   UNL A   1      38.665  26.974  31.178  1.00  0.00    -0.206 F 
ATOM     91  C   UNL A   1      39.597  26.495  29.079  1.00  0.00     0.059 A 
ATOM     92  C   UNL A   1      41.198  28.032  28.092  1.00  0.00     0.059 A 
ATOM     93  F   UNL A   1      41.812  29.976  29.260  1.00  0.00    -0.206 F 
ATOM     94  C   UNL A   1      40.474  26.841  28.050  1.00  0.00     0.060 A 
BRANCH  94  95
ATOM     95  S   UNL A   1      40.677  25.688  26.675  1.00  0.00     0.124 S 
ATOM     96  O   UNL A   1      41.748  24.830  27.170  1.00  0.00    -0.237 OA
ATOM     97  O   UNL A   1      39.356  25.072  26.592  1.00  0.00    -0.237 OA
ATOM     98  O   UNL A   1      41.034  26.555  25.557  1.00  0.00    -0.744 OA
ENDBRANCH  94  95
ENDBRANCH  62  87
BRANCH  74  99
ATOM     99  C   UNL A   1      44.529  29.041  35.788  1.00  0.00     0.058 A 
ATOM    100  C   UNL A   1      44.533  27.849  36.531  1.00  0.00     0.135 A 
ATOM    101  C   UNL A   1      45.765  29.624  35.471  1.00  0.00     0.135 A 
ATOM    102  F   UNL A   1      43.378  27.253  36.862  1.00  0.00    -0.206 F 
ATOM    103  C   UNL A   1      45.721  27.270  36.966  1.00  0.00     0.059 A 
ATOM    104  C   UNL A   1      46.967  29.050  35.879  1.00  0.00     0.059 A 
ATOM    105  F   UNL A   1      45.813  30.756  34.751  1.00  0.00    -0.206 F 
ATOM    106  C   UNL A   1      46.933  27.882  36.642  1.00  0.00     0.060 A 
BRANCH 106 107
ATOM    107  S   UNL A   1      48.465  27.118  37.214  1.00  0.00     0.124 S 
ATOM    108  O   UNL A   1      47.994  25.818  37.682  1.00  0.00    -0.237 OA
ATOM    109  O   UNL A   1      49.274  27.099  35.999  1.00  0.00    -0.237 OA
ATOM    110  O   UNL A   1      48.932  28.030  38.253  1.00  0.00    -0.744 OA
ENDBRANCH 106 107
ENDBRANCH  74  99
ENDBRANCH  48  49
ENDBRANCH  41  43
ENDBRANCH  40  41
ENDBRANCH  39  40
ENDBRANCH   1  39
TORSDOF 20
ENDMDL
MODEL 3
REMARK VINA RESULT:     -12.0      1.571      3.025
REMARK SMILES CC1CC[NH+]([C@H](c2ccc(F)cc2)c2ccc([C@@H](C)C(=O)OCCOC(=O)c3ccc(-c4c5nc(c(-c6c(F)cc(S(=O)(=O)[O-])cc6F)c6ccc([nH]6)c(-c6c(F)cc(S(=O)(=O)[O-])cc6F)c6nc(c(-c7c(F)cc(S(=O)(=O)[O-])cc7F)c7ccc4[nH]7)C=C6)C=C5)cc3)cc2-c2ccc(C(F)(F)F)cc2)CC1
REMARK SMILES IDX 23 1 22 2 20 3 21 4 18 5 19 6 17 7 14 8 15 9 95 10 16 11
REMARK SMILES IDX 94 12 6 13 5 14 1 15 2 16 3 17 107 18 4 19 106 20 7 22 8 23
REMARK SMILES IDX 13 24 9 25 12 26 10 27 11 28 96 29 97 30 105 31 98 32 104 33
REMARK SMILES IDX 99 34 100 35 101 36 102 37 103 38 24 39 25 40 26 41 27 42
REMARK SMILES IDX 28 43 29 44 93 45 30 46 92 47 31 48 32 49 33 50 86 51 34 52
REMARK SMILES IDX 91 53 85 54 87 55 35 56 90 57 84 58 83 59 36 61 70 62 49 63
REMARK SMILES IDX 69 64 50 65 53 66 68 67 88 68 51 69 52 70 67 72 89 73 54 74
REMARK SMILES IDX 37 75 38 76 47 77 39 78 40 79 46 80 48 81 41 82 42 83 43 84
REMARK SMILES IDX 44 85 45 86 71 87 72 88 81 89 73 90 74 91 80 92 82 93 75 94
REMARK SMILES IDX 76 95 77 96 78 97 79 98 55 99 56 100 65 101 57 102 58 103
REMARK SMILES IDX 64 104 66 105 59 106 60 107 61 108 62 109 63 110
REMARK H PARENT 5 21 87 60 53 71
REMARK Flexibility Score: inf
ROOT
ATOM      1  C   UNL A   1      42.678  22.146  27.078  1.00  0.00     0.274 C 
ENDROOT
BRANCH   1   2
ATOM      2  O   UNL A   1      41.373  22.464  27.594  1.00  0.00    -0.462 OA
BRANCH   2   3
ATOM      3  C   UNL A   1      40.291  22.064  26.873  1.00  0.00     0.313 C 
ATOM      4  O   UNL A   1      40.083  20.903  26.535  1.00  0.00    -0.252 OA
BRANCH   3   5
ATOM      5  C   UNL A   1      39.371  23.217  26.462  1.00  0.00     0.126 C 
ATOM      6  C   UNL A   1      39.349  24.273  27.565  1.00  0.00     0.025 C 
BRANCH   5   7
ATOM      7  C   UNL A   1      37.969  22.809  26.031  1.00  0.00    -0.033 A 
ATOM      8  C   UNL A   1      35.345  22.066  25.140  1.00  0.00     0.022 A 
ATOM      9  C   UNL A   1      36.447  21.191  25.077  1.00  0.00     0.011 A 
ATOM     10  C   UNL A   1      35.580  23.361  25.687  1.00  0.00    -0.009 A 
ATOM     11  C   UNL A   1      37.715  21.536  25.538  1.00  0.00     0.005 A 
ATOM     12  C   UNL A   1      36.890  23.706  26.110  1.00  0.00     0.013 A 
BRANCH   8  13
ATOM     13  C   UNL A   1      33.932  21.610  24.675  1.00  0.00     0.247 C 
BRANCH  13  14
ATOM     14  N   UNL A   1      33.772  20.198  24.180  1.00  0.00    -0.325 N 
ATOM     15  C   UNL A   1      32.917  15.916  24.689  1.00  0.00     0.008 C 
ATOM     16  C   UNL A   1      33.161  17.413  24.834  1.00  0.00    -0.003 C 
ATOM     17  C   UNL A   1      32.169  18.232  24.011  1.00  0.00     0.065 C 
ATOM     18  C   UNL A   1      34.560  17.796  24.364  1.00  0.00     0.065 C 
ATOM     19  C   UNL A   1      32.382  19.735  24.214  1.00  0.00     0.263 C 
ATOM     20  C   UNL A   1      34.831  19.281  24.605  1.00  0.00     0.263 C 
ATOM     21  H   UNL A   1      33.957  20.205  23.177  1.00  0.00     0.348 HD
ENDBRANCH  13  14
BRANCH  13  22
ATOM     22  C   UNL A   1      33.220  22.596  23.732  1.00  0.00     0.014 A 
ATOM     23  C   UNL A   1      31.906  23.039  23.971  1.00  0.00     0.013 A 
ATOM     24  C   UNL A   1      33.904  23.094  22.605  1.00  0.00     0.013 A 
ATOM     25  C   UNL A   1      31.300  23.959  23.112  1.00  0.00     0.040 A 
ATOM     26  C   UNL A   1      33.288  23.997  21.736  1.00  0.00     0.040 A 
ATOM     27  C   UNL A   1      31.996  24.427  22.005  1.00  0.00     0.123 A 
ATOM     28  F   UNL A   1      31.414  25.314  21.187  1.00  0.00    -0.207 F 
ENDBRANCH  13  22
ENDBRANCH   8  13
BRANCH  10  29
ATOM     29  C   UNL A   1      34.524  24.383  25.834  1.00  0.00    -0.018 A 
ATOM     30  C   UNL A   1      34.547  25.553  25.056  1.00  0.00     0.009 A 
ATOM     31  C   UNL A   1      33.473  24.217  26.748  1.00  0.00     0.009 A 
ATOM     32  C   UNL A   1      33.524  26.503  25.154  1.00  0.00     0.014 A 
ATOM     33  C   UNL A   1      32.446  25.161  26.842  1.00  0.00     0.014 A 
ATOM     34  C   UNL A   1      32.451  26.307  26.034  1.00  0.00     0.056 A 
BRANCH  34  35
ATOM     35  C   UNL A   1      31.332  27.317  26.109  1.00  0.00     0.416 C 
ATOM     36  F   UNL A   1      30.241  26.945  25.387  1.00  0.00    -0.166 F 
ATOM     37  F   UNL A   1      30.900  27.530  27.381  1.00  0.00    -0.166 F 
ATOM     38  F   UNL A   1      31.691  28.545  25.633  1.00  0.00    -0.166 F 
ENDBRANCH  34  35
ENDBRANCH  10  29
ENDBRANCH   5   7
ENDBRANCH   3   5
ENDBRANCH   2   3
ENDBRANCH   1   2
BRANCH   1  39
ATOM     39  C   UNL A   1      43.106  23.176  26.032  1.00  0.00     0.275 C 
BRANCH  39  40
ATOM     40  O   UNL A   1      43.430  24.426  26.664  1.00  0.00    -0.458 OA
BRANCH  40  41
ATOM     41  C   UNL A   1      42.762  25.506  26.196  1.00  0.00     0.338 C 
ATOM     42  O   UNL A   1      42.281  25.665  25.089  1.00  0.00    -0.246 OA
BRANCH  41  43
ATOM     43  C   UNL A   1      42.599  26.464  27.297  1.00  0.00     0.060 A 
ATOM     44  C   UNL A   1      41.935  26.042  28.450  1.00  0.00     0.016 A 
ATOM     45  C   UNL A   1      43.048  27.778  27.175  1.00  0.00     0.016 A 
ATOM     46  C   UNL A   1      41.704  26.934  29.490  1.00  0.00     0.010 A 
ATOM     47  C   UNL A   1      42.824  28.674  28.224  1.00  0.00     0.010 A 
ATOM     48  C   UNL A   1      42.140  28.259  29.382  1.00  0.00    -0.014 A 
BRANCH  48  49
ATOM     49  C   UNL A   1      41.832  29.225  30.461  1.00  0.00     0.031 A 
ATOM     50  C   UNL A   1      42.731  29.314  31.657  1.00  0.00     0.074 A 
ATOM     51  C   UNL A   1      40.755  30.025  30.357  1.00  0.00     0.049 A 
ATOM     52  N   UNL A   1      42.597  30.035  32.739  1.00  0.00    -0.248 NA
ATOM     53  C   UNL A   1      43.941  28.479  31.634  1.00  0.00     0.031 C 
ATOM     54  C   UNL A   1      39.835  30.053  29.218  1.00  0.00     0.029 A 
ATOM     55  N   UNL A   1      40.251  30.964  31.220  1.00  0.00    -0.354 N 
ATOM     56  C   UNL A   1      43.686  29.721  33.540  1.00  0.00     0.074 A 
ATOM     57  C   UNL A   1      44.469  28.736  32.822  1.00  0.00     0.031 C 
ATOM     58  C   UNL A   1      38.881  30.968  29.453  1.00  0.00     0.029 A 
ATOM     59  C   UNL A   1      39.094  31.554  30.774  1.00  0.00     0.049 A 
ATOM     60  H   UNL A   1      40.679  31.193  32.077  1.00  0.00     0.167 HD
ATOM     61  C   UNL A   1      44.001  30.211  34.762  1.00  0.00     0.037 A 
ATOM     62  C   UNL A   1      38.282  32.447  31.374  1.00  0.00     0.037 A 
ATOM     63  C   UNL A   1      43.225  31.204  35.457  1.00  0.00     0.049 A 
ATOM     64  C   UNL A   1      38.626  32.948  32.747  1.00  0.00     0.074 A 
ATOM     65  C   UNL A   1      43.480  31.792  36.682  1.00  0.00     0.029 A 
ATOM     66  N   UNL A   1      42.038  31.752  34.990  1.00  0.00    -0.354 N 
ATOM     67  N   UNL A   1      39.660  32.644  33.496  1.00  0.00    -0.248 NA
ATOM     68  C   UNL A   1      37.696  33.902  33.363  1.00  0.00     0.031 C 
ATOM     69  C   UNL A   1      42.425  32.663  36.977  1.00  0.00     0.029 A 
ATOM     70  C   UNL A   1      41.533  32.650  35.916  1.00  0.00     0.049 A 
ATOM     71  H   UNL A   1      41.616  31.533  34.127  1.00  0.00     0.167 HD
ATOM     72  C   UNL A   1      39.508  33.373  34.669  1.00  0.00     0.074 A 
ATOM     73  C   UNL A   1      38.289  34.143  34.526  1.00  0.00     0.031 C 
ATOM     74  C   UNL A   1      40.308  33.399  35.764  1.00  0.00     0.037 A 
BRANCH  61  75
ATOM     75  C   UNL A   1      45.217  29.645  35.441  1.00  0.00     0.058 A 
ATOM     76  C   UNL A   1      45.103  28.513  36.262  1.00  0.00     0.135 A 
ATOM     77  C   UNL A   1      46.490  30.218  35.287  1.00  0.00     0.135 A 
ATOM     78  F   UNL A   1      43.911  27.920  36.435  1.00  0.00    -0.206 F 
ATOM     79  C   UNL A   1      46.207  27.966  36.907  1.00  0.00     0.059 A 
ATOM     80  C   UNL A   1      47.614  29.674  35.905  1.00  0.00     0.059 A 
ATOM     81  F   UNL A   1      46.658  31.286  34.492  1.00  0.00    -0.206 F 
ATOM     82  C   UNL A   1      47.460  28.552  36.720  1.00  0.00     0.060 A 
BRANCH  82  83
ATOM     83  S   UNL A   1      48.894  27.785  37.503  1.00  0.00     0.124 S 
ATOM     84  O   UNL A   1      48.794  26.409  37.030  1.00  0.00    -0.237 OA
ATOM     85  O   UNL A   1      50.000  28.566  36.957  1.00  0.00    -0.237 OA
ATOM     86  O   UNL A   1      48.646  27.981  38.928  1.00  0.00    -0.744 OA
ENDBRANCH  82  83
ENDBRANCH  61  75
BRANCH  62  87
ATOM     87  C   UNL A   1      37.065  32.903  30.656  1.00  0.00     0.058 A 
ATOM     88  C   UNL A   1      37.135  33.918  29.688  1.00  0.00     0.135 A 
ATOM     89  C   UNL A   1      35.798  32.411  31.001  1.00  0.00     0.135 A 
ATOM     90  F   UNL A   1      38.325  34.424  29.327  1.00  0.00    -0.206 F 
ATOM     91  C   UNL A   1      35.988  34.468  29.127  1.00  0.00     0.059 A 
ATOM     92  C   UNL A   1      34.636  32.932  30.438  1.00  0.00     0.059 A 
ATOM     93  F   UNL A   1      35.684  31.430  31.908  1.00  0.00    -0.206 F 
ATOM     94  C   UNL A   1      34.741  33.981  29.524  1.00  0.00     0.060 A 
BRANCH  94  95
ATOM     95  S   UNL A   1      33.261  34.767  28.851  1.00  0.00     0.124 S 
ATOM     96  O   UNL A   1      32.471  34.982  30.059  1.00  0.00    -0.237 OA
ATOM     97  O   UNL A   1      33.808  35.969  28.228  1.00  0.00    -0.237 OA
ATOM     98  O   UNL A   1      32.737  33.767  27.927  1.00  0.00    -0.744 OA
ENDBRANCH  94  95
ENDBRANCH  62  87
BRANCH  74  99
ATOM     99  C   UNL A   1      39.897  34.285  36.906  1.00  0.00     0.058 A 
ATOM    100  C   UNL A   1      40.277  35.636  36.932  1.00  0.00     0.135 A 
ATOM    101  C   UNL A   1      39.199  33.776  38.011  1.00  0.00     0.135 A 
ATOM    102  F   UNL A   1      40.949  36.172  35.901  1.00  0.00    -0.206 F 
ATOM    103  C   UNL A   1      39.998  36.447  38.028  1.00  0.00     0.059 A 
ATOM    104  C   UNL A   1      38.891  34.575  39.110  1.00  0.00     0.059 A 
ATOM    105  F   UNL A   1      38.801  32.493  38.026  1.00  0.00    -0.206 F 
ATOM    106  C   UNL A   1      39.311  35.905  39.116  1.00  0.00     0.060 A 
BRANCH 106 107
ATOM    107  S   UNL A   1      38.957  36.971  40.529  1.00  0.00     0.124 S 
ATOM    108  O   UNL A   1      38.217  38.061  39.902  1.00  0.00    -0.237 OA
ATOM    109  O   UNL A   1      38.177  36.090  41.394  1.00  0.00    -0.237 OA
ATOM    110  O   UNL A   1      40.282  37.317  41.033  1.00  0.00    -0.744 OA
ENDBRANCH 106 107
ENDBRANCH  74  99
ENDBRANCH  48  49
ENDBRANCH  41  43
ENDBRANCH  40  41
ENDBRANCH  39  40
ENDBRANCH   1  39
TORSDOF 20
ENDMDL
