MODEL 1
REMARK VINA RESULT:     -11.4      0.000      0.000
REMARK SMILES C[C@H]1[C@@H](C(=O)OCCOC(=O)c2ccc(-c3c4nc(c(-c5c(F)cc(S(=O)(=O)[O-])cc5F)c5ccc([nH]5)c(-c5c(F)cc(S(=O)(=O)[O-])cc5F)c5nc(c(-c6c(F)cc(S(=O)(=O)[O-])cc6F)c6ccc3[nH]6)C=C5)C=C4)cc2)CC[N@@H+]1Cc1cc(F)c(F)c(F)c1
REMARK SMILES IDX 8 1 7 2 6 3 4 4 5 5 3 6 1 7 2 8 80 9 78 10 79 11 81 13 82 14
REMARK SMILES IDX 83 15 90 16 84 17 88 18 85 19 86 20 89 21 87 22 9 23 10 24
REMARK SMILES IDX 11 25 12 26 13 27 77 28 14 29 76 30 15 31 16 32 17 33 70 34
REMARK SMILES IDX 18 35 75 36 69 37 71 38 19 39 74 40 68 41 67 42 20 44 54 45
REMARK SMILES IDX 33 46 53 47 34 48 37 49 52 50 72 51 35 52 36 53 51 55 73 56
REMARK SMILES IDX 38 57 21 58 22 59 31 60 23 61 24 62 30 63 32 64 25 65 26 66
REMARK SMILES IDX 27 67 28 68 29 69 55 70 56 71 65 72 57 73 58 74 64 75 66 76
REMARK SMILES IDX 59 77 60 78 61 79 62 80 63 81 39 82 40 83 49 84 41 85 42 86
REMARK SMILES IDX 48 87 50 88 43 89 44 90 45 91 46 92 47 93
REMARK H PARENT 80 12 71 43 37 54
REMARK Flexibility Score: inf
ROOT
ATOM      1  C   UNL A   1      32.837  30.060  26.828  1.00  0.00     0.275 C 
ENDROOT
BRANCH   1   2
ATOM      2  C   UNL A   1      31.872  28.902  26.606  1.00  0.00     0.274 C 
BRANCH   2   3
ATOM      3  O   UNL A   1      31.576  28.822  25.198  1.00  0.00    -0.462 OA
BRANCH   3   4
ATOM      4  C   UNL A   1      31.056  27.655  24.739  1.00  0.00     0.315 C 
ATOM      5  O   UNL A   1      30.230  27.564  23.840  1.00  0.00    -0.252 OA
BRANCH   4   6
ATOM      6  C   UNL A   1      31.639  26.448  25.447  1.00  0.00     0.162 C 
ATOM      7  C   UNL A   1      33.164  26.069  23.370  1.00  0.00     0.076 C 
ATOM      8  C   UNL A   1      32.928  25.856  24.867  1.00  0.00     0.195 C 
ATOM      9  N   UNL A   1      32.818  24.405  25.095  1.00  0.00    -0.328 N 
ATOM     10  C   UNL A   1      30.657  25.288  25.560  1.00  0.00     0.083 C 
ATOM     11  C   UNL A   1      31.400  24.063  25.068  1.00  0.00     0.263 C 
ATOM     12  H   UNL A   1      33.304  23.932  24.333  1.00  0.00     0.348 HD
BRANCH   9  13
ATOM     13  C   UNL A   1      33.580  23.842  26.207  1.00  0.00     0.299 C 
BRANCH  13  14
ATOM     14  C   UNL A   1      34.961  23.291  25.925  1.00  0.00     0.012 A 
ATOM     15  C   UNL A   1      35.134  21.922  25.659  1.00  0.00     0.052 A 
ATOM     16  C   UNL A   1      36.101  24.110  25.975  1.00  0.00     0.052 A 
ATOM     17  C   UNL A   1      36.410  21.399  25.453  1.00  0.00     0.162 A 
ATOM     18  C   UNL A   1      37.369  23.570  25.753  1.00  0.00     0.162 A 
ATOM     19  F   UNL A   1      36.544  20.084  25.227  1.00  0.00    -0.204 F 
ATOM     20  C   UNL A   1      37.527  22.217  25.497  1.00  0.00     0.194 A 
ATOM     21  F   UNL A   1      38.437  24.376  25.802  1.00  0.00    -0.204 F 
ATOM     22  F   UNL A   1      38.750  21.701  25.307  1.00  0.00    -0.200 F 
ENDBRANCH  13  14
ENDBRANCH   9  13
ENDBRANCH   4   6
ENDBRANCH   3   4
ENDBRANCH   2   3
ENDBRANCH   1   2
BRANCH   1  23
ATOM     23  O   UNL A   1      33.933  29.585  27.630  1.00  0.00    -0.458 OA
BRANCH  23  24
ATOM     24  C   UNL A   1      34.644  30.538  28.274  1.00  0.00     0.338 C 
ATOM     25  O   UNL A   1      34.253  31.631  28.645  1.00  0.00    -0.246 OA
BRANCH  24  26
ATOM     26  C   UNL A   1      36.021  30.060  28.490  1.00  0.00     0.060 A 
ATOM     27  C   UNL A   1      36.449  29.651  29.758  1.00  0.00     0.016 A 
ATOM     28  C   UNL A   1      36.918  30.119  27.427  1.00  0.00     0.016 A 
ATOM     29  C   UNL A   1      37.797  29.363  29.973  1.00  0.00     0.010 A 
ATOM     30  C   UNL A   1      38.244  29.738  27.625  1.00  0.00     0.010 A 
ATOM     31  C   UNL A   1      38.704  29.373  28.904  1.00  0.00    -0.014 A 
BRANCH  31  32
ATOM     32  C   UNL A   1      40.132  28.991  29.072  1.00  0.00     0.031 A 
ATOM     33  C   UNL A   1      41.150  30.042  29.428  1.00  0.00     0.074 A 
ATOM     34  C   UNL A   1      40.535  27.732  28.813  1.00  0.00     0.049 A 
ATOM     35  N   UNL A   1      42.448  30.019  29.286  1.00  0.00    -0.248 NA
ATOM     36  C   UNL A   1      40.629  31.296  29.998  1.00  0.00     0.031 C 
ATOM     37  C   UNL A   1      39.654  26.604  28.501  1.00  0.00     0.029 A 
ATOM     38  N   UNL A   1      41.796  27.195  28.739  1.00  0.00    -0.354 N 
ATOM     39  C   UNL A   1      42.897  31.272  29.685  1.00  0.00     0.074 A 
ATOM     40  C   UNL A   1      41.731  32.029  30.091  1.00  0.00     0.031 C 
ATOM     41  C   UNL A   1      40.399  25.513  28.270  1.00  0.00     0.029 A 
ATOM     42  C   UNL A   1      41.807  25.884  28.325  1.00  0.00     0.049 A 
ATOM     43  H   UNL A   1      42.612  27.699  28.961  1.00  0.00     0.167 HD
ATOM     44  C   UNL A   1      44.165  31.748  29.695  1.00  0.00     0.037 A 
ATOM     45  C   UNL A   1      42.829  25.085  27.960  1.00  0.00     0.037 A 
ATOM     46  C   UNL A   1      45.320  30.966  29.335  1.00  0.00     0.049 A 
ATOM     47  C   UNL A   1      44.226  25.633  27.959  1.00  0.00     0.074 A 
ATOM     48  C   UNL A   1      46.650  31.346  29.319  1.00  0.00     0.029 A 
ATOM     49  N   UNL A   1      45.281  29.634  28.947  1.00  0.00    -0.354 N 
ATOM     50  N   UNL A   1      44.633  26.842  28.265  1.00  0.00    -0.248 NA
ATOM     51  C   UNL A   1      45.300  24.722  27.541  1.00  0.00     0.031 C 
ATOM     52  C   UNL A   1      47.414  30.252  28.900  1.00  0.00     0.029 A 
ATOM     53  C   UNL A   1      46.562  29.180  28.687  1.00  0.00     0.049 A 
ATOM     54  H   UNL A   1      44.462  29.092  28.869  1.00  0.00     0.167 HD
ATOM     55  C   UNL A   1      46.011  26.833  28.092  1.00  0.00     0.074 A 
ATOM     56  C   UNL A   1      46.370  25.498  27.658  1.00  0.00     0.031 C 
ATOM     57  C   UNL A   1      46.897  27.841  28.273  1.00  0.00     0.037 A 
BRANCH  44  58
ATOM     58  C   UNL A   1      44.373  33.188  30.070  1.00  0.00     0.058 A 
ATOM     59  C   UNL A   1      44.679  33.578  31.383  1.00  0.00     0.135 A 
ATOM     60  C   UNL A   1      44.306  34.190  29.088  1.00  0.00     0.135 A 
ATOM     61  F   UNL A   1      44.740  32.663  32.363  1.00  0.00    -0.206 F 
ATOM     62  C   UNL A   1      44.889  34.914  31.713  1.00  0.00     0.059 A 
ATOM     63  C   UNL A   1      44.532  35.530  29.392  1.00  0.00     0.059 A 
ATOM     64  F   UNL A   1      44.016  33.871  27.817  1.00  0.00    -0.206 F 
ATOM     65  C   UNL A   1      44.809  35.884  30.711  1.00  0.00     0.060 A 
BRANCH  65  66
ATOM     66  S   UNL A   1      45.084  37.614  31.149  1.00  0.00     0.124 S 
ATOM     67  O   UNL A   1      46.525  37.627  31.382  1.00  0.00    -0.237 OA
ATOM     68  O   UNL A   1      44.630  38.320  29.955  1.00  0.00    -0.237 OA
ATOM     69  O   UNL A   1      44.254  37.799  32.336  1.00  0.00    -0.744 OA
ENDBRANCH  65  66
ENDBRANCH  44  58
BRANCH  45  70
ATOM     70  C   UNL A   1      42.545  23.697  27.514  1.00  0.00     0.058 A 
ATOM     71  C   UNL A   1      42.344  23.404  26.159  1.00  0.00     0.135 A 
ATOM     72  C   UNL A   1      42.531  22.628  28.426  1.00  0.00     0.135 A 
ATOM     73  F   UNL A   1      42.339  24.394  25.252  1.00  0.00    -0.206 F 
ATOM     74  C   UNL A   1      42.142  22.099  25.719  1.00  0.00     0.059 A 
ATOM     75  C   UNL A   1      42.355  21.313  28.008  1.00  0.00     0.059 A 
ATOM     76  F   UNL A   1      42.736  22.857  29.732  1.00  0.00    -0.206 F 
ATOM     77  C   UNL A   1      42.157  21.060  26.651  1.00  0.00     0.060 A 
BRANCH  77  78
ATOM     78  S   UNL A   1      41.980  19.361  26.066  1.00  0.00     0.124 S 
ATOM     79  O   UNL A   1      40.548  19.290  25.798  1.00  0.00    -0.237 OA
ATOM     80  O   UNL A   1      42.850  19.342  24.894  1.00  0.00    -0.237 OA
ATOM     81  O   UNL A   1      42.454  18.568  27.199  1.00  0.00    -0.744 OA
ENDBRANCH  77  78
ENDBRANCH  45  70
BRANCH  57  82
ATOM     82  C   UNL A   1      48.347  27.533  28.046  1.00  0.00     0.058 A 
ATOM     83  C   UNL A   1      49.147  26.987  29.061  1.00  0.00     0.135 A 
ATOM     84  C   UNL A   1      48.918  27.711  26.776  1.00  0.00     0.135 A 
ATOM     85  F   UNL A   1      48.646  26.806  30.293  1.00  0.00    -0.206 F 
ATOM     86  C   UNL A   1      50.469  26.626  28.823  1.00  0.00     0.059 A 
ATOM     87  C   UNL A   1      50.233  27.343  26.513  1.00  0.00     0.059 A 
ATOM     88  F   UNL A   1      48.188  28.227  25.774  1.00  0.00    -0.206 F 
ATOM     89  C   UNL A   1      51.002  26.804  27.544  1.00  0.00     0.060 A 
BRANCH  89  90
ATOM     90  S   UNL A   1      52.697  26.270  27.227  1.00  0.00     0.124 S 
ATOM     91  O   UNL A   1      53.175  27.324  26.338  1.00  0.00    -0.237 OA
ATOM     92  O   UNL A   1      53.280  26.257  28.565  1.00  0.00    -0.237 OA
ATOM     93  O   UNL A   1      52.528  24.957  26.611  1.00  0.00    -0.744 OA
ENDBRANCH  89  90
ENDBRANCH  57  82
ENDBRANCH  31  32
ENDBRANCH  24  26
ENDBRANCH  23  24
ENDBRANCH   1  23
TORSDOF 16
ENDMDL
MODEL 2
REMARK VINA RESULT:     -11.3      4.587     10.269
REMARK SMILES C[C@H]1[C@@H](C(=O)OCCOC(=O)c2ccc(-c3c4nc(c(-c5c(F)cc(S(=O)(=O)[O-])cc5F)c5ccc([nH]5)c(-c5c(F)cc(S(=O)(=O)[O-])cc5F)c5nc(c(-c6c(F)cc(S(=O)(=O)[O-])cc6F)c6ccc3[nH]6)C=C5)C=C4)cc2)CC[N@@H+]1Cc1cc(F)c(F)c(F)c1
REMARK SMILES IDX 8 1 7 2 6 3 4 4 5 5 3 6 1 7 2 8 80 9 78 10 79 11 81 13 82 14
REMARK SMILES IDX 83 15 90 16 84 17 88 18 85 19 86 20 89 21 87 22 9 23 10 24
REMARK SMILES IDX 11 25 12 26 13 27 77 28 14 29 76 30 15 31 16 32 17 33 70 34
REMARK SMILES IDX 18 35 75 36 69 37 71 38 19 39 74 40 68 41 67 42 20 44 54 45
REMARK SMILES IDX 33 46 53 47 34 48 37 49 52 50 72 51 35 52 36 53 51 55 73 56
REMARK SMILES IDX 38 57 21 58 22 59 31 60 23 61 24 62 30 63 32 64 25 65 26 66
REMARK SMILES IDX 27 67 28 68 29 69 55 70 56 71 65 72 57 73 58 74 64 75 66 76
REMARK SMILES IDX 59 77 60 78 61 79 62 80 63 81 39 82 40 83 49 84 41 85 42 86
REMARK SMILES IDX 48 87 50 88 43 89 44 90 45 91 46 92 47 93
REMARK H PARENT 80 12 71 43 37 54
REMARK Flexibility Score: inf
ROOT
ATOM      1  C   UNL A   1      37.343  22.114  24.614  1.00  0.00     0.275 C 
ENDROOT
BRANCH   1   2
ATOM      2  C   UNL A   1      36.487  22.655  23.475  1.00  0.00     0.274 C 
BRANCH   2   3
ATOM      3  O   UNL A   1      35.158  22.887  23.980  1.00  0.00    -0.462 OA
BRANCH   3   4
ATOM      4  C   UNL A   1      34.351  23.700  23.250  1.00  0.00     0.315 C 
ATOM      5  O   UNL A   1      34.153  23.591  22.047  1.00  0.00    -0.252 OA
BRANCH   4   6
ATOM      6  C   UNL A   1      33.680  24.758  24.103  1.00  0.00     0.162 C 
ATOM      7  C   UNL A   1      31.382  23.778  23.368  1.00  0.00     0.076 C 
ATOM      8  C   UNL A   1      32.187  24.573  24.398  1.00  0.00     0.195 C 
ATOM      9  N   UNL A   1      31.633  25.937  24.435  1.00  0.00    -0.328 N 
ATOM     10  C   UNL A   1      33.824  26.165  23.534  1.00  0.00     0.083 C 
ATOM     11  C   UNL A   1      32.431  26.759  23.532  1.00  0.00     0.263 C 
ATOM     12  H   UNL A   1      30.670  25.891  24.104  1.00  0.00     0.348 HD
BRANCH   9  13
ATOM     13  C   UNL A   1      31.371  26.518  25.751  1.00  0.00     0.299 C 
BRANCH  13  14
ATOM     14  C   UNL A   1      32.050  27.822  26.108  1.00  0.00     0.012 A 
ATOM     15  C   UNL A   1      33.276  27.813  26.796  1.00  0.00     0.052 A 
ATOM     16  C   UNL A   1      31.457  29.061  25.818  1.00  0.00     0.052 A 
ATOM     17  C   UNL A   1      33.880  29.010  27.177  1.00  0.00     0.162 A 
ATOM     18  C   UNL A   1      32.083  30.250  26.196  1.00  0.00     0.162 A 
ATOM     19  F   UNL A   1      35.036  28.968  27.855  1.00  0.00    -0.204 F 
ATOM     20  C   UNL A   1      33.290  30.228  26.879  1.00  0.00     0.194 A 
ATOM     21  F   UNL A   1      31.496  31.417  25.902  1.00  0.00    -0.204 F 
ATOM     22  F   UNL A   1      33.875  31.373  27.259  1.00  0.00    -0.200 F 
ENDBRANCH  13  14
ENDBRANCH   9  13
ENDBRANCH   4   6
ENDBRANCH   3   4
ENDBRANCH   2   3
ENDBRANCH   1   2
BRANCH   1  23
ATOM     23  O   UNL A   1      37.770  23.225  25.422  1.00  0.00    -0.458 OA
BRANCH  23  24
ATOM     24  C   UNL A   1      38.973  23.083  26.023  1.00  0.00     0.338 C 
ATOM     25  O   UNL A   1      39.708  22.112  25.993  1.00  0.00    -0.246 OA
BRANCH  24  26
ATOM     26  C   UNL A   1      39.307  24.322  26.748  1.00  0.00     0.060 A 
ATOM     27  C   UNL A   1      40.152  25.282  26.181  1.00  0.00     0.016 A 
ATOM     28  C   UNL A   1      38.844  24.471  28.053  1.00  0.00     0.016 A 
ATOM     29  C   UNL A   1      40.587  26.363  26.950  1.00  0.00     0.010 A 
ATOM     30  C   UNL A   1      39.205  25.602  28.784  1.00  0.00     0.010 A 
ATOM     31  C   UNL A   1      40.094  26.552  28.249  1.00  0.00    -0.014 A 
BRANCH  31  32
ATOM     32  C   UNL A   1      40.465  27.734  29.073  1.00  0.00     0.031 A 
ATOM     33  C   UNL A   1      41.688  27.680  29.950  1.00  0.00     0.074 A 
ATOM     34  C   UNL A   1      39.661  28.814  29.113  1.00  0.00     0.049 A 
ATOM     35  N   UNL A   1      42.001  28.420  30.980  1.00  0.00    -0.248 NA
ATOM     36  C   UNL A   1      42.677  26.636  29.635  1.00  0.00     0.031 C 
ATOM     37  C   UNL A   1      38.470  29.020  28.286  1.00  0.00     0.029 A 
ATOM     38  N   UNL A   1      39.707  29.932  29.909  1.00  0.00    -0.354 N 
ATOM     39  C   UNL A   1      43.187  27.894  31.479  1.00  0.00     0.074 A 
ATOM     40  C   UNL A   1      43.547  26.779  30.627  1.00  0.00     0.031 C 
ATOM     41  C   UNL A   1      37.901  30.189  28.616  1.00  0.00     0.029 A 
ATOM     42  C   UNL A   1      38.628  30.768  29.738  1.00  0.00     0.049 A 
ATOM     43  H   UNL A   1      40.440  30.117  30.540  1.00  0.00     0.167 HD
ATOM     44  C   UNL A   1      43.898  28.298  32.559  1.00  0.00     0.037 A 
ATOM     45  C   UNL A   1      38.226  31.841  30.445  1.00  0.00     0.037 A 
ATOM     46  C   UNL A   1      43.553  29.440  33.366  1.00  0.00     0.049 A 
ATOM     47  C   UNL A   1      39.015  32.265  31.650  1.00  0.00     0.074 A 
ATOM     48  C   UNL A   1      44.209  29.942  34.477  1.00  0.00     0.029 A 
ATOM     49  N   UNL A   1      42.465  30.270  33.136  1.00  0.00    -0.354 N 
ATOM     50  N   UNL A   1      40.091  31.717  32.159  1.00  0.00    -0.248 NA
ATOM     51  C   UNL A   1      38.524  33.435  32.391  1.00  0.00     0.031 C 
ATOM     52  C   UNL A   1      43.506  31.063  34.931  1.00  0.00     0.029 A 
ATOM     53  C   UNL A   1      42.430  31.277  34.084  1.00  0.00     0.049 A 
ATOM     54  H   UNL A   1      41.814  30.158  32.406  1.00  0.00     0.167 HD
ATOM     55  C   UNL A   1      40.417  32.483  33.271  1.00  0.00     0.074 A 
ATOM     56  C   UNL A   1      39.425  33.536  33.359  1.00  0.00     0.031 C 
ATOM     57  C   UNL A   1      41.443  32.326  34.141  1.00  0.00     0.037 A 
BRANCH  44  58
ATOM     58  C   UNL A   1      45.097  27.485  32.956  1.00  0.00     0.058 A 
ATOM     59  C   UNL A   1      44.980  26.310  33.714  1.00  0.00     0.135 A 
ATOM     60  C   UNL A   1      46.381  27.868  32.535  1.00  0.00     0.135 A 
ATOM     61  F   UNL A   1      43.779  25.907  34.156  1.00  0.00    -0.206 F 
ATOM     62  C   UNL A   1      46.098  25.554  34.059  1.00  0.00     0.059 A 
ATOM     63  C   UNL A   1      47.510  27.118  32.851  1.00  0.00     0.059 A 
ATOM     64  F   UNL A   1      46.548  28.984  31.808  1.00  0.00    -0.206 F 
ATOM     65  C   UNL A   1      47.360  25.970  33.626  1.00  0.00     0.060 A 
BRANCH  65  66
ATOM     66  S   UNL A   1      48.803  24.983  34.078  1.00  0.00     0.124 S 
ATOM     67  O   UNL A   1      48.175  23.827  34.714  1.00  0.00    -0.237 OA
ATOM     68  O   UNL A   1      49.431  24.729  32.786  1.00  0.00    -0.237 OA
ATOM     69  O   UNL A   1      49.549  25.862  34.972  1.00  0.00    -0.744 OA
ENDBRANCH  65  66
ENDBRANCH  44  58
BRANCH  45  70
ATOM     70  C   UNL A   1      36.980  32.549  30.052  1.00  0.00     0.058 A 
ATOM     71  C   UNL A   1      35.763  32.268  30.685  1.00  0.00     0.135 A 
ATOM     72  C   UNL A   1      36.996  33.562  29.078  1.00  0.00     0.135 A 
ATOM     73  F   UNL A   1      35.698  31.302  31.615  1.00  0.00    -0.206 F 
ATOM     74  C   UNL A   1      34.602  32.968  30.373  1.00  0.00     0.059 A 
ATOM     75  C   UNL A   1      35.854  34.291  28.765  1.00  0.00     0.059 A 
ATOM     76  F   UNL A   1      38.142  33.878  28.456  1.00  0.00    -0.206 F 
ATOM     77  C   UNL A   1      34.659  33.983  29.416  1.00  0.00     0.060 A 
BRANCH  77  78
ATOM     78  S   UNL A   1      33.171  34.946  29.075  1.00  0.00     0.124 S 
ATOM     79  O   UNL A   1      32.534  34.978  30.386  1.00  0.00    -0.237 OA
ATOM     80  O   UNL A   1      33.721  36.213  28.602  1.00  0.00    -0.237 OA
ATOM     81  O   UNL A   1      32.487  34.152  28.056  1.00  0.00    -0.744 OA
ENDBRANCH  77  78
ENDBRANCH  45  70
BRANCH  57  82
ATOM     82  C   UNL A   1      41.576  33.337  35.241  1.00  0.00     0.058 A 
ATOM     83  C   UNL A   1      42.283  34.533  35.053  1.00  0.00     0.135 A 
ATOM     84  C   UNL A   1      40.918  33.140  36.465  1.00  0.00     0.135 A 
ATOM     85  F   UNL A   1      42.933  34.761  33.902  1.00  0.00    -0.206 F 
ATOM     86  C   UNL A   1      42.334  35.505  36.047  1.00  0.00     0.059 A 
ATOM     87  C   UNL A   1      40.944  34.105  37.466  1.00  0.00     0.059 A 
ATOM     88  F   UNL A   1      40.226  32.012  36.687  1.00  0.00    -0.206 F 
ATOM     89  C   UNL A   1      41.657  35.284  37.249  1.00  0.00     0.060 A 
BRANCH  89  90
ATOM     90  S   UNL A   1      41.674  36.579  38.506  1.00  0.00     0.124 S 
ATOM     91  O   UNL A   1      41.779  35.796  39.733  1.00  0.00    -0.237 OA
ATOM     92  O   UNL A   1      42.856  37.355  38.146  1.00  0.00    -0.237 OA
ATOM     93  O   UNL A   1      40.399  37.262  38.304  1.00  0.00    -0.744 OA
ENDBRANCH  89  90
ENDBRANCH  57  82
ENDBRANCH  31  32
ENDBRANCH  24  26
ENDBRANCH  23  24
ENDBRANCH   1  23
TORSDOF 16
ENDMDL
MODEL 3
REMARK VINA RESULT:     -11.2      4.797     11.272
REMARK SMILES C[C@H]1[C@@H](C(=O)OCCOC(=O)c2ccc(-c3c4nc(c(-c5c(F)cc(S(=O)(=O)[O-])cc5F)c5ccc([nH]5)c(-c5c(F)cc(S(=O)(=O)[O-])cc5F)c5nc(c(-c6c(F)cc(S(=O)(=O)[O-])cc6F)c6ccc3[nH]6)C=C5)C=C4)cc2)CC[N@@H+]1Cc1cc(F)c(F)c(F)c1
REMARK SMILES IDX 8 1 7 2 6 3 4 4 5 5 3 6 1 7 2 8 80 9 78 10 79 11 81 13 82 14
REMARK SMILES IDX 83 15 90 16 84 17 88 18 85 19 86 20 89 21 87 22 9 23 10 24
REMARK SMILES IDX 11 25 12 26 13 27 77 28 14 29 76 30 15 31 16 32 17 33 70 34
REMARK SMILES IDX 18 35 75 36 69 37 71 38 19 39 74 40 68 41 67 42 20 44 54 45
REMARK SMILES IDX 33 46 53 47 34 48 37 49 52 50 72 51 35 52 36 53 51 55 73 56
REMARK SMILES IDX 38 57 21 58 22 59 31 60 23 61 24 62 30 63 32 64 25 65 26 66
REMARK SMILES IDX 27 67 28 68 29 69 55 70 56 71 65 72 57 73 58 74 64 75 66 76
REMARK SMILES IDX 59 77 60 78 61 79 62 80 63 81 39 82 40 83 49 84 41 85 42 86
REMARK SMILES IDX 48 87 50 88 43 89 44 90 45 91 46 92 47 93
REMARK H PARENT 80 12 71 43 37 54
REMARK Flexibility Score: inf
ROOT
ATOM      1  C   UNL A   1      40.680  21.397  26.700  1.00  0.00     0.275 C 
ENDROOT
BRANCH   1   2
ATOM      2  C   UNL A   1      42.147  21.154  26.367  1.00  0.00     0.274 C 
BRANCH   2   3
ATOM      3  O   UNL A   1      42.857  22.399  26.515  1.00  0.00    -0.462 OA
BRANCH   3   4
ATOM      4  C   UNL A   1      43.333  22.980  25.384  1.00  0.00     0.315 C 
ATOM      5  O   UNL A   1      43.289  22.477  24.269  1.00  0.00    -0.252 OA
BRANCH   4   6
ATOM      6  C   UNL A   1      43.907  24.358  25.643  1.00  0.00     0.162 C 
ATOM      7  C   UNL A   1      46.205  23.471  24.799  1.00  0.00     0.076 C 
ATOM      8  C   UNL A   1      45.280  24.667  25.036  1.00  0.00     0.195 C 
ATOM      9  N   UNL A   1      45.940  25.549  26.014  1.00  0.00    -0.328 N 
ATOM     10  C   UNL A   1      44.018  24.692  27.127  1.00  0.00     0.083 C 
ATOM     11  C   UNL A   1      45.430  25.198  27.335  1.00  0.00     0.263 C 
ATOM     12  H   UNL A   1      46.943  25.368  25.969  1.00  0.00     0.348 HD
BRANCH   9  13
ATOM     13  C   UNL A   1      45.975  26.978  25.711  1.00  0.00     0.299 C 
BRANCH  13  14
ATOM     14  C   UNL A   1      45.049  27.897  26.479  1.00  0.00     0.012 A 
ATOM     15  C   UNL A   1      43.754  28.156  25.998  1.00  0.00     0.052 A 
ATOM     16  C   UNL A   1      45.471  28.553  27.647  1.00  0.00     0.052 A 
ATOM     17  C   UNL A   1      42.917  29.045  26.671  1.00  0.00     0.162 A 
ATOM     18  C   UNL A   1      44.614  29.429  28.314  1.00  0.00     0.162 A 
ATOM     19  F   UNL A   1      41.697  29.291  26.173  1.00  0.00    -0.204 F 
ATOM     20  C   UNL A   1      43.340  29.681  27.827  1.00  0.00     0.194 A 
ATOM     21  F   UNL A   1      45.041  30.036  29.429  1.00  0.00    -0.204 F 
ATOM     22  F   UNL A   1      42.530  30.541  28.460  1.00  0.00    -0.200 F 
ENDBRANCH  13  14
ENDBRANCH   9  13
ENDBRANCH   4   6
ENDBRANCH   3   4
ENDBRANCH   2   3
ENDBRANCH   1   2
BRANCH   1  23
ATOM     23  O   UNL A   1      40.138  22.295  25.715  1.00  0.00    -0.458 OA
BRANCH  23  24
ATOM     24  C   UNL A   1      39.001  22.935  26.069  1.00  0.00     0.338 C 
ATOM     25  O   UNL A   1      37.854  22.577  25.866  1.00  0.00    -0.246 OA
BRANCH  24  26
ATOM     26  C   UNL A   1      39.342  24.182  26.777  1.00  0.00     0.060 A 
ATOM     27  C   UNL A   1      40.210  25.119  26.206  1.00  0.00     0.016 A 
ATOM     28  C   UNL A   1      38.860  24.362  28.071  1.00  0.00     0.016 A 
ATOM     29  C   UNL A   1      40.648  26.207  26.963  1.00  0.00     0.010 A 
ATOM     30  C   UNL A   1      39.226  25.500  28.787  1.00  0.00     0.010 A 
ATOM     31  C   UNL A   1      40.138  26.428  28.250  1.00  0.00    -0.014 A 
BRANCH  31  32
ATOM     32  C   UNL A   1      40.513  27.618  29.058  1.00  0.00     0.031 A 
ATOM     33  C   UNL A   1      41.732  27.570  29.941  1.00  0.00     0.074 A 
ATOM     34  C   UNL A   1      39.716  28.705  29.079  1.00  0.00     0.049 A 
ATOM     35  N   UNL A   1      42.045  28.322  30.962  1.00  0.00    -0.248 NA
ATOM     36  C   UNL A   1      42.715  26.514  29.646  1.00  0.00     0.031 C 
ATOM     37  C   UNL A   1      38.530  28.906  28.243  1.00  0.00     0.029 A 
ATOM     38  N   UNL A   1      39.766  29.834  29.859  1.00  0.00    -0.354 N 
ATOM     39  C   UNL A   1      43.226  27.796  31.473  1.00  0.00     0.074 A 
ATOM     40  C   UNL A   1      43.582  26.666  30.639  1.00  0.00     0.031 C 
ATOM     41  C   UNL A   1      37.967  30.084  28.554  1.00  0.00     0.029 A 
ATOM     42  C   UNL A   1      38.694  30.674  29.671  1.00  0.00     0.049 A 
ATOM     43  H   UNL A   1      40.498  30.023  30.490  1.00  0.00     0.167 HD
ATOM     44  C   UNL A   1      43.935  28.211  32.550  1.00  0.00     0.037 A 
ATOM     45  C   UNL A   1      38.295  31.760  30.360  1.00  0.00     0.037 A 
ATOM     46  C   UNL A   1      43.594  29.366  33.340  1.00  0.00     0.049 A 
ATOM     47  C   UNL A   1      39.082  32.196  31.562  1.00  0.00     0.074 A 
ATOM     48  C   UNL A   1      44.248  29.881  34.445  1.00  0.00     0.029 A 
ATOM     49  N   UNL A   1      42.512  30.200  33.093  1.00  0.00    -0.354 N 
ATOM     50  N   UNL A   1      40.153  31.648  32.084  1.00  0.00    -0.248 NA
ATOM     51  C   UNL A   1      38.596  33.380  32.284  1.00  0.00     0.031 C 
ATOM     52  C   UNL A   1      43.551  31.012  34.880  1.00  0.00     0.029 A 
ATOM     53  C   UNL A   1      42.480  31.221  34.026  1.00  0.00     0.049 A 
ATOM     54  H   UNL A   1      41.864  30.082  32.361  1.00  0.00     0.167 HD
ATOM     55  C   UNL A   1      40.479  32.428  33.186  1.00  0.00     0.074 A 
ATOM     56  C   UNL A   1      39.494  33.489  33.255  1.00  0.00     0.031 C 
ATOM     57  C   UNL A   1      41.499  32.277  34.064  1.00  0.00     0.037 A 
BRANCH  44  58
ATOM     58  C   UNL A   1      45.127  27.395  32.965  1.00  0.00     0.058 A 
ATOM     59  C   UNL A   1      45.013  26.302  33.837  1.00  0.00     0.135 A 
ATOM     60  C   UNL A   1      46.398  27.691  32.446  1.00  0.00     0.135 A 
ATOM     61  F   UNL A   1      43.824  25.986  34.373  1.00  0.00    -0.206 F 
ATOM     62  C   UNL A   1      46.123  25.542  34.197  1.00  0.00     0.059 A 
ATOM     63  C   UNL A   1      47.518  26.933  32.777  1.00  0.00     0.059 A 
ATOM     64  F   UNL A   1      46.562  28.726  31.609  1.00  0.00    -0.206 F 
ATOM     65  C   UNL A   1      47.373  25.869  33.665  1.00  0.00     0.060 A 
BRANCH  65  66
ATOM     66  S   UNL A   1      48.806  24.877  34.139  1.00  0.00     0.124 S 
ATOM     67  O   UNL A   1      49.536  24.805  32.877  1.00  0.00    -0.237 OA
ATOM     68  O   UNL A   1      49.424  25.690  35.181  1.00  0.00    -0.237 OA
ATOM     69  O   UNL A   1      48.215  23.623  34.595  1.00  0.00    -0.744 OA
ENDBRANCH  65  66
ENDBRANCH  44  58
BRANCH  45  70
ATOM     70  C   UNL A   1      37.056  32.470  29.952  1.00  0.00     0.058 A 
ATOM     71  C   UNL A   1      35.808  32.089  30.460  1.00  0.00     0.135 A 
ATOM     72  C   UNL A   1      37.104  33.581  29.092  1.00  0.00     0.135 A 
ATOM     73  F   UNL A   1      35.712  31.028  31.277  1.00  0.00    -0.206 F 
ATOM     74  C   UNL A   1      34.647  32.785  30.137  1.00  0.00     0.059 A 
ATOM     75  C   UNL A   1      35.962  34.307  28.773  1.00  0.00     0.059 A 
ATOM     76  F   UNL A   1      38.279  33.993  28.593  1.00  0.00    -0.206 F 
ATOM     77  C   UNL A   1      34.736  33.898  29.298  1.00  0.00     0.060 A 
BRANCH  77  78
ATOM     78  S   UNL A   1      33.242  34.850  28.949  1.00  0.00     0.124 S 
ATOM     79  O   UNL A   1      32.627  34.925  30.269  1.00  0.00    -0.237 OA
ATOM     80  O   UNL A   1      33.784  36.099  28.425  1.00  0.00    -0.237 OA
ATOM     81  O   UNL A   1      32.542  34.022  27.970  1.00  0.00    -0.744 OA
ENDBRANCH  77  78
ENDBRANCH  45  70
BRANCH  57  82
ATOM     82  C   UNL A   1      41.634  33.303  35.149  1.00  0.00     0.058 A 
ATOM     83  C   UNL A   1      42.343  34.496  34.944  1.00  0.00     0.135 A 
ATOM     84  C   UNL A   1      40.978  33.124  36.376  1.00  0.00     0.135 A 
ATOM     85  F   UNL A   1      42.993  34.707  33.789  1.00  0.00    -0.206 F 
ATOM     86  C   UNL A   1      42.396  35.481  35.924  1.00  0.00     0.059 A 
ATOM     87  C   UNL A   1      41.005  34.103  37.364  1.00  0.00     0.059 A 
ATOM     88  F   UNL A   1      40.284  32.000  36.614  1.00  0.00    -0.206 F 
ATOM     89  C   UNL A   1      41.720  35.278  37.130  1.00  0.00     0.060 A 
BRANCH  89  90
ATOM     90  S   UNL A   1      41.739  36.590  38.369  1.00  0.00     0.124 S 
ATOM     91  O   UNL A   1      40.406  37.163  38.210  1.00  0.00    -0.237 OA
ATOM     92  O   UNL A   1      41.968  35.853  39.607  1.00  0.00    -0.237 OA
ATOM     93  O   UNL A   1      42.844  37.442  37.942  1.00  0.00    -0.744 OA
ENDBRANCH  89  90
ENDBRANCH  57  82
ENDBRANCH  31  32
ENDBRANCH  24  26
ENDBRANCH  23  24
ENDBRANCH   1  23
TORSDOF 16
ENDMDL
