MODEL 1
REMARK VINA RESULT:     -10.7      0.000      0.000
REMARK SMILES Cc1cc(=O)cc(C)n1C[C@H]1CCCC[C@@H]1C(=O)OCCOC(=O)c1ccc(-c2c3nc(c(-c4c(F)cc(S(=O)(=O)[O-])cc4F)c4ccc([nH]4)c(-c4c(F)cc(S(=O)(=O)[O-])cc4F)c4nc(c(-c5c(F)cc(S(=O)(=O)[O-])cc5F)c5ccc2[nH]5)C=C4)C=C3)cc1
REMARK SMILES IDX 21 1 20 2 19 3 17 4 18 5 16 6 11 7 12 8 13 9 15 10 14 11
REMARK SMILES IDX 10 12 9 13 1 14 2 15 3 16 4 17 7 18 5 19 6 20 8 21 22 22
REMARK SMILES IDX 23 23 24 24 25 25 26 26 90 27 27 28 89 29 28 30 29 31 30 32
REMARK SMILES IDX 83 33 31 34 88 35 82 36 84 37 32 38 87 39 81 40 80 41 33 43
REMARK SMILES IDX 67 44 46 45 66 46 47 47 50 48 65 49 85 50 48 51 49 52 64 54
REMARK SMILES IDX 86 55 51 56 34 57 35 58 44 59 36 60 37 61 43 62 45 63 38 64
REMARK SMILES IDX 39 65 40 66 41 67 42 68 68 69 69 70 78 71 70 72 71 73 77 74
REMARK SMILES IDX 79 75 72 76 73 77 74 78 75 79 76 80 52 81 53 82 62 83 54 84
REMARK SMILES IDX 55 85 61 86 63 87 56 88 57 89 58 90 59 91 60 92
REMARK H PARENT 84 42 50 53
REMARK Flexibility Score: inf
ROOT
ATOM      1  C   UNL A   1      34.775  32.051  27.728  1.00  0.00     0.275 C 
ENDROOT
BRANCH   1   2
ATOM      2  C   UNL A   1      33.732  33.070  28.189  1.00  0.00     0.274 C 
BRANCH   2   3
ATOM      3  O   UNL A   1      34.344  34.279  28.696  1.00  0.00    -0.462 OA
BRANCH   3   4
ATOM      4  C   UNL A   1      33.820  34.720  29.876  1.00  0.00     0.309 C 
ATOM      5  O   UNL A   1      32.624  34.916  30.050  1.00  0.00    -0.252 OA
BRANCH   4   6
ATOM      6  C   UNL A   1      34.904  35.001  30.931  1.00  0.00     0.104 C 
ATOM      7  C   UNL A   1      35.752  33.743  31.279  1.00  0.00     0.023 C 
ATOM      8  C   UNL A   1      34.815  32.725  31.935  1.00  0.00     0.006 C 
ATOM      9  C   UNL A   1      34.132  33.227  33.202  1.00  0.00     0.000 C 
ATOM     10  C   UNL A   1      34.231  35.582  32.192  1.00  0.00     0.016 C 
ATOM     11  C   UNL A   1      33.417  34.557  32.994  1.00  0.00     0.001 C 
BRANCH   7  12
ATOM     12  C   UNL A   1      36.962  34.085  32.204  1.00  0.00     0.126 C 
BRANCH  12  13
ATOM     13  N   UNL A   1      37.653  32.889  32.785  1.00  0.00    -0.349 N 
ATOM     14  C   UNL A   1      38.844  32.497  30.567  1.00  0.00     0.064 C 
ATOM     15  C   UNL A   1      38.467  32.062  31.962  1.00  0.00     0.018 A 
ATOM     16  C   UNL A   1      38.994  30.901  32.394  1.00  0.00     0.073 A 
ATOM     17  C   UNL A   1      38.736  30.447  33.767  1.00  0.00     0.182 A 
ATOM     18  C   UNL A   1      37.587  32.560  34.173  1.00  0.00     0.018 A 
ATOM     19  O   UNL A   1      39.108  29.346  34.149  1.00  0.00    -0.290 OA
ATOM     20  C   UNL A   1      38.067  31.399  34.663  1.00  0.00     0.073 A 
ATOM     21  C   UNL A   1      37.085  33.531  35.216  1.00  0.00     0.064 C 
ENDBRANCH  12  13
ENDBRANCH   7  12
ENDBRANCH   4   6
ENDBRANCH   3   4
ENDBRANCH   2   3
ENDBRANCH   1   2
BRANCH   1  22
ATOM     22  O   UNL A   1      34.941  31.022  28.717  1.00  0.00    -0.458 OA
BRANCH  22  23
ATOM     23  C   UNL A   1      35.378  29.820  28.259  1.00  0.00     0.338 C 
ATOM     24  O   UNL A   1      34.674  28.933  27.806  1.00  0.00    -0.246 OA
BRANCH  23  25
ATOM     25  C   UNL A   1      36.864  29.733  28.312  1.00  0.00     0.060 A 
ATOM     26  C   UNL A   1      37.654  30.064  27.217  1.00  0.00     0.016 A 
ATOM     27  C   UNL A   1      37.485  29.200  29.443  1.00  0.00     0.016 A 
ATOM     28  C   UNL A   1      39.006  29.695  27.185  1.00  0.00     0.010 A 
ATOM     29  C   UNL A   1      38.871  28.951  29.448  1.00  0.00     0.010 A 
ATOM     30  C   UNL A   1      39.653  29.122  28.292  1.00  0.00    -0.014 A 
BRANCH  30  31
ATOM     31  C   UNL A   1      41.079  28.629  28.229  1.00  0.00     0.031 A 
ATOM     32  C   UNL A   1      42.226  29.568  28.567  1.00  0.00     0.074 A 
ATOM     33  C   UNL A   1      41.412  27.352  27.925  1.00  0.00     0.049 A 
ATOM     34  N   UNL A   1      43.497  29.471  28.253  1.00  0.00    -0.248 NA
ATOM     35  C   UNL A   1      41.903  30.775  29.342  1.00  0.00     0.031 C 
ATOM     36  C   UNL A   1      40.481  26.259  27.647  1.00  0.00     0.029 A 
ATOM     37  N   UNL A   1      42.648  26.748  27.822  1.00  0.00    -0.354 N 
ATOM     38  C   UNL A   1      44.092  30.655  28.683  1.00  0.00     0.074 A 
ATOM     39  C   UNL A   1      43.055  31.435  29.324  1.00  0.00     0.031 C 
ATOM     40  C   UNL A   1      41.164  25.112  27.513  1.00  0.00     0.029 A 
ATOM     41  C   UNL A   1      42.592  25.404  27.534  1.00  0.00     0.049 A 
ATOM     42  H   UNL A   1      43.495  27.236  27.944  1.00  0.00     0.167 HD
ATOM     43  C   UNL A   1      45.378  31.060  28.545  1.00  0.00     0.037 A 
ATOM     44  C   UNL A   1      43.557  24.505  27.246  1.00  0.00     0.037 A 
ATOM     45  C   UNL A   1      46.445  30.233  28.041  1.00  0.00     0.049 A 
ATOM     46  C   UNL A   1      44.983  24.957  27.108  1.00  0.00     0.074 A 
ATOM     47  C   UNL A   1      47.778  30.564  27.852  1.00  0.00     0.029 A 
ATOM     48  N   UNL A   1      46.319  28.894  27.711  1.00  0.00    -0.354 N 
ATOM     49  N   UNL A   1      45.491  26.147  27.306  1.00  0.00    -0.248 NA
ATOM     50  C   UNL A   1      45.957  23.954  26.647  1.00  0.00     0.031 C 
ATOM     51  C   UNL A   1      48.456  29.426  27.405  1.00  0.00     0.029 A 
ATOM     52  C   UNL A   1      47.551  28.380  27.339  1.00  0.00     0.049 A 
ATOM     53  H   UNL A   1      45.479  28.383  27.737  1.00  0.00     0.167 HD
ATOM     54  C   UNL A   1      46.838  26.042  26.975  1.00  0.00     0.074 A 
ATOM     55  C   UNL A   1      47.076  24.666  26.600  1.00  0.00     0.031 C 
ATOM     56  C   UNL A   1      47.786  27.011  26.964  1.00  0.00     0.037 A 
BRANCH  43  57
ATOM     57  C   UNL A   1      45.718  32.481  28.905  1.00  0.00     0.058 A 
ATOM     58  C   UNL A   1      46.255  32.831  30.151  1.00  0.00     0.135 A 
ATOM     59  C   UNL A   1      45.586  33.495  27.940  1.00  0.00     0.135 A 
ATOM     60  F   UNL A   1      46.413  31.897  31.101  1.00  0.00    -0.206 F 
ATOM     61  C   UNL A   1      46.632  34.142  30.436  1.00  0.00     0.059 A 
ATOM     62  C   UNL A   1      45.983  34.805  28.193  1.00  0.00     0.059 A 
ATOM     63  F   UNL A   1      45.092  33.210  26.724  1.00  0.00    -0.206 F 
ATOM     64  C   UNL A   1      46.496  35.122  29.450  1.00  0.00     0.060 A 
BRANCH  64  65
ATOM     65  S   UNL A   1      47.039  36.808  29.806  1.00  0.00     0.124 S 
ATOM     66  O   UNL A   1      46.631  37.513  28.595  1.00  0.00    -0.237 OA
ATOM     67  O   UNL A   1      46.288  37.137  31.014  1.00  0.00    -0.237 OA
ATOM     68  O   UNL A   1      48.481  36.669  29.992  1.00  0.00    -0.744 OA
ENDBRANCH  64  65
ENDBRANCH  43  57
BRANCH  44  69
ATOM     69  C   UNL A   1      43.192  23.085  26.984  1.00  0.00     0.058 A 
ATOM     70  C   UNL A   1      43.172  22.577  25.677  1.00  0.00     0.135 A 
ATOM     71  C   UNL A   1      42.886  22.202  28.033  1.00  0.00     0.135 A 
ATOM     72  F   UNL A   1      43.431  23.387  24.639  1.00  0.00    -0.206 F 
ATOM     73  C   UNL A   1      42.881  21.241  25.419  1.00  0.00     0.059 A 
ATOM     74  C   UNL A   1      42.623  20.857  27.803  1.00  0.00     0.059 A 
ATOM     75  F   UNL A   1      42.891  22.639  29.302  1.00  0.00    -0.206 F 
ATOM     76  C   UNL A   1      42.619  20.386  26.491  1.00  0.00     0.060 A 
BRANCH  76  77
ATOM     77  S   UNL A   1      42.347  18.631  26.163  1.00  0.00     0.124 S 
ATOM     78  O   UNL A   1      42.666  18.038  27.456  1.00  0.00    -0.237 OA
ATOM     79  O   UNL A   1      40.939  18.601  25.777  1.00  0.00    -0.237 OA
ATOM     80  O   UNL A   1      43.288  18.345  25.084  1.00  0.00    -0.744 OA
ENDBRANCH  76  77
ENDBRANCH  44  69
BRANCH  56  81
ATOM     81  C   UNL A   1      49.171  26.622  26.539  1.00  0.00     0.058 A 
ATOM     82  C   UNL A   1      50.080  26.061  27.447  1.00  0.00     0.135 A 
ATOM     83  C   UNL A   1      49.578  26.765  25.203  1.00  0.00     0.135 A 
ATOM     84  F   UNL A   1      49.741  25.911  28.737  1.00  0.00    -0.206 F 
ATOM     85  C   UNL A   1      51.354  25.667  27.050  1.00  0.00     0.059 A 
ATOM     86  C   UNL A   1      50.840  26.362  24.779  1.00  0.00     0.059 A 
ATOM     87  F   UNL A   1      48.741  27.291  24.294  1.00  0.00    -0.206 F 
ATOM     88  C   UNL A   1      51.726  25.822  25.713  1.00  0.00     0.060 A 
BRANCH  88  89
ATOM     89  S   UNL A   1      53.372  25.282  25.205  1.00  0.00     0.124 S 
ATOM     90  O   UNL A   1      54.219  25.961  26.181  1.00  0.00    -0.237 OA
ATOM     91  O   UNL A   1      53.283  23.831  25.344  1.00  0.00    -0.237 OA
ATOM     92  O   UNL A   1      53.483  25.769  23.832  1.00  0.00    -0.744 OA
ENDBRANCH  88  89
ENDBRANCH  56  81
ENDBRANCH  30  31
ENDBRANCH  23  25
ENDBRANCH  22  23
ENDBRANCH   1  22
TORSDOF 16
ENDMDL
MODEL 2
REMARK VINA RESULT:     -10.6      3.256      5.780
REMARK SMILES Cc1cc(=O)cc(C)n1C[C@H]1CCCC[C@@H]1C(=O)OCCOC(=O)c1ccc(-c2c3nc(c(-c4c(F)cc(S(=O)(=O)[O-])cc4F)c4ccc([nH]4)c(-c4c(F)cc(S(=O)(=O)[O-])cc4F)c4nc(c(-c5c(F)cc(S(=O)(=O)[O-])cc5F)c5ccc2[nH]5)C=C4)C=C3)cc1
REMARK SMILES IDX 21 1 20 2 19 3 17 4 18 5 16 6 11 7 12 8 13 9 15 10 14 11
REMARK SMILES IDX 10 12 9 13 1 14 2 15 3 16 4 17 7 18 5 19 6 20 8 21 22 22
REMARK SMILES IDX 23 23 24 24 25 25 26 26 90 27 27 28 89 29 28 30 29 31 30 32
REMARK SMILES IDX 83 33 31 34 88 35 82 36 84 37 32 38 87 39 81 40 80 41 33 43
REMARK SMILES IDX 67 44 46 45 66 46 47 47 50 48 65 49 85 50 48 51 49 52 64 54
REMARK SMILES IDX 86 55 51 56 34 57 35 58 44 59 36 60 37 61 43 62 45 63 38 64
REMARK SMILES IDX 39 65 40 66 41 67 42 68 68 69 69 70 78 71 70 72 71 73 77 74
REMARK SMILES IDX 79 75 72 76 73 77 74 78 75 79 76 80 52 81 53 82 62 83 54 84
REMARK SMILES IDX 55 85 61 86 63 87 56 88 57 89 58 90 59 91 60 92
REMARK H PARENT 84 42 50 53
REMARK Flexibility Score: inf
ROOT
ATOM      1  C   UNL A   1      33.039  30.291  27.370  1.00  0.00     0.275 C 
ENDROOT
BRANCH   1   2
ATOM      2  C   UNL A   1      33.162  29.266  26.242  1.00  0.00     0.274 C 
BRANCH   2   3
ATOM      3  O   UNL A   1      33.124  27.907  26.739  1.00  0.00    -0.462 OA
BRANCH   3   4
ATOM      4  C   UNL A   1      31.869  27.444  27.006  1.00  0.00     0.309 C 
ATOM      5  O   UNL A   1      31.029  28.088  27.622  1.00  0.00    -0.252 OA
BRANCH   4   6
ATOM      6  C   UNL A   1      31.655  26.005  26.503  1.00  0.00     0.104 C 
ATOM      7  C   UNL A   1      32.807  25.506  25.584  1.00  0.00     0.023 C 
ATOM      8  C   UNL A   1      32.794  26.373  24.321  1.00  0.00     0.006 C 
ATOM      9  C   UNL A   1      31.485  26.326  23.542  1.00  0.00     0.000 C 
ATOM     10  C   UNL A   1      30.295  25.929  25.779  1.00  0.00     0.016 C 
ATOM     11  C   UNL A   1      30.273  26.633  24.415  1.00  0.00     0.001 C 
BRANCH   7  12
ATOM     12  C   UNL A   1      32.672  23.990  25.237  1.00  0.00     0.126 C 
BRANCH  12  13
ATOM     13  N   UNL A   1      33.977  23.285  25.027  1.00  0.00    -0.349 N 
ATOM     14  C   UNL A   1      33.988  22.573  27.474  1.00  0.00     0.064 C 
ATOM     15  C   UNL A   1      34.663  22.704  26.130  1.00  0.00     0.018 A 
ATOM     16  C   UNL A   1      35.901  22.186  26.025  1.00  0.00     0.073 A 
ATOM     17  C   UNL A   1      36.594  22.206  24.731  1.00  0.00     0.182 A 
ATOM     18  C   UNL A   1      34.557  23.106  23.735  1.00  0.00     0.018 A 
ATOM     19  O   UNL A   1      37.759  21.844  24.632  1.00  0.00    -0.290 OA
ATOM     20  C   UNL A   1      35.804  22.622  23.565  1.00  0.00     0.073 A 
ATOM     21  C   UNL A   1      33.782  23.329  22.458  1.00  0.00     0.064 C 
ENDBRANCH  12  13
ENDBRANCH   7  12
ENDBRANCH   4   6
ENDBRANCH   3   4
ENDBRANCH   2   3
ENDBRANCH   1   2
BRANCH   1  22
ATOM     22  O   UNL A   1      34.172  31.174  27.371  1.00  0.00    -0.458 OA
BRANCH  22  23
ATOM     23  C   UNL A   1      34.818  31.316  28.558  1.00  0.00     0.338 C 
ATOM     24  O   UNL A   1      34.415  31.954  29.516  1.00  0.00    -0.246 OA
BRANCH  23  25
ATOM     25  C   UNL A   1      36.077  30.521  28.581  1.00  0.00     0.060 A 
ATOM     26  C   UNL A   1      36.649  30.094  29.774  1.00  0.00     0.016 A 
ATOM     27  C   UNL A   1      36.771  30.292  27.392  1.00  0.00     0.016 A 
ATOM     28  C   UNL A   1      37.968  29.617  29.793  1.00  0.00     0.010 A 
ATOM     29  C   UNL A   1      38.045  29.692  27.410  1.00  0.00     0.010 A 
ATOM     30  C   UNL A   1      38.707  29.410  28.618  1.00  0.00    -0.014 A 
BRANCH  30  31
ATOM     31  C   UNL A   1      40.159  28.996  28.639  1.00  0.00     0.031 A 
ATOM     32  C   UNL A   1      41.225  29.972  29.112  1.00  0.00     0.074 A 
ATOM     33  C   UNL A   1      40.584  27.757  28.296  1.00  0.00     0.049 A 
ATOM     34  N   UNL A   1      42.518  29.958  28.892  1.00  0.00    -0.248 NA
ATOM     35  C   UNL A   1      40.778  31.116  29.922  1.00  0.00     0.031 C 
ATOM     36  C   UNL A   1      39.738  26.634  27.891  1.00  0.00     0.029 A 
ATOM     37  N   UNL A   1      41.856  27.224  28.258  1.00  0.00    -0.354 N 
ATOM     38  C   UNL A   1      43.013  31.145  29.428  1.00  0.00     0.074 A 
ATOM     39  C   UNL A   1      41.891  31.834  30.026  1.00  0.00     0.031 C 
ATOM     40  C   UNL A   1      40.491  25.533  27.752  1.00  0.00     0.029 A 
ATOM     41  C   UNL A   1      41.896  25.896  27.898  1.00  0.00     0.049 A 
ATOM     42  H   UNL A   1      42.663  27.747  28.470  1.00  0.00     0.167 HD
ATOM     43  C   UNL A   1      44.282  31.623  29.409  1.00  0.00     0.037 A 
ATOM     44  C   UNL A   1      42.927  25.065  27.639  1.00  0.00     0.037 A 
ATOM     45  C   UNL A   1      45.427  30.881  28.948  1.00  0.00     0.049 A 
ATOM     46  C   UNL A   1      44.333  25.596  27.634  1.00  0.00     0.074 A 
ATOM     47  C   UNL A   1      46.750  31.289  28.879  1.00  0.00     0.029 A 
ATOM     48  N   UNL A   1      45.401  29.558  28.540  1.00  0.00    -0.354 N 
ATOM     49  N   UNL A   1      44.758  26.798  27.932  1.00  0.00    -0.248 NA
ATOM     50  C   UNL A   1      45.392  24.672  27.199  1.00  0.00     0.031 C 
ATOM     51  C   UNL A   1      47.522  30.214  28.427  1.00  0.00     0.029 A 
ATOM     52  C   UNL A   1      46.684  29.129  28.238  1.00  0.00     0.049 A 
ATOM     53  H   UNL A   1      44.590  29.003  28.476  1.00  0.00     0.167 HD
ATOM     54  C   UNL A   1      46.130  26.781  27.701  1.00  0.00     0.074 A 
ATOM     55  C   UNL A   1      46.470  25.442  27.275  1.00  0.00     0.031 C 
ATOM     56  C   UNL A   1      47.020  27.796  27.812  1.00  0.00     0.037 A 
BRANCH  43  57
ATOM     57  C   UNL A   1      44.515  33.037  29.868  1.00  0.00     0.058 A 
ATOM     58  C   UNL A   1      44.336  34.139  29.022  1.00  0.00     0.135 A 
ATOM     59  C   UNL A   1      44.836  33.289  31.213  1.00  0.00     0.135 A 
ATOM     60  F   UNL A   1      44.017  33.952  27.732  1.00  0.00    -0.206 F 
ATOM     61  C   UNL A   1      44.486  35.444  29.488  1.00  0.00     0.059 A 
ATOM     62  C   UNL A   1      44.962  34.584  31.707  1.00  0.00     0.059 A 
ATOM     63  F   UNL A   1      45.002  32.268  32.071  1.00  0.00    -0.206 F 
ATOM     64  C   UNL A   1      44.796  35.657  30.833  1.00  0.00     0.060 A 
BRANCH  64  65
ATOM     65  S   UNL A   1      44.933  37.352  31.445  1.00  0.00     0.124 S 
ATOM     66  O   UNL A   1      43.796  37.995  30.794  1.00  0.00    -0.237 OA
ATOM     67  O   UNL A   1      44.822  37.180  32.890  1.00  0.00    -0.237 OA
ATOM     68  O   UNL A   1      46.247  37.779  30.972  1.00  0.00    -0.744 OA
ENDBRANCH  64  65
ENDBRANCH  43  57
BRANCH  44  69
ATOM     69  C   UNL A   1      42.662  23.645  27.276  1.00  0.00     0.058 A 
ATOM     70  C   UNL A   1      42.592  23.246  25.934  1.00  0.00     0.135 A 
ATOM     71  C   UNL A   1      42.503  22.656  28.261  1.00  0.00     0.135 A 
ATOM     72  F   UNL A   1      42.710  24.158  24.956  1.00  0.00    -0.206 F 
ATOM     73  C   UNL A   1      42.394  21.916  25.578  1.00  0.00     0.059 A 
ATOM     74  C   UNL A   1      42.335  21.317  27.931  1.00  0.00     0.059 A 
ATOM     75  F   UNL A   1      42.562  22.986  29.561  1.00  0.00    -0.206 F 
ATOM     76  C   UNL A   1      42.278  20.956  26.585  1.00  0.00     0.060 A 
BRANCH  76  77
ATOM     77  S   UNL A   1      42.127  19.217  26.122  1.00  0.00     0.124 S 
ATOM     78  O   UNL A   1      42.530  18.549  27.355  1.00  0.00    -0.237 OA
ATOM     79  O   UNL A   1      40.714  19.109  25.771  1.00  0.00    -0.237 OA
ATOM     80  O   UNL A   1      43.053  19.091  25.001  1.00  0.00    -0.744 OA
ENDBRANCH  76  77
ENDBRANCH  44  69
BRANCH  56  81
ATOM     81  C   UNL A   1      48.452  27.503  27.475  1.00  0.00     0.058 A 
ATOM     82  C   UNL A   1      48.925  27.606  26.159  1.00  0.00     0.135 A 
ATOM     83  C   UNL A   1      49.371  27.164  28.480  1.00  0.00     0.135 A 
ATOM     84  F   UNL A   1      48.085  27.920  25.161  1.00  0.00    -0.206 F 
ATOM     85  C   UNL A   1      50.260  27.368  25.846  1.00  0.00     0.059 A 
ATOM     86  C   UNL A   1      50.714  26.939  28.194  1.00  0.00     0.059 A 
ATOM     87  F   UNL A   1      48.968  27.058  29.757  1.00  0.00    -0.206 F 
ATOM     88  C   UNL A   1      51.148  27.035  26.871  1.00  0.00     0.060 A 
BRANCH  88  89
ATOM     89  S   UNL A   1      52.883  26.755  26.456  1.00  0.00     0.124 S 
ATOM     90  O   UNL A   1      53.495  28.007  26.892  1.00  0.00    -0.237 OA
ATOM     91  O   UNL A   1      53.211  25.578  27.255  1.00  0.00    -0.237 OA
ATOM     92  O   UNL A   1      52.858  26.540  25.012  1.00  0.00    -0.744 OA
ENDBRANCH  88  89
ENDBRANCH  56  81
ENDBRANCH  30  31
ENDBRANCH  23  25
ENDBRANCH  22  23
ENDBRANCH   1  22
TORSDOF 16
ENDMDL
MODEL 3
REMARK VINA RESULT:     -10.6      3.295      5.688
REMARK SMILES Cc1cc(=O)cc(C)n1C[C@H]1CCCC[C@@H]1C(=O)OCCOC(=O)c1ccc(-c2c3nc(c(-c4c(F)cc(S(=O)(=O)[O-])cc4F)c4ccc([nH]4)c(-c4c(F)cc(S(=O)(=O)[O-])cc4F)c4nc(c(-c5c(F)cc(S(=O)(=O)[O-])cc5F)c5ccc2[nH]5)C=C4)C=C3)cc1
REMARK SMILES IDX 21 1 20 2 19 3 17 4 18 5 16 6 11 7 12 8 13 9 15 10 14 11
REMARK SMILES IDX 10 12 9 13 1 14 2 15 3 16 4 17 7 18 5 19 6 20 8 21 22 22
REMARK SMILES IDX 23 23 24 24 25 25 26 26 90 27 27 28 89 29 28 30 29 31 30 32
REMARK SMILES IDX 83 33 31 34 88 35 82 36 84 37 32 38 87 39 81 40 80 41 33 43
REMARK SMILES IDX 67 44 46 45 66 46 47 47 50 48 65 49 85 50 48 51 49 52 64 54
REMARK SMILES IDX 86 55 51 56 34 57 35 58 44 59 36 60 37 61 43 62 45 63 38 64
REMARK SMILES IDX 39 65 40 66 41 67 42 68 68 69 69 70 78 71 70 72 71 73 77 74
REMARK SMILES IDX 79 75 72 76 73 77 74 78 75 79 76 80 52 81 53 82 62 83 54 84
REMARK SMILES IDX 55 85 61 86 63 87 56 88 57 89 58 90 59 91 60 92
REMARK H PARENT 84 42 50 53
REMARK Flexibility Score: inf
ROOT
ATOM      1  C   UNL A   1      33.630  30.822  27.574  1.00  0.00     0.275 C 
ENDROOT
BRANCH   1   2
ATOM      2  C   UNL A   1      33.600  29.497  26.812  1.00  0.00     0.274 C 
BRANCH   2   3
ATOM      3  O   UNL A   1      33.052  29.650  25.481  1.00  0.00    -0.462 OA
BRANCH   3   4
ATOM      4  C   UNL A   1      33.375  28.641  24.623  1.00  0.00     0.309 C 
ATOM      5  O   UNL A   1      34.233  28.742  23.755  1.00  0.00    -0.252 OA
BRANCH   4   6
ATOM      6  C   UNL A   1      32.498  27.392  24.828  1.00  0.00     0.104 C 
ATOM      7  C   UNL A   1      32.654  26.348  23.686  1.00  0.00     0.023 C 
ATOM      8  C   UNL A   1      32.129  26.992  22.399  1.00  0.00     0.006 C 
ATOM      9  C   UNL A   1      30.672  27.435  22.469  1.00  0.00     0.000 C 
ATOM     10  C   UNL A   1      31.028  27.837  24.977  1.00  0.00     0.016 C 
ATOM     11  C   UNL A   1      30.389  28.329  23.671  1.00  0.00     0.001 C 
BRANCH   7  12
ATOM     12  C   UNL A   1      31.908  25.013  24.001  1.00  0.00     0.126 C 
BRANCH  12  13
ATOM     13  N   UNL A   1      32.800  23.898  24.455  1.00  0.00    -0.349 N 
ATOM     14  C   UNL A   1      31.908  24.149  26.829  1.00  0.00     0.064 C 
ATOM     15  C   UNL A   1      32.882  23.564  25.835  1.00  0.00     0.018 A 
ATOM     16  C   UNL A   1      33.769  22.672  26.316  1.00  0.00     0.073 A 
ATOM     17  C   UNL A   1      34.700  22.001  25.400  1.00  0.00     0.182 A 
ATOM     18  C   UNL A   1      33.548  23.090  23.546  1.00  0.00     0.018 A 
ATOM     19  O   UNL A   1      35.587  21.273  25.822  1.00  0.00    -0.290 OA
ATOM     20  C   UNL A   1      34.472  22.203  23.962  1.00  0.00     0.073 A 
ATOM     21  C   UNL A   1      33.278  23.078  22.059  1.00  0.00     0.064 C 
ENDBRANCH  12  13
ENDBRANCH   7  12
ENDBRANCH   4   6
ENDBRANCH   3   4
ENDBRANCH   2   3
ENDBRANCH   1   2
BRANCH   1  22
ATOM     22  O   UNL A   1      34.974  31.320  27.660  1.00  0.00    -0.458 OA
BRANCH  22  23
ATOM     23  C   UNL A   1      35.586  31.181  28.866  1.00  0.00     0.338 C 
ATOM     24  O   UNL A   1      35.174  31.617  29.928  1.00  0.00    -0.246 OA
BRANCH  23  25
ATOM     25  C   UNL A   1      36.817  30.351  28.750  1.00  0.00     0.060 A 
ATOM     26  C   UNL A   1      37.472  29.854  29.870  1.00  0.00     0.016 A 
ATOM     27  C   UNL A   1      37.403  30.157  27.497  1.00  0.00     0.016 A 
ATOM     28  C   UNL A   1      38.771  29.340  29.759  1.00  0.00     0.010 A 
ATOM     29  C   UNL A   1      38.655  29.522  27.383  1.00  0.00     0.010 A 
ATOM     30  C   UNL A   1      39.405  29.167  28.518  1.00  0.00    -0.014 A 
BRANCH  30  31
ATOM     31  C   UNL A   1      40.840  28.711  28.400  1.00  0.00     0.031 A 
ATOM     32  C   UNL A   1      41.975  29.675  28.710  1.00  0.00     0.074 A 
ATOM     33  C   UNL A   1      41.194  27.446  28.069  1.00  0.00     0.049 A 
ATOM     34  N   UNL A   1      43.235  29.614  28.351  1.00  0.00    -0.248 NA
ATOM     35  C   UNL A   1      41.648  30.865  29.510  1.00  0.00     0.031 C 
ATOM     36  C   UNL A   1      40.281  26.333  27.809  1.00  0.00     0.029 A 
ATOM     37  N   UNL A   1      42.441  26.875  27.916  1.00  0.00    -0.354 N 
ATOM     38  C   UNL A   1      43.815  30.807  28.776  1.00  0.00     0.074 A 
ATOM     39  C   UNL A   1      42.782  31.553  29.461  1.00  0.00     0.031 C 
ATOM     40  C   UNL A   1      40.987  25.206  27.638  1.00  0.00     0.029 A 
ATOM     41  C   UNL A   1      42.408  25.533  27.614  1.00  0.00     0.049 A 
ATOM     42  H   UNL A   1      43.279  27.383  28.015  1.00  0.00     0.167 HD
ATOM     43  C   UNL A   1      45.085  31.246  28.598  1.00  0.00     0.037 A 
ATOM     44  C   UNL A   1      43.384  24.662  27.282  1.00  0.00     0.037 A 
ATOM     45  C   UNL A   1      46.155  30.452  28.049  1.00  0.00     0.049 A 
ATOM     46  C   UNL A   1      44.793  25.151  27.101  1.00  0.00     0.074 A 
ATOM     47  C   UNL A   1      47.472  30.818  27.818  1.00  0.00     0.029 A 
ATOM     48  N   UNL A   1      46.051  29.114  27.706  1.00  0.00    -0.354 N 
ATOM     49  N   UNL A   1      45.277  26.352  27.296  1.00  0.00    -0.248 NA
ATOM     50  C   UNL A   1      45.775  24.179  26.595  1.00  0.00     0.031 C 
ATOM     51  C   UNL A   1      48.162  29.703  27.334  1.00  0.00     0.029 A 
ATOM     52  C   UNL A   1      47.282  28.636  27.286  1.00  0.00     0.049 A 
ATOM     53  H   UNL A   1      45.225  28.582  27.755  1.00  0.00     0.167 HD
ATOM     54  C   UNL A   1      46.615  26.285  26.918  1.00  0.00     0.074 A 
ATOM     55  C   UNL A   1      46.873  24.919  26.518  1.00  0.00     0.031 C 
ATOM     56  C   UNL A   1      47.537  27.277  26.886  1.00  0.00     0.037 A 
BRANCH  43  57
ATOM     57  C   UNL A   1      45.403  32.670  28.964  1.00  0.00     0.058 A 
ATOM     58  C   UNL A   1      45.194  33.736  28.079  1.00  0.00     0.135 A 
ATOM     59  C   UNL A   1      45.837  32.975  30.266  1.00  0.00     0.135 A 
ATOM     60  F   UNL A   1      44.767  33.500  26.830  1.00  0.00    -0.206 F 
ATOM     61  C   UNL A   1      45.425  35.056  28.465  1.00  0.00     0.059 A 
ATOM     62  C   UNL A   1      46.046  34.287  30.682  1.00  0.00     0.059 A 
ATOM     63  F   UNL A   1      46.037  31.991  31.159  1.00  0.00    -0.206 F 
ATOM     64  C   UNL A   1      45.848  35.321  29.770  1.00  0.00     0.060 A 
BRANCH  64  65
ATOM     65  S   UNL A   1      46.091  37.038  30.282  1.00  0.00     0.124 S 
ATOM     66  O   UNL A   1      47.547  37.136  30.305  1.00  0.00    -0.237 OA
ATOM     67  O   UNL A   1      45.421  37.785  29.221  1.00  0.00    -0.237 OA
ATOM     68  O   UNL A   1      45.440  37.098  31.588  1.00  0.00    -0.744 OA
ENDBRANCH  64  65
ENDBRANCH  43  57
BRANCH  44  69
ATOM     69  C   UNL A   1      43.045  23.236  27.015  1.00  0.00     0.058 A 
ATOM     70  C   UNL A   1      42.903  22.765  25.702  1.00  0.00     0.135 A 
ATOM     71  C   UNL A   1      42.888  22.313  28.062  1.00  0.00     0.135 A 
ATOM     72  F   UNL A   1      43.018  23.613  24.669  1.00  0.00    -0.206 F 
ATOM     73  C   UNL A   1      42.636  21.426  25.434  1.00  0.00     0.059 A 
ATOM     74  C   UNL A   1      42.651  20.966  27.819  1.00  0.00     0.059 A 
ATOM     75  F   UNL A   1      43.014  22.715  29.337  1.00  0.00    -0.206 F 
ATOM     76  C   UNL A   1      42.523  20.532  26.500  1.00  0.00     0.060 A 
BRANCH  76  77
ATOM     77  S   UNL A   1      42.282  18.777  26.147  1.00  0.00     0.124 S 
ATOM     78  O   UNL A   1      42.602  18.172  27.435  1.00  0.00    -0.237 OA
ATOM     79  O   UNL A   1      40.877  18.729  25.751  1.00  0.00    -0.237 OA
ATOM     80  O   UNL A   1      43.235  18.521  25.071  1.00  0.00    -0.744 OA
ENDBRANCH  76  77
ENDBRANCH  44  69
BRANCH  56  81
ATOM     81  C   UNL A   1      48.916  26.928  26.409  1.00  0.00     0.058 A 
ATOM     82  C   UNL A   1      49.864  26.363  27.275  1.00  0.00     0.135 A 
ATOM     83  C   UNL A   1      49.279  27.114  25.066  1.00  0.00     0.135 A 
ATOM     84  F   UNL A   1      49.568  26.172  28.570  1.00  0.00    -0.206 F 
ATOM     85  C   UNL A   1      51.132  26.006  26.829  1.00  0.00     0.059 A 
ATOM     86  C   UNL A   1      50.535  26.749  24.593  1.00  0.00     0.059 A 
ATOM     87  F   UNL A   1      48.404  27.647  24.197  1.00  0.00    -0.206 F 
ATOM     88  C   UNL A   1      51.459  26.202  25.485  1.00  0.00     0.060 A 
BRANCH  88  89
ATOM     89  S   UNL A   1      53.100  25.710  24.913  1.00  0.00     0.124 S 
ATOM     90  O   UNL A   1      53.006  25.980  23.482  1.00  0.00    -0.237 OA
ATOM     91  O   UNL A   1      53.976  26.600  25.670  1.00  0.00    -0.237 OA
ATOM     92  O   UNL A   1      53.180  24.299  25.281  1.00  0.00    -0.744 OA
ENDBRANCH  88  89
ENDBRANCH  56  81
ENDBRANCH  30  31
ENDBRANCH  23  25
ENDBRANCH  22  23
ENDBRANCH   1  22
TORSDOF 16
ENDMDL
