MODEL 1
REMARK VINA RESULT:     -12.4      0.000      0.000
REMARK SMILES O=C(OCCOC(=O)c1ccccc1O[C@H]1CCOC2(CCSCC2)C1)c1ccc(-c2c3nc(c(-c4c(F)cc(S(=O)(=O)[O-])cc4F)c4ccc([nH]4)c(-c4c(F)cc(S(=O)(=O)[O-])cc4F)c4nc(c(-c5c(F)cc(S(=O)(=O)[O-])cc5F)c5ccc2[nH]5)C=C4)C=C3)cc1
REMARK SMILES IDX 4 1 3 2 2 3 1 4 27 5 28 6 92 7 29 8 91 9 30 10 31 11 32 12
REMARK SMILES IDX 85 13 33 14 90 15 84 16 86 17 34 18 89 19 83 20 82 21 35 23
REMARK SMILES IDX 69 24 48 25 68 26 49 27 52 28 67 29 87 30 50 31 51 32 66 34
REMARK SMILES IDX 88 35 53 36 36 37 37 38 46 39 38 40 39 41 45 42 47 43 40 44
REMARK SMILES IDX 41 45 42 46 43 47 44 48 70 49 71 50 80 51 72 52 73 53 79 54
REMARK SMILES IDX 81 55 74 56 75 57 76 58 77 59 78 60 54 61 55 62 64 63 56 64
REMARK SMILES IDX 57 65 63 66 65 67 58 68 59 69 60 70 61 71 62 72 5 73 6 74
REMARK SMILES IDX 7 75 8 76 9 77 10 78 14 79 11 80 13 81 12 82 15 83 16 84
REMARK SMILES IDX 17 85 26 86 18 87 20 88 19 89 21 90 25 91 22 92 24 93 23 94
REMARK H PARENT 86 22 52 33
REMARK Flexibility Score: inf
ROOT
ATOM      1  C   UNL A   1      38.562  23.418  26.472  1.00  0.00     0.275 C 
ENDROOT
BRANCH   1   2
ATOM      2  O   UNL A   1      39.836  24.017  26.170  1.00  0.00    -0.458 OA
BRANCH   2   3
ATOM      3  C   UNL A   1      40.298  25.276  26.351  1.00  0.00     0.338 C 
ATOM      4  O   UNL A   1      40.932  25.781  25.422  1.00  0.00    -0.246 OA
BRANCH   3   5
ATOM      5  C   UNL A   1      40.178  26.089  27.616  1.00  0.00     0.060 A 
ATOM      6  C   UNL A   1      39.349  25.829  28.709  1.00  0.00     0.016 A 
ATOM      7  C   UNL A   1      41.033  27.208  27.718  1.00  0.00     0.016 A 
ATOM      8  C   UNL A   1      39.386  26.627  29.862  1.00  0.00     0.010 A 
ATOM      9  C   UNL A   1      41.074  28.016  28.865  1.00  0.00     0.010 A 
ATOM     10  C   UNL A   1      40.239  27.733  29.944  1.00  0.00    -0.014 A 
BRANCH  10  11
ATOM     11  C   UNL A   1      40.089  28.663  31.090  1.00  0.00     0.031 A 
ATOM     12  C   UNL A   1      41.165  28.685  32.117  1.00  0.00     0.074 A 
ATOM     13  C   UNL A   1      39.014  29.459  31.232  1.00  0.00     0.049 A 
ATOM     14  N   UNL A   1      41.304  29.492  33.131  1.00  0.00    -0.248 NA
ATOM     15  C   UNL A   1      42.155  27.599  32.055  1.00  0.00     0.031 C 
ATOM     16  C   UNL A   1      37.797  29.313  30.461  1.00  0.00     0.029 A 
ATOM     17  N   UNL A   1      38.764  30.556  32.024  1.00  0.00    -0.354 N 
ATOM     18  C   UNL A   1      42.322  28.946  33.893  1.00  0.00     0.074 A 
ATOM     19  C   UNL A   1      42.802  27.773  33.196  1.00  0.00     0.031 C 
ATOM     20  C   UNL A   1      36.997  30.370  30.684  1.00  0.00     0.029 A 
ATOM     21  C   UNL A   1      37.646  31.270  31.621  1.00  0.00     0.049 A 
ATOM     22  H   UNL A   1      39.321  30.807  32.796  1.00  0.00     0.167 HD
ATOM     23  C   UNL A   1      42.752  29.362  35.105  1.00  0.00     0.037 A 
ATOM     24  C   UNL A   1      37.262  32.531  31.930  1.00  0.00     0.037 A 
ATOM     25  C   UNL A   1      42.219  30.521  35.771  1.00  0.00     0.049 A 
ATOM     26  C   UNL A   1      37.993  33.174  33.079  1.00  0.00     0.074 A 
ATOM     27  C   UNL A   1      42.554  31.042  37.005  1.00  0.00     0.029 A 
ATOM     28  N   UNL A   1      41.223  31.341  35.248  1.00  0.00    -0.354 N 
ATOM     29  N   UNL A   1      39.010  32.698  33.759  1.00  0.00    -0.248 NA
ATOM     30  C   UNL A   1      37.486  34.461  33.570  1.00  0.00     0.031 C 
ATOM     31  C   UNL A   1      41.742  32.157  37.242  1.00  0.00     0.029 A 
ATOM     32  C   UNL A   1      40.939  32.367  36.131  1.00  0.00     0.049 A 
ATOM     33  H   UNL A   1      40.785  31.209  34.375  1.00  0.00     0.167 HD
ATOM     34  C   UNL A   1      39.204  33.576  34.811  1.00  0.00     0.074 A 
ATOM     35  C   UNL A   1      38.287  34.682  34.603  1.00  0.00     0.031 C 
ATOM     36  C   UNL A   1      40.004  33.440  35.895  1.00  0.00     0.037 A 
BRANCH  23  37
ATOM     37  C   UNL A   1      43.763  28.496  35.796  1.00  0.00     0.058 A 
ATOM     38  C   UNL A   1      43.386  27.457  36.661  1.00  0.00     0.135 A 
ATOM     39  C   UNL A   1      45.134  28.755  35.640  1.00  0.00     0.135 A 
ATOM     40  F   UNL A   1      42.088  27.194  36.879  1.00  0.00    -0.206 F 
ATOM     41  C   UNL A   1      44.332  26.730  37.376  1.00  0.00     0.059 A 
ATOM     42  C   UNL A   1      46.098  28.017  36.317  1.00  0.00     0.059 A 
ATOM     43  F   UNL A   1      45.549  29.751  34.840  1.00  0.00    -0.206 F 
ATOM     44  C   UNL A   1      45.686  27.019  37.198  1.00  0.00     0.060 A 
BRANCH  44  45
ATOM     45  S   UNL A   1      46.898  26.071  38.139  1.00  0.00     0.124 S 
ATOM     46  O   UNL A   1      47.708  27.135  38.724  1.00  0.00    -0.237 OA
ATOM     47  O   UNL A   1      46.055  25.331  39.072  1.00  0.00    -0.237 OA
ATOM     48  O   UNL A   1      47.562  25.263  37.120  1.00  0.00    -0.744 OA
ENDBRANCH  44  45
ENDBRANCH  23  37
BRANCH  24  49
ATOM     49  C   UNL A   1      36.223  33.292  31.154  1.00  0.00     0.058 A 
ATOM     50  C   UNL A   1      34.958  33.553  31.730  1.00  0.00     0.135 A 
ATOM     51  C   UNL A   1      36.437  33.811  29.869  1.00  0.00     0.135 A 
ATOM     52  F   UNL A   1      34.677  33.097  32.960  1.00  0.00    -0.206 F 
ATOM     53  C   UNL A   1      33.968  34.289  31.074  1.00  0.00     0.059 A 
ATOM     54  C   UNL A   1      35.480  34.585  29.209  1.00  0.00     0.059 A 
ATOM     55  F   UNL A   1      37.600  33.593  29.237  1.00  0.00    -0.206 F 
ATOM     56  C   UNL A   1      34.244  34.810  29.814  1.00  0.00     0.060 A 
BRANCH  56  57
ATOM     57  S   UNL A   1      33.002  35.833  28.988  1.00  0.00     0.124 S 
ATOM     58  O   UNL A   1      33.832  36.832  28.328  1.00  0.00    -0.237 OA
ATOM     59  O   UNL A   1      32.338  34.872  28.116  1.00  0.00    -0.237 OA
ATOM     60  O   UNL A   1      32.186  36.315  30.100  1.00  0.00    -0.744 OA
ENDBRANCH  56  57
ENDBRANCH  24  49
BRANCH  36  61
ATOM     61  C   UNL A   1      39.871  34.490  36.955  1.00  0.00     0.058 A 
ATOM     62  C   UNL A   1      39.025  34.300  38.060  1.00  0.00     0.135 A 
ATOM     63  C   UNL A   1      40.629  35.667  36.894  1.00  0.00     0.135 A 
ATOM     64  F   UNL A   1      38.273  33.191  38.157  1.00  0.00    -0.206 F 
ATOM     65  C   UNL A   1      38.916  35.257  39.060  1.00  0.00     0.059 A 
ATOM     66  C   UNL A   1      40.558  36.624  37.898  1.00  0.00     0.059 A 
ATOM     67  F   UNL A   1      41.456  35.886  35.860  1.00  0.00    -0.206 F 
ATOM     68  C   UNL A   1      39.691  36.415  38.971  1.00  0.00     0.060 A 
BRANCH  68  69
ATOM     69  S   UNL A   1      39.569  37.633  40.294  1.00  0.00     0.124 S 
ATOM     70  O   UNL A   1      38.918  36.858  41.345  1.00  0.00    -0.237 OA
ATOM     71  O   UNL A   1      40.967  37.976  40.530  1.00  0.00    -0.237 OA
ATOM     72  O   UNL A   1      38.759  38.695  39.704  1.00  0.00    -0.744 OA
ENDBRANCH  68  69
ENDBRANCH  36  61
ENDBRANCH  10  11
ENDBRANCH   3   5
ENDBRANCH   2   3
ENDBRANCH   1   2
BRANCH   1  73
ATOM     73  C   UNL A   1      37.478  23.758  25.446  1.00  0.00     0.275 C 
BRANCH  73  74
ATOM     74  O   UNL A   1      36.930  22.581  24.845  1.00  0.00    -0.458 OA
BRANCH  74  75
ATOM     75  C   UNL A   1      36.310  22.773  23.658  1.00  0.00     0.342 C 
ATOM     76  O   UNL A   1      36.847  23.086  22.602  1.00  0.00    -0.246 OA
BRANCH  75  77
ATOM     77  C   UNL A   1      34.888  22.390  23.732  1.00  0.00     0.102 A 
ATOM     78  C   UNL A   1      34.597  21.263  24.528  1.00  0.00     0.019 A 
ATOM     79  C   UNL A   1      33.883  23.047  23.007  1.00  0.00     0.134 A 
ATOM     80  C   UNL A   1      33.300  20.774  24.608  1.00  0.00     0.001 A 
ATOM     81  C   UNL A   1      32.623  22.436  22.978  1.00  0.00     0.047 A 
ATOM     82  C   UNL A   1      32.322  21.339  23.801  1.00  0.00     0.004 A 
BRANCH  79  83
ATOM     83  O   UNL A   1      34.208  24.240  22.410  1.00  0.00    -0.489 OA
BRANCH  83  84
ATOM     84  C   UNL A   1      33.563  25.466  22.795  1.00  0.00     0.178 C 
ATOM     85  C   UNL A   1      32.129  25.585  22.303  1.00  0.00     0.074 C 
ATOM     86  C   UNL A   1      33.480  25.535  24.332  1.00  0.00     0.080 C 
ATOM     87  C   UNL A   1      31.445  26.836  22.806  1.00  0.00     0.165 C 
ATOM     88  C   UNL A   1      32.808  26.854  24.793  1.00  0.00     0.073 C 
ATOM     89  O   UNL A   1      31.502  26.936  24.212  1.00  0.00    -0.375 OA
ATOM     90  C   UNL A   1      33.698  28.065  24.420  1.00  0.00     0.046 C 
ATOM     91  C   UNL A   1      32.522  26.822  26.309  1.00  0.00     0.046 C 
ATOM     92  C   UNL A   1      33.144  29.424  24.827  1.00  0.00     0.072 C 
ATOM     93  C   UNL A   1      31.846  28.099  26.814  1.00  0.00     0.072 C 
ATOM     94  S   UNL A   1      32.957  29.517  26.628  1.00  0.00    -0.162 SA
ENDBRANCH  83  84
ENDBRANCH  79  83
ENDBRANCH  75  77
ENDBRANCH  74  75
ENDBRANCH  73  74
ENDBRANCH   1  73
TORSDOF 16
ENDMDL
MODEL 2
REMARK VINA RESULT:     -12.2      0.936      2.045
REMARK SMILES O=C(OCCOC(=O)c1ccccc1O[C@H]1CCOC2(CCSCC2)C1)c1ccc(-c2c3nc(c(-c4c(F)cc(S(=O)(=O)[O-])cc4F)c4ccc([nH]4)c(-c4c(F)cc(S(=O)(=O)[O-])cc4F)c4nc(c(-c5c(F)cc(S(=O)(=O)[O-])cc5F)c5ccc2[nH]5)C=C4)C=C3)cc1
REMARK SMILES IDX 4 1 3 2 2 3 1 4 27 5 28 6 92 7 29 8 91 9 30 10 31 11 32 12
REMARK SMILES IDX 85 13 33 14 90 15 84 16 86 17 34 18 89 19 83 20 82 21 35 23
REMARK SMILES IDX 69 24 48 25 68 26 49 27 52 28 67 29 87 30 50 31 51 32 66 34
REMARK SMILES IDX 88 35 53 36 36 37 37 38 46 39 38 40 39 41 45 42 47 43 40 44
REMARK SMILES IDX 41 45 42 46 43 47 44 48 70 49 71 50 80 51 72 52 73 53 79 54
REMARK SMILES IDX 81 55 74 56 75 57 76 58 77 59 78 60 54 61 55 62 64 63 56 64
REMARK SMILES IDX 57 65 63 66 65 67 58 68 59 69 60 70 61 71 62 72 5 73 6 74
REMARK SMILES IDX 7 75 8 76 9 77 10 78 14 79 11 80 13 81 12 82 15 83 16 84
REMARK SMILES IDX 17 85 26 86 18 87 20 88 19 89 21 90 25 91 22 92 24 93 23 94
REMARK H PARENT 86 22 52 33
REMARK Flexibility Score: inf
ROOT
ATOM      1  C   UNL A   1      39.353  22.828  26.581  1.00  0.00     0.275 C 
ENDROOT
BRANCH   1   2
ATOM      2  O   UNL A   1      39.291  24.176  26.079  1.00  0.00    -0.458 OA
BRANCH   2   3
ATOM      3  C   UNL A   1      40.033  25.272  26.363  1.00  0.00     0.338 C 
ATOM      4  O   UNL A   1      40.883  25.606  25.534  1.00  0.00    -0.246 OA
BRANCH   3   5
ATOM      5  C   UNL A   1      39.971  26.076  27.638  1.00  0.00     0.060 A 
ATOM      6  C   UNL A   1      39.226  25.785  28.782  1.00  0.00     0.016 A 
ATOM      7  C   UNL A   1      40.794  27.223  27.689  1.00  0.00     0.016 A 
ATOM      8  C   UNL A   1      39.315  26.581  29.934  1.00  0.00     0.010 A 
ATOM      9  C   UNL A   1      40.885  28.028  28.834  1.00  0.00     0.010 A 
ATOM     10  C   UNL A   1      40.134  27.714  29.965  1.00  0.00    -0.014 A 
BRANCH  10  11
ATOM     11  C   UNL A   1      40.031  28.635  31.124  1.00  0.00     0.031 A 
ATOM     12  C   UNL A   1      41.132  28.624  32.125  1.00  0.00     0.074 A 
ATOM     13  C   UNL A   1      38.976  29.451  31.299  1.00  0.00     0.049 A 
ATOM     14  N   UNL A   1      41.311  29.418  33.143  1.00  0.00    -0.248 NA
ATOM     15  C   UNL A   1      42.097  27.519  32.027  1.00  0.00     0.031 C 
ATOM     16  C   UNL A   1      37.738  29.338  30.557  1.00  0.00     0.029 A 
ATOM     17  N   UNL A   1      38.767  30.544  32.108  1.00  0.00    -0.354 N 
ATOM     18  C   UNL A   1      42.336  28.843  33.875  1.00  0.00     0.074 A 
ATOM     19  C   UNL A   1      42.775  27.668  33.154  1.00  0.00     0.031 C 
ATOM     20  C   UNL A   1      36.966  30.409  30.810  1.00  0.00     0.029 A 
ATOM     21  C   UNL A   1      37.655  31.286  31.740  1.00  0.00     0.049 A 
ATOM     22  H   UNL A   1      39.348  30.776  32.869  1.00  0.00     0.167 HD
ATOM     23  C   UNL A   1      42.804  29.238  35.080  1.00  0.00     0.037 A 
ATOM     24  C   UNL A   1      37.305  32.551  32.071  1.00  0.00     0.037 A 
ATOM     25  C   UNL A   1      42.310  30.401  35.770  1.00  0.00     0.049 A 
ATOM     26  C   UNL A   1      38.076  33.166  33.208  1.00  0.00     0.074 A 
ATOM     27  C   UNL A   1      42.686  30.902  37.001  1.00  0.00     0.029 A 
ATOM     28  N   UNL A   1      41.319  31.246  35.279  1.00  0.00    -0.354 N 
ATOM     29  N   UNL A   1      39.099  32.663  33.858  1.00  0.00    -0.248 NA
ATOM     30  C   UNL A   1      37.607  34.459  33.724  1.00  0.00     0.031 C 
ATOM     31  C   UNL A   1      41.902  32.030  37.268  1.00  0.00     0.029 A 
ATOM     32  C   UNL A   1      41.078  32.268  36.179  1.00  0.00     0.049 A 
ATOM     33  H   UNL A   1      40.857  31.132  34.416  1.00  0.00     0.167 HD
ATOM     34  C   UNL A   1      39.336  33.526  34.913  1.00  0.00     0.074 A 
ATOM     35  C   UNL A   1      38.438  34.652  34.739  1.00  0.00     0.031 C 
ATOM     36  C   UNL A   1      40.160  33.363  35.977  1.00  0.00     0.037 A 
BRANCH  23  37
ATOM     37  C   UNL A   1      43.813  28.345  35.738  1.00  0.00     0.058 A 
ATOM     38  C   UNL A   1      45.190  28.474  35.499  1.00  0.00     0.135 A 
ATOM     39  C   UNL A   1      43.387  27.298  36.571  1.00  0.00     0.135 A 
ATOM     40  F   UNL A   1      45.648  29.432  34.677  1.00  0.00    -0.206 F 
ATOM     41  C   UNL A   1      46.105  27.574  36.033  1.00  0.00     0.059 A 
ATOM     42  C   UNL A   1      44.287  26.408  37.144  1.00  0.00     0.059 A 
ATOM     43  F   UNL A   1      42.079  27.116  36.816  1.00  0.00    -0.206 F 
ATOM     44  C   UNL A   1      45.644  26.543  36.853  1.00  0.00     0.060 A 
BRANCH  44  45
ATOM     45  S   UNL A   1      46.845  25.380  37.530  1.00  0.00     0.124 S 
ATOM     46  O   UNL A   1      46.317  24.106  37.054  1.00  0.00    -0.237 OA
ATOM     47  O   UNL A   1      48.089  25.823  36.908  1.00  0.00    -0.237 OA
ATOM     48  O   UNL A   1      46.754  25.599  38.971  1.00  0.00    -0.744 OA
ENDBRANCH  44  45
ENDBRANCH  23  37
BRANCH  24  49
ATOM     49  C   UNL A   1      36.263  33.341  31.327  1.00  0.00     0.058 A 
ATOM     50  C   UNL A   1      36.534  33.825  30.027  1.00  0.00     0.135 A 
ATOM     51  C   UNL A   1      34.984  33.610  31.834  1.00  0.00     0.135 A 
ATOM     52  F   UNL A   1      37.734  33.602  29.468  1.00  0.00    -0.206 F 
ATOM     53  C   UNL A   1      35.593  34.528  29.272  1.00  0.00     0.059 A 
ATOM     54  C   UNL A   1      34.011  34.275  31.084  1.00  0.00     0.059 A 
ATOM     55  F   UNL A   1      34.646  33.208  33.068  1.00  0.00    -0.206 F 
ATOM     56  C   UNL A   1      34.327  34.740  29.809  1.00  0.00     0.060 A 
BRANCH  56  57
ATOM     57  S   UNL A   1      33.073  35.578  28.811  1.00  0.00     0.124 S 
ATOM     58  O   UNL A   1      33.885  36.506  28.033  1.00  0.00    -0.237 OA
ATOM     59  O   UNL A   1      32.474  34.473  28.071  1.00  0.00    -0.237 OA
ATOM     60  O   UNL A   1      32.204  36.181  29.818  1.00  0.00    -0.744 OA
ENDBRANCH  56  57
ENDBRANCH  24  49
BRANCH  36  61
ATOM     61  C   UNL A   1      40.073  34.404  37.050  1.00  0.00     0.058 A 
ATOM     62  C   UNL A   1      40.892  35.544  37.019  1.00  0.00     0.135 A 
ATOM     63  C   UNL A   1      39.134  34.288  38.083  1.00  0.00     0.135 A 
ATOM     64  F   UNL A   1      41.813  35.694  36.053  1.00  0.00    -0.206 F 
ATOM     65  C   UNL A   1      40.800  36.527  37.996  1.00  0.00     0.059 A 
ATOM     66  C   UNL A   1      39.003  35.274  39.053  1.00  0.00     0.059 A 
ATOM     67  F   UNL A   1      38.325  33.219  38.146  1.00  0.00    -0.206 F 
ATOM     68  C   UNL A   1      39.848  36.383  39.007  1.00  0.00     0.060 A 
BRANCH  68  69
ATOM     69  S   UNL A   1      39.711  37.684  40.248  1.00  0.00     0.124 S 
ATOM     70  O   UNL A   1      39.219  36.937  41.400  1.00  0.00    -0.237 OA
ATOM     71  O   UNL A   1      41.084  38.168  40.343  1.00  0.00    -0.237 OA
ATOM     72  O   UNL A   1      38.762  38.621  39.654  1.00  0.00    -0.744 OA
ENDBRANCH  68  69
ENDBRANCH  36  61
ENDBRANCH  10  11
ENDBRANCH   3   5
ENDBRANCH   2   3
ENDBRANCH   1   2
BRANCH   1  73
ATOM     73  C   UNL A   1      38.538  21.837  25.745  1.00  0.00     0.275 C 
BRANCH  73  74
ATOM     74  O   UNL A   1      37.140  22.142  25.777  1.00  0.00    -0.458 OA
BRANCH  74  75
ATOM     75  C   UNL A   1      36.535  22.207  24.569  1.00  0.00     0.342 C 
ATOM     76  O   UNL A   1      37.053  22.562  23.517  1.00  0.00    -0.246 OA
BRANCH  75  77
ATOM     77  C   UNL A   1      35.182  21.623  24.620  1.00  0.00     0.102 A 
ATOM     78  C   UNL A   1      35.121  20.235  24.860  1.00  0.00     0.019 A 
ATOM     79  C   UNL A   1      34.020  22.371  24.376  1.00  0.00     0.134 A 
ATOM     80  C   UNL A   1      33.900  19.574  24.855  1.00  0.00     0.001 A 
ATOM     81  C   UNL A   1      32.829  21.652  24.217  1.00  0.00     0.047 A 
ATOM     82  C   UNL A   1      32.760  20.277  24.495  1.00  0.00     0.004 A 
BRANCH  79  83
ATOM     83  O   UNL A   1      34.141  23.738  24.339  1.00  0.00    -0.489 OA
BRANCH  83  84
ATOM     84  C   UNL A   1      33.021  24.594  24.624  1.00  0.00     0.178 C 
ATOM     85  C   UNL A   1      32.977  25.086  26.062  1.00  0.00     0.074 C 
ATOM     86  C   UNL A   1      33.118  25.863  23.756  1.00  0.00     0.080 C 
ATOM     87  C   UNL A   1      31.848  26.062  26.307  1.00  0.00     0.165 C 
ATOM     88  C   UNL A   1      31.917  26.807  24.016  1.00  0.00     0.073 C 
ATOM     89  O   UNL A   1      31.889  27.147  25.407  1.00  0.00    -0.375 OA
ATOM     90  C   UNL A   1      30.601  26.140  23.544  1.00  0.00     0.046 C 
ATOM     91  C   UNL A   1      32.129  28.168  23.321  1.00  0.00     0.046 C 
ATOM     92  C   UNL A   1      29.345  26.976  23.745  1.00  0.00     0.072 C 
ATOM     93  C   UNL A   1      30.973  29.143  23.558  1.00  0.00     0.072 C 
ATOM     94  S   UNL A   1      29.454  28.518  22.798  1.00  0.00    -0.162 SA
ENDBRANCH  83  84
ENDBRANCH  79  83
ENDBRANCH  75  77
ENDBRANCH  74  75
ENDBRANCH  73  74
ENDBRANCH   1  73
TORSDOF 16
ENDMDL
MODEL 3
REMARK VINA RESULT:     -12.1      6.995     13.722
REMARK SMILES O=C(OCCOC(=O)c1ccccc1O[C@H]1CCOC2(CCSCC2)C1)c1ccc(-c2c3nc(c(-c4c(F)cc(S(=O)(=O)[O-])cc4F)c4ccc([nH]4)c(-c4c(F)cc(S(=O)(=O)[O-])cc4F)c4nc(c(-c5c(F)cc(S(=O)(=O)[O-])cc5F)c5ccc2[nH]5)C=C4)C=C3)cc1
REMARK SMILES IDX 4 1 3 2 2 3 1 4 27 5 28 6 92 7 29 8 91 9 30 10 31 11 32 12
REMARK SMILES IDX 85 13 33 14 90 15 84 16 86 17 34 18 89 19 83 20 82 21 35 23
REMARK SMILES IDX 69 24 48 25 68 26 49 27 52 28 67 29 87 30 50 31 51 32 66 34
REMARK SMILES IDX 88 35 53 36 36 37 37 38 46 39 38 40 39 41 45 42 47 43 40 44
REMARK SMILES IDX 41 45 42 46 43 47 44 48 70 49 71 50 80 51 72 52 73 53 79 54
REMARK SMILES IDX 81 55 74 56 75 57 76 58 77 59 78 60 54 61 55 62 64 63 56 64
REMARK SMILES IDX 57 65 63 66 65 67 58 68 59 69 60 70 61 71 62 72 5 73 6 74
REMARK SMILES IDX 7 75 8 76 9 77 10 78 14 79 11 80 13 81 12 82 15 83 16 84
REMARK SMILES IDX 17 85 26 86 18 87 20 88 19 89 21 90 25 91 22 92 24 93 23 94
REMARK H PARENT 86 22 52 33
REMARK Flexibility Score: inf
ROOT
ATOM      1  C   UNL A   1      36.092  32.407  28.459  1.00  0.00     0.275 C 
ENDROOT
BRANCH   1   2
ATOM      2  O   UNL A   1      35.662  31.280  29.246  1.00  0.00    -0.458 OA
BRANCH   2   3
ATOM      3  C   UNL A   1      36.360  30.290  29.850  1.00  0.00     0.338 C 
ATOM      4  O   UNL A   1      35.848  29.764  30.840  1.00  0.00    -0.246 OA
BRANCH   3   5
ATOM      5  C   UNL A   1      37.745  29.827  29.470  1.00  0.00     0.060 A 
ATOM      6  C   UNL A   1      38.762  29.414  30.333  1.00  0.00     0.016 A 
ATOM      7  C   UNL A   1      38.020  29.764  28.086  1.00  0.00     0.016 A 
ATOM      8  C   UNL A   1      39.986  28.934  29.843  1.00  0.00     0.010 A 
ATOM      9  C   UNL A   1      39.243  29.291  27.587  1.00  0.00     0.010 A 
ATOM     10  C   UNL A   1      40.240  28.881  28.469  1.00  0.00    -0.014 A 
BRANCH  10  11
ATOM     11  C   UNL A   1      41.617  28.569  28.012  1.00  0.00     0.031 A 
ATOM     12  C   UNL A   1      42.680  29.582  28.258  1.00  0.00     0.074 A 
ATOM     13  C   UNL A   1      41.920  27.423  27.375  1.00  0.00     0.049 A 
ATOM     14  N   UNL A   1      43.963  29.477  28.056  1.00  0.00    -0.248 NA
ATOM     15  C   UNL A   1      42.231  30.913  28.692  1.00  0.00     0.031 C 
ATOM     16  C   UNL A   1      40.929  26.515  26.838  1.00  0.00     0.029 A 
ATOM     17  N   UNL A   1      43.114  26.800  27.097  1.00  0.00    -0.354 N 
ATOM     18  C   UNL A   1      44.462  30.758  28.222  1.00  0.00     0.074 A 
ATOM     19  C   UNL A   1      43.353  31.608  28.597  1.00  0.00     0.031 C 
ATOM     20  C   UNL A   1      41.530  25.377  26.449  1.00  0.00     0.029 A 
ATOM     21  C   UNL A   1      42.956  25.478  26.708  1.00  0.00     0.049 A 
ATOM     22  H   UNL A   1      43.990  27.245  27.167  1.00  0.00     0.167 HD
ATOM     23  C   UNL A   1      45.727  31.179  28.002  1.00  0.00     0.037 A 
ATOM     24  C   UNL A   1      43.862  24.474  26.653  1.00  0.00     0.037 A 
ATOM     25  C   UNL A   1      46.789  30.295  27.599  1.00  0.00     0.049 A 
ATOM     26  C   UNL A   1      45.305  24.888  26.770  1.00  0.00     0.074 A 
ATOM     27  C   UNL A   1      48.110  30.595  27.329  1.00  0.00     0.029 A 
ATOM     28  N   UNL A   1      46.642  28.925  27.405  1.00  0.00    -0.354 N 
ATOM     29  N   UNL A   1      45.786  26.085  27.005  1.00  0.00    -0.248 NA
ATOM     30  C   UNL A   1      46.326  23.861  26.528  1.00  0.00     0.031 C 
ATOM     31  C   UNL A   1      48.753  29.414  26.942  1.00  0.00     0.029 A 
ATOM     32  C   UNL A   1      47.849  28.366  27.026  1.00  0.00     0.049 A 
ATOM     33  H   UNL A   1      45.800  28.426  27.520  1.00  0.00     0.167 HD
ATOM     34  C   UNL A   1      47.157  25.978  26.845  1.00  0.00     0.074 A 
ATOM     35  C   UNL A   1      47.441  24.572  26.627  1.00  0.00     0.031 C 
ATOM     36  C   UNL A   1      48.087  26.962  26.799  1.00  0.00     0.037 A 
BRANCH  23  37
ATOM     37  C   UNL A   1      45.972  32.655  28.098  1.00  0.00     0.058 A 
ATOM     38  C   UNL A   1      45.768  33.517  27.008  1.00  0.00     0.135 A 
ATOM     39  C   UNL A   1      46.484  33.207  29.283  1.00  0.00     0.135 A 
ATOM     40  F   UNL A   1      45.320  33.035  25.839  1.00  0.00    -0.206 F 
ATOM     41  C   UNL A   1      46.099  34.866  27.080  1.00  0.00     0.059 A 
ATOM     42  C   UNL A   1      46.788  34.559  29.388  1.00  0.00     0.059 A 
ATOM     43  F   UNL A   1      46.718  32.424  30.349  1.00  0.00    -0.206 F 
ATOM     44  C   UNL A   1      46.610  35.377  28.274  1.00  0.00     0.060 A 
BRANCH  44  45
ATOM     45  S   UNL A   1      47.040  37.127  28.345  1.00  0.00     0.124 S 
ATOM     46  O   UNL A   1      45.730  37.754  28.204  1.00  0.00    -0.237 OA
ATOM     47  O   UNL A   1      47.657  37.241  29.663  1.00  0.00    -0.237 OA
ATOM     48  O   UNL A   1      47.946  37.301  27.214  1.00  0.00    -0.744 OA
ENDBRANCH  44  45
ENDBRANCH  23  37
BRANCH  24  49
ATOM     49  C   UNL A   1      43.480  23.022  26.548  1.00  0.00     0.058 A 
ATOM     50  C   UNL A   1      43.681  22.322  25.336  1.00  0.00     0.135 A 
ATOM     51  C   UNL A   1      42.955  22.278  27.614  1.00  0.00     0.135 A 
ATOM     52  F   UNL A   1      44.186  22.962  24.270  1.00  0.00    -0.206 F 
ATOM     53  C   UNL A   1      43.385  20.965  25.192  1.00  0.00     0.059 A 
ATOM     54  C   UNL A   1      42.690  20.911  27.508  1.00  0.00     0.059 A 
ATOM     55  F   UNL A   1      42.712  22.866  28.795  1.00  0.00    -0.206 F 
ATOM     56  C   UNL A   1      42.897  20.264  26.291  1.00  0.00     0.060 A 
BRANCH  56  57
ATOM     57  S   UNL A   1      42.586  18.489  26.140  1.00  0.00     0.124 S 
ATOM     58  O   UNL A   1      41.194  18.468  25.708  1.00  0.00    -0.237 OA
ATOM     59  O   UNL A   1      43.573  18.083  25.146  1.00  0.00    -0.237 OA
ATOM     60  O   UNL A   1      42.842  17.998  27.492  1.00  0.00    -0.744 OA
ENDBRANCH  56  57
ENDBRANCH  24  49
BRANCH  36  61
ATOM     61  C   UNL A   1      49.480  26.542  26.442  1.00  0.00     0.058 A 
ATOM     62  C   UNL A   1      50.348  26.015  27.413  1.00  0.00     0.135 A 
ATOM     63  C   UNL A   1      49.932  26.618  25.118  1.00  0.00     0.135 A 
ATOM     64  F   UNL A   1      49.960  25.930  28.696  1.00  0.00    -0.206 F 
ATOM     65  C   UNL A   1      51.631  25.599  27.086  1.00  0.00     0.059 A 
ATOM     66  C   UNL A   1      51.202  26.180  24.763  1.00  0.00     0.059 A 
ATOM     67  F   UNL A   1      49.133  27.108  24.158  1.00  0.00    -0.206 F 
ATOM     68  C   UNL A   1      52.047  25.682  25.756  1.00  0.00     0.060 A 
BRANCH  68  69
ATOM     69  S   UNL A   1      53.702  25.104  25.336  1.00  0.00     0.124 S 
ATOM     70  O   UNL A   1      53.892  25.696  24.016  1.00  0.00    -0.237 OA
ATOM     71  O   UNL A   1      54.511  25.671  26.410  1.00  0.00    -0.237 OA
ATOM     72  O   UNL A   1      53.569  23.650  25.359  1.00  0.00    -0.744 OA
ENDBRANCH  68  69
ENDBRANCH  36  61
ENDBRANCH  10  11
ENDBRANCH   3   5
ENDBRANCH   2   3
ENDBRANCH   1   2
BRANCH   1  73
ATOM     73  C   UNL A   1      34.973  33.419  28.196  1.00  0.00     0.275 C 
BRANCH  73  74
ATOM     74  O   UNL A   1      34.924  34.428  29.210  1.00  0.00    -0.458 OA
BRANCH  74  75
ATOM     75  C   UNL A   1      33.682  34.771  29.622  1.00  0.00     0.342 C 
ATOM     76  O   UNL A   1      32.625  34.403  29.122  1.00  0.00    -0.246 OA
BRANCH  75  77
ATOM     77  C   UNL A   1      33.731  35.529  30.886  1.00  0.00     0.102 A 
ATOM     78  C   UNL A   1      33.080  36.779  30.877  1.00  0.00     0.019 A 
ATOM     79  C   UNL A   1      34.436  35.084  32.014  1.00  0.00     0.134 A 
ATOM     80  C   UNL A   1      33.128  37.605  31.992  1.00  0.00     0.001 A 
ATOM     81  C   UNL A   1      34.603  36.004  33.057  1.00  0.00     0.047 A 
ATOM     82  C   UNL A   1      33.923  37.232  33.067  1.00  0.00     0.004 A 
BRANCH  79  83
ATOM     83  O   UNL A   1      34.880  33.785  32.014  1.00  0.00    -0.489 OA
BRANCH  83  84
ATOM     84  C   UNL A   1      36.134  33.425  32.618  1.00  0.00     0.178 C 
ATOM     85  C   UNL A   1      36.169  32.003  33.156  1.00  0.00     0.074 C 
ATOM     86  C   UNL A   1      37.247  33.492  31.556  1.00  0.00     0.080 C 
ATOM     87  C   UNL A   1      37.529  31.620  33.694  1.00  0.00     0.165 C 
ATOM     88  C   UNL A   1      38.624  33.131  32.170  1.00  0.00     0.073 C 
ATOM     89  O   UNL A   1      38.547  31.819  32.738  1.00  0.00    -0.375 OA
ATOM     90  C   UNL A   1      39.043  34.201  33.208  1.00  0.00     0.046 C 
ATOM     91  C   UNL A   1      39.692  32.979  31.067  1.00  0.00     0.046 C 
ATOM     92  C   UNL A   1      40.387  33.957  33.881  1.00  0.00     0.072 C 
ATOM     93  C   UNL A   1      41.071  32.609  31.622  1.00  0.00     0.072 C 
ATOM     94  S   UNL A   1      41.718  33.951  32.650  1.00  0.00    -0.162 SA
ENDBRANCH  83  84
ENDBRANCH  79  83
ENDBRANCH  75  77
ENDBRANCH  74  75
ENDBRANCH  73  74
ENDBRANCH   1  73
TORSDOF 16
ENDMDL
