MODEL 1
REMARK VINA RESULT:     -11.4      0.000      0.000
REMARK SMILES COc1ccccc1NC(=O)N[C@@](C)(C(=O)OCCOC(=O)c1ccc(-c2c3nc(c(-c4c(F)cc(S(=O)(=O)[O-])cc4F)c4ccc([nH]4)c(-c4c(F)cc(S(=O)(=O)[O-])cc4F)c4nc(c(-c5c(F)cc(S(=O)(=O)[O-])cc5F)c5ccc2[nH]5)C=C4)C=C3)cc1)C(F)(F)F
REMARK SMILES IDX 18 1 17 2 15 3 16 4 13 5 14 6 12 7 9 8 10 9 11 11 8 13 3 14
REMARK SMILES IDX 4 15 5 16 7 17 6 18 2 19 1 20 89 21 90 22 91 23 92 24 19 25
REMARK SMILES IDX 20 26 21 27 22 28 23 29 24 30 88 31 25 32 87 33 26 34 27 35
REMARK SMILES IDX 28 36 81 37 29 38 86 39 80 40 82 41 30 42 85 43 79 44 78 45
REMARK SMILES IDX 31 47 65 48 44 49 64 50 45 51 48 52 63 53 83 54 46 55 47 56
REMARK SMILES IDX 62 58 84 59 49 60 32 61 33 62 42 63 34 64 35 65 41 66 43 67
REMARK SMILES IDX 36 68 37 69 38 70 39 71 40 72 66 73 67 74 76 75 68 76 69 77
REMARK SMILES IDX 75 78 77 79 70 80 71 81 72 82 73 83 74 84 50 85 51 86 60 87
REMARK SMILES IDX 52 88 53 89 59 90 61 91 54 92 55 93 56 94 57 95 58 96
REMARK H PARENT 9 10 12 12 82 46 48 57
REMARK Flexibility Score: inf
ROOT
ATOM      1  C   UNL A   1      31.699  30.144  26.754  1.00  0.00     0.274 C 
ENDROOT
BRANCH   1   2
ATOM      2  O   UNL A   1      31.585  28.939  25.968  1.00  0.00    -0.460 OA
BRANCH   2   3
ATOM      3  C   UNL A   1      31.573  27.808  26.735  1.00  0.00     0.341 C 
ATOM      4  O   UNL A   1      31.327  27.819  27.938  1.00  0.00    -0.249 OA
BRANCH   3   5
ATOM      5  C   UNL A   1      31.711  26.523  25.898  1.00  0.00     0.232 C 
ATOM      6  C   UNL A   1      31.127  26.838  24.514  1.00  0.00     0.058 C 
BRANCH   5   7
ATOM      7  N   UNL A   1      30.867  25.461  26.528  1.00  0.00    -0.314 N 
ATOM      8  N   UNL A   1      31.323  23.226  25.808  1.00  0.00    -0.305 N 
ATOM      9  C   UNL A   1      30.637  24.152  26.472  1.00  0.00     0.320 C 
ATOM     10  H   UNL A   1      31.192  22.340  26.221  1.00  0.00     0.172 HD
ATOM     11  O   UNL A   1      29.758  23.753  27.248  1.00  0.00    -0.248 OA
ATOM     12  H   UNL A   1      30.288  25.867  27.213  1.00  0.00     0.166 HD
BRANCH   8  13
ATOM     13  C   UNL A   1      32.175  23.124  24.703  1.00  0.00     0.085 A 
ATOM     14  C   UNL A   1      33.451  22.573  24.930  1.00  0.00     0.142 A 
ATOM     15  C   UNL A   1      34.422  22.550  23.931  1.00  0.00     0.048 A 
ATOM     16  C   UNL A   1      34.090  22.996  22.655  1.00  0.00     0.004 A 
ATOM     17  C   UNL A   1      31.824  23.462  23.405  1.00  0.00     0.030 A 
ATOM     18  C   UNL A   1      32.785  23.414  22.384  1.00  0.00     0.002 A 
BRANCH  14  19
ATOM     19  O   UNL A   1      33.783  22.137  26.190  1.00  0.00    -0.495 OA
ATOM     20  C   UNL A   1      35.128  21.648  26.206  1.00  0.00     0.278 C 
ENDBRANCH  14  19
ENDBRANCH   8  13
ENDBRANCH   5   7
BRANCH   5  21
ATOM     21  C   UNL A   1      33.239  26.360  25.868  1.00  0.00     0.422 C 
ATOM     22  F   UNL A   1      33.635  25.299  26.595  1.00  0.00    -0.168 F 
ATOM     23  F   UNL A   1      33.709  26.214  24.610  1.00  0.00    -0.168 F 
ATOM     24  F   UNL A   1      33.911  27.431  26.364  1.00  0.00    -0.168 F 
ENDBRANCH   5  21
ENDBRANCH   3   5
ENDBRANCH   2   3
ENDBRANCH   1   2
BRANCH   1  25
ATOM     25  C   UNL A   1      33.154  30.593  26.840  1.00  0.00     0.275 C 
BRANCH  25  26
ATOM     26  O   UNL A   1      33.726  30.120  28.073  1.00  0.00    -0.458 OA
BRANCH  26  27
ATOM     27  C   UNL A   1      34.685  30.916  28.615  1.00  0.00     0.338 C 
ATOM     28  O   UNL A   1      34.522  32.048  29.037  1.00  0.00    -0.246 OA
BRANCH  27  29
ATOM     29  C   UNL A   1      35.997  30.222  28.654  1.00  0.00     0.060 A 
ATOM     30  C   UNL A   1      36.486  29.657  29.827  1.00  0.00     0.016 A 
ATOM     31  C   UNL A   1      36.813  30.244  27.525  1.00  0.00     0.016 A 
ATOM     32  C   UNL A   1      37.828  29.272  29.922  1.00  0.00     0.010 A 
ATOM     33  C   UNL A   1      38.114  29.721  27.586  1.00  0.00     0.010 A 
ATOM     34  C   UNL A   1      38.670  29.279  28.801  1.00  0.00    -0.014 A 
BRANCH  34  35
ATOM     35  C   UNL A   1      40.120  28.892  28.879  1.00  0.00     0.031 A 
ATOM     36  C   UNL A   1      41.146  29.910  29.331  1.00  0.00     0.074 A 
ATOM     37  C   UNL A   1      40.565  27.656  28.561  1.00  0.00     0.049 A 
ATOM     38  N   UNL A   1      42.440  29.936  29.121  1.00  0.00    -0.248 NA
ATOM     39  C   UNL A   1      40.648  31.064  30.097  1.00  0.00     0.031 C 
ATOM     40  C   UNL A   1      39.736  26.512  28.177  1.00  0.00     0.029 A 
ATOM     41  N   UNL A   1      41.847  27.153  28.510  1.00  0.00    -0.354 N 
ATOM     42  C   UNL A   1      42.887  31.149  29.634  1.00  0.00     0.074 A 
ATOM     43  C   UNL A   1      41.732  31.823  30.188  1.00  0.00     0.031 C 
ATOM     44  C   UNL A   1      40.517  25.436  27.994  1.00  0.00     0.029 A 
ATOM     45  C   UNL A   1      41.913  25.838  28.109  1.00  0.00     0.049 A 
ATOM     46  H   UNL A   1      42.644  27.686  28.740  1.00  0.00     0.167 HD
ATOM     47  C   UNL A   1      44.144  31.658  29.636  1.00  0.00     0.037 A 
ATOM     48  C   UNL A   1      42.964  25.055  27.793  1.00  0.00     0.037 A 
ATOM     49  C   UNL A   1      45.312  30.943  29.182  1.00  0.00     0.049 A 
ATOM     50  C   UNL A   1      44.352  25.634  27.790  1.00  0.00     0.074 A 
ATOM     51  C   UNL A   1      46.624  31.384  29.114  1.00  0.00     0.029 A 
ATOM     52  N   UNL A   1      45.317  29.619  28.773  1.00  0.00    -0.354 N 
ATOM     53  N   UNL A   1      44.741  26.844  28.112  1.00  0.00    -0.248 NA
ATOM     54  C   UNL A   1      45.439  24.752  27.341  1.00  0.00     0.031 C 
ATOM     55  C   UNL A   1      47.421  30.327  28.659  1.00  0.00     0.029 A 
ATOM     56  C   UNL A   1      46.610  29.221  28.472  1.00  0.00     0.049 A 
ATOM     57  H   UNL A   1      44.520  29.045  28.706  1.00  0.00     0.167 HD
ATOM     58  C   UNL A   1      46.115  26.867  27.903  1.00  0.00     0.074 A 
ATOM     59  C   UNL A   1      46.497  25.544  27.457  1.00  0.00     0.031 C 
ATOM     60  C   UNL A   1      46.982  27.897  28.050  1.00  0.00     0.037 A 
BRANCH  47  61
ATOM     61  C   UNL A   1      44.340  33.068  30.121  1.00  0.00     0.058 A 
ATOM     62  C   UNL A   1      44.058  34.180  29.314  1.00  0.00     0.135 A 
ATOM     63  C   UNL A   1      44.742  33.307  31.447  1.00  0.00     0.135 A 
ATOM     64  F   UNL A   1      43.687  34.009  28.035  1.00  0.00    -0.206 F 
ATOM     65  C   UNL A   1      44.179  35.479  29.800  1.00  0.00     0.059 A 
ATOM     66  C   UNL A   1      44.847  34.595  31.961  1.00  0.00     0.059 A 
ATOM     67  F   UNL A   1      45.022  32.278  32.264  1.00  0.00    -0.206 F 
ATOM     68  C   UNL A   1      44.571  35.676  31.125  1.00  0.00     0.060 A 
BRANCH  68  69
ATOM     69  S   UNL A   1      44.687  37.366  31.753  1.00  0.00     0.124 S 
ATOM     70  O   UNL A   1      45.932  37.308  32.513  1.00  0.00    -0.237 OA
ATOM     71  O   UNL A   1      44.731  38.154  30.525  1.00  0.00    -0.237 OA
ATOM     72  O   UNL A   1      43.473  37.518  32.547  1.00  0.00    -0.744 OA
ENDBRANCH  68  69
ENDBRANCH  47  61
BRANCH  48  73
ATOM     73  C   UNL A   1      42.747  23.646  27.360  1.00  0.00     0.058 A 
ATOM     74  C   UNL A   1      42.672  22.607  28.299  1.00  0.00     0.135 A 
ATOM     75  C   UNL A   1      42.640  23.307  26.001  1.00  0.00     0.135 A 
ATOM     76  F   UNL A   1      42.787  22.878  29.609  1.00  0.00    -0.206 F 
ATOM     77  C   UNL A   1      42.517  21.282  27.909  1.00  0.00     0.059 A 
ATOM     78  C   UNL A   1      42.451  21.994  25.588  1.00  0.00     0.059 A 
ATOM     79  F   UNL A   1      42.698  24.265  25.062  1.00  0.00    -0.206 F 
ATOM     80  C   UNL A   1      42.408  20.985  26.549  1.00  0.00     0.060 A 
BRANCH  80  81
ATOM     81  S   UNL A   1      42.173  19.269  26.039  1.00  0.00     0.124 S 
ATOM     82  O   UNL A   1      42.635  18.548  27.219  1.00  0.00    -0.237 OA
ATOM     83  O   UNL A   1      40.737  19.214  25.779  1.00  0.00    -0.237 OA
ATOM     84  O   UNL A   1      43.019  19.158  24.855  1.00  0.00    -0.744 OA
ENDBRANCH  80  81
ENDBRANCH  48  73
BRANCH  60  85
ATOM     85  C   UNL A   1      48.431  27.625  27.770  1.00  0.00     0.058 A 
ATOM     86  C   UNL A   1      49.302  27.179  28.775  1.00  0.00     0.135 A 
ATOM     87  C   UNL A   1      48.947  27.786  26.474  1.00  0.00     0.135 A 
ATOM     88  F   UNL A   1      48.858  27.019  30.031  1.00  0.00    -0.206 F 
ATOM     89  C   UNL A   1      50.643  26.920  28.510  1.00  0.00     0.059 A 
ATOM     90  C   UNL A   1      50.281  27.514  26.183  1.00  0.00     0.059 A 
ATOM     91  F   UNL A   1      48.153  28.205  25.477  1.00  0.00    -0.206 F 
ATOM     92  C   UNL A   1      51.124  27.093  27.211  1.00  0.00     0.060 A 
BRANCH  92  93
ATOM     93  S   UNL A   1      52.860  26.733  26.871  1.00  0.00     0.124 S 
ATOM     94  O   UNL A   1      53.515  27.312  28.039  1.00  0.00    -0.237 OA
ATOM     95  O   UNL A   1      52.871  25.275  26.797  1.00  0.00    -0.237 OA
ATOM     96  O   UNL A   1      53.108  27.419  25.607  1.00  0.00    -0.744 OA
ENDBRANCH  92  93
ENDBRANCH  60  85
ENDBRANCH  34  35
ENDBRANCH  27  29
ENDBRANCH  26  27
ENDBRANCH  25  26
ENDBRANCH   1  25
TORSDOF 18
ENDMDL
MODEL 2
REMARK VINA RESULT:     -11.3      1.213      1.985
REMARK SMILES COc1ccccc1NC(=O)N[C@@](C)(C(=O)OCCOC(=O)c1ccc(-c2c3nc(c(-c4c(F)cc(S(=O)(=O)[O-])cc4F)c4ccc([nH]4)c(-c4c(F)cc(S(=O)(=O)[O-])cc4F)c4nc(c(-c5c(F)cc(S(=O)(=O)[O-])cc5F)c5ccc2[nH]5)C=C4)C=C3)cc1)C(F)(F)F
REMARK SMILES IDX 18 1 17 2 15 3 16 4 13 5 14 6 12 7 9 8 10 9 11 11 8 13 3 14
REMARK SMILES IDX 4 15 5 16 7 17 6 18 2 19 1 20 89 21 90 22 91 23 92 24 19 25
REMARK SMILES IDX 20 26 21 27 22 28 23 29 24 30 88 31 25 32 87 33 26 34 27 35
REMARK SMILES IDX 28 36 81 37 29 38 86 39 80 40 82 41 30 42 85 43 79 44 78 45
REMARK SMILES IDX 31 47 65 48 44 49 64 50 45 51 48 52 63 53 83 54 46 55 47 56
REMARK SMILES IDX 62 58 84 59 49 60 32 61 33 62 42 63 34 64 35 65 41 66 43 67
REMARK SMILES IDX 36 68 37 69 38 70 39 71 40 72 66 73 67 74 76 75 68 76 69 77
REMARK SMILES IDX 75 78 77 79 70 80 71 81 72 82 73 83 74 84 50 85 51 86 60 87
REMARK SMILES IDX 52 88 53 89 59 90 61 91 54 92 55 93 56 94 57 95 58 96
REMARK H PARENT 9 10 12 12 82 46 48 57
REMARK Flexibility Score: inf
ROOT
ATOM      1  C   UNL A   1      31.739  30.067  25.976  1.00  0.00     0.274 C 
ENDROOT
BRANCH   1   2
ATOM      2  O   UNL A   1      32.085  28.679  26.172  1.00  0.00    -0.460 OA
BRANCH   2   3
ATOM      3  C   UNL A   1      31.688  27.885  25.132  1.00  0.00     0.341 C 
ATOM      4  O   UNL A   1      30.851  28.236  24.305  1.00  0.00    -0.249 OA
BRANCH   3   5
ATOM      5  C   UNL A   1      32.535  26.605  25.008  1.00  0.00     0.232 C 
ATOM      6  C   UNL A   1      33.809  26.842  25.829  1.00  0.00     0.058 C 
BRANCH   5   7
ATOM      7  N   UNL A   1      32.928  26.440  23.575  1.00  0.00    -0.314 N 
ATOM      8  N   UNL A   1      34.193  24.472  23.077  1.00  0.00    -0.305 N 
ATOM      9  C   UNL A   1      33.640  25.645  22.781  1.00  0.00     0.320 C 
ATOM     10  H   UNL A   1      34.321  23.937  22.258  1.00  0.00     0.172 HD
ATOM     11  O   UNL A   1      33.660  25.993  21.592  1.00  0.00    -0.248 OA
ATOM     12  H   UNL A   1      32.527  27.163  23.041  1.00  0.00     0.166 HD
BRANCH   8  13
ATOM     13  C   UNL A   1      34.648  23.764  24.194  1.00  0.00     0.085 A 
ATOM     14  C   UNL A   1      33.903  22.634  24.580  1.00  0.00     0.142 A 
ATOM     15  C   UNL A   1      34.190  21.938  25.753  1.00  0.00     0.048 A 
ATOM     16  C   UNL A   1      35.295  22.315  26.510  1.00  0.00     0.004 A 
ATOM     17  C   UNL A   1      35.807  24.060  24.895  1.00  0.00     0.030 A 
ATOM     18  C   UNL A   1      36.122  23.347  26.062  1.00  0.00     0.002 A 
BRANCH  14  19
ATOM     19  O   UNL A   1      32.808  22.263  23.838  1.00  0.00    -0.495 OA
ATOM     20  C   UNL A   1      31.820  21.660  24.681  1.00  0.00     0.278 C 
ENDBRANCH  14  19
ENDBRANCH   8  13
ENDBRANCH   5   7
BRANCH   5  21
ATOM     21  C   UNL A   1      31.599  25.575  25.661  1.00  0.00     0.422 C 
ATOM     22  F   UNL A   1      30.677  26.172  26.439  1.00  0.00    -0.168 F 
ATOM     23  F   UNL A   1      30.958  24.819  24.744  1.00  0.00    -0.168 F 
ATOM     24  F   UNL A   1      32.242  24.680  26.456  1.00  0.00    -0.168 F 
ENDBRANCH   5  21
ENDBRANCH   3   5
ENDBRANCH   2   3
ENDBRANCH   1   2
BRANCH   1  25
ATOM     25  C   UNL A   1      32.542  30.958  26.918  1.00  0.00     0.275 C 
BRANCH  25  26
ATOM     26  O   UNL A   1      33.606  30.190  27.509  1.00  0.00    -0.458 OA
BRANCH  26  27
ATOM     27  C   UNL A   1      34.457  30.887  28.305  1.00  0.00     0.338 C 
ATOM     28  O   UNL A   1      34.206  31.933  28.880  1.00  0.00    -0.246 OA
BRANCH  27  29
ATOM     29  C   UNL A   1      35.769  30.202  28.418  1.00  0.00     0.060 A 
ATOM     30  C   UNL A   1      36.214  29.676  29.626  1.00  0.00     0.016 A 
ATOM     31  C   UNL A   1      36.628  30.190  27.320  1.00  0.00     0.016 A 
ATOM     32  C   UNL A   1      37.553  29.301  29.785  1.00  0.00     0.010 A 
ATOM     33  C   UNL A   1      37.928  29.676  27.448  1.00  0.00     0.010 A 
ATOM     34  C   UNL A   1      38.438  29.275  28.698  1.00  0.00    -0.014 A 
BRANCH  34  35
ATOM     35  C   UNL A   1      39.885  28.898  28.844  1.00  0.00     0.031 A 
ATOM     36  C   UNL A   1      40.881  29.920  29.350  1.00  0.00     0.074 A 
ATOM     37  C   UNL A   1      40.353  27.666  28.541  1.00  0.00     0.049 A 
ATOM     38  N   UNL A   1      42.183  29.956  29.203  1.00  0.00    -0.248 NA
ATOM     39  C   UNL A   1      40.338  31.067  30.096  1.00  0.00     0.031 C 
ATOM     40  C   UNL A   1      39.552  26.519  28.112  1.00  0.00     0.029 A 
ATOM     41  N   UNL A   1      41.640  27.173  28.550  1.00  0.00    -0.354 N 
ATOM     42  C   UNL A   1      42.597  31.170  29.743  1.00  0.00     0.074 A 
ATOM     43  C   UNL A   1      41.411  31.833  30.244  1.00  0.00     0.031 C 
ATOM     44  C   UNL A   1      40.348  25.449  27.961  1.00  0.00     0.029 A 
ATOM     45  C   UNL A   1      41.734  25.860  28.146  1.00  0.00     0.049 A 
ATOM     46  H   UNL A   1      42.421  27.710  28.821  1.00  0.00     0.167 HD
ATOM     47  C   UNL A   1      43.849  31.687  29.808  1.00  0.00     0.037 A 
ATOM     48  C   UNL A   1      42.805  25.086  27.877  1.00  0.00     0.037 A 
ATOM     49  C   UNL A   1      45.042  30.982  29.408  1.00  0.00     0.049 A 
ATOM     50  C   UNL A   1      44.187  25.675  27.945  1.00  0.00     0.074 A 
ATOM     51  C   UNL A   1      46.352  31.432  29.405  1.00  0.00     0.029 A 
ATOM     52  N   UNL A   1      45.076  29.660  28.993  1.00  0.00    -0.354 N 
ATOM     53  N   UNL A   1      44.551  26.885  28.291  1.00  0.00    -0.248 NA
ATOM     54  C   UNL A   1      45.301  24.802  27.544  1.00  0.00     0.031 C 
ATOM     55  C   UNL A   1      47.178  30.383  28.984  1.00  0.00     0.029 A 
ATOM     56  C   UNL A   1      46.384  29.273  28.753  1.00  0.00     0.049 A 
ATOM     57  H   UNL A   1      44.287  29.082  28.884  1.00  0.00     0.167 HD
ATOM     58  C   UNL A   1      45.934  26.918  28.149  1.00  0.00     0.074 A 
ATOM     59  C   UNL A   1      46.346  25.600  27.715  1.00  0.00     0.031 C 
ATOM     60  C   UNL A   1      46.786  27.954  28.343  1.00  0.00     0.037 A 
BRANCH  47  61
ATOM     61  C   UNL A   1      44.010  33.096  30.309  1.00  0.00     0.058 A 
ATOM     62  C   UNL A   1      43.823  34.209  29.477  1.00  0.00     0.135 A 
ATOM     63  C   UNL A   1      44.282  33.332  31.668  1.00  0.00     0.135 A 
ATOM     64  F   UNL A   1      43.579  34.040  28.168  1.00  0.00    -0.206 F 
ATOM     65  C   UNL A   1      43.909  35.507  29.972  1.00  0.00     0.059 A 
ATOM     66  C   UNL A   1      44.349  34.621  32.190  1.00  0.00     0.059 A 
ATOM     67  F   UNL A   1      44.468  32.302  32.510  1.00  0.00    -0.206 F 
ATOM     68  C   UNL A   1      44.169  35.703  31.330  1.00  0.00     0.060 A 
BRANCH  68  69
ATOM     69  S   UNL A   1      44.242  37.392  31.964  1.00  0.00     0.124 S 
ATOM     70  O   UNL A   1      45.664  37.529  32.264  1.00  0.00    -0.237 OA
ATOM     71  O   UNL A   1      43.754  38.174  30.832  1.00  0.00    -0.237 OA
ATOM     72  O   UNL A   1      43.357  37.358  33.124  1.00  0.00    -0.744 OA
ENDBRANCH  68  69
ENDBRANCH  47  61
BRANCH  48  73
ATOM     73  C   UNL A   1      42.619  23.678  27.427  1.00  0.00     0.058 A 
ATOM     74  C   UNL A   1      42.500  22.634  28.357  1.00  0.00     0.135 A 
ATOM     75  C   UNL A   1      42.585  23.345  26.063  1.00  0.00     0.135 A 
ATOM     76  F   UNL A   1      42.545  22.900  29.672  1.00  0.00    -0.206 F 
ATOM     77  C   UNL A   1      42.373  21.310  27.953  1.00  0.00     0.059 A 
ATOM     78  C   UNL A   1      42.426  22.033  25.635  1.00  0.00     0.059 A 
ATOM     79  F   UNL A   1      42.687  24.307  25.133  1.00  0.00    -0.206 F 
ATOM     80  C   UNL A   1      42.338  21.019  26.588  1.00  0.00     0.060 A 
BRANCH  80  81
ATOM     81  S   UNL A   1      42.139  19.304  26.059  1.00  0.00     0.124 S 
ATOM     82  O   UNL A   1      40.711  19.252  25.771  1.00  0.00    -0.237 OA
ATOM     83  O   UNL A   1      43.028  19.228  24.903  1.00  0.00    -0.237 OA
ATOM     84  O   UNL A   1      42.579  18.546  27.226  1.00  0.00    -0.744 OA
ENDBRANCH  80  81
ENDBRANCH  48  73
BRANCH  60  85
ATOM     85  C   UNL A   1      48.248  27.693  28.132  1.00  0.00     0.058 A 
ATOM     86  C   UNL A   1      48.841  27.810  26.866  1.00  0.00     0.135 A 
ATOM     87  C   UNL A   1      49.073  27.349  29.216  1.00  0.00     0.135 A 
ATOM     88  F   UNL A   1      48.092  28.127  25.798  1.00  0.00    -0.206 F 
ATOM     89  C   UNL A   1      50.198  27.575  26.675  1.00  0.00     0.059 A 
ATOM     90  C   UNL A   1      50.437  27.128  29.051  1.00  0.00     0.059 A 
ATOM     91  F   UNL A   1      48.555  27.231  30.448  1.00  0.00    -0.206 F 
ATOM     92  C   UNL A   1      50.988  27.231  27.774  1.00  0.00     0.060 A 
BRANCH  92  93
ATOM     93  S   UNL A   1      52.754  26.951  27.521  1.00  0.00     0.124 S 
ATOM     94  O   UNL A   1      53.122  26.267  28.757  1.00  0.00    -0.237 OA
ATOM     95  O   UNL A   1      52.773  26.130  26.314  1.00  0.00    -0.237 OA
ATOM     96  O   UNL A   1      53.292  28.298  27.363  1.00  0.00    -0.744 OA
ENDBRANCH  92  93
ENDBRANCH  60  85
ENDBRANCH  34  35
ENDBRANCH  27  29
ENDBRANCH  26  27
ENDBRANCH  25  26
ENDBRANCH   1  25
TORSDOF 18
ENDMDL
MODEL 3
REMARK VINA RESULT:     -11.3      1.416      2.248
REMARK SMILES COc1ccccc1NC(=O)N[C@@](C)(C(=O)OCCOC(=O)c1ccc(-c2c3nc(c(-c4c(F)cc(S(=O)(=O)[O-])cc4F)c4ccc([nH]4)c(-c4c(F)cc(S(=O)(=O)[O-])cc4F)c4nc(c(-c5c(F)cc(S(=O)(=O)[O-])cc5F)c5ccc2[nH]5)C=C4)C=C3)cc1)C(F)(F)F
REMARK SMILES IDX 18 1 17 2 15 3 16 4 13 5 14 6 12 7 9 8 10 9 11 11 8 13 3 14
REMARK SMILES IDX 4 15 5 16 7 17 6 18 2 19 1 20 89 21 90 22 91 23 92 24 19 25
REMARK SMILES IDX 20 26 21 27 22 28 23 29 24 30 88 31 25 32 87 33 26 34 27 35
REMARK SMILES IDX 28 36 81 37 29 38 86 39 80 40 82 41 30 42 85 43 79 44 78 45
REMARK SMILES IDX 31 47 65 48 44 49 64 50 45 51 48 52 63 53 83 54 46 55 47 56
REMARK SMILES IDX 62 58 84 59 49 60 32 61 33 62 42 63 34 64 35 65 41 66 43 67
REMARK SMILES IDX 36 68 37 69 38 70 39 71 40 72 66 73 67 74 76 75 68 76 69 77
REMARK SMILES IDX 75 78 77 79 70 80 71 81 72 82 73 83 74 84 50 85 51 86 60 87
REMARK SMILES IDX 52 88 53 89 59 90 61 91 54 92 55 93 56 94 57 95 58 96
REMARK H PARENT 9 10 12 12 82 46 48 57
REMARK Flexibility Score: inf
ROOT
ATOM      1  C   UNL A   1      31.696  29.452  25.989  1.00  0.00     0.274 C 
ENDROOT
BRANCH   1   2
ATOM      2  O   UNL A   1      32.304  28.219  25.548  1.00  0.00    -0.460 OA
BRANCH   2   3
ATOM      3  C   UNL A   1      31.861  27.823  24.317  1.00  0.00     0.341 C 
ATOM      4  O   UNL A   1      31.407  28.606  23.487  1.00  0.00    -0.249 OA
BRANCH   3   5
ATOM      5  C   UNL A   1      32.170  26.343  24.025  1.00  0.00     0.232 C 
ATOM      6  C   UNL A   1      33.408  25.983  24.857  1.00  0.00     0.058 C 
BRANCH   5   7
ATOM      7  N   UNL A   1      32.529  26.216  22.578  1.00  0.00    -0.314 N 
ATOM      8  N   UNL A   1      32.967  23.991  21.820  1.00  0.00    -0.305 N 
ATOM      9  C   UNL A   1      32.915  25.313  21.682  1.00  0.00     0.320 C 
ATOM     10  H   UNL A   1      32.915  23.552  20.939  1.00  0.00     0.172 HD
ATOM     11  O   UNL A   1      33.113  25.769  20.548  1.00  0.00    -0.248 OA
ATOM     12  H   UNL A   1      32.454  27.097  22.145  1.00  0.00     0.166 HD
BRANCH   8  13
ATOM     13  C   UNL A   1      33.074  23.033  22.834  1.00  0.00     0.085 A 
ATOM     14  C   UNL A   1      34.345  22.856  23.412  1.00  0.00     0.142 A 
ATOM     15  C   UNL A   1      34.591  21.838  24.333  1.00  0.00     0.048 A 
ATOM     16  C   UNL A   1      33.532  21.041  24.758  1.00  0.00     0.004 A 
ATOM     17  C   UNL A   1      32.010  22.306  23.346  1.00  0.00     0.030 A 
ATOM     18  C   UNL A   1      32.240  21.300  24.295  1.00  0.00     0.002 A 
BRANCH  14  19
ATOM     19  O   UNL A   1      35.393  23.638  22.990  1.00  0.00    -0.495 OA
ATOM     20  C   UNL A   1      36.637  22.970  23.229  1.00  0.00     0.278 C 
ENDBRANCH  14  19
ENDBRANCH   8  13
ENDBRANCH   5   7
BRANCH   5  21
ATOM     21  C   UNL A   1      30.892  25.671  24.552  1.00  0.00     0.422 C 
ATOM     22  F   UNL A   1      30.067  26.566  25.125  1.00  0.00    -0.168 F 
ATOM     23  F   UNL A   1      30.215  25.032  23.574  1.00  0.00    -0.168 F 
ATOM     24  F   UNL A   1      31.125  24.716  25.489  1.00  0.00    -0.168 F 
ENDBRANCH   5  21
ENDBRANCH   3   5
ENDBRANCH   2   3
ENDBRANCH   1   2
BRANCH   1  25
ATOM     25  C   UNL A   1      32.763  30.450  26.428  1.00  0.00     0.275 C 
BRANCH  25  26
ATOM     26  O   UNL A   1      33.418  29.957  27.610  1.00  0.00    -0.458 OA
BRANCH  26  27
ATOM     27  C   UNL A   1      34.327  30.798  28.168  1.00  0.00     0.338 C 
ATOM     28  O   UNL A   1      34.118  31.946  28.523  1.00  0.00    -0.246 OA
BRANCH  27  29
ATOM     29  C   UNL A   1      35.648  30.137  28.319  1.00  0.00     0.060 A 
ATOM     30  C   UNL A   1      36.092  29.674  29.553  1.00  0.00     0.016 A 
ATOM     31  C   UNL A   1      36.514  30.088  27.229  1.00  0.00     0.016 A 
ATOM     32  C   UNL A   1      37.435  29.326  29.737  1.00  0.00     0.010 A 
ATOM     33  C   UNL A   1      37.819  29.598  27.387  1.00  0.00     0.010 A 
ATOM     34  C   UNL A   1      38.327  29.262  28.657  1.00  0.00    -0.014 A 
BRANCH  34  35
ATOM     35  C   UNL A   1      39.778  28.912  28.829  1.00  0.00     0.031 A 
ATOM     36  C   UNL A   1      40.746  29.954  29.351  1.00  0.00     0.074 A 
ATOM     37  C   UNL A   1      40.274  27.690  28.536  1.00  0.00     0.049 A 
ATOM     38  N   UNL A   1      42.049  30.014  29.226  1.00  0.00    -0.248 NA
ATOM     39  C   UNL A   1      40.168  31.091  30.087  1.00  0.00     0.031 C 
ATOM     40  C   UNL A   1      39.503  26.527  28.094  1.00  0.00     0.029 A 
ATOM     41  N   UNL A   1      41.570  27.220  28.568  1.00  0.00    -0.354 N 
ATOM     42  C   UNL A   1      42.431  31.236  29.773  1.00  0.00     0.074 A 
ATOM     43  C   UNL A   1      41.224  31.876  30.252  1.00  0.00     0.031 C 
ATOM     44  C   UNL A   1      40.321  25.473  27.958  1.00  0.00     0.029 A 
ATOM     45  C   UNL A   1      41.696  25.910  28.166  1.00  0.00     0.049 A 
ATOM     46  H   UNL A   1      42.336  27.772  28.852  1.00  0.00     0.167 HD
ATOM     47  C   UNL A   1      43.671  31.776  29.859  1.00  0.00     0.037 A 
ATOM     48  C   UNL A   1      42.786  25.155  27.917  1.00  0.00     0.037 A 
ATOM     49  C   UNL A   1      44.884  31.094  29.480  1.00  0.00     0.049 A 
ATOM     50  C   UNL A   1      44.155  25.770  28.008  1.00  0.00     0.074 A 
ATOM     51  C   UNL A   1      46.186  31.568  29.500  1.00  0.00     0.029 A 
ATOM     52  N   UNL A   1      44.950  29.772  29.067  1.00  0.00    -0.354 N 
ATOM     53  N   UNL A   1      44.491  26.988  28.359  1.00  0.00    -0.248 NA
ATOM     54  C   UNL A   1      45.292  24.918  27.628  1.00  0.00     0.031 C 
ATOM     55  C   UNL A   1      47.038  30.535  29.095  1.00  0.00     0.029 A 
ATOM     56  C   UNL A   1      46.270  29.410  28.851  1.00  0.00     0.049 A 
ATOM     57  H   UNL A   1      44.174  29.179  28.945  1.00  0.00     0.167 HD
ATOM     58  C   UNL A   1      45.875  27.046  28.242  1.00  0.00     0.074 A 
ATOM     59  C   UNL A   1      46.319  25.736  27.816  1.00  0.00     0.031 C 
ATOM     60  C   UNL A   1      46.703  28.098  28.449  1.00  0.00     0.037 A 
BRANCH  47  61
ATOM     61  C   UNL A   1      43.798  33.188  30.361  1.00  0.00     0.058 A 
ATOM     62  C   UNL A   1      44.068  33.479  31.706  1.00  0.00     0.135 A 
ATOM     63  C   UNL A   1      43.723  34.265  29.460  1.00  0.00     0.135 A 
ATOM     64  F   UNL A   1      44.132  32.491  32.611  1.00  0.00    -0.206 F 
ATOM     65  C   UNL A   1      44.250  34.789  32.143  1.00  0.00     0.059 A 
ATOM     66  C   UNL A   1      43.924  35.579  29.869  1.00  0.00     0.059 A 
ATOM     67  F   UNL A   1      43.469  34.042  28.160  1.00  0.00    -0.206 F 
ATOM     68  C   UNL A   1      44.179  35.831  31.216  1.00  0.00     0.060 A 
BRANCH  68  69
ATOM     69  S   UNL A   1      44.453  37.522  31.790  1.00  0.00     0.124 S 
ATOM     70  O   UNL A   1      43.705  37.528  33.043  1.00  0.00    -0.237 OA
ATOM     71  O   UNL A   1      45.906  37.577  31.920  1.00  0.00    -0.237 OA
ATOM     72  O   UNL A   1      43.892  38.339  30.719  1.00  0.00    -0.744 OA
ENDBRANCH  68  69
ENDBRANCH  47  61
BRANCH  48  73
ATOM     73  C   UNL A   1      42.634  23.744  27.466  1.00  0.00     0.058 A 
ATOM     74  C   UNL A   1      42.546  23.429  26.102  1.00  0.00     0.135 A 
ATOM     75  C   UNL A   1      42.544  22.688  28.387  1.00  0.00     0.135 A 
ATOM     76  F   UNL A   1      42.609  24.405  25.183  1.00  0.00    -0.206 F 
ATOM     77  C   UNL A   1      42.357  22.122  25.667  1.00  0.00     0.059 A 
ATOM     78  C   UNL A   1      42.388  21.370  27.976  1.00  0.00     0.059 A 
ATOM     79  F   UNL A   1      42.629  22.934  29.704  1.00  0.00    -0.206 F 
ATOM     80  C   UNL A   1      42.278  21.098  26.612  1.00  0.00     0.060 A 
BRANCH  80  81
ATOM     81  S   UNL A   1      42.066  19.395  26.051  1.00  0.00     0.124 S 
ATOM     82  O   UNL A   1      42.952  19.358  24.893  1.00  0.00    -0.237 OA
ATOM     83  O   UNL A   1      42.500  18.626  27.213  1.00  0.00    -0.237 OA
ATOM     84  O   UNL A   1      40.637  19.320  25.759  1.00  0.00    -0.744 OA
ENDBRANCH  80  81
ENDBRANCH  48  73
BRANCH  60  85
ATOM     85  C   UNL A   1      48.174  27.864  28.264  1.00  0.00     0.058 A 
ATOM     86  C   UNL A   1      48.986  27.422  29.318  1.00  0.00     0.135 A 
ATOM     87  C   UNL A   1      48.772  28.058  27.008  1.00  0.00     0.135 A 
ATOM     88  F   UNL A   1      48.462  27.231  30.539  1.00  0.00    -0.206 F 
ATOM     89  C   UNL A   1      50.348  27.199  29.141  1.00  0.00     0.059 A 
ATOM     90  C   UNL A   1      50.129  27.823  26.804  1.00  0.00     0.059 A 
ATOM     91  F   UNL A   1      48.037  28.475  25.966  1.00  0.00    -0.206 F 
ATOM     92  C   UNL A   1      50.911  27.405  27.880  1.00  0.00     0.060 A 
BRANCH  92  93
ATOM     93  S   UNL A   1      52.674  27.091  27.654  1.00  0.00     0.124 S 
ATOM     94  O   UNL A   1      53.033  26.493  28.936  1.00  0.00    -0.237 OA
ATOM     95  O   UNL A   1      52.689  26.187  26.507  1.00  0.00    -0.237 OA
ATOM     96  O   UNL A   1      53.226  28.419  27.403  1.00  0.00    -0.744 OA
ENDBRANCH  92  93
ENDBRANCH  60  85
ENDBRANCH  34  35
ENDBRANCH  27  29
ENDBRANCH  26  27
ENDBRANCH  25  26
ENDBRANCH   1  25
TORSDOF 18
ENDMDL
