MODEL 1
REMARK VINA RESULT:      -9.1      0.000      0.000
REMARK SMILES CC(C)C[C@H](NC(=O)[C@H](C)NC(=O)[C@@H](NC(=O)CNC(=O)OCc1ccccc1)C(C)C)C(=O)OCCOC(=O)c1ccc(-c2c3nc(c(-c4c(F)cc(S(=O)(=O)[O-])cc4F)c4ccc([nH]4)c(-c4c(F)cc(S(=O)(=O)[O-])cc4F)c4nc(c(-c5c(F)cc(S(=O)(=O)[O-])cc5F)c5ccc2[nH]5)C=C4)C=C3)cc1
REMARK SMILES IDX 5 1 4 2 2 3 1 4 3 5 33 6 34 7 35 8 36 9 37 10 38 11 39 12
REMARK SMILES IDX 40 13 41 14 42 15 106 16 43 17 105 18 44 19 45 20 46 21
REMARK SMILES IDX 99 22 47 23 104 24 98 25 100 26 48 27 103 28 97 29 96 30
REMARK SMILES IDX 49 32 83 33 62 34 82 35 63 36 66 37 81 38 101 39 64 40 65 41
REMARK SMILES IDX 80 43 102 44 67 45 50 46 51 47 60 48 52 49 53 50 59 51 61 52
REMARK SMILES IDX 54 53 55 54 56 55 57 56 58 57 84 58 85 59 94 60 86 61 87 62
REMARK SMILES IDX 93 63 95 64 88 65 89 66 90 67 91 68 92 69 68 70 69 71 78 72
REMARK SMILES IDX 70 73 71 74 77 75 79 76 72 77 73 78 74 79 75 80 76 81 6 82
REMARK SMILES IDX 7 83 8 85 9 86 10 87 11 88 12 89 13 91 14 92 15 93 16 94
REMARK SMILES IDX 17 96 18 97 19 98 20 99 21 101 22 102 23 103 24 104 25 105
REMARK SMILES IDX 29 106 26 107 28 108 27 109 30 110 31 111 32 112
REMARK H PARENT 100 31 66 42 6 84 11 90 15 95 19 100
REMARK Flexibility Score: inf
ROOT
ATOM      1  C   UNL A   1      34.697  29.968  27.360  1.00  0.00     0.192 C 
ENDROOT
BRANCH   1   2
ATOM      2  C   UNL A   1      36.179  29.891  27.764  1.00  0.00     0.040 C 
BRANCH   2   3
ATOM      3  C   UNL A   1      36.685  30.377  29.133  1.00  0.00    -0.015 C 
ATOM      4  C   UNL A   1      36.692  29.267  30.180  1.00  0.00     0.007 C 
ATOM      5  C   UNL A   1      38.132  30.897  29.021  1.00  0.00     0.007 C 
ENDBRANCH   2   3
ENDBRANCH   1   2
BRANCH   1   6
ATOM      6  C   UNL A   1      34.098  31.359  27.671  1.00  0.00     0.328 C 
ATOM      7  O   UNL A   1      32.892  31.576  27.648  1.00  0.00    -0.250 OA
BRANCH   6   8
ATOM      8  O   UNL A   1      35.005  32.308  28.037  1.00  0.00    -0.461 OA
BRANCH   8   9
ATOM      9  C   UNL A   1      34.437  33.366  28.845  1.00  0.00     0.274 C 
BRANCH   9  10
ATOM     10  C   UNL A   1      34.704  33.189  30.349  1.00  0.00     0.275 C 
BRANCH  10  11
ATOM     11  O   UNL A   1      35.639  34.156  30.868  1.00  0.00    -0.458 OA
BRANCH  11  12
ATOM     12  C   UNL A   1      36.934  33.925  30.535  1.00  0.00     0.338 C 
ATOM     13  O   UNL A   1      37.453  34.162  29.456  1.00  0.00    -0.246 OA
BRANCH  12  14
ATOM     14  C   UNL A   1      37.720  33.596  31.736  1.00  0.00     0.060 A 
ATOM     15  C   UNL A   1      39.052  34.012  31.732  1.00  0.00     0.016 A 
ATOM     16  C   UNL A   1      37.226  32.874  32.816  1.00  0.00     0.016 A 
ATOM     17  C   UNL A   1      39.890  33.787  32.806  1.00  0.00     0.010 A 
ATOM     18  C   UNL A   1      38.080  32.600  33.893  1.00  0.00     0.010 A 
ATOM     19  C   UNL A   1      39.410  33.067  33.894  1.00  0.00    -0.014 A 
BRANCH  19  20
ATOM     20  C   UNL A   1      40.365  32.712  34.964  1.00  0.00     0.031 A 
ATOM     21  C   UNL A   1      40.626  33.709  36.051  1.00  0.00     0.074 A 
ATOM     22  C   UNL A   1      40.912  31.483  34.997  1.00  0.00     0.049 A 
ATOM     23  N   UNL A   1      41.518  33.677  37.002  1.00  0.00    -0.248 NA
ATOM     24  C   UNL A   1      39.767  34.905  36.065  1.00  0.00     0.031 C 
ATOM     25  C   UNL A   1      40.620  30.402  34.051  1.00  0.00     0.029 A 
ATOM     26  N   UNL A   1      41.825  30.934  35.859  1.00  0.00    -0.354 N 
ATOM     27  C   UNL A   1      41.361  34.868  37.701  1.00  0.00     0.074 A 
ATOM     28  C   UNL A   1      40.291  35.602  37.062  1.00  0.00     0.031 C 
ATOM     29  C   UNL A   1      41.348  29.323  34.381  1.00  0.00     0.029 A 
ATOM     30  C   UNL A   1      42.207  29.660  35.511  1.00  0.00     0.049 A 
ATOM     31  H   UNL A   1      42.172  31.405  36.650  1.00  0.00     0.167 HD
ATOM     32  C   UNL A   1      42.060  35.302  38.775  1.00  0.00     0.037 A 
ATOM     33  C   UNL A   1      43.181  28.880  36.019  1.00  0.00     0.037 A 
ATOM     34  C   UNL A   1      43.104  34.532  39.399  1.00  0.00     0.049 A 
ATOM     35  C   UNL A   1      44.003  29.420  37.157  1.00  0.00     0.074 A 
ATOM     36  C   UNL A   1      43.894  34.870  40.482  1.00  0.00     0.029 A 
ATOM     37  N   UNL A   1      43.499  33.263  38.993  1.00  0.00    -0.354 N 
ATOM     38  N   UNL A   1      43.895  30.572  37.778  1.00  0.00    -0.248 NA
ATOM     39  C   UNL A   1      45.086  28.564  37.658  1.00  0.00     0.031 C 
ATOM     40  C   UNL A   1      44.803  33.828  40.698  1.00  0.00     0.029 A 
ATOM     41  C   UNL A   1      44.537  32.812  39.790  1.00  0.00     0.049 A 
ATOM     42  H   UNL A   1      43.100  32.760  38.247  1.00  0.00     0.167 HD
ATOM     43  C   UNL A   1      44.877  30.570  38.761  1.00  0.00     0.074 A 
ATOM     44  C   UNL A   1      45.561  29.294  38.658  1.00  0.00     0.031 C 
ATOM     45  C   UNL A   1      45.188  31.530  39.667  1.00  0.00     0.037 A 
BRANCH  32  46
ATOM     46  C   UNL A   1      41.757  36.679  39.294  1.00  0.00     0.058 A 
ATOM     47  C   UNL A   1      42.578  37.784  39.016  1.00  0.00     0.135 A 
ATOM     48  C   UNL A   1      40.614  36.898  40.081  1.00  0.00     0.135 A 
ATOM     49  F   UNL A   1      43.698  37.628  38.292  1.00  0.00    -0.206 F 
ATOM     50  C   UNL A   1      42.291  39.049  39.520  1.00  0.00     0.059 A 
ATOM     51  C   UNL A   1      40.291  38.161  40.569  1.00  0.00     0.059 A 
ATOM     52  F   UNL A   1      39.798  35.877  40.386  1.00  0.00    -0.206 F 
ATOM     53  C   UNL A   1      41.144  39.228  40.295  1.00  0.00     0.060 A 
BRANCH  53  54
ATOM     54  S   UNL A   1      40.779  40.877  40.931  1.00  0.00     0.124 S 
ATOM     55  O   UNL A   1      40.876  40.662  42.372  1.00  0.00    -0.237 OA
ATOM     56  O   UNL A   1      41.843  41.681  40.338  1.00  0.00    -0.237 OA
ATOM     57  O   UNL A   1      39.437  41.148  40.427  1.00  0.00    -0.744 OA
ENDBRANCH  53  54
ENDBRANCH  32  46
BRANCH  33  58
ATOM     58  C   UNL A   1      43.457  27.543  35.425  1.00  0.00     0.058 A 
ATOM     59  C   UNL A   1      44.499  27.357  34.505  1.00  0.00     0.135 A 
ATOM     60  C   UNL A   1      42.688  26.419  35.771  1.00  0.00     0.135 A 
ATOM     61  F   UNL A   1      45.257  28.400  34.133  1.00  0.00    -0.206 F 
ATOM     62  C   UNL A   1      44.760  26.113  33.939  1.00  0.00     0.059 A 
ATOM     63  C   UNL A   1      42.949  25.159  35.243  1.00  0.00     0.059 A 
ATOM     64  F   UNL A   1      41.684  26.535  36.654  1.00  0.00    -0.206 F 
ATOM     65  C   UNL A   1      43.982  25.018  34.317  1.00  0.00     0.060 A 
BRANCH  65  66
ATOM     66  S   UNL A   1      44.357  23.400  33.607  1.00  0.00     0.124 S 
ATOM     67  O   UNL A   1      43.588  22.514  34.473  1.00  0.00    -0.237 OA
ATOM     68  O   UNL A   1      43.865  23.544  32.241  1.00  0.00    -0.237 OA
ATOM     69  O   UNL A   1      45.808  23.304  33.737  1.00  0.00    -0.744 OA
ENDBRANCH  65  66
ENDBRANCH  33  58
BRANCH  45  70
ATOM     70  C   UNL A   1      46.283  31.219  40.648  1.00  0.00     0.058 A 
ATOM     71  C   UNL A   1      47.618  31.576  40.407  1.00  0.00     0.135 A 
ATOM     72  C   UNL A   1      45.976  30.604  41.874  1.00  0.00     0.135 A 
ATOM     73  F   UNL A   1      47.963  32.158  39.247  1.00  0.00    -0.206 F 
ATOM     74  C   UNL A   1      48.617  31.313  41.337  1.00  0.00     0.059 A 
ATOM     75  C   UNL A   1      46.954  30.362  42.831  1.00  0.00     0.059 A 
ATOM     76  F   UNL A   1      44.712  30.252  42.157  1.00  0.00    -0.206 F 
ATOM     77  C   UNL A   1      48.274  30.710  42.549  1.00  0.00     0.060 A 
BRANCH  77  78
ATOM     78  S   UNL A   1      49.574  30.411  43.763  1.00  0.00     0.124 S 
ATOM     79  O   UNL A   1      50.571  31.405  43.377  1.00  0.00    -0.237 OA
ATOM     80  O   UNL A   1      48.885  30.659  45.026  1.00  0.00    -0.237 OA
ATOM     81  O   UNL A   1      49.950  29.021  43.524  1.00  0.00    -0.744 OA
ENDBRANCH  77  78
ENDBRANCH  45  70
ENDBRANCH  19  20
ENDBRANCH  12  14
ENDBRANCH  11  12
ENDBRANCH  10  11
ENDBRANCH   9  10
ENDBRANCH   8   9
ENDBRANCH   6   8
ENDBRANCH   1   6
BRANCH   1  82
ATOM     82  N   UNL A   1      34.387  29.493  25.984  1.00  0.00    -0.341 N 
ATOM     83  C   UNL A   1      33.180  28.990  25.550  1.00  0.00     0.242 C 
ATOM     84  H   UNL A   1      35.113  29.542  25.321  1.00  0.00     0.164 HD
ATOM     85  O   UNL A   1      32.589  29.594  24.650  1.00  0.00    -0.273 OA
BRANCH  83  86
ATOM     86  C   UNL A   1      32.786  27.525  25.859  1.00  0.00     0.168 C 
ATOM     87  C   UNL A   1      31.944  27.426  27.133  1.00  0.00     0.041 C 
BRANCH  86  88
ATOM     88  N   UNL A   1      33.828  26.528  25.874  1.00  0.00    -0.343 N 
ATOM     89  C   UNL A   1      34.206  25.641  24.912  1.00  0.00     0.243 C 
ATOM     90  H   UNL A   1      34.347  26.481  26.708  1.00  0.00     0.164 HD
ATOM     91  O   UNL A   1      35.156  24.903  25.202  1.00  0.00    -0.273 OA
BRANCH  89  92
ATOM     92  C   UNL A   1      33.526  25.502  23.513  1.00  0.00     0.174 C 
BRANCH  92  93
ATOM     93  N   UNL A   1      32.367  24.578  23.678  1.00  0.00    -0.343 N 
ATOM     94  C   UNL A   1      31.060  24.672  24.053  1.00  0.00     0.240 C 
ATOM     95  H   UNL A   1      32.612  23.650  23.456  1.00  0.00     0.164 HD
ATOM     96  O   UNL A   1      30.486  23.591  24.239  1.00  0.00    -0.273 OA
BRANCH  94  97
ATOM     97  C   UNL A   1      30.257  25.991  24.227  1.00  0.00     0.219 C 
BRANCH  97  98
ATOM     98  N   UNL A   1      28.808  25.876  24.350  1.00  0.00    -0.312 N 
ATOM     99  C   UNL A   1      27.840  26.766  23.959  1.00  0.00     0.407 C 
ATOM    100  H   UNL A   1      28.481  25.047  24.770  1.00  0.00     0.167 HD
ATOM    101  O   UNL A   1      26.683  26.609  24.291  1.00  0.00    -0.225 OA
BRANCH  99 102
ATOM    102  O   UNL A   1      28.312  27.828  23.246  1.00  0.00    -0.445 OA
BRANCH 102 103
ATOM    103  C   UNL A   1      27.309  28.786  22.830  1.00  0.00     0.270 C 
BRANCH 103 104
ATOM    104  C   UNL A   1      27.860  30.159  22.535  1.00  0.00    -0.011 A 
ATOM    105  C   UNL A   1      28.196  31.017  23.591  1.00  0.00     0.007 A 
ATOM    106  C   UNL A   1      27.930  30.634  21.224  1.00  0.00     0.007 A 
ATOM    107  C   UNL A   1      28.490  32.356  23.353  1.00  0.00     0.000 A 
ATOM    108  C   UNL A   1      28.221  31.975  20.984  1.00  0.00     0.000 A 
ATOM    109  C   UNL A   1      28.478  32.840  22.048  1.00  0.00     0.000 A 
ENDBRANCH 103 104
ENDBRANCH 102 103
ENDBRANCH  99 102
ENDBRANCH  97  98
ENDBRANCH  94  97
ENDBRANCH  92  93
BRANCH  92 110
ATOM    110  C   UNL A   1      33.253  26.642  22.508  1.00  0.00     0.015 C 
ATOM    111  C   UNL A   1      34.160  27.829  22.211  1.00  0.00     0.010 C 
ATOM    112  C   UNL A   1      32.883  26.029  21.148  1.00  0.00     0.010 C 
ENDBRANCH  92 110
ENDBRANCH  89  92
ENDBRANCH  86  88
ENDBRANCH  83  86
ENDBRANCH   1  82
TORSDOF 27
ENDMDL
MODEL 2
REMARK VINA RESULT:      -8.9      4.553      8.564
REMARK SMILES CC(C)C[C@H](NC(=O)[C@H](C)NC(=O)[C@@H](NC(=O)CNC(=O)OCc1ccccc1)C(C)C)C(=O)OCCOC(=O)c1ccc(-c2c3nc(c(-c4c(F)cc(S(=O)(=O)[O-])cc4F)c4ccc([nH]4)c(-c4c(F)cc(S(=O)(=O)[O-])cc4F)c4nc(c(-c5c(F)cc(S(=O)(=O)[O-])cc5F)c5ccc2[nH]5)C=C4)C=C3)cc1
REMARK SMILES IDX 5 1 4 2 2 3 1 4 3 5 33 6 34 7 35 8 36 9 37 10 38 11 39 12
REMARK SMILES IDX 40 13 41 14 42 15 106 16 43 17 105 18 44 19 45 20 46 21
REMARK SMILES IDX 99 22 47 23 104 24 98 25 100 26 48 27 103 28 97 29 96 30
REMARK SMILES IDX 49 32 83 33 62 34 82 35 63 36 66 37 81 38 101 39 64 40 65 41
REMARK SMILES IDX 80 43 102 44 67 45 50 46 51 47 60 48 52 49 53 50 59 51 61 52
REMARK SMILES IDX 54 53 55 54 56 55 57 56 58 57 84 58 85 59 94 60 86 61 87 62
REMARK SMILES IDX 93 63 95 64 88 65 89 66 90 67 91 68 92 69 68 70 69 71 78 72
REMARK SMILES IDX 70 73 71 74 77 75 79 76 72 77 73 78 74 79 75 80 76 81 6 82
REMARK SMILES IDX 7 83 8 85 9 86 10 87 11 88 12 89 13 91 14 92 15 93 16 94
REMARK SMILES IDX 17 96 18 97 19 98 20 99 21 101 22 102 23 103 24 104 25 105
REMARK SMILES IDX 29 106 26 107 28 108 27 109 30 110 31 111 32 112
REMARK H PARENT 100 31 66 42 6 84 11 90 15 95 19 100
REMARK Flexibility Score: inf
ROOT
ATOM      1  C   UNL A   1      42.456  23.082  27.615  1.00  0.00     0.192 C 
ENDROOT
BRANCH   1   2
ATOM      2  C   UNL A   1      43.183  23.931  28.672  1.00  0.00     0.040 C 
BRANCH   2   3
ATOM      3  C   UNL A   1      44.404  23.407  29.449  1.00  0.00    -0.015 C 
ATOM      4  C   UNL A   1      45.675  24.193  29.137  1.00  0.00     0.007 C 
ATOM      5  C   UNL A   1      44.167  23.520  30.967  1.00  0.00     0.007 C 
ENDBRANCH   2   3
ENDBRANCH   1   2
BRANCH   1   6
ATOM      6  C   UNL A   1      43.451  22.445  26.618  1.00  0.00     0.328 C 
ATOM      7  O   UNL A   1      44.264  21.592  26.955  1.00  0.00    -0.250 OA
BRANCH   6   8
ATOM      8  O   UNL A   1      43.314  22.855  25.326  1.00  0.00    -0.461 OA
BRANCH   8   9
ATOM      9  C   UNL A   1      44.260  23.882  24.944  1.00  0.00     0.274 C 
BRANCH   9  10
ATOM     10  C   UNL A   1      43.601  25.247  24.686  1.00  0.00     0.275 C 
BRANCH  10  11
ATOM     11  O   UNL A   1      43.334  25.978  25.899  1.00  0.00    -0.458 OA
BRANCH  11  12
ATOM     12  C   UNL A   1      43.007  27.281  25.712  1.00  0.00     0.338 C 
ATOM     13  O   UNL A   1      42.688  27.799  24.654  1.00  0.00    -0.246 OA
BRANCH  12  14
ATOM     14  C   UNL A   1      42.820  27.952  27.010  1.00  0.00     0.060 A 
ATOM     15  C   UNL A   1      42.017  27.286  27.937  1.00  0.00     0.016 A 
ATOM     16  C   UNL A   1      43.349  29.199  27.325  1.00  0.00     0.016 A 
ATOM     17  C   UNL A   1      41.780  27.797  29.198  1.00  0.00     0.010 A 
ATOM     18  C   UNL A   1      43.079  29.748  28.586  1.00  0.00     0.010 A 
ATOM     19  C   UNL A   1      42.304  29.041  29.529  1.00  0.00    -0.014 A 
BRANCH  19  20
ATOM     20  C   UNL A   1      41.917  29.632  30.825  1.00  0.00     0.031 A 
ATOM     21  C   UNL A   1      40.655  30.436  30.897  1.00  0.00     0.074 A 
ATOM     22  C   UNL A   1      42.644  29.373  31.928  1.00  0.00     0.049 A 
ATOM     23  N   UNL A   1      40.193  31.161  31.879  1.00  0.00    -0.248 NA
ATOM     24  C   UNL A   1      39.798  30.422  29.700  1.00  0.00     0.031 C 
ATOM     25  C   UNL A   1      43.819  28.498  31.979  1.00  0.00     0.029 A 
ATOM     26  N   UNL A   1      42.502  29.816  33.216  1.00  0.00    -0.354 N 
ATOM     27  C   UNL A   1      39.018  31.729  31.403  1.00  0.00     0.074 A 
ATOM     28  C   UNL A   1      38.838  31.267  30.045  1.00  0.00     0.031 C 
ATOM     29  C   UNL A   1      44.294  28.477  33.234  1.00  0.00     0.029 A 
ATOM     30  C   UNL A   1      43.505  29.390  34.054  1.00  0.00     0.049 A 
ATOM     31  H   UNL A   1      41.754  30.383  33.514  1.00  0.00     0.167 HD
ATOM     32  C   UNL A   1      38.175  32.566  32.051  1.00  0.00     0.037 A 
ATOM     33  C   UNL A   1      43.781  29.744  35.324  1.00  0.00     0.037 A 
ATOM     34  C   UNL A   1      38.375  32.986  33.414  1.00  0.00     0.049 A 
ATOM     35  C   UNL A   1      42.879  30.745  35.995  1.00  0.00     0.074 A 
ATOM     36  C   UNL A   1      37.601  33.842  34.174  1.00  0.00     0.029 A 
ATOM     37  N   UNL A   1      39.428  32.572  34.221  1.00  0.00    -0.354 N 
ATOM     38  N   UNL A   1      41.801  31.328  35.523  1.00  0.00    -0.248 NA
ATOM     39  C   UNL A   1      43.232  31.145  37.362  1.00  0.00     0.031 C 
ATOM     40  C   UNL A   1      38.215  33.988  35.423  1.00  0.00     0.029 A 
ATOM     41  C   UNL A   1      39.337  33.172  35.464  1.00  0.00     0.049 A 
ATOM     42  H   UNL A   1      40.136  31.945  33.947  1.00  0.00     0.167 HD
ATOM     43  C   UNL A   1      41.331  32.144  36.545  1.00  0.00     0.074 A 
ATOM     44  C   UNL A   1      42.237  31.968  37.664  1.00  0.00     0.031 C 
ATOM     45  C   UNL A   1      40.251  32.965  36.561  1.00  0.00     0.037 A 
BRANCH  32  46
ATOM     46  C   UNL A   1      37.011  33.118  31.279  1.00  0.00     0.058 A 
ATOM     47  C   UNL A   1      35.682  32.777  31.576  1.00  0.00     0.135 A 
ATOM     48  C   UNL A   1      37.232  34.017  30.222  1.00  0.00     0.135 A 
ATOM     49  F   UNL A   1      35.413  31.902  32.559  1.00  0.00    -0.206 F 
ATOM     50  C   UNL A   1      34.617  33.286  30.839  1.00  0.00     0.059 A 
ATOM     51  C   UNL A   1      36.180  34.562  29.491  1.00  0.00     0.059 A 
ATOM     52  F   UNL A   1      38.482  34.371  29.886  1.00  0.00    -0.206 F 
ATOM     53  C   UNL A   1      34.877  34.179  29.798  1.00  0.00     0.060 A 
BRANCH  53  54
ATOM     54  S   UNL A   1      33.484  34.839  28.858  1.00  0.00     0.124 S 
ATOM     55  O   UNL A   1      33.317  33.818  27.829  1.00  0.00    -0.237 OA
ATOM     56  O   UNL A   1      32.430  34.901  29.866  1.00  0.00    -0.237 OA
ATOM     57  O   UNL A   1      33.973  36.131  28.387  1.00  0.00    -0.744 OA
ENDBRANCH  53  54
ENDBRANCH  32  46
BRANCH  33  58
ATOM     58  C   UNL A   1      44.979  29.192  36.014  1.00  0.00     0.058 A 
ATOM     59  C   UNL A   1      46.231  29.812  35.904  1.00  0.00     0.135 A 
ATOM     60  C   UNL A   1      44.895  28.034  36.805  1.00  0.00     0.135 A 
ATOM     61  F   UNL A   1      46.369  30.915  35.152  1.00  0.00    -0.206 F 
ATOM     62  C   UNL A   1      47.359  29.299  36.538  1.00  0.00     0.059 A 
ATOM     63  C   UNL A   1      46.001  27.519  37.475  1.00  0.00     0.059 A 
ATOM     64  F   UNL A   1      43.719  27.404  36.955  1.00  0.00    -0.206 F 
ATOM     65  C   UNL A   1      47.232  28.153  37.326  1.00  0.00     0.060 A 
BRANCH  65  66
ATOM     66  S   UNL A   1      48.694  27.521  38.179  1.00  0.00     0.124 S 
ATOM     67  O   UNL A   1      49.048  28.650  39.031  1.00  0.00    -0.237 OA
ATOM     68  O   UNL A   1      48.164  26.346  38.863  1.00  0.00    -0.237 OA
ATOM     69  O   UNL A   1      49.622  27.237  37.089  1.00  0.00    -0.744 OA
ENDBRANCH  65  66
ENDBRANCH  33  58
BRANCH  45  70
ATOM     70  C   UNL A   1      39.963  33.695  37.842  1.00  0.00     0.058 A 
ATOM     71  C   UNL A   1      40.595  34.906  38.163  1.00  0.00     0.135 A 
ATOM     72  C   UNL A   1      38.998  33.200  38.734  1.00  0.00     0.135 A 
ATOM     73  F   UNL A   1      41.531  35.418  37.347  1.00  0.00    -0.206 F 
ATOM     74  C   UNL A   1      40.296  35.590  39.335  1.00  0.00     0.059 A 
ATOM     75  C   UNL A   1      38.660  33.884  39.896  1.00  0.00     0.059 A 
ATOM     76  F   UNL A   1      38.358  32.050  38.468  1.00  0.00    -0.206 F 
ATOM     77  C   UNL A   1      39.323  35.073  40.193  1.00  0.00     0.060 A 
BRANCH  77  78
ATOM     78  S   UNL A   1      38.917  35.992  41.691  1.00  0.00     0.124 S 
ATOM     79  O   UNL A   1      37.578  35.495  41.989  1.00  0.00    -0.237 OA
ATOM     80  O   UNL A   1      39.970  35.570  42.611  1.00  0.00    -0.237 OA
ATOM     81  O   UNL A   1      38.988  37.387  41.266  1.00  0.00    -0.744 OA
ENDBRANCH  77  78
ENDBRANCH  45  70
ENDBRANCH  19  20
ENDBRANCH  12  14
ENDBRANCH  11  12
ENDBRANCH  10  11
ENDBRANCH   9  10
ENDBRANCH   8   9
ENDBRANCH   6   8
ENDBRANCH   1   6
BRANCH   1  82
ATOM     82  N   UNL A   1      41.463  22.111  28.151  1.00  0.00    -0.341 N 
ATOM     83  C   UNL A   1      40.726  21.210  27.415  1.00  0.00     0.242 C 
ATOM     84  H   UNL A   1      41.320  22.113  29.125  1.00  0.00     0.164 HD
ATOM     85  O   UNL A   1      40.884  20.006  27.642  1.00  0.00    -0.273 OA
BRANCH  83  86
ATOM     86  C   UNL A   1      39.463  21.673  26.650  1.00  0.00     0.168 C 
ATOM     87  C   UNL A   1      39.280  20.897  25.344  1.00  0.00     0.041 C 
BRANCH  86  88
ATOM     88  N   UNL A   1      39.286  23.086  26.418  1.00  0.00    -0.343 N 
ATOM     89  C   UNL A   1      38.177  23.780  26.045  1.00  0.00     0.243 C 
ATOM     90  H   UNL A   1      40.093  23.633  26.551  1.00  0.00     0.164 HD
ATOM     91  O   UNL A   1      38.318  25.005  25.934  1.00  0.00    -0.273 OA
BRANCH  89  92
ATOM     92  C   UNL A   1      36.783  23.140  25.751  1.00  0.00     0.174 C 
BRANCH  92  93
ATOM     93  N   UNL A   1      35.776  24.240  25.794  1.00  0.00    -0.343 N 
ATOM     94  C   UNL A   1      34.438  24.377  25.577  1.00  0.00     0.240 C 
ATOM     95  H   UNL A   1      36.190  25.097  26.049  1.00  0.00     0.164 HD
ATOM     96  O   UNL A   1      34.028  25.546  25.539  1.00  0.00    -0.273 OA
BRANCH  94  97
ATOM     97  C   UNL A   1      33.419  23.216  25.411  1.00  0.00     0.219 C 
BRANCH  97  98
ATOM     98  N   UNL A   1      32.457  23.325  24.321  1.00  0.00    -0.312 N 
ATOM     99  C   UNL A   1      31.168  23.793  24.357  1.00  0.00     0.407 C 
ATOM    100  H   UNL A   1      32.776  23.023  23.439  1.00  0.00     0.167 HD
ATOM    101  O   UNL A   1      30.431  23.655  23.402  1.00  0.00    -0.225 OA
BRANCH  99 102
ATOM    102  O   UNL A   1      30.806  24.344  25.550  1.00  0.00    -0.445 OA
BRANCH 102 103
ATOM    103  C   UNL A   1      29.798  25.380  25.471  1.00  0.00     0.270 C 
BRANCH 103 104
ATOM    104  C   UNL A   1      30.305  26.687  24.914  1.00  0.00    -0.011 A 
ATOM    105  C   UNL A   1      31.205  27.460  25.661  1.00  0.00     0.007 A 
ATOM    106  C   UNL A   1      29.801  27.196  23.716  1.00  0.00     0.007 A 
ATOM    107  C   UNL A   1      31.511  28.763  25.277  1.00  0.00     0.000 A 
ATOM    108  C   UNL A   1      30.105  28.501  23.332  1.00  0.00     0.000 A 
ATOM    109  C   UNL A   1      30.940  29.290  24.124  1.00  0.00     0.000 A 
ENDBRANCH 103 104
ENDBRANCH 102 103
ENDBRANCH  99 102
ENDBRANCH  97  98
ENDBRANCH  94  97
ENDBRANCH  92  93
BRANCH  92 110
ATOM    110  C   UNL A   1      36.471  22.076  24.676  1.00  0.00     0.015 C 
ATOM    111  C   UNL A   1      35.373  21.024  24.728  1.00  0.00     0.010 C 
ATOM    112  C   UNL A   1      36.340  22.771  23.311  1.00  0.00     0.010 C 
ENDBRANCH  92 110
ENDBRANCH  89  92
ENDBRANCH  86  88
ENDBRANCH  83  86
ENDBRANCH   1  82
TORSDOF 27
ENDMDL
MODEL 3
REMARK VINA RESULT:      -8.2      6.296     16.315
REMARK SMILES CC(C)C[C@H](NC(=O)[C@H](C)NC(=O)[C@@H](NC(=O)CNC(=O)OCc1ccccc1)C(C)C)C(=O)OCCOC(=O)c1ccc(-c2c3nc(c(-c4c(F)cc(S(=O)(=O)[O-])cc4F)c4ccc([nH]4)c(-c4c(F)cc(S(=O)(=O)[O-])cc4F)c4nc(c(-c5c(F)cc(S(=O)(=O)[O-])cc5F)c5ccc2[nH]5)C=C4)C=C3)cc1
REMARK SMILES IDX 5 1 4 2 2 3 1 4 3 5 33 6 34 7 35 8 36 9 37 10 38 11 39 12
REMARK SMILES IDX 40 13 41 14 42 15 106 16 43 17 105 18 44 19 45 20 46 21
REMARK SMILES IDX 99 22 47 23 104 24 98 25 100 26 48 27 103 28 97 29 96 30
REMARK SMILES IDX 49 32 83 33 62 34 82 35 63 36 66 37 81 38 101 39 64 40 65 41
REMARK SMILES IDX 80 43 102 44 67 45 50 46 51 47 60 48 52 49 53 50 59 51 61 52
REMARK SMILES IDX 54 53 55 54 56 55 57 56 58 57 84 58 85 59 94 60 86 61 87 62
REMARK SMILES IDX 93 63 95 64 88 65 89 66 90 67 91 68 92 69 68 70 69 71 78 72
REMARK SMILES IDX 70 73 71 74 77 75 79 76 72 77 73 78 74 79 75 80 76 81 6 82
REMARK SMILES IDX 7 83 8 85 9 86 10 87 11 88 12 89 13 91 14 92 15 93 16 94
REMARK SMILES IDX 17 96 18 97 19 98 20 99 21 101 22 102 23 103 24 104 25 105
REMARK SMILES IDX 29 106 26 107 28 108 27 109 30 110 31 111 32 112
REMARK H PARENT 100 31 66 42 6 84 11 90 15 95 19 100
REMARK Flexibility Score: inf
ROOT
ATOM      1  C   UNL A   1      49.612  22.437  35.627  1.00  0.00     0.192 C 
ENDROOT
BRANCH   1   2
ATOM      2  C   UNL A   1      50.511  23.104  34.572  1.00  0.00     0.040 C 
BRANCH   2   3
ATOM      3  C   UNL A   1      50.409  24.602  34.234  1.00  0.00    -0.015 C 
ATOM      4  C   UNL A   1      49.503  24.868  33.034  1.00  0.00     0.007 C 
ATOM      5  C   UNL A   1      49.820  25.385  35.423  1.00  0.00     0.007 C 
ENDBRANCH   2   3
ENDBRANCH   1   2
BRANCH   1   6
ATOM      6  C   UNL A   1      48.344  21.829  34.987  1.00  0.00     0.328 C 
ATOM      7  O   UNL A   1      48.372  21.217  33.925  1.00  0.00    -0.250 OA
BRANCH   6   8
ATOM      8  O   UNL A   1      47.205  21.967  35.722  1.00  0.00    -0.461 OA
BRANCH   8   9
ATOM      9  C   UNL A   1      46.653  23.305  35.684  1.00  0.00     0.274 C 
BRANCH   9  10
ATOM     10  C   UNL A   1      46.332  23.868  37.077  1.00  0.00     0.275 C 
BRANCH  10  11
ATOM     11  O   UNL A   1      46.901  25.174  37.298  1.00  0.00    -0.458 OA
BRANCH  11  12
ATOM     12  C   UNL A   1      46.201  25.957  38.156  1.00  0.00     0.338 C 
ATOM     13  O   UNL A   1      46.389  26.057  39.358  1.00  0.00    -0.246 OA
BRANCH  12  14
ATOM     14  C   UNL A   1      45.344  26.895  37.409  1.00  0.00     0.060 A 
ATOM     15  C   UNL A   1      43.979  26.606  37.398  1.00  0.00     0.016 A 
ATOM     16  C   UNL A   1      45.824  27.990  36.699  1.00  0.00     0.016 A 
ATOM     17  C   UNL A   1      43.067  27.418  36.754  1.00  0.00     0.010 A 
ATOM     18  C   UNL A   1      44.912  28.796  36.004  1.00  0.00     0.010 A 
ATOM     19  C   UNL A   1      43.530  28.517  36.041  1.00  0.00    -0.014 A 
BRANCH  19  20
ATOM     20  C   UNL A   1      42.555  29.284  35.241  1.00  0.00     0.031 A 
ATOM     21  C   UNL A   1      41.983  30.542  35.821  1.00  0.00     0.074 A 
ATOM     22  C   UNL A   1      42.262  28.898  33.985  1.00  0.00     0.049 A 
ATOM     23  N   UNL A   1      41.017  31.294  35.370  1.00  0.00    -0.248 NA
ATOM     24  C   UNL A   1      42.582  31.014  37.081  1.00  0.00     0.031 C 
ATOM     25  C   UNL A   1      42.864  27.757  33.290  1.00  0.00     0.029 A 
ATOM     26  N   UNL A   1      41.388  29.423  33.070  1.00  0.00    -0.354 N 
ATOM     27  C   UNL A   1      40.858  32.302  36.313  1.00  0.00     0.074 A 
ATOM     28  C   UNL A   1      41.824  32.064  37.362  1.00  0.00     0.031 C 
ATOM     29  C   UNL A   1      42.333  27.665  32.060  1.00  0.00     0.029 A 
ATOM     30  C   UNL A   1      41.307  28.689  31.910  1.00  0.00     0.049 A 
ATOM     31  H   UNL A   1      40.870  30.245  33.227  1.00  0.00     0.167 HD
ATOM     32  C   UNL A   1      39.974  33.326  36.296  1.00  0.00     0.037 A 
ATOM     33  C   UNL A   1      40.458  28.806  30.870  1.00  0.00     0.037 A 
ATOM     34  C   UNL A   1      39.041  33.544  35.221  1.00  0.00     0.049 A 
ATOM     35  C   UNL A   1      39.425  29.899  30.915  1.00  0.00     0.074 A 
ATOM     36  C   UNL A   1      38.086  34.535  35.096  1.00  0.00     0.029 A 
ATOM     37  N   UNL A   1      38.953  32.754  34.081  1.00  0.00    -0.354 N 
ATOM     38  N   UNL A   1      39.234  30.815  31.836  1.00  0.00    -0.248 NA
ATOM     39  C   UNL A   1      38.486  29.972  29.789  1.00  0.00     0.031 C 
ATOM     40  C   UNL A   1      37.385  34.315  33.906  1.00  0.00     0.029 A 
ATOM     41  C   UNL A   1      37.945  33.223  33.257  1.00  0.00     0.049 A 
ATOM     42  H   UNL A   1      39.523  31.975  33.888  1.00  0.00     0.167 HD
ATOM     43  C   UNL A   1      38.171  31.590  31.390  1.00  0.00     0.074 A 
ATOM     44  C   UNL A   1      37.769  31.040  30.109  1.00  0.00     0.031 C 
ATOM     45  C   UNL A   1      37.578  32.658  31.980  1.00  0.00     0.037 A 
BRANCH  32  46
ATOM     46  C   UNL A   1      39.938  34.236  37.491  1.00  0.00     0.058 A 
ATOM     47  C   UNL A   1      39.177  33.946  38.634  1.00  0.00     0.135 A 
ATOM     48  C   UNL A   1      40.691  35.423  37.492  1.00  0.00     0.135 A 
ATOM     49  F   UNL A   1      38.418  32.839  38.677  1.00  0.00    -0.206 F 
ATOM     50  C   UNL A   1      39.143  34.810  39.725  1.00  0.00     0.059 A 
ATOM     51  C   UNL A   1      40.696  36.286  38.584  1.00  0.00     0.059 A 
ATOM     52  F   UNL A   1      41.429  35.756  36.422  1.00  0.00    -0.206 F 
ATOM     53  C   UNL A   1      39.907  35.978  39.690  1.00  0.00     0.060 A 
BRANCH  53  54
ATOM     54  S   UNL A   1      39.862  37.083  41.117  1.00  0.00     0.124 S 
ATOM     55  O   UNL A   1      41.230  36.974  41.614  1.00  0.00    -0.237 OA
ATOM     56  O   UNL A   1      39.509  38.361  40.508  1.00  0.00    -0.237 OA
ATOM     57  O   UNL A   1      38.835  36.494  41.971  1.00  0.00    -0.744 OA
ENDBRANCH  53  54
ENDBRANCH  32  46
BRANCH  33  58
ATOM     58  C   UNL A   1      40.519  27.839  29.740  1.00  0.00     0.058 A 
ATOM     59  C   UNL A   1      39.579  26.806  29.615  1.00  0.00     0.135 A 
ATOM     60  C   UNL A   1      41.516  27.933  28.754  1.00  0.00     0.135 A 
ATOM     61  F   UNL A   1      38.612  26.666  30.535  1.00  0.00    -0.206 F 
ATOM     62  C   UNL A   1      39.632  25.893  28.567  1.00  0.00     0.059 A 
ATOM     63  C   UNL A   1      41.572  27.051  27.679  1.00  0.00     0.059 A 
ATOM     64  F   UNL A   1      42.437  28.907  28.817  1.00  0.00    -0.206 F 
ATOM     65  C   UNL A   1      40.631  26.026  27.600  1.00  0.00     0.060 A 
BRANCH  65  66
ATOM     66  S   UNL A   1      40.665  24.860  26.221  1.00  0.00     0.124 S 
ATOM     67  O   UNL A   1      39.269  24.443  26.155  1.00  0.00    -0.237 OA
ATOM     68  O   UNL A   1      41.134  25.699  25.123  1.00  0.00    -0.237 OA
ATOM     69  O   UNL A   1      41.607  23.839  26.667  1.00  0.00    -0.744 OA
ENDBRANCH  65  66
ENDBRANCH  33  58
BRANCH  45  70
ATOM     70  C   UNL A   1      36.467  33.331  31.225  1.00  0.00     0.058 A 
ATOM     71  C   UNL A   1      35.128  33.230  31.632  1.00  0.00     0.135 A 
ATOM     72  C   UNL A   1      36.758  34.133  30.109  1.00  0.00     0.135 A 
ATOM     73  F   UNL A   1      34.797  32.469  32.688  1.00  0.00    -0.206 F 
ATOM     74  C   UNL A   1      34.112  33.885  30.945  1.00  0.00     0.059 A 
ATOM     75  C   UNL A   1      35.762  34.822  29.428  1.00  0.00     0.059 A 
ATOM     76  F   UNL A   1      38.025  34.269  29.686  1.00  0.00    -0.206 F 
ATOM     77  C   UNL A   1      34.440  34.683  29.847  1.00  0.00     0.060 A 
BRANCH  77  78
ATOM     78  S   UNL A   1      33.115  35.557  28.990  1.00  0.00     0.124 S 
ATOM     79  O   UNL A   1      32.482  34.474  28.244  1.00  0.00    -0.237 OA
ATOM     80  O   UNL A   1      32.336  36.106  30.096  1.00  0.00    -0.237 OA
ATOM     81  O   UNL A   1      33.826  36.544  28.182  1.00  0.00    -0.744 OA
ENDBRANCH  77  78
ENDBRANCH  45  70
ENDBRANCH  19  20
ENDBRANCH  12  14
ENDBRANCH  11  12
ENDBRANCH  10  11
ENDBRANCH   9  10
ENDBRANCH   8   9
ENDBRANCH   6   8
ENDBRANCH   1   6
BRANCH   1  82
ATOM     82  N   UNL A   1      50.307  21.500  36.553  1.00  0.00    -0.341 N 
ATOM     83  C   UNL A   1      49.852  20.261  36.948  1.00  0.00     0.242 C 
ATOM     84  H   UNL A   1      51.173  21.794  36.917  1.00  0.00     0.164 HD
ATOM     85  O   UNL A   1      50.536  19.273  36.662  1.00  0.00    -0.273 OA
BRANCH  83  86
ATOM     86  C   UNL A   1      48.778  20.139  38.056  1.00  0.00     0.168 C 
ATOM     87  C   UNL A   1      47.638  19.210  37.634  1.00  0.00     0.041 C 
BRANCH  86  88
ATOM     88  N   UNL A   1      48.245  21.352  38.625  1.00  0.00    -0.343 N 
ATOM     89  C   UNL A   1      48.564  21.990  39.785  1.00  0.00     0.243 C 
ATOM     90  H   UNL A   1      47.542  21.787  38.092  1.00  0.00     0.164 HD
ATOM     91  O   UNL A   1      47.943  23.036  40.014  1.00  0.00    -0.273 OA
BRANCH  89  92
ATOM     92  C   UNL A   1      49.628  21.489  40.813  1.00  0.00     0.174 C 
BRANCH  92  93
ATOM     93  N   UNL A   1      49.383  20.033  41.026  1.00  0.00    -0.343 N 
ATOM     94  C   UNL A   1      48.328  19.236  41.355  1.00  0.00     0.240 C 
ATOM     95  H   UNL A   1      50.204  19.507  40.893  1.00  0.00     0.164 HD
ATOM     96  O   UNL A   1      48.617  18.061  41.619  1.00  0.00    -0.273 OA
BRANCH  94  97
ATOM     97  C   UNL A   1      46.836  19.670  41.389  1.00  0.00     0.219 C 
BRANCH  97  98
ATOM     98  N   UNL A   1      46.116  19.478  42.643  1.00  0.00    -0.312 N 
ATOM     99  C   UNL A   1      45.428  18.374  43.077  1.00  0.00     0.407 C 
ATOM    100  H   UNL A   1      46.126  20.244  43.262  1.00  0.00     0.167 HD
ATOM    101  O   UNL A   1      44.729  18.429  44.069  1.00  0.00    -0.225 OA
BRANCH  99 102
ATOM    102  O   UNL A   1      45.559  17.281  42.273  1.00  0.00    -0.445 OA
BRANCH 102 103
ATOM    103  C   UNL A   1      44.986  16.058  42.795  1.00  0.00     0.270 C 
BRANCH 103 104
ATOM    104  C   UNL A   1      43.723  15.625  42.093  1.00  0.00    -0.011 A 
ATOM    105  C   UNL A   1      42.767  14.868  42.784  1.00  0.00     0.007 A 
ATOM    106  C   UNL A   1      43.544  15.867  40.730  1.00  0.00     0.007 A 
ATOM    107  C   UNL A   1      41.709  14.269  42.105  1.00  0.00     0.000 A 
ATOM    108  C   UNL A   1      42.487  15.266  40.049  1.00  0.00     0.000 A 
ATOM    109  C   UNL A   1      41.585  14.450  40.732  1.00  0.00     0.000 A 
ENDBRANCH 103 104
ENDBRANCH 102 103
ENDBRANCH  99 102
ENDBRANCH  97  98
ENDBRANCH  94  97
ENDBRANCH  92  93
BRANCH  92 110
ATOM    110  C   UNL A   1      51.127  21.860  40.835  1.00  0.00     0.015 C 
ATOM    111  C   UNL A   1      51.954  22.376  39.666  1.00  0.00     0.010 C 
ATOM    112  C   UNL A   1      51.383  22.825  42.005  1.00  0.00     0.010 C 
ENDBRANCH  92 110
ENDBRANCH  89  92
ENDBRANCH  86  88
ENDBRANCH  83  86
ENDBRANCH   1  82
TORSDOF 27
ENDMDL
