MODEL 1
REMARK VINA RESULT:     -12.1      0.000      0.000
REMARK SMILES Cc1ccc2occ(/C=N/NC(=O)CCC(=O)Nc3ccc(C(=O)OCCOC(=O)c4ccc(-c5c6nc(c(-c7c(F)cc(S(=O)(=O)[O-])cc7F)c7ccc([nH]7)c(-c7c(F)cc(S(=O)(=O)[O-])cc7F)c7nc(c(-c8c(F)cc(S(=O)(=O)[O-])cc8F)c8ccc5[nH]8)C=C7)C=C6)cc4)cc3)c(=O)c2c1
REMARK SMILES IDX 25 1 23 2 24 3 22 4 19 5 20 6 98 7 21 8 97 9 18 10 16 11
REMARK SMILES IDX 17 12 15 14 14 15 12 16 11 17 13 19 10 20 9 21 8 22 1 23
REMARK SMILES IDX 2 24 3 25 102 26 4 27 101 28 5 29 99 30 6 31 100 32 7 33
REMARK SMILES IDX 26 34 27 35 28 36 29 37 30 38 31 39 32 40 96 41 33 42 95 43
REMARK SMILES IDX 34 44 35 45 36 46 89 47 37 48 94 49 88 50 90 51 38 52 93 53
REMARK SMILES IDX 87 54 86 55 39 57 73 58 52 59 72 60 53 61 56 62 71 63 91 64
REMARK SMILES IDX 54 65 55 66 70 68 92 69 57 70 40 71 41 72 50 73 42 74 43 75
REMARK SMILES IDX 49 76 51 77 44 78 45 79 46 80 47 81 48 82 74 83 75 84 84 85
REMARK SMILES IDX 76 86 77 87 83 88 85 89 78 90 79 91 80 92 81 93 82 94 58 95
REMARK SMILES IDX 59 96 68 97 60 98 61 99 67 100 69 101 62 102 63 103 64 104
REMARK SMILES IDX 65 105 66 106
REMARK H PARENT 18 13 11 18 90 56 56 67
REMARK Flexibility Score: inf
ROOT
ATOM      1  O   UNL A   1      38.783  22.284  25.650  1.00  0.00    -0.458 OA
ENDROOT
BRANCH   1   2
ATOM      2  C   UNL A   1      37.731  21.502  25.318  1.00  0.00     0.338 C 
ATOM      3  O   UNL A   1      37.737  20.524  24.594  1.00  0.00    -0.246 OA
BRANCH   2   4
ATOM      4  C   UNL A   1      36.483  22.063  25.844  1.00  0.00     0.060 A 
ATOM      5  C   UNL A   1      34.021  23.276  26.359  1.00  0.00     0.041 A 
ATOM      6  C   UNL A   1      34.142  21.884  26.408  1.00  0.00     0.027 A 
ATOM      7  C   UNL A   1      35.136  24.036  26.008  1.00  0.00     0.027 A 
ATOM      8  C   UNL A   1      35.377  21.277  26.173  1.00  0.00     0.018 A 
ATOM      9  C   UNL A   1      36.369  23.441  25.776  1.00  0.00     0.018 A 
BRANCH   5  10
ATOM     10  N   UNL A   1      32.779  23.809  26.718  1.00  0.00    -0.326 N 
ATOM     11  C   UNL A   1      31.520  23.616  26.245  1.00  0.00     0.224 C 
ATOM     12  O   UNL A   1      30.608  24.259  26.781  1.00  0.00    -0.275 OA
ATOM     13  H   UNL A   1      32.825  24.452  27.461  1.00  0.00     0.169 HD
BRANCH  11  14
ATOM     14  C   UNL A   1      31.184  22.662  25.121  1.00  0.00     0.110 C 
BRANCH  14  15
ATOM     15  C   UNL A   1      31.473  23.006  23.658  1.00  0.00     0.112 C 
BRANCH  15  16
ATOM     16  C   UNL A   1      32.738  23.722  23.183  1.00  0.00     0.240 C 
ATOM     17  N   UNL A   1      32.828  25.094  23.137  1.00  0.00    -0.247 N 
ATOM     18  H   UNL A   1      33.650  25.469  22.746  1.00  0.00     0.193 HD
ATOM     19  O   UNL A   1      33.695  23.053  22.775  1.00  0.00    -0.273 OA
BRANCH  17  20
ATOM     20  N   UNL A   1      31.899  25.986  23.574  1.00  0.00    -0.180 NA
ATOM     21  C   UNL A   1      32.320  27.203  23.651  1.00  0.00     0.148 C 
BRANCH  21  22
ATOM     22  C   UNL A   1      31.449  28.377  23.765  1.00  0.00     0.078 A 
ATOM     23  C   UNL A   1      27.766  32.185  20.482  1.00  0.00     0.044 C 
ATOM     24  C   UNL A   1      28.503  31.681  21.685  1.00  0.00    -0.050 A 
ATOM     25  C   UNL A   1      28.605  32.438  22.861  1.00  0.00     0.007 A 
ATOM     26  C   UNL A   1      29.105  30.422  21.634  1.00  0.00     0.019 A 
ATOM     27  C   UNL A   1      29.303  31.946  23.973  1.00  0.00     0.048 A 
ATOM     28  C   UNL A   1      29.835  29.960  22.730  1.00  0.00     0.066 A 
ATOM     29  C   UNL A   1      29.927  30.704  23.904  1.00  0.00     0.137 A 
ATOM     30  C   UNL A   1      30.596  28.718  22.615  1.00  0.00     0.201 A 
ATOM     31  O   UNL A   1      30.634  30.277  25.003  1.00  0.00    -0.463 OA
ATOM     32  O   UNL A   1      30.566  28.027  21.602  1.00  0.00    -0.288 OA
ATOM     33  C   UNL A   1      31.394  29.135  24.863  1.00  0.00     0.209 A 
ENDBRANCH  21  22
ENDBRANCH  17  20
ENDBRANCH  15  16
ENDBRANCH  14  15
ENDBRANCH  11  14
ENDBRANCH   5  10
ENDBRANCH   2   4
ENDBRANCH   1   2
BRANCH   1  34
ATOM     34  C   UNL A   1      39.732  21.640  26.517  1.00  0.00     0.275 C 
BRANCH  34  35
ATOM     35  C   UNL A   1      41.166  22.077  26.217  1.00  0.00     0.275 C 
BRANCH  35  36
ATOM     36  O   UNL A   1      41.594  23.146  27.084  1.00  0.00    -0.458 OA
BRANCH  36  37
ATOM     37  C   UNL A   1      41.818  24.319  26.453  1.00  0.00     0.338 C 
ATOM     38  O   UNL A   1      42.312  24.479  25.346  1.00  0.00    -0.246 OA
BRANCH  37  39
ATOM     39  C   UNL A   1      41.300  25.458  27.223  1.00  0.00     0.060 A 
ATOM     40  C   UNL A   1      41.987  26.663  27.140  1.00  0.00     0.016 A 
ATOM     41  C   UNL A   1      40.364  25.265  28.235  1.00  0.00     0.016 A 
ATOM     42  C   UNL A   1      41.895  27.594  28.163  1.00  0.00     0.010 A 
ATOM     43  C   UNL A   1      40.149  26.283  29.173  1.00  0.00     0.010 A 
ATOM     44  C   UNL A   1      40.957  27.437  29.187  1.00  0.00    -0.014 A 
BRANCH  44  45
ATOM     45  C   UNL A   1      40.873  28.448  30.281  1.00  0.00     0.031 A 
ATOM     46  C   UNL A   1      41.850  28.400  31.430  1.00  0.00     0.074 A 
ATOM     47  C   UNL A   1      39.950  29.434  30.233  1.00  0.00     0.049 A 
ATOM     48  N   UNL A   1      41.809  29.028  32.577  1.00  0.00    -0.248 NA
ATOM     49  C   UNL A   1      43.017  27.515  31.278  1.00  0.00     0.031 C 
ATOM     50  C   UNL A   1      38.986  29.649  29.150  1.00  0.00     0.029 A 
ATOM     51  N   UNL A   1      39.674  30.450  31.116  1.00  0.00    -0.354 N 
ATOM     52  C   UNL A   1      42.892  28.554  33.311  1.00  0.00     0.074 A 
ATOM     53  C   UNL A   1      43.576  27.590  32.477  1.00  0.00     0.031 C 
ATOM     54  C   UNL A   1      38.267  30.751  29.404  1.00  0.00     0.029 A 
ATOM     55  C   UNL A   1      38.620  31.245  30.725  1.00  0.00     0.049 A 
ATOM     56  H   UNL A   1      40.181  30.595  31.947  1.00  0.00     0.167 HD
ATOM     57  C   UNL A   1      43.272  28.893  34.567  1.00  0.00     0.037 A 
ATOM     58  C   UNL A   1      37.959  32.218  31.380  1.00  0.00     0.037 A 
ATOM     59  C   UNL A   1      42.618  29.909  35.353  1.00  0.00     0.049 A 
ATOM     60  C   UNL A   1      38.376  32.554  32.783  1.00  0.00     0.074 A 
ATOM     61  C   UNL A   1      42.924  30.339  36.633  1.00  0.00     0.029 A 
ATOM     62  N   UNL A   1      41.540  30.671  34.925  1.00  0.00    -0.354 N 
ATOM     63  N   UNL A   1      39.346  32.037  33.498  1.00  0.00    -0.248 NA
ATOM     64  C   UNL A   1      37.599  33.589  33.475  1.00  0.00     0.031 C 
ATOM     65  C   UNL A   1      42.005  31.330  36.994  1.00  0.00     0.029 A 
ATOM     66  C   UNL A   1      41.163  31.560  35.918  1.00  0.00     0.049 A 
ATOM     67  H   UNL A   1      41.106  30.592  34.045  1.00  0.00     0.167 HD
ATOM     68  C   UNL A   1      39.311  32.701  34.719  1.00  0.00     0.074 A 
ATOM     69  C   UNL A   1      38.234  33.666  34.635  1.00  0.00     0.031 C 
ATOM     70  C   UNL A   1      40.097  32.525  35.809  1.00  0.00     0.037 A 
BRANCH  57  71
ATOM     71  C   UNL A   1      44.416  28.137  35.189  1.00  0.00     0.058 A 
ATOM     72  C   UNL A   1      44.230  26.956  35.923  1.00  0.00     0.135 A 
ATOM     73  C   UNL A   1      45.736  28.588  35.006  1.00  0.00     0.135 A 
ATOM     74  F   UNL A   1      42.993  26.487  36.147  1.00  0.00    -0.206 F 
ATOM     75  C   UNL A   1      45.306  26.263  36.473  1.00  0.00     0.059 A 
ATOM     76  C   UNL A   1      46.828  27.894  35.520  1.00  0.00     0.059 A 
ATOM     77  F   UNL A   1      45.976  29.712  34.314  1.00  0.00    -0.206 F 
ATOM     78  C   UNL A   1      46.601  26.738  36.264  1.00  0.00     0.060 A 
BRANCH  78  79
ATOM     79  S   UNL A   1      47.987  25.820  36.972  1.00  0.00     0.124 S 
ATOM     80  O   UNL A   1      47.375  25.243  38.164  1.00  0.00    -0.237 OA
ATOM     81  O   UNL A   1      48.312  24.877  35.906  1.00  0.00    -0.237 OA
ATOM     82  O   UNL A   1      48.990  26.853  37.219  1.00  0.00    -0.744 OA
ENDBRANCH  78  79
ENDBRANCH  57  71
BRANCH  58  83
ATOM     83  C   UNL A   1      36.796  32.892  30.737  1.00  0.00     0.058 A 
ATOM     84  C   UNL A   1      35.480  32.514  31.038  1.00  0.00     0.135 A 
ATOM     85  C   UNL A   1      36.980  33.941  29.820  1.00  0.00     0.135 A 
ATOM     86  F   UNL A   1      35.250  31.513  31.899  1.00  0.00    -0.206 F 
ATOM     87  C   UNL A   1      34.389  33.140  30.443  1.00  0.00     0.059 A 
ATOM     88  C   UNL A   1      35.905  34.606  29.240  1.00  0.00     0.059 A 
ATOM     89  F   UNL A   1      38.219  34.353  29.506  1.00  0.00    -0.206 F 
ATOM     90  C   UNL A   1      34.612  34.189  29.549  1.00  0.00     0.060 A 
BRANCH  90  91
ATOM     91  S   UNL A   1      33.189  35.023  28.814  1.00  0.00     0.124 S 
ATOM     92  O   UNL A   1      32.661  33.983  27.938  1.00  0.00    -0.237 OA
ATOM     93  O   UNL A   1      32.381  35.342  29.987  1.00  0.00    -0.237 OA
ATOM     94  O   UNL A   1      33.785  36.173  28.140  1.00  0.00    -0.744 OA
ENDBRANCH  90  91
ENDBRANCH  58  83
BRANCH  70  95
ATOM     95  C   UNL A   1      39.860  33.442  36.975  1.00  0.00     0.058 A 
ATOM     96  C   UNL A   1      39.004  33.097  38.031  1.00  0.00     0.135 A 
ATOM     97  C   UNL A   1      40.526  34.677  37.044  1.00  0.00     0.135 A 
ATOM     98  F   UNL A   1      38.337  31.931  38.008  1.00  0.00    -0.206 F 
ATOM     99  C   UNL A   1      38.788  33.959  39.101  1.00  0.00     0.059 A 
ATOM    100  C   UNL A   1      40.350  35.541  38.120  1.00  0.00     0.059 A 
ATOM    101  F   UNL A   1      41.364  35.051  36.065  1.00  0.00    -0.206 F 
ATOM    102  C   UNL A   1      39.467  35.179  39.135  1.00  0.00     0.060 A 
BRANCH 102 103
ATOM    103  S   UNL A   1      39.193  36.282  40.537  1.00  0.00     0.124 S 
ATOM    104  O   UNL A   1      39.154  37.585  39.883  1.00  0.00    -0.237 OA
ATOM    105  O   UNL A   1      37.921  35.801  41.070  1.00  0.00    -0.237 OA
ATOM    106  O   UNL A   1      40.354  36.041  41.390  1.00  0.00    -0.744 OA
ENDBRANCH 102 103
ENDBRANCH  70  95
ENDBRANCH  44  45
ENDBRANCH  37  39
ENDBRANCH  36  37
ENDBRANCH  35  36
ENDBRANCH  34  35
ENDBRANCH   1  34
TORSDOF 20
ENDMDL
MODEL 2
REMARK VINA RESULT:     -12.0      1.898      3.000
REMARK SMILES Cc1ccc2occ(/C=N/NC(=O)CCC(=O)Nc3ccc(C(=O)OCCOC(=O)c4ccc(-c5c6nc(c(-c7c(F)cc(S(=O)(=O)[O-])cc7F)c7ccc([nH]7)c(-c7c(F)cc(S(=O)(=O)[O-])cc7F)c7nc(c(-c8c(F)cc(S(=O)(=O)[O-])cc8F)c8ccc5[nH]8)C=C7)C=C6)cc4)cc3)c(=O)c2c1
REMARK SMILES IDX 25 1 23 2 24 3 22 4 19 5 20 6 98 7 21 8 97 9 18 10 16 11
REMARK SMILES IDX 17 12 15 14 14 15 12 16 11 17 13 19 10 20 9 21 8 22 1 23
REMARK SMILES IDX 2 24 3 25 102 26 4 27 101 28 5 29 99 30 6 31 100 32 7 33
REMARK SMILES IDX 26 34 27 35 28 36 29 37 30 38 31 39 32 40 96 41 33 42 95 43
REMARK SMILES IDX 34 44 35 45 36 46 89 47 37 48 94 49 88 50 90 51 38 52 93 53
REMARK SMILES IDX 87 54 86 55 39 57 73 58 52 59 72 60 53 61 56 62 71 63 91 64
REMARK SMILES IDX 54 65 55 66 70 68 92 69 57 70 40 71 41 72 50 73 42 74 43 75
REMARK SMILES IDX 49 76 51 77 44 78 45 79 46 80 47 81 48 82 74 83 75 84 84 85
REMARK SMILES IDX 76 86 77 87 83 88 85 89 78 90 79 91 80 92 81 93 82 94 58 95
REMARK SMILES IDX 59 96 68 97 60 98 61 99 67 100 69 101 62 102 63 103 64 104
REMARK SMILES IDX 65 105 66 106
REMARK H PARENT 18 13 11 18 90 56 56 67
REMARK Flexibility Score: inf
ROOT
ATOM      1  O   UNL A   1      42.100  21.618  27.359  1.00  0.00    -0.458 OA
ENDROOT
BRANCH   1   2
ATOM      2  C   UNL A   1      41.140  20.667  27.358  1.00  0.00     0.338 C 
ATOM      3  O   UNL A   1      41.173  19.581  27.908  1.00  0.00    -0.246 OA
BRANCH   2   4
ATOM      4  C   UNL A   1      40.040  21.043  26.466  1.00  0.00     0.060 A 
ATOM      5  C   UNL A   1      37.656  21.464  25.073  1.00  0.00     0.041 A 
ATOM      6  C   UNL A   1      38.223  22.499  25.823  1.00  0.00     0.027 A 
ATOM      7  C   UNL A   1      38.277  20.217  25.071  1.00  0.00     0.027 A 
ATOM      8  C   UNL A   1      39.426  22.297  26.501  1.00  0.00     0.018 A 
ATOM      9  C   UNL A   1      39.476  20.007  25.739  1.00  0.00     0.018 A 
BRANCH   5  10
ATOM     10  N   UNL A   1      36.512  21.783  24.333  1.00  0.00    -0.326 N 
ATOM     11  C   UNL A   1      35.203  21.916  24.669  1.00  0.00     0.224 C 
ATOM     12  O   UNL A   1      34.411  22.204  23.762  1.00  0.00    -0.275 OA
ATOM     13  H   UNL A   1      36.691  21.942  23.379  1.00  0.00     0.169 HD
BRANCH  11  14
ATOM     14  C   UNL A   1      34.677  21.744  26.077  1.00  0.00     0.110 C 
BRANCH  14  15
ATOM     15  C   UNL A   1      33.326  21.080  26.357  1.00  0.00     0.112 C 
BRANCH  15  16
ATOM     16  C   UNL A   1      32.160  21.066  25.367  1.00  0.00     0.240 C 
ATOM     17  N   UNL A   1      31.351  22.162  25.176  1.00  0.00    -0.247 N 
ATOM     18  H   UNL A   1      30.579  22.040  24.577  1.00  0.00     0.193 HD
ATOM     19  O   UNL A   1      31.898  20.024  24.756  1.00  0.00    -0.273 OA
BRANCH  17  20
ATOM     20  N   UNL A   1      31.505  23.395  25.728  1.00  0.00    -0.180 NA
ATOM     21  C   UNL A   1      32.048  24.267  24.948  1.00  0.00     0.148 C 
BRANCH  21  22
ATOM     22  C   UNL A   1      32.018  25.716  25.174  1.00  0.00     0.078 A 
ATOM     23  C   UNL A   1      35.254  30.444  27.626  1.00  0.00     0.044 C 
ATOM     24  C   UNL A   1      34.088  29.764  26.975  1.00  0.00    -0.050 A 
ATOM     25  C   UNL A   1      32.854  30.409  26.809  1.00  0.00     0.007 A 
ATOM     26  C   UNL A   1      34.235  28.452  26.521  1.00  0.00     0.019 A 
ATOM     27  C   UNL A   1      31.777  29.750  26.200  1.00  0.00     0.048 A 
ATOM     28  C   UNL A   1      33.144  27.790  25.957  1.00  0.00     0.066 A 
ATOM     29  C   UNL A   1      31.921  28.432  25.779  1.00  0.00     0.137 A 
ATOM     30  C   UNL A   1      33.254  26.369  25.632  1.00  0.00     0.201 A 
ATOM     31  O   UNL A   1      30.827  27.811  25.223  1.00  0.00    -0.463 OA
ATOM     32  O   UNL A   1      34.300  25.747  25.780  1.00  0.00    -0.288 OA
ATOM     33  C   UNL A   1      30.925  26.457  24.975  1.00  0.00     0.209 A 
ENDBRANCH  21  22
ENDBRANCH  17  20
ENDBRANCH  15  16
ENDBRANCH  14  15
ENDBRANCH  11  14
ENDBRANCH   5  10
ENDBRANCH   2   4
ENDBRANCH   1   2
BRANCH   1  34
ATOM     34  C   UNL A   1      43.105  21.427  26.348  1.00  0.00     0.275 C 
BRANCH  34  35
ATOM     35  C   UNL A   1      43.168  22.605  25.376  1.00  0.00     0.275 C 
BRANCH  35  36
ATOM     36  O   UNL A   1      42.175  23.605  25.681  1.00  0.00    -0.458 OA
BRANCH  36  37
ATOM     37  C   UNL A   1      42.601  24.878  25.528  1.00  0.00     0.338 C 
ATOM     38  O   UNL A   1      43.373  25.301  24.678  1.00  0.00    -0.246 OA
BRANCH  37  39
ATOM     39  C   UNL A   1      41.945  25.788  26.476  1.00  0.00     0.060 A 
ATOM     40  C   UNL A   1      42.235  27.144  26.379  1.00  0.00     0.016 A 
ATOM     41  C   UNL A   1      41.320  25.295  27.618  1.00  0.00     0.016 A 
ATOM     42  C   UNL A   1      42.087  27.972  27.481  1.00  0.00     0.010 A 
ATOM     43  C   UNL A   1      41.016  26.174  28.667  1.00  0.00     0.010 A 
ATOM     44  C   UNL A   1      41.452  27.513  28.638  1.00  0.00    -0.014 A 
BRANCH  44  45
ATOM     45  C   UNL A   1      41.304  28.418  29.814  1.00  0.00     0.031 A 
ATOM     46  C   UNL A   1      42.257  28.305  30.979  1.00  0.00     0.074 A 
ATOM     47  C   UNL A   1      40.344  29.368  29.831  1.00  0.00     0.049 A 
ATOM     48  N   UNL A   1      42.166  28.826  32.176  1.00  0.00    -0.248 NA
ATOM     49  C   UNL A   1      43.462  27.483  30.778  1.00  0.00     0.031 C 
ATOM     50  C   UNL A   1      39.395  29.642  28.748  1.00  0.00     0.029 A 
ATOM     51  N   UNL A   1      40.007  30.290  30.794  1.00  0.00    -0.354 N 
ATOM     52  C   UNL A   1      43.252  28.331  32.892  1.00  0.00     0.074 A 
ATOM     53  C   UNL A   1      43.991  27.472  31.993  1.00  0.00     0.031 C 
ATOM     54  C   UNL A   1      38.626  30.688  29.080  1.00  0.00     0.029 A 
ATOM     55  C   UNL A   1      38.931  31.076  30.449  1.00  0.00     0.049 A 
ATOM     56  H   UNL A   1      40.490  30.379  31.647  1.00  0.00     0.167 HD
ATOM     57  C   UNL A   1      43.591  28.570  34.182  1.00  0.00     0.037 A 
ATOM     58  C   UNL A   1      38.217  31.960  31.170  1.00  0.00     0.037 A 
ATOM     59  C   UNL A   1      42.879  29.486  35.038  1.00  0.00     0.049 A 
ATOM     60  C   UNL A   1      38.590  32.185  32.607  1.00  0.00     0.074 A 
ATOM     61  C   UNL A   1      43.140  29.811  36.358  1.00  0.00     0.029 A 
ATOM     62  N   UNL A   1      41.780  30.241  34.652  1.00  0.00    -0.354 N 
ATOM     63  N   UNL A   1      39.565  31.643  33.297  1.00  0.00    -0.248 NA
ATOM     64  C   UNL A   1      37.756  33.123  33.368  1.00  0.00     0.031 C 
ATOM     65  C   UNL A   1      42.174  30.729  36.783  1.00  0.00     0.029 A 
ATOM     66  C   UNL A   1      41.346  31.023  35.711  1.00  0.00     0.049 A 
ATOM     67  H   UNL A   1      41.369  30.224  33.758  1.00  0.00     0.167 HD
ATOM     68  C   UNL A   1      39.477  32.194  34.571  1.00  0.00     0.074 A 
ATOM     69  C   UNL A   1      38.363  33.121  34.547  1.00  0.00     0.031 C 
ATOM     70  C   UNL A   1      40.245  31.951  35.660  1.00  0.00     0.037 A 
BRANCH  57  71
ATOM     71  C   UNL A   1      44.751  27.806  34.763  1.00  0.00     0.058 A 
ATOM     72  C   UNL A   1      46.057  28.318  34.787  1.00  0.00     0.135 A 
ATOM     73  C   UNL A   1      44.536  26.544  35.348  1.00  0.00     0.135 A 
ATOM     74  F   UNL A   1      46.326  29.508  34.228  1.00  0.00    -0.206 F 
ATOM     75  C   UNL A   1      47.111  27.600  35.348  1.00  0.00     0.059 A 
ATOM     76  C   UNL A   1      45.568  25.823  35.941  1.00  0.00     0.059 A 
ATOM     77  F   UNL A   1      43.308  26.002  35.353  1.00  0.00    -0.206 F 
ATOM     78  C   UNL A   1      46.856  26.355  35.924  1.00  0.00     0.060 A 
BRANCH  78  79
ATOM     79  S   UNL A   1      48.231  25.442  36.659  1.00  0.00     0.124 S 
ATOM     80  O   UNL A   1      49.366  26.287  36.301  1.00  0.00    -0.237 OA
ATOM     81  O   UNL A   1      47.874  25.428  38.074  1.00  0.00    -0.237 OA
ATOM     82  O   UNL A   1      48.178  24.146  35.989  1.00  0.00    -0.744 OA
ENDBRANCH  78  79
ENDBRANCH  57  71
BRANCH  58  83
ATOM     83  C   UNL A   1      37.042  32.644  30.561  1.00  0.00     0.058 A 
ATOM     84  C   UNL A   1      35.732  32.243  30.859  1.00  0.00     0.135 A 
ATOM     85  C   UNL A   1      37.207  33.725  29.678  1.00  0.00     0.135 A 
ATOM     86  F   UNL A   1      35.520  31.210  31.688  1.00  0.00    -0.206 F 
ATOM     87  C   UNL A   1      34.629  32.877  30.296  1.00  0.00     0.059 A 
ATOM     88  C   UNL A   1      36.120  34.399  29.131  1.00  0.00     0.059 A 
ATOM     89  F   UNL A   1      38.439  34.160  29.367  1.00  0.00    -0.206 F 
ATOM     90  C   UNL A   1      34.835  33.958  29.436  1.00  0.00     0.060 A 
BRANCH  90  91
ATOM     91  S   UNL A   1      33.397  34.802  28.742  1.00  0.00     0.124 S 
ATOM     92  O   UNL A   1      34.001  36.016  28.206  1.00  0.00    -0.237 OA
ATOM     93  O   UNL A   1      32.920  33.836  27.757  1.00  0.00    -0.237 OA
ATOM     94  O   UNL A   1      32.526  34.987  29.899  1.00  0.00    -0.744 OA
ENDBRANCH  90  91
ENDBRANCH  58  83
BRANCH  70  95
ATOM     95  C   UNL A   1      39.946  32.751  36.897  1.00  0.00     0.058 A 
ATOM     96  C   UNL A   1      38.846  32.466  37.720  1.00  0.00     0.135 A 
ATOM     97  C   UNL A   1      40.796  33.804  37.275  1.00  0.00     0.135 A 
ATOM     98  F   UNL A   1      37.999  31.475  37.397  1.00  0.00    -0.206 F 
ATOM     99  C   UNL A   1      38.578  33.219  38.858  1.00  0.00     0.059 A 
ATOM    100  C   UNL A   1      40.565  34.550  38.426  1.00  0.00     0.059 A 
ATOM    101  F   UNL A   1      41.868  34.111  36.529  1.00  0.00    -0.206 F 
ATOM    102  C   UNL A   1      39.443  34.260  39.201  1.00  0.00     0.060 A 
BRANCH 102 103
ATOM    103  S   UNL A   1      39.095  35.218  40.690  1.00  0.00     0.124 S 
ATOM    104  O   UNL A   1      38.157  34.346  41.388  1.00  0.00    -0.237 OA
ATOM    105  O   UNL A   1      40.415  35.346  41.297  1.00  0.00    -0.237 OA
ATOM    106  O   UNL A   1      38.528  36.460  40.169  1.00  0.00    -0.744 OA
ENDBRANCH 102 103
ENDBRANCH  70  95
ENDBRANCH  44  45
ENDBRANCH  37  39
ENDBRANCH  36  37
ENDBRANCH  35  36
ENDBRANCH  34  35
ENDBRANCH   1  34
TORSDOF 20
ENDMDL
MODEL 3
REMARK VINA RESULT:     -11.8      1.914      8.304
REMARK SMILES Cc1ccc2occ(/C=N/NC(=O)CCC(=O)Nc3ccc(C(=O)OCCOC(=O)c4ccc(-c5c6nc(c(-c7c(F)cc(S(=O)(=O)[O-])cc7F)c7ccc([nH]7)c(-c7c(F)cc(S(=O)(=O)[O-])cc7F)c7nc(c(-c8c(F)cc(S(=O)(=O)[O-])cc8F)c8ccc5[nH]8)C=C7)C=C6)cc4)cc3)c(=O)c2c1
REMARK SMILES IDX 25 1 23 2 24 3 22 4 19 5 20 6 98 7 21 8 97 9 18 10 16 11
REMARK SMILES IDX 17 12 15 14 14 15 12 16 11 17 13 19 10 20 9 21 8 22 1 23
REMARK SMILES IDX 2 24 3 25 102 26 4 27 101 28 5 29 99 30 6 31 100 32 7 33
REMARK SMILES IDX 26 34 27 35 28 36 29 37 30 38 31 39 32 40 96 41 33 42 95 43
REMARK SMILES IDX 34 44 35 45 36 46 89 47 37 48 94 49 88 50 90 51 38 52 93 53
REMARK SMILES IDX 87 54 86 55 39 57 73 58 52 59 72 60 53 61 56 62 71 63 91 64
REMARK SMILES IDX 54 65 55 66 70 68 92 69 57 70 40 71 41 72 50 73 42 74 43 75
REMARK SMILES IDX 49 76 51 77 44 78 45 79 46 80 47 81 48 82 74 83 75 84 84 85
REMARK SMILES IDX 76 86 77 87 83 88 85 89 78 90 79 91 80 92 81 93 82 94 58 95
REMARK SMILES IDX 59 96 68 97 60 98 61 99 67 100 69 101 62 102 63 103 64 104
REMARK SMILES IDX 65 105 66 106
REMARK H PARENT 18 13 11 18 90 56 56 67
REMARK Flexibility Score: inf
ROOT
ATOM      1  O   UNL A   1      42.046  21.750  27.440  1.00  0.00    -0.458 OA
ENDROOT
BRANCH   1   2
ATOM      2  C   UNL A   1      41.223  20.695  27.251  1.00  0.00     0.338 C 
ATOM      3  O   UNL A   1      41.393  19.547  27.620  1.00  0.00    -0.246 OA
BRANCH   2   4
ATOM      4  C   UNL A   1      40.097  21.065  26.388  1.00  0.00     0.060 A 
ATOM      5  C   UNL A   1      37.672  21.480  25.066  1.00  0.00     0.041 A 
ATOM      6  C   UNL A   1      38.268  22.521  25.784  1.00  0.00     0.027 A 
ATOM      7  C   UNL A   1      38.286  20.229  25.061  1.00  0.00     0.027 A 
ATOM      8  C   UNL A   1      39.491  22.322  26.427  1.00  0.00     0.018 A 
ATOM      9  C   UNL A   1      39.505  20.022  25.694  1.00  0.00     0.018 A 
BRANCH   5  10
ATOM     10  N   UNL A   1      36.506  21.794  24.359  1.00  0.00    -0.326 N 
ATOM     11  C   UNL A   1      35.205  21.913  24.730  1.00  0.00     0.224 C 
ATOM     12  O   UNL A   1      34.388  22.202  23.846  1.00  0.00    -0.275 OA
ATOM     13  H   UNL A   1      36.659  21.964  23.402  1.00  0.00     0.169 HD
BRANCH  11  14
ATOM     14  C   UNL A   1      34.717  21.723  26.149  1.00  0.00     0.110 C 
BRANCH  14  15
ATOM     15  C   UNL A   1      33.422  20.970  26.462  1.00  0.00     0.112 C 
BRANCH  15  16
ATOM     16  C   UNL A   1      32.194  20.968  25.550  1.00  0.00     0.240 C 
ATOM     17  N   UNL A   1      31.394  22.076  25.399  1.00  0.00    -0.247 N 
ATOM     18  H   UNL A   1      30.582  21.963  24.853  1.00  0.00     0.193 HD
ATOM     19  O   UNL A   1      31.874  19.924  24.969  1.00  0.00    -0.273 OA
BRANCH  17  20
ATOM     20  N   UNL A   1      31.606  23.312  25.926  1.00  0.00    -0.180 NA
ATOM     21  C   UNL A   1      32.012  24.193  25.077  1.00  0.00     0.148 C 
BRANCH  21  22
ATOM     22  C   UNL A   1      31.989  25.641  25.309  1.00  0.00     0.078 A 
ATOM     23  C   UNL A   1      35.301  30.359  27.681  1.00  0.00     0.044 C 
ATOM     24  C   UNL A   1      34.116  29.682  27.063  1.00  0.00    -0.050 A 
ATOM     25  C   UNL A   1      32.877  30.328  26.936  1.00  0.00     0.007 A 
ATOM     26  C   UNL A   1      34.247  28.371  26.600  1.00  0.00     0.019 A 
ATOM     27  C   UNL A   1      31.782  29.672  26.357  1.00  0.00     0.048 A 
ATOM     28  C   UNL A   1      33.140  27.712  26.065  1.00  0.00     0.066 A 
ATOM     29  C   UNL A   1      31.913  28.355  25.926  1.00  0.00     0.137 A 
ATOM     30  C   UNL A   1      33.240  26.293  25.732  1.00  0.00     0.201 A 
ATOM     31  O   UNL A   1      30.802  27.737  25.401  1.00  0.00    -0.463 OA
ATOM     32  O   UNL A   1      34.289  25.669  25.847  1.00  0.00    -0.288 OA
ATOM     33  C   UNL A   1      30.892  26.384  25.145  1.00  0.00     0.209 A 
ENDBRANCH  21  22
ENDBRANCH  17  20
ENDBRANCH  15  16
ENDBRANCH  14  15
ENDBRANCH  11  14
ENDBRANCH   5  10
ENDBRANCH   2   4
ENDBRANCH   1   2
BRANCH   1  34
ATOM     34  C   UNL A   1      43.168  21.777  26.540  1.00  0.00     0.275 C 
BRANCH  34  35
ATOM     35  C   UNL A   1      43.209  23.066  25.719  1.00  0.00     0.275 C 
BRANCH  35  36
ATOM     36  O   UNL A   1      42.243  24.029  26.183  1.00  0.00    -0.458 OA
BRANCH  36  37
ATOM     37  C   UNL A   1      42.596  25.316  25.979  1.00  0.00     0.338 C 
ATOM     38  O   UNL A   1      43.324  25.751  25.097  1.00  0.00    -0.246 OA
BRANCH  37  39
ATOM     39  C   UNL A   1      41.917  26.222  26.915  1.00  0.00     0.060 A 
ATOM     40  C   UNL A   1      42.476  27.477  27.124  1.00  0.00     0.016 A 
ATOM     41  C   UNL A   1      40.950  25.742  27.793  1.00  0.00     0.016 A 
ATOM     42  C   UNL A   1      42.226  28.168  28.300  1.00  0.00     0.010 A 
ATOM     43  C   UNL A   1      40.574  26.524  28.894  1.00  0.00     0.010 A 
ATOM     44  C   UNL A   1      41.253  27.721  29.196  1.00  0.00    -0.014 A 
BRANCH  44  45
ATOM     45  C   UNL A   1      40.999  28.477  30.458  1.00  0.00     0.031 A 
ATOM     46  C   UNL A   1      39.867  29.472  30.528  1.00  0.00     0.074 A 
ATOM     47  C   UNL A   1      41.754  28.249  31.555  1.00  0.00     0.049 A 
ATOM     48  N   UNL A   1      39.623  30.385  31.433  1.00  0.00    -0.248 NA
ATOM     49  C   UNL A   1      38.892  29.452  29.425  1.00  0.00     0.031 C 
ATOM     50  C   UNL A   1      42.837  27.268  31.658  1.00  0.00     0.029 A 
ATOM     51  N   UNL A   1      41.722  28.825  32.803  1.00  0.00    -0.354 N 
ATOM     52  C   UNL A   1      38.521  31.097  30.970  1.00  0.00     0.074 A 
ATOM     53  C   UNL A   1      38.140  30.507  29.706  1.00  0.00     0.031 C 
ATOM     54  C   UNL A   1      43.327  27.270  32.905  1.00  0.00     0.029 A 
ATOM     55  C   UNL A   1      42.690  28.342  33.654  1.00  0.00     0.049 A 
ATOM     56  H   UNL A   1      41.070  29.515  33.062  1.00  0.00     0.167 HD
ATOM     57  C   UNL A   1      37.893  32.148  31.550  1.00  0.00     0.037 A 
ATOM     58  C   UNL A   1      43.077  28.757  34.875  1.00  0.00     0.037 A 
ATOM     59  C   UNL A   1      38.245  32.674  32.845  1.00  0.00     0.049 A 
ATOM     60  C   UNL A   1      42.390  29.945  35.484  1.00  0.00     0.074 A 
ATOM     61  C   UNL A   1      37.672  33.731  33.531  1.00  0.00     0.029 A 
ATOM     62  N   UNL A   1      39.248  32.168  33.660  1.00  0.00    -0.354 N 
ATOM     63  N   UNL A   1      41.408  30.665  34.997  1.00  0.00    -0.248 NA
ATOM     64  C   UNL A   1      42.875  30.390  36.796  1.00  0.00     0.031 C 
ATOM     65  C   UNL A   1      38.355  33.891  34.741  1.00  0.00     0.029 A 
ATOM     66  C   UNL A   1      39.316  32.897  34.837  1.00  0.00     0.049 A 
ATOM     67  H   UNL A   1      39.827  31.404  33.436  1.00  0.00     0.167 HD
ATOM     68  C   UNL A   1      41.140  31.636  35.955  1.00  0.00     0.074 A 
ATOM     69  C   UNL A   1      42.054  31.398  37.054  1.00  0.00     0.031 C 
ATOM     70  C   UNL A   1      40.223  32.634  35.925  1.00  0.00     0.037 A 
BRANCH  57  71
ATOM     71  C   UNL A   1      36.793  32.830  30.778  1.00  0.00     0.058 A 
ATOM     72  C   UNL A   1      37.046  33.653  29.671  1.00  0.00     0.135 A 
ATOM     73  C   UNL A   1      35.449  32.615  31.136  1.00  0.00     0.135 A 
ATOM     74  F   UNL A   1      38.308  33.910  29.294  1.00  0.00    -0.206 F 
ATOM     75  C   UNL A   1      36.011  34.257  28.961  1.00  0.00     0.059 A 
ATOM     76  C   UNL A   1      34.399  33.183  30.421  1.00  0.00     0.059 A 
ATOM     77  F   UNL A   1      35.146  31.838  32.187  1.00  0.00    -0.206 F 
ATOM     78  C   UNL A   1      34.691  34.014  29.343  1.00  0.00     0.060 A 
BRANCH  78  79
ATOM     79  S   UNL A   1      33.360  34.794  28.403  1.00  0.00     0.124 S 
ATOM     80  O   UNL A   1      32.521  35.325  29.472  1.00  0.00    -0.237 OA
ATOM     81  O   UNL A   1      34.079  35.787  27.610  1.00  0.00    -0.237 OA
ATOM     82  O   UNL A   1      32.784  33.688  27.644  1.00  0.00    -0.744 OA
ENDBRANCH  78  79
ENDBRANCH  57  71
BRANCH  58  83
ATOM     83  C   UNL A   1      44.211  28.082  35.567  1.00  0.00     0.058 A 
ATOM     84  C   UNL A   1      43.991  27.024  36.460  1.00  0.00     0.135 A 
ATOM     85  C   UNL A   1      45.540  28.474  35.336  1.00  0.00     0.135 A 
ATOM     86  F   UNL A   1      42.740  26.618  36.723  1.00  0.00    -0.206 F 
ATOM     87  C   UNL A   1      45.044  26.387  37.109  1.00  0.00     0.059 A 
ATOM     88  C   UNL A   1      46.612  27.830  35.945  1.00  0.00     0.059 A 
ATOM     89  F   UNL A   1      45.810  29.473  34.481  1.00  0.00    -0.206 F 
ATOM     90  C   UNL A   1      46.352  26.795  36.841  1.00  0.00     0.060 A 
BRANCH  90  91
ATOM     91  S   UNL A   1      47.715  25.936  37.657  1.00  0.00     0.124 S 
ATOM     92  O   UNL A   1      47.292  24.545  37.545  1.00  0.00    -0.237 OA
ATOM     93  O   UNL A   1      48.858  26.325  36.836  1.00  0.00    -0.237 OA
ATOM     94  O   UNL A   1      47.704  26.493  39.006  1.00  0.00    -0.744 OA
ENDBRANCH  90  91
ENDBRANCH  58  83
BRANCH  70  95
ATOM     95  C   UNL A   1      40.122  33.502  37.147  1.00  0.00     0.058 A 
ATOM     96  C   UNL A   1      39.220  33.225  38.185  1.00  0.00     0.135 A 
ATOM     97  C   UNL A   1      40.965  34.617  37.289  1.00  0.00     0.135 A 
ATOM     98  F   UNL A   1      38.386  32.176  38.094  1.00  0.00    -0.206 F 
ATOM     99  C   UNL A   1      39.132  34.042  39.307  1.00  0.00     0.059 A 
ATOM    100  C   UNL A   1      40.916  35.429  38.416  1.00  0.00     0.059 A 
ATOM    101  F   UNL A   1      41.854  34.921  36.329  1.00  0.00    -0.206 F 
ATOM    102  C   UNL A   1      39.985  35.143  39.412  1.00  0.00     0.060 A 
BRANCH 102 103
ATOM    103  S   UNL A   1      39.874  36.185  40.881  1.00  0.00     0.124 S 
ATOM    104  O   UNL A   1      40.120  35.219  41.946  1.00  0.00    -0.237 OA
ATOM    105  O   UNL A   1      40.934  37.162  40.653  1.00  0.00    -0.237 OA
ATOM    106  O   UNL A   1      38.515  36.717  40.818  1.00  0.00    -0.744 OA
ENDBRANCH 102 103
ENDBRANCH  70  95
ENDBRANCH  44  45
ENDBRANCH  37  39
ENDBRANCH  36  37
ENDBRANCH  35  36
ENDBRANCH  34  35
ENDBRANCH   1  34
TORSDOF 20
ENDMDL
