MODEL 1
REMARK VINA RESULT:      -9.9      0.000      0.000
REMARK SMILES COC(=O)c1ccc([C@H]([NH3+])CC(=O)OCCOC(=O)c2ccc(-c3c4nc(c(-c5c(F)cc(S(=O)(=O)[O-])cc5F)c5ccc([nH]5)c(-c5c(F)cc(S(=O)(=O)[O-])cc5F)c5nc(c(-c6c(F)cc(S(=O)(=O)[O-])cc6F)c6ccc3[nH]6)C=C5)C=C4)cc2)cc1
REMARK SMILES IDX 15 1 14 2 12 3 13 4 11 5 9 6 8 7 5 8 6 9 87 10 7 11 86 12
REMARK SMILES IDX 3 13 4 14 2 15 1 16 10 17 16 21 17 22 18 23 19 24 20 25
REMARK SMILES IDX 21 26 85 27 22 28 84 29 23 30 24 31 25 32 78 33 26 34 83 35
REMARK SMILES IDX 77 36 79 37 27 38 82 39 76 40 75 41 28 43 62 44 41 45 61 46
REMARK SMILES IDX 42 47 45 48 60 49 80 50 43 51 44 52 59 54 81 55 46 56 29 57
REMARK SMILES IDX 30 58 39 59 31 60 32 61 38 62 40 63 33 64 34 65 35 66 36 67
REMARK SMILES IDX 37 68 63 69 64 70 73 71 65 72 66 73 72 74 74 75 67 76 68 77
REMARK SMILES IDX 69 78 70 79 71 80 47 81 48 82 57 83 49 84 50 85 56 86 58 87
REMARK SMILES IDX 51 88 52 89 53 90 54 91 55 92
REMARK H PARENT 10 18 10 19 10 20 79 42 45 53
REMARK Flexibility Score: inf
ROOT
ATOM      1  C   UNL A   1      33.746  34.117  28.094  1.00  0.00     0.274 C 
ENDROOT
BRANCH   1   2
ATOM      2  O   UNL A   1      32.640  34.744  28.771  1.00  0.00    -0.462 OA
BRANCH   2   3
ATOM      3  C   UNL A   1      32.944  35.445  29.897  1.00  0.00     0.312 C 
ATOM      4  O   UNL A   1      32.468  36.534  30.189  1.00  0.00    -0.252 OA
BRANCH   3   5
ATOM      5  C   UNL A   1      34.012  34.768  30.716  1.00  0.00     0.192 C 
BRANCH   5   6
ATOM      6  C   UNL A   1      33.944  35.050  32.225  1.00  0.00     0.223 C 
BRANCH   6   7
ATOM      7  C   UNL A   1      35.006  34.221  32.934  1.00  0.00     0.010 A 
ATOM      8  C   UNL A   1      36.861  32.584  34.284  1.00  0.00     0.060 A 
ATOM      9  C   UNL A   1      36.383  33.755  34.883  1.00  0.00     0.016 A 
ATOM     10  C   UNL A   1      36.419  32.235  33.003  1.00  0.00     0.016 A 
ATOM     11  C   UNL A   1      35.468  34.568  34.213  1.00  0.00     0.011 A 
ATOM     12  C   UNL A   1      35.497  33.047  32.336  1.00  0.00     0.011 A 
BRANCH   8  13
ATOM     13  C   UNL A   1      37.808  31.744  35.060  1.00  0.00     0.337 C 
ATOM     14  O   UNL A   1      37.636  31.447  36.233  1.00  0.00    -0.246 OA
BRANCH  13  15
ATOM     15  O   UNL A   1      38.875  31.401  34.300  1.00  0.00    -0.465 OA
ATOM     16  C   UNL A   1      39.896  32.398  34.244  1.00  0.00     0.282 C 
ENDBRANCH  13  15
ENDBRANCH   8  13
ENDBRANCH   6   7
BRANCH   6  17
ATOM     17  N   UNL A   1      32.622  34.799  32.812  1.00  0.00    -0.351 N 
ATOM     18  H   UNL A   1      31.941  34.646  32.068  1.00  0.00     0.345 HD
ATOM     19  H   UNL A   1      32.338  35.604  33.371  1.00  0.00     0.345 HD
ATOM     20  H   UNL A   1      32.666  33.971  33.408  1.00  0.00     0.345 HD
ENDBRANCH   6  17
ENDBRANCH   5   6
ENDBRANCH   3   5
ENDBRANCH   2   3
ENDBRANCH   1   2
BRANCH   1  21
ATOM     21  C   UNL A   1      33.474  32.643  27.776  1.00  0.00     0.275 C 
BRANCH  21  22
ATOM     22  O   UNL A   1      34.273  31.760  28.583  1.00  0.00    -0.458 OA
BRANCH  22  23
ATOM     23  C   UNL A   1      34.384  30.497  28.105  1.00  0.00     0.338 C 
ATOM     24  O   UNL A   1      33.525  29.866  27.513  1.00  0.00    -0.246 OA
BRANCH  23  25
ATOM     25  C   UNL A   1      35.765  30.013  28.277  1.00  0.00     0.060 A 
ATOM     26  C   UNL A   1      36.157  29.563  29.541  1.00  0.00     0.016 A 
ATOM     27  C   UNL A   1      36.687  30.077  27.230  1.00  0.00     0.016 A 
ATOM     28  C   UNL A   1      37.480  29.193  29.772  1.00  0.00     0.010 A 
ATOM     29  C   UNL A   1      38.014  29.696  27.462  1.00  0.00     0.010 A 
ATOM     30  C   UNL A   1      38.422  29.269  28.738  1.00  0.00    -0.014 A 
BRANCH  30  31
ATOM     31  C   UNL A   1      39.843  28.944  29.016  1.00  0.00     0.031 A 
ATOM     32  C   UNL A   1      40.739  29.974  29.644  1.00  0.00     0.074 A 
ATOM     33  C   UNL A   1      40.319  27.718  28.726  1.00  0.00     0.049 A 
ATOM     34  N   UNL A   1      42.014  29.900  29.925  1.00  0.00    -0.248 NA
ATOM     35  C   UNL A   1      40.117  31.259  30.001  1.00  0.00     0.031 C 
ATOM     36  C   UNL A   1      39.539  26.627  28.140  1.00  0.00     0.029 A 
ATOM     37  N   UNL A   1      41.573  27.186  28.883  1.00  0.00    -0.354 N 
ATOM     38  C   UNL A   1      42.354  31.129  30.477  1.00  0.00     0.074 A 
ATOM     39  C   UNL A   1      41.154  31.939  30.472  1.00  0.00     0.031 C 
ATOM     40  C   UNL A   1      40.334  25.555  27.987  1.00  0.00     0.029 A 
ATOM     41  C   UNL A   1      41.684  25.894  28.429  1.00  0.00     0.049 A 
ATOM     42  H   UNL A   1      42.324  27.683  29.284  1.00  0.00     0.167 HD
ATOM     43  C   UNL A   1      43.556  31.541  30.948  1.00  0.00     0.037 A 
ATOM     44  C   UNL A   1      42.757  25.081  28.360  1.00  0.00     0.037 A 
ATOM     45  C   UNL A   1      44.743  30.726  30.963  1.00  0.00     0.049 A 
ATOM     46  C   UNL A   1      44.087  25.573  28.864  1.00  0.00     0.074 A 
ATOM     47  C   UNL A   1      46.005  31.051  31.432  1.00  0.00     0.029 A 
ATOM     48  N   UNL A   1      44.818  29.426  30.487  1.00  0.00    -0.354 N 
ATOM     49  N   UNL A   1      44.391  26.737  29.388  1.00  0.00    -0.248 NA
ATOM     50  C   UNL A   1      45.219  24.641  28.770  1.00  0.00     0.031 C 
ATOM     51  C   UNL A   1      46.851  29.958  31.209  1.00  0.00     0.029 A 
ATOM     52  C   UNL A   1      46.106  28.938  30.639  1.00  0.00     0.049 A 
ATOM     53  H   UNL A   1      44.067  28.923  30.098  1.00  0.00     0.167 HD
ATOM     54  C   UNL A   1      45.744  26.669  29.706  1.00  0.00     0.074 A 
ATOM     55  C   UNL A   1      46.195  25.345  29.328  1.00  0.00     0.031 C 
ATOM     56  C   UNL A   1      46.539  27.615  30.261  1.00  0.00     0.037 A 
BRANCH  43  57
ATOM     57  C   UNL A   1      43.651  32.949  31.468  1.00  0.00     0.058 A 
ATOM     58  C   UNL A   1      43.480  33.248  32.829  1.00  0.00     0.135 A 
ATOM     59  C   UNL A   1      43.951  34.008  30.597  1.00  0.00     0.135 A 
ATOM     60  F   UNL A   1      43.175  32.274  33.701  1.00  0.00    -0.206 F 
ATOM     61  C   UNL A   1      43.578  34.552  33.304  1.00  0.00     0.059 A 
ATOM     62  C   UNL A   1      44.078  35.317  31.054  1.00  0.00     0.059 A 
ATOM     63  F   UNL A   1      44.124  33.778  29.286  1.00  0.00    -0.206 F 
ATOM     64  C   UNL A   1      43.876  35.581  32.408  1.00  0.00     0.060 A 
BRANCH  64  65
ATOM     65  S   UNL A   1      44.002  37.268  33.038  1.00  0.00     0.124 S 
ATOM     66  O   UNL A   1      45.372  37.288  33.540  1.00  0.00    -0.237 OA
ATOM     67  O   UNL A   1      43.755  38.069  31.843  1.00  0.00    -0.237 OA
ATOM     68  O   UNL A   1      42.959  37.330  34.056  1.00  0.00    -0.744 OA
ENDBRANCH  64  65
ENDBRANCH  43  57
BRANCH  44  69
ATOM     69  C   UNL A   1      42.618  23.719  27.782  1.00  0.00     0.058 A 
ATOM     70  C   UNL A   1      42.648  23.514  26.395  1.00  0.00     0.135 A 
ATOM     71  C   UNL A   1      42.456  22.595  28.607  1.00  0.00     0.135 A 
ATOM     72  F   UNL A   1      42.790  24.559  25.565  1.00  0.00    -0.206 F 
ATOM     73  C   UNL A   1      42.510  22.244  25.843  1.00  0.00     0.059 A 
ATOM     74  C   UNL A   1      42.342  21.313  28.081  1.00  0.00     0.059 A 
ATOM     75  F   UNL A   1      42.433  22.738  29.940  1.00  0.00    -0.206 F 
ATOM     76  C   UNL A   1      42.359  21.148  26.696  1.00  0.00     0.060 A 
BRANCH  76  77
ATOM     77  S   UNL A   1      42.230  19.497  25.976  1.00  0.00     0.124 S 
ATOM     78  O   UNL A   1      43.137  19.602  24.839  1.00  0.00    -0.237 OA
ATOM     79  O   UNL A   1      42.677  18.646  27.074  1.00  0.00    -0.237 OA
ATOM     80  O   UNL A   1      40.812  19.386  25.648  1.00  0.00    -0.744 OA
ENDBRANCH  76  77
ENDBRANCH  44  69
BRANCH  56  81
ATOM     81  C   UNL A   1      47.971  27.241  30.527  1.00  0.00     0.058 A 
ATOM     82  C   UNL A   1      49.004  27.612  29.653  1.00  0.00     0.135 A 
ATOM     83  C   UNL A   1      48.315  26.529  31.687  1.00  0.00     0.135 A 
ATOM     84  F   UNL A   1      48.727  28.288  28.527  1.00  0.00    -0.206 F 
ATOM     85  C   UNL A   1      50.327  27.263  29.905  1.00  0.00     0.059 A 
ATOM     86  C   UNL A   1      49.634  26.191  31.971  1.00  0.00     0.059 A 
ATOM     87  F   UNL A   1      47.365  26.161  32.562  1.00  0.00    -0.206 F 
ATOM     88  C   UNL A   1      50.632  26.549  31.066  1.00  0.00     0.060 A 
BRANCH  88  89
ATOM     89  S   UNL A   1      52.354  26.114  31.392  1.00  0.00     0.124 S 
ATOM     90  O   UNL A   1      52.218  24.768  31.937  1.00  0.00    -0.237 OA
ATOM     91  O   UNL A   1      52.958  26.203  30.066  1.00  0.00    -0.237 OA
ATOM     92  O   UNL A   1      52.787  27.137  32.340  1.00  0.00    -0.744 OA
ENDBRANCH  88  89
ENDBRANCH  56  81
ENDBRANCH  30  31
ENDBRANCH  23  25
ENDBRANCH  22  23
ENDBRANCH  21  22
ENDBRANCH   1  21
TORSDOF 19
ENDMDL
MODEL 2
REMARK VINA RESULT:      -9.6      5.577     12.421
REMARK SMILES COC(=O)c1ccc([C@H]([NH3+])CC(=O)OCCOC(=O)c2ccc(-c3c4nc(c(-c5c(F)cc(S(=O)(=O)[O-])cc5F)c5ccc([nH]5)c(-c5c(F)cc(S(=O)(=O)[O-])cc5F)c5nc(c(-c6c(F)cc(S(=O)(=O)[O-])cc6F)c6ccc3[nH]6)C=C5)C=C4)cc2)cc1
REMARK SMILES IDX 15 1 14 2 12 3 13 4 11 5 9 6 8 7 5 8 6 9 87 10 7 11 86 12
REMARK SMILES IDX 3 13 4 14 2 15 1 16 10 17 16 21 17 22 18 23 19 24 20 25
REMARK SMILES IDX 21 26 85 27 22 28 84 29 23 30 24 31 25 32 78 33 26 34 83 35
REMARK SMILES IDX 77 36 79 37 27 38 82 39 76 40 75 41 28 43 62 44 41 45 61 46
REMARK SMILES IDX 42 47 45 48 60 49 80 50 43 51 44 52 59 54 81 55 46 56 29 57
REMARK SMILES IDX 30 58 39 59 31 60 32 61 38 62 40 63 33 64 34 65 35 66 36 67
REMARK SMILES IDX 37 68 63 69 64 70 73 71 65 72 66 73 72 74 74 75 67 76 68 77
REMARK SMILES IDX 69 78 70 79 71 80 47 81 48 82 57 83 49 84 50 85 56 86 58 87
REMARK SMILES IDX 51 88 52 89 53 90 54 91 55 92
REMARK H PARENT 10 18 10 19 10 20 79 42 45 53
REMARK Flexibility Score: inf
ROOT
ATOM      1  C   UNL A   1      37.890  22.700  25.961  1.00  0.00     0.274 C 
ENDROOT
BRANCH   1   2
ATOM      2  O   UNL A   1      37.555  22.330  24.609  1.00  0.00    -0.462 OA
BRANCH   2   3
ATOM      3  C   UNL A   1      36.692  23.155  23.957  1.00  0.00     0.312 C 
ATOM      4  O   UNL A   1      36.614  23.260  22.740  1.00  0.00    -0.252 OA
BRANCH   3   5
ATOM      5  C   UNL A   1      35.889  24.004  24.908  1.00  0.00     0.192 C 
BRANCH   5   6
ATOM      6  C   UNL A   1      34.378  24.029  24.633  1.00  0.00     0.223 C 
BRANCH   6   7
ATOM      7  C   UNL A   1      33.850  22.601  24.625  1.00  0.00     0.010 A 
ATOM      8  C   UNL A   1      33.018  19.909  24.586  1.00  0.00     0.060 A 
ATOM      9  C   UNL A   1      32.796  20.734  23.478  1.00  0.00     0.016 A 
ATOM     10  C   UNL A   1      33.647  20.432  25.721  1.00  0.00     0.016 A 
ATOM     11  C   UNL A   1      33.205  22.068  23.499  1.00  0.00     0.011 A 
ATOM     12  C   UNL A   1      34.060  21.767  25.739  1.00  0.00     0.011 A 
BRANCH   8  13
ATOM     13  C   UNL A   1      32.590  18.490  24.492  1.00  0.00     0.337 C 
ATOM     14  O   UNL A   1      31.978  17.913  25.378  1.00  0.00    -0.246 OA
BRANCH  13  15
ATOM     15  O   UNL A   1      33.005  17.942  23.324  1.00  0.00    -0.465 OA
ATOM     16  C   UNL A   1      33.607  16.655  23.465  1.00  0.00     0.282 C 
ENDBRANCH  13  15
ENDBRANCH   8  13
ENDBRANCH   6   7
BRANCH   6  17
ATOM     17  N   UNL A   1      34.017  24.714  23.386  1.00  0.00    -0.351 N 
ATOM     18  H   UNL A   1      34.778  25.333  23.104  1.00  0.00     0.345 HD
ATOM     19  H   UNL A   1      33.169  25.262  23.531  1.00  0.00     0.345 HD
ATOM     20  H   UNL A   1      33.853  24.023  22.654  1.00  0.00     0.345 HD
ENDBRANCH   6  17
ENDBRANCH   5   6
ENDBRANCH   3   5
ENDBRANCH   2   3
ENDBRANCH   1   2
BRANCH   1  21
ATOM     21  C   UNL A   1      39.393  22.592  26.238  1.00  0.00     0.275 C 
BRANCH  21  22
ATOM     22  O   UNL A   1      39.812  23.474  27.295  1.00  0.00    -0.458 OA
BRANCH  22  23
ATOM     23  C   UNL A   1      40.315  24.660  26.880  1.00  0.00     0.338 C 
ATOM     24  O   UNL A   1      40.582  24.974  25.731  1.00  0.00    -0.246 OA
BRANCH  23  25
ATOM     25  C   UNL A   1      40.375  25.605  28.008  1.00  0.00     0.060 A 
ATOM     26  C   UNL A   1      39.266  25.701  28.854  1.00  0.00     0.016 A 
ATOM     27  C   UNL A   1      41.476  26.447  28.186  1.00  0.00     0.016 A 
ATOM     28  C   UNL A   1      39.241  26.653  29.870  1.00  0.00     0.010 A 
ATOM     29  C   UNL A   1      41.453  27.397  29.213  1.00  0.00     0.010 A 
ATOM     30  C   UNL A   1      40.329  27.517  30.049  1.00  0.00    -0.014 A 
BRANCH  30  31
ATOM     31  C   UNL A   1      40.260  28.576  31.087  1.00  0.00     0.031 A 
ATOM     32  C   UNL A   1      41.169  28.513  32.283  1.00  0.00     0.074 A 
ATOM     33  C   UNL A   1      39.401  29.603  30.942  1.00  0.00     0.049 A 
ATOM     34  N   UNL A   1      41.233  29.313  33.316  1.00  0.00    -0.248 NA
ATOM     35  C   UNL A   1      42.131  27.400  32.322  1.00  0.00     0.031 C 
ATOM     36  C   UNL A   1      38.490  29.787  29.812  1.00  0.00     0.029 A 
ATOM     37  N   UNL A   1      39.155  30.683  31.751  1.00  0.00    -0.354 N 
ATOM     38  C   UNL A   1      42.229  28.796  34.136  1.00  0.00     0.074 A 
ATOM     39  C   UNL A   1      42.727  27.601  33.490  1.00  0.00     0.031 C 
ATOM     40  C   UNL A   1      37.782  30.914  30.001  1.00  0.00     0.029 A 
ATOM     41  C   UNL A   1      38.164  31.510  31.278  1.00  0.00     0.049 A 
ATOM     42  H   UNL A   1      39.642  30.851  32.590  1.00  0.00     0.167 HD
ATOM     43  C   UNL A   1      42.686  29.278  35.317  1.00  0.00     0.037 A 
ATOM     44  C   UNL A   1      37.614  32.613  31.822  1.00  0.00     0.037 A 
ATOM     45  C   UNL A   1      42.195  30.475  35.948  1.00  0.00     0.049 A 
ATOM     46  C   UNL A   1      38.120  33.111  33.148  1.00  0.00     0.074 A 
ATOM     47  C   UNL A   1      42.605  31.052  37.139  1.00  0.00     0.029 A 
ATOM     48  N   UNL A   1      41.185  31.281  35.443  1.00  0.00    -0.354 N 
ATOM     49  N   UNL A   1      39.066  32.614  33.909  1.00  0.00    -0.248 NA
ATOM     50  C   UNL A   1      37.487  34.323  33.688  1.00  0.00     0.031 C 
ATOM     51  C   UNL A   1      41.820  32.187  37.370  1.00  0.00     0.029 A 
ATOM     52  C   UNL A   1      40.950  32.342  36.303  1.00  0.00     0.049 A 
ATOM     53  H   UNL A   1      40.707  31.123  34.598  1.00  0.00     0.167 HD
ATOM     54  C   UNL A   1      39.157  33.464  35.007  1.00  0.00     0.074 A 
ATOM     55  C   UNL A   1      38.179  34.512  34.804  1.00  0.00     0.031 C 
ATOM     56  C   UNL A   1      39.975  33.382  36.084  1.00  0.00     0.037 A 
BRANCH  43  57
ATOM     57  C   UNL A   1      43.761  28.494  36.016  1.00  0.00     0.058 A 
ATOM     58  C   UNL A   1      43.461  27.404  36.848  1.00  0.00     0.135 A 
ATOM     59  C   UNL A   1      45.115  28.816  35.822  1.00  0.00     0.135 A 
ATOM     60  F   UNL A   1      42.183  27.065  37.081  1.00  0.00    -0.206 F 
ATOM     61  C   UNL A   1      44.462  26.678  37.485  1.00  0.00     0.059 A 
ATOM     62  C   UNL A   1      46.134  28.088  36.429  1.00  0.00     0.059 A 
ATOM     63  F   UNL A   1      45.457  29.849  35.036  1.00  0.00    -0.206 F 
ATOM     64  C   UNL A   1      45.797  27.029  37.271  1.00  0.00     0.060 A 
BRANCH  64  65
ATOM     65  S   UNL A   1      47.087  26.078  38.101  1.00  0.00     0.124 S 
ATOM     66  O   UNL A   1      46.580  24.717  37.959  1.00  0.00    -0.237 OA
ATOM     67  O   UNL A   1      48.271  26.397  37.310  1.00  0.00    -0.237 OA
ATOM     68  O   UNL A   1      47.082  26.611  39.459  1.00  0.00    -0.744 OA
ENDBRANCH  64  65
ENDBRANCH  43  57
BRANCH  44  69
ATOM     69  C   UNL A   1      36.512  33.316  31.114  1.00  0.00     0.058 A 
ATOM     70  C   UNL A   1      36.761  34.092  29.973  1.00  0.00     0.135 A 
ATOM     71  C   UNL A   1      35.185  33.220  31.564  1.00  0.00     0.135 A 
ATOM     72  F   UNL A   1      38.014  34.222  29.511  1.00  0.00    -0.206 F 
ATOM     73  C   UNL A   1      35.737  34.760  29.309  1.00  0.00     0.059 A 
ATOM     74  C   UNL A   1      34.141  33.857  30.903  1.00  0.00     0.059 A 
ATOM     75  F   UNL A   1      34.894  32.479  32.644  1.00  0.00    -0.206 F 
ATOM     76  C   UNL A   1      34.429  34.635  29.781  1.00  0.00     0.060 A 
BRANCH  76  77
ATOM     77  S   UNL A   1      33.098  35.464  28.886  1.00  0.00     0.124 S 
ATOM     78  O   UNL A   1      32.295  35.995  29.982  1.00  0.00    -0.237 OA
ATOM     79  O   UNL A   1      33.826  36.449  28.092  1.00  0.00    -0.237 OA
ATOM     80  O   UNL A   1      32.487  34.383  28.119  1.00  0.00    -0.744 OA
ENDBRANCH  76  77
ENDBRANCH  44  69
BRANCH  56  81
ATOM     81  C   UNL A   1      39.874  34.477  37.110  1.00  0.00     0.058 A 
ATOM     82  C   UNL A   1      40.648  35.644  37.022  1.00  0.00     0.135 A 
ATOM     83  C   UNL A   1      38.967  34.369  38.176  1.00  0.00     0.135 A 
ATOM     84  F   UNL A   1      41.534  35.793  36.025  1.00  0.00    -0.206 F 
ATOM     85  C   UNL A   1      40.549  36.654  37.974  1.00  0.00     0.059 A 
ATOM     86  C   UNL A   1      38.833  35.377  39.125  1.00  0.00     0.059 A 
ATOM     87  F   UNL A   1      38.194  33.278  38.299  1.00  0.00    -0.206 F 
ATOM     88  C   UNL A   1      39.641  36.509  39.025  1.00  0.00     0.060 A 
BRANCH  88  89
ATOM     89  S   UNL A   1      39.508  37.832  40.247  1.00  0.00     0.124 S 
ATOM     90  O   UNL A   1      39.542  37.081  41.497  1.00  0.00    -0.237 OA
ATOM     91  O   UNL A   1      40.688  38.643  39.963  1.00  0.00    -0.237 OA
ATOM     92  O   UNL A   1      38.230  38.461  39.926  1.00  0.00    -0.744 OA
ENDBRANCH  88  89
ENDBRANCH  56  81
ENDBRANCH  30  31
ENDBRANCH  23  25
ENDBRANCH  22  23
ENDBRANCH  21  22
ENDBRANCH   1  21
TORSDOF 19
ENDMDL
MODEL 3
REMARK VINA RESULT:      -9.6      3.395      5.430
REMARK SMILES COC(=O)c1ccc([C@H]([NH3+])CC(=O)OCCOC(=O)c2ccc(-c3c4nc(c(-c5c(F)cc(S(=O)(=O)[O-])cc5F)c5ccc([nH]5)c(-c5c(F)cc(S(=O)(=O)[O-])cc5F)c5nc(c(-c6c(F)cc(S(=O)(=O)[O-])cc6F)c6ccc3[nH]6)C=C5)C=C4)cc2)cc1
REMARK SMILES IDX 15 1 14 2 12 3 13 4 11 5 9 6 8 7 5 8 6 9 87 10 7 11 86 12
REMARK SMILES IDX 3 13 4 14 2 15 1 16 10 17 16 21 17 22 18 23 19 24 20 25
REMARK SMILES IDX 21 26 85 27 22 28 84 29 23 30 24 31 25 32 78 33 26 34 83 35
REMARK SMILES IDX 77 36 79 37 27 38 82 39 76 40 75 41 28 43 62 44 41 45 61 46
REMARK SMILES IDX 42 47 45 48 60 49 80 50 43 51 44 52 59 54 81 55 46 56 29 57
REMARK SMILES IDX 30 58 39 59 31 60 32 61 38 62 40 63 33 64 34 65 35 66 36 67
REMARK SMILES IDX 37 68 63 69 64 70 73 71 65 72 66 73 72 74 74 75 67 76 68 77
REMARK SMILES IDX 69 78 70 79 71 80 47 81 48 82 57 83 49 84 50 85 56 86 58 87
REMARK SMILES IDX 51 88 52 89 53 90 54 91 55 92
REMARK H PARENT 10 18 10 19 10 20 79 42 45 53
REMARK Flexibility Score: inf
ROOT
ATOM      1  C   UNL A   1      34.171  33.538  29.053  1.00  0.00     0.274 C 
ENDROOT
BRANCH   1   2
ATOM      2  O   UNL A   1      34.019  32.799  27.826  1.00  0.00    -0.462 OA
BRANCH   2   3
ATOM      3  C   UNL A   1      32.742  32.549  27.429  1.00  0.00     0.312 C 
ATOM      4  O   UNL A   1      31.886  33.407  27.256  1.00  0.00    -0.252 OA
BRANCH   3   5
ATOM      5  C   UNL A   1      32.463  31.074  27.307  1.00  0.00     0.192 C 
BRANCH   5   6
ATOM      6  C   UNL A   1      33.574  30.261  26.626  1.00  0.00     0.223 C 
BRANCH   6   7
ATOM      7  C   UNL A   1      33.092  28.830  26.425  1.00  0.00     0.010 A 
ATOM      8  C   UNL A   1      32.263  26.147  26.190  1.00  0.00     0.060 A 
ATOM      9  C   UNL A   1      33.368  26.612  25.469  1.00  0.00     0.016 A 
ATOM     10  C   UNL A   1      31.563  27.027  27.023  1.00  0.00     0.016 A 
ATOM     11  C   UNL A   1      33.776  27.941  25.582  1.00  0.00     0.011 A 
ATOM     12  C   UNL A   1      31.976  28.357  27.139  1.00  0.00     0.011 A 
BRANCH   8  13
ATOM     13  C   UNL A   1      31.897  24.714  26.054  1.00  0.00     0.337 C 
ATOM     14  O   UNL A   1      32.205  24.032  25.087  1.00  0.00    -0.246 OA
BRANCH  13  15
ATOM     15  O   UNL A   1      31.162  24.305  27.115  1.00  0.00    -0.465 OA
ATOM     16  C   UNL A   1      30.278  23.221  26.829  1.00  0.00     0.282 C 
ENDBRANCH  13  15
ENDBRANCH   8  13
ENDBRANCH   6   7
BRANCH   6  17
ATOM     17  N   UNL A   1      34.847  30.273  27.357  1.00  0.00    -0.351 N 
ATOM     18  H   UNL A   1      34.818  30.992  28.081  1.00  0.00     0.345 HD
ATOM     19  H   UNL A   1      35.610  30.473  26.710  1.00  0.00     0.345 HD
ATOM     20  H   UNL A   1      34.999  29.362  27.790  1.00  0.00     0.345 HD
ENDBRANCH   6  17
ENDBRANCH   5   6
ENDBRANCH   3   5
ENDBRANCH   2   3
ENDBRANCH   1   2
BRANCH   1  21
ATOM     21  C   UNL A   1      34.712  32.669  30.193  1.00  0.00     0.275 C 
BRANCH  21  22
ATOM     22  O   UNL A   1      35.795  31.826  29.762  1.00  0.00    -0.458 OA
BRANCH  22  23
ATOM     23  C   UNL A   1      36.421  31.151  30.756  1.00  0.00     0.338 C 
ATOM     24  O   UNL A   1      35.986  30.939  31.876  1.00  0.00    -0.246 OA
BRANCH  23  25
ATOM     25  C   UNL A   1      37.679  30.570  30.256  1.00  0.00     0.060 A 
ATOM     26  C   UNL A   1      38.650  30.191  31.187  1.00  0.00     0.016 A 
ATOM     27  C   UNL A   1      37.935  30.475  28.887  1.00  0.00     0.016 A 
ATOM     28  C   UNL A   1      39.893  29.734  30.756  1.00  0.00     0.010 A 
ATOM     29  C   UNL A   1      39.181  30.006  28.455  1.00  0.00     0.010 A 
ATOM     30  C   UNL A   1      40.173  29.650  29.386  1.00  0.00    -0.014 A 
BRANCH  30  31
ATOM     31  C   UNL A   1      41.525  29.231  28.938  1.00  0.00     0.031 A 
ATOM     32  C   UNL A   1      42.642  30.235  28.891  1.00  0.00     0.074 A 
ATOM     33  C   UNL A   1      41.752  27.948  28.599  1.00  0.00     0.049 A 
ATOM     34  N   UNL A   1      43.878  30.080  28.491  1.00  0.00    -0.248 NA
ATOM     35  C   UNL A   1      42.327  31.596  29.354  1.00  0.00     0.031 C 
ATOM     36  C   UNL A   1      40.754  26.878  28.631  1.00  0.00     0.029 A 
ATOM     37  N   UNL A   1      42.894  27.328  28.161  1.00  0.00    -0.354 N 
ATOM     38  C   UNL A   1      44.485  31.321  28.637  1.00  0.00     0.074 A 
ATOM     39  C   UNL A   1      43.475  32.225  29.144  1.00  0.00     0.031 C 
ATOM     40  C   UNL A   1      41.329  25.733  28.228  1.00  0.00     0.029 A 
ATOM     41  C   UNL A   1      42.722  25.995  27.876  1.00  0.00     0.049 A 
ATOM     42  H   UNL A   1      43.756  27.794  28.059  1.00  0.00     0.167 HD
ATOM     43  C   UNL A   1      45.767  31.671  28.375  1.00  0.00     0.037 A 
ATOM     44  C   UNL A   1      43.584  25.091  27.371  1.00  0.00     0.037 A 
ATOM     45  C   UNL A   1      46.771  30.763  27.883  1.00  0.00     0.049 A 
ATOM     46  C   UNL A   1      44.995  25.513  27.062  1.00  0.00     0.074 A 
ATOM     47  C   UNL A   1      48.102  31.021  27.601  1.00  0.00     0.029 A 
ATOM     48  N   UNL A   1      46.556  29.422  27.599  1.00  0.00    -0.354 N 
ATOM     49  N   UNL A   1      45.555  26.690  27.211  1.00  0.00    -0.248 NA
ATOM     50  C   UNL A   1      45.893  24.483  26.520  1.00  0.00     0.031 C 
ATOM     51  C   UNL A   1      48.683  29.844  27.114  1.00  0.00     0.029 A 
ATOM     52  C   UNL A   1      47.726  28.843  27.133  1.00  0.00     0.049 A 
ATOM     53  H   UNL A   1      45.700  28.952  27.713  1.00  0.00     0.167 HD
ATOM     54  C   UNL A   1      46.877  26.536  26.801  1.00  0.00     0.074 A 
ATOM     55  C   UNL A   1      47.034  25.150  26.412  1.00  0.00     0.031 C 
ATOM     56  C   UNL A   1      47.868  27.459  26.753  1.00  0.00     0.037 A 
BRANCH  43  57
ATOM     57  C   UNL A   1      46.153  33.107  28.597  1.00  0.00     0.058 A 
ATOM     58  C   UNL A   1      46.644  33.559  29.831  1.00  0.00     0.135 A 
ATOM     59  C   UNL A   1      46.061  34.037  27.548  1.00  0.00     0.135 A 
ATOM     60  F   UNL A   1      46.735  32.716  30.872  1.00  0.00    -0.206 F 
ATOM     61  C   UNL A   1      47.007  34.888  30.027  1.00  0.00     0.059 A 
ATOM     62  C   UNL A   1      46.442  35.366  27.714  1.00  0.00     0.059 A 
ATOM     63  F   UNL A   1      45.598  33.657  26.347  1.00  0.00    -0.206 F 
ATOM     64  C   UNL A   1      46.900  35.785  28.962  1.00  0.00     0.060 A 
BRANCH  64  65
ATOM     65  S   UNL A   1      47.376  37.506  29.228  1.00  0.00     0.124 S 
ATOM     66  O   UNL A   1      48.815  37.448  28.992  1.00  0.00    -0.237 OA
ATOM     67  O   UNL A   1      46.597  38.208  28.213  1.00  0.00    -0.237 OA
ATOM     68  O   UNL A   1      46.976  37.761  30.607  1.00  0.00    -0.744 OA
ENDBRANCH  64  65
ENDBRANCH  43  57
BRANCH  44  69
ATOM     69  C   UNL A   1      43.132  23.699  27.116  1.00  0.00     0.058 A 
ATOM     70  C   UNL A   1      43.091  22.749  28.147  1.00  0.00     0.135 A 
ATOM     71  C   UNL A   1      42.726  23.292  25.835  1.00  0.00     0.135 A 
ATOM     72  F   UNL A   1      43.479  23.088  29.386  1.00  0.00    -0.206 F 
ATOM     73  C   UNL A   1      42.677  21.441  27.917  1.00  0.00     0.059 A 
ATOM     74  C   UNL A   1      42.284  21.998  25.585  1.00  0.00     0.059 A 
ATOM     75  F   UNL A   1      42.735  24.167  24.818  1.00  0.00    -0.206 F 
ATOM     76  C   UNL A   1      42.274  21.075  26.631  1.00  0.00     0.060 A 
BRANCH  76  77
ATOM     77  S   UNL A   1      41.690  19.389  26.348  1.00  0.00     0.124 S 
ATOM     78  O   UNL A   1      40.287  19.616  26.022  1.00  0.00    -0.237 OA
ATOM     79  O   UNL A   1      42.540  18.949  25.246  1.00  0.00    -0.237 OA
ATOM     80  O   UNL A   1      41.945  18.730  27.626  1.00  0.00    -0.744 OA
ENDBRANCH  76  77
ENDBRANCH  44  69
BRANCH  56  81
ATOM     81  C   UNL A   1      49.222  26.991  26.296  1.00  0.00     0.058 A 
ATOM     82  C   UNL A   1      49.627  27.101  24.957  1.00  0.00     0.135 A 
ATOM     83  C   UNL A   1      50.135  26.454  27.217  1.00  0.00     0.135 A 
ATOM     84  F   UNL A   1      48.788  27.602  24.036  1.00  0.00    -0.206 F 
ATOM     85  C   UNL A   1      50.881  26.666  24.541  1.00  0.00     0.059 A 
ATOM     86  C   UNL A   1      51.403  26.036  26.828  1.00  0.00     0.059 A 
ATOM     87  F   UNL A   1      49.801  26.339  28.512  1.00  0.00    -0.206 F 
ATOM     88  C   UNL A   1      51.762  26.131  25.484  1.00  0.00     0.060 A 
BRANCH  88  89
ATOM     89  S   UNL A   1      53.394  25.584  24.937  1.00  0.00     0.124 S 
ATOM     90  O   UNL A   1      54.269  26.311  25.850  1.00  0.00    -0.237 OA
ATOM     91  O   UNL A   1      53.326  24.139  25.141  1.00  0.00    -0.237 OA
ATOM     92  O   UNL A   1      53.443  26.011  23.542  1.00  0.00    -0.744 OA
ENDBRANCH  88  89
ENDBRANCH  56  81
ENDBRANCH  30  31
ENDBRANCH  23  25
ENDBRANCH  22  23
ENDBRANCH  21  22
ENDBRANCH   1  21
TORSDOF 19
ENDMDL
