MODEL 1
REMARK VINA RESULT:     -11.2      0.000      0.000
REMARK SMILES O=C(Cn1ccc2ccc(CO)cc21)OCCOC(=O)c1ccc(-c2c3nc(c(-c4c(F)cc(S(=O)(=O)[O-])cc4F)c4ccc([nH]4)c(-c4c(F)cc(S(=O)(=O)[O-])cc4F)c4nc(c(-c5c(F)cc(S(=O)(=O)[O-])cc5F)c5ccc2[nH]5)C=C4)C=C3)cc1
REMARK SMILES IDX 16 1 15 2 2 3 1 4 3 5 4 6 5 7 14 8 6 9 7 10 13 11 8 12 10 13
REMARK SMILES IDX 9 14 11 15 12 16 17 18 18 19 19 20 20 21 21 22 22 23 86 24
REMARK SMILES IDX 23 25 85 26 24 27 25 28 26 29 79 30 27 31 84 32 78 33 80 34
REMARK SMILES IDX 28 35 83 36 77 37 76 38 29 40 63 41 42 42 62 43 43 44 46 45
REMARK SMILES IDX 61 46 81 47 44 48 45 49 60 51 82 52 47 53 30 54 31 55 40 56
REMARK SMILES IDX 32 57 33 58 39 59 41 60 34 61 35 62 36 63 37 64 38 65 64 66
REMARK SMILES IDX 65 67 74 68 66 69 67 70 73 71 75 72 68 73 69 74 70 75 71 76
REMARK SMILES IDX 72 77 48 78 49 79 58 80 50 81 51 82 57 83 59 84 52 85 53 86
REMARK SMILES IDX 54 87 55 88 56 89
REMARK H PARENT 12 17 80 39 46 50
REMARK Flexibility Score: inf
ROOT
ATOM      1  C   UNL A   1      44.281  19.412  24.951  1.00  0.00     0.274 C 
ENDROOT
BRANCH   1   2
ATOM      2  O   UNL A   1      42.860  19.630  25.083  1.00  0.00    -0.461 OA
BRANCH   2   3
ATOM      3  C   UNL A   1      42.040  18.911  25.892  1.00  0.00     0.326 C 
ATOM      4  O   UNL A   1      42.300  17.728  26.106  1.00  0.00    -0.250 OA
BRANCH   3   5
ATOM      5  C   UNL A   1      40.767  19.533  26.379  1.00  0.00     0.244 C 
BRANCH   5   6
ATOM      6  N   UNL A   1      40.687  20.971  26.552  1.00  0.00    -0.336 N 
ATOM      7  C   UNL A   1      41.458  21.676  27.432  1.00  0.00     0.087 A 
ATOM      8  C   UNL A   1      39.583  21.724  26.159  1.00  0.00     0.049 A 
ATOM      9  C   UNL A   1      40.843  22.887  27.650  1.00  0.00     0.028 A 
ATOM     10  C   UNL A   1      39.652  22.919  26.876  1.00  0.00    -0.000 A 
ATOM     11  C   UNL A   1      38.489  21.439  25.310  1.00  0.00     0.033 A 
ATOM     12  C   UNL A   1      38.600  23.847  26.762  1.00  0.00     0.011 A 
ATOM     13  C   UNL A   1      37.428  22.363  25.227  1.00  0.00    -0.021 A 
ATOM     14  C   UNL A   1      37.497  23.557  25.949  1.00  0.00     0.007 A 
BRANCH  13  15
ATOM     15  C   UNL A   1      36.197  22.043  24.415  1.00  0.00     0.191 C 
BRANCH  15  16
ATOM     16  O   UNL A   1      35.732  23.196  23.722  1.00  0.00    -0.392 OA
ATOM     17  H   UNL A   1      35.879  23.082  22.770  1.00  0.00     0.211 HD
ENDBRANCH  15  16
ENDBRANCH  13  15
ENDBRANCH   5   6
ENDBRANCH   3   5
ENDBRANCH   2   3
ENDBRANCH   1   2
BRANCH   1  18
ATOM     18  C   UNL A   1      44.969  20.597  24.257  1.00  0.00     0.275 C 
BRANCH  18  19
ATOM     19  O   UNL A   1      44.147  21.772  24.378  1.00  0.00    -0.458 OA
BRANCH  19  20
ATOM     20  C   UNL A   1      44.791  22.964  24.562  1.00  0.00     0.338 C 
ATOM     21  O   UNL A   1      45.666  23.429  23.881  1.00  0.00    -0.246 OA
BRANCH  20  22
ATOM     22  C   UNL A   1      43.978  23.725  25.553  1.00  0.00     0.060 A 
ATOM     23  C   UNL A   1      42.937  24.565  25.150  1.00  0.00     0.016 A 
ATOM     24  C   UNL A   1      44.477  23.797  26.860  1.00  0.00     0.016 A 
ATOM     25  C   UNL A   1      42.546  25.603  25.996  1.00  0.00     0.010 A 
ATOM     26  C   UNL A   1      44.056  24.817  27.715  1.00  0.00     0.010 A 
ATOM     27  C   UNL A   1      43.156  25.779  27.259  1.00  0.00    -0.014 A 
BRANCH  27  28
ATOM     28  C   UNL A   1      42.736  26.942  28.070  1.00  0.00     0.031 A 
ATOM     29  C   UNL A   1      43.770  28.018  28.103  1.00  0.00     0.074 A 
ATOM     30  C   UNL A   1      41.537  27.153  28.665  1.00  0.00     0.049 A 
ATOM     31  N   UNL A   1      44.419  28.485  29.119  1.00  0.00    -0.248 NA
ATOM     32  C   UNL A   1      44.251  28.509  26.801  1.00  0.00     0.031 C 
ATOM     33  C   UNL A   1      40.314  26.352  28.561  1.00  0.00     0.029 A 
ATOM     34  N   UNL A   1      41.128  28.212  29.441  1.00  0.00    -0.354 N 
ATOM     35  C   UNL A   1      45.255  29.473  28.606  1.00  0.00     0.074 A 
ATOM     36  C   UNL A   1      45.237  29.323  27.174  1.00  0.00     0.031 C 
ATOM     37  C   UNL A   1      39.264  27.067  29.033  1.00  0.00     0.029 A 
ATOM     38  C   UNL A   1      39.745  28.318  29.595  1.00  0.00     0.049 A 
ATOM     39  H   UNL A   1      41.760  28.843  29.853  1.00  0.00     0.167 HD
ATOM     40  C   UNL A   1      45.735  30.490  29.371  1.00  0.00     0.037 A 
ATOM     41  C   UNL A   1      39.042  29.375  30.093  1.00  0.00     0.037 A 
ATOM     42  C   UNL A   1      45.684  30.183  30.774  1.00  0.00     0.049 A 
ATOM     43  C   UNL A   1      39.980  30.190  30.904  1.00  0.00     0.074 A 
ATOM     44  C   UNL A   1      46.242  29.213  31.582  1.00  0.00     0.029 A 
ATOM     45  N   UNL A   1      44.696  30.768  31.526  1.00  0.00    -0.354 N 
ATOM     46  N   UNL A   1      40.492  29.814  32.040  1.00  0.00    -0.248 NA
ATOM     47  C   UNL A   1      40.659  31.291  30.242  1.00  0.00     0.031 C 
ATOM     48  C   UNL A   1      45.262  28.947  32.581  1.00  0.00     0.029 A 
ATOM     49  C   UNL A   1      44.182  29.798  32.347  1.00  0.00     0.049 A 
ATOM     50  H   UNL A   1      44.410  31.709  31.484  1.00  0.00     0.167 HD
ATOM     51  C   UNL A   1      41.781  30.321  32.025  1.00  0.00     0.074 A 
ATOM     52  C   UNL A   1      41.796  31.295  30.939  1.00  0.00     0.031 C 
ATOM     53  C   UNL A   1      42.787  29.709  32.715  1.00  0.00     0.037 A 
BRANCH  40  54
ATOM     54  C   UNL A   1      45.925  31.892  28.844  1.00  0.00     0.058 A 
ATOM     55  C   UNL A   1      44.839  32.578  28.268  1.00  0.00     0.135 A 
ATOM     56  C   UNL A   1      47.196  32.478  28.638  1.00  0.00     0.135 A 
ATOM     57  F   UNL A   1      43.590  32.099  28.380  1.00  0.00    -0.206 F 
ATOM     58  C   UNL A   1      45.011  33.729  27.498  1.00  0.00     0.059 A 
ATOM     59  C   UNL A   1      47.382  33.655  27.927  1.00  0.00     0.059 A 
ATOM     60  F   UNL A   1      48.330  31.884  29.033  1.00  0.00    -0.206 F 
ATOM     61  C   UNL A   1      46.290  34.252  27.325  1.00  0.00     0.060 A 
BRANCH  61  62
ATOM     62  S   UNL A   1      46.529  35.675  26.247  1.00  0.00     0.124 S 
ATOM     63  O   UNL A   1      45.313  36.438  26.502  1.00  0.00    -0.237 OA
ATOM     64  O   UNL A   1      47.766  36.245  26.771  1.00  0.00    -0.237 OA
ATOM     65  O   UNL A   1      46.634  35.076  24.920  1.00  0.00    -0.744 OA
ENDBRANCH  61  62
ENDBRANCH  40  54
BRANCH  41  66
ATOM     66  C   UNL A   1      37.724  29.935  29.659  1.00  0.00     0.058 A 
ATOM     67  C   UNL A   1      36.810  30.470  30.593  1.00  0.00     0.135 A 
ATOM     68  C   UNL A   1      37.470  30.250  28.311  1.00  0.00     0.135 A 
ATOM     69  F   UNL A   1      36.971  30.240  31.905  1.00  0.00    -0.206 F 
ATOM     70  C   UNL A   1      35.759  31.320  30.219  1.00  0.00     0.059 A 
ATOM     71  C   UNL A   1      36.424  31.085  27.914  1.00  0.00     0.059 A 
ATOM     72  F   UNL A   1      38.297  29.836  27.338  1.00  0.00    -0.206 F 
ATOM     73  C   UNL A   1      35.590  31.643  28.875  1.00  0.00     0.060 A 
BRANCH  73  74
ATOM     74  S   UNL A   1      34.364  32.889  28.402  1.00  0.00     0.124 S 
ATOM     75  O   UNL A   1      35.167  33.828  27.625  1.00  0.00    -0.237 OA
ATOM     76  O   UNL A   1      33.398  32.100  27.644  1.00  0.00    -0.237 OA
ATOM     77  O   UNL A   1      33.881  33.395  29.684  1.00  0.00    -0.744 OA
ENDBRANCH  73  74
ENDBRANCH  41  66
BRANCH  53  78
ATOM     78  C   UNL A   1      42.424  28.690  33.764  1.00  0.00     0.058 A 
ATOM     79  C   UNL A   1      42.530  27.298  33.595  1.00  0.00     0.135 A 
ATOM     80  C   UNL A   1      42.100  29.159  35.047  1.00  0.00     0.135 A 
ATOM     81  F   UNL A   1      42.919  26.771  32.425  1.00  0.00    -0.206 F 
ATOM     82  C   UNL A   1      42.302  26.413  34.653  1.00  0.00     0.059 A 
ATOM     83  C   UNL A   1      41.900  28.297  36.121  1.00  0.00     0.059 A 
ATOM     84  F   UNL A   1      42.033  30.480  35.284  1.00  0.00    -0.206 F 
ATOM     85  C   UNL A   1      41.999  26.923  35.916  1.00  0.00     0.060 A 
BRANCH  85  86
ATOM     86  S   UNL A   1      41.822  25.784  37.305  1.00  0.00     0.124 S 
ATOM     87  O   UNL A   1      42.840  26.263  38.233  1.00  0.00    -0.237 OA
ATOM     88  O   UNL A   1      40.436  26.000  37.715  1.00  0.00    -0.237 OA
ATOM     89  O   UNL A   1      42.086  24.475  36.712  1.00  0.00    -0.744 OA
ENDBRANCH  85  86
ENDBRANCH  53  78
ENDBRANCH  27  28
ENDBRANCH  20  22
ENDBRANCH  19  20
ENDBRANCH  18  19
ENDBRANCH   1  18
TORSDOF 17
ENDMDL
MODEL 2
REMARK VINA RESULT:     -10.8      3.040     11.283
REMARK SMILES O=C(Cn1ccc2ccc(CO)cc21)OCCOC(=O)c1ccc(-c2c3nc(c(-c4c(F)cc(S(=O)(=O)[O-])cc4F)c4ccc([nH]4)c(-c4c(F)cc(S(=O)(=O)[O-])cc4F)c4nc(c(-c5c(F)cc(S(=O)(=O)[O-])cc5F)c5ccc2[nH]5)C=C4)C=C3)cc1
REMARK SMILES IDX 16 1 15 2 2 3 1 4 3 5 4 6 5 7 14 8 6 9 7 10 13 11 8 12 10 13
REMARK SMILES IDX 9 14 11 15 12 16 17 18 18 19 19 20 20 21 21 22 22 23 86 24
REMARK SMILES IDX 23 25 85 26 24 27 25 28 26 29 79 30 27 31 84 32 78 33 80 34
REMARK SMILES IDX 28 35 83 36 77 37 76 38 29 40 63 41 42 42 62 43 43 44 46 45
REMARK SMILES IDX 61 46 81 47 44 48 45 49 60 51 82 52 47 53 30 54 31 55 40 56
REMARK SMILES IDX 32 57 33 58 39 59 41 60 34 61 35 62 36 63 37 64 38 65 64 66
REMARK SMILES IDX 65 67 74 68 66 69 67 70 73 71 75 72 68 73 69 74 70 75 71 76
REMARK SMILES IDX 72 77 48 78 49 79 58 80 50 81 51 82 57 83 59 84 52 85 53 86
REMARK SMILES IDX 54 87 55 88 56 89
REMARK H PARENT 12 17 80 39 46 50
REMARK Flexibility Score: inf
ROOT
ATOM      1  C   UNL A   1      33.556  34.592  29.680  1.00  0.00     0.274 C 
ENDROOT
BRANCH   1   2
ATOM      2  O   UNL A   1      34.729  34.615  30.522  1.00  0.00    -0.461 OA
BRANCH   2   3
ATOM      3  C   UNL A   1      34.901  33.851  31.630  1.00  0.00     0.326 C 
ATOM      4  O   UNL A   1      34.302  32.779  31.714  1.00  0.00    -0.250 OA
BRANCH   3   5
ATOM      5  C   UNL A   1      35.693  34.396  32.778  1.00  0.00     0.244 C 
BRANCH   5   6
ATOM      6  N   UNL A   1      37.141  34.324  32.754  1.00  0.00    -0.336 N 
ATOM      7  C   UNL A   1      37.898  34.591  31.649  1.00  0.00     0.087 A 
ATOM      8  C   UNL A   1      37.884  33.611  33.693  1.00  0.00     0.049 A 
ATOM      9  C   UNL A   1      39.135  34.021  31.841  1.00  0.00     0.028 A 
ATOM     10  C   UNL A   1      39.131  33.382  33.110  1.00  0.00    -0.000 A 
ATOM     11  C   UNL A   1      37.554  33.075  34.959  1.00  0.00     0.033 A 
ATOM     12  C   UNL A   1      40.068  32.585  33.792  1.00  0.00     0.011 A 
ATOM     13  C   UNL A   1      38.491  32.254  35.618  1.00  0.00    -0.021 A 
ATOM     14  C   UNL A   1      39.737  32.022  35.031  1.00  0.00     0.007 A 
BRANCH  13  15
ATOM     15  C   UNL A   1      38.132  31.577  36.919  1.00  0.00     0.191 C 
BRANCH  15  16
ATOM     16  O   UNL A   1      37.716  30.235  36.695  1.00  0.00    -0.392 OA
ATOM     17  H   UNL A   1      36.938  30.231  36.116  1.00  0.00     0.211 HD
ENDBRANCH  15  16
ENDBRANCH  13  15
ENDBRANCH   5   6
ENDBRANCH   3   5
ENDBRANCH   2   3
ENDBRANCH   1   2
BRANCH   1  18
ATOM     18  C   UNL A   1      33.910  34.230  28.231  1.00  0.00     0.275 C 
BRANCH  18  19
ATOM     19  O   UNL A   1      35.045  33.345  28.217  1.00  0.00    -0.458 OA
BRANCH  19  20
ATOM     20  C   UNL A   1      34.787  32.003  28.187  1.00  0.00     0.338 C 
ATOM     21  O   UNL A   1      33.934  31.443  27.552  1.00  0.00    -0.246 OA
BRANCH  20  22
ATOM     22  C   UNL A   1      35.965  31.340  28.816  1.00  0.00     0.060 A 
ATOM     23  C   UNL A   1      37.044  32.081  29.304  1.00  0.00     0.016 A 
ATOM     24  C   UNL A   1      36.083  29.956  28.635  1.00  0.00     0.016 A 
ATOM     25  C   UNL A   1      38.288  31.462  29.413  1.00  0.00     0.010 A 
ATOM     26  C   UNL A   1      37.325  29.334  28.781  1.00  0.00     0.010 A 
ATOM     27  C   UNL A   1      38.452  30.097  29.082  1.00  0.00    -0.014 A 
BRANCH  27  28
ATOM     28  C   UNL A   1      39.815  29.529  29.158  1.00  0.00     0.031 A 
ATOM     29  C   UNL A   1      40.312  29.421  30.561  1.00  0.00     0.074 A 
ATOM     30  C   UNL A   1      40.569  29.034  28.146  1.00  0.00     0.049 A 
ATOM     31  N   UNL A   1      41.328  30.006  31.107  1.00  0.00    -0.248 NA
ATOM     32  C   UNL A   1      39.452  28.695  31.510  1.00  0.00     0.031 C 
ATOM     33  C   UNL A   1      40.190  28.820  26.747  1.00  0.00     0.029 A 
ATOM     34  N   UNL A   1      41.844  28.521  28.185  1.00  0.00    -0.354 N 
ATOM     35  C   UNL A   1      41.350  29.563  32.426  1.00  0.00     0.074 A 
ATOM     36  C   UNL A   1      40.089  28.907  32.660  1.00  0.00     0.031 C 
ATOM     37  C   UNL A   1      41.102  28.018  26.148  1.00  0.00     0.029 A 
ATOM     38  C   UNL A   1      42.199  27.763  27.068  1.00  0.00     0.049 A 
ATOM     39  H   UNL A   1      42.456  28.676  28.940  1.00  0.00     0.167 HD
ATOM     40  C   UNL A   1      42.483  29.566  33.177  1.00  0.00     0.037 A 
ATOM     41  C   UNL A   1      43.280  26.944  26.928  1.00  0.00     0.037 A 
ATOM     42  C   UNL A   1      43.477  30.464  32.655  1.00  0.00     0.049 A 
ATOM     43  C   UNL A   1      44.284  27.356  27.938  1.00  0.00     0.074 A 
ATOM     44  C   UNL A   1      43.538  31.824  32.423  1.00  0.00     0.029 A 
ATOM     45  N   UNL A   1      44.540  29.925  31.976  1.00  0.00    -0.354 N 
ATOM     46  N   UNL A   1      44.950  28.474  27.904  1.00  0.00    -0.248 NA
ATOM     47  C   UNL A   1      44.264  26.675  29.222  1.00  0.00     0.031 C 
ATOM     48  C   UNL A   1      44.334  31.969  31.251  1.00  0.00     0.029 A 
ATOM     49  C   UNL A   1      44.744  30.694  30.860  1.00  0.00     0.049 A 
ATOM     50  H   UNL A   1      45.061  29.132  32.241  1.00  0.00     0.167 HD
ATOM     51  C   UNL A   1      45.060  28.854  29.232  1.00  0.00     0.074 A 
ATOM     52  C   UNL A   1      44.703  27.666  30.000  1.00  0.00     0.031 C 
ATOM     53  C   UNL A   1      45.168  30.168  29.582  1.00  0.00     0.037 A 
BRANCH  40  54
ATOM     54  C   UNL A   1      42.802  28.487  34.184  1.00  0.00     0.058 A 
ATOM     55  C   UNL A   1      43.021  28.829  35.533  1.00  0.00     0.135 A 
ATOM     56  C   UNL A   1      43.171  27.171  33.821  1.00  0.00     0.135 A 
ATOM     57  F   UNL A   1      42.730  30.061  35.981  1.00  0.00    -0.206 F 
ATOM     58  C   UNL A   1      43.612  27.947  36.438  1.00  0.00     0.059 A 
ATOM     59  C   UNL A   1      43.704  26.258  34.719  1.00  0.00     0.059 A 
ATOM     60  F   UNL A   1      43.124  26.739  32.554  1.00  0.00    -0.206 F 
ATOM     61  C   UNL A   1      43.960  26.666  36.016  1.00  0.00     0.060 A 
BRANCH  61  62
ATOM     62  S   UNL A   1      44.818  25.561  37.150  1.00  0.00     0.124 S 
ATOM     63  O   UNL A   1      46.070  26.277  37.361  1.00  0.00    -0.237 OA
ATOM     64  O   UNL A   1      43.901  25.523  38.284  1.00  0.00    -0.237 OA
ATOM     65  O   UNL A   1      44.920  24.317  36.392  1.00  0.00    -0.744 OA
ENDBRANCH  61  62
ENDBRANCH  40  54
BRANCH  41  66
ATOM     66  C   UNL A   1      43.392  25.622  26.235  1.00  0.00     0.058 A 
ATOM     67  C   UNL A   1      44.389  25.386  25.263  1.00  0.00     0.135 A 
ATOM     68  C   UNL A   1      42.744  24.476  26.733  1.00  0.00     0.135 A 
ATOM     69  F   UNL A   1      45.077  26.409  24.736  1.00  0.00    -0.206 F 
ATOM     70  C   UNL A   1      44.766  24.094  24.867  1.00  0.00     0.059 A 
ATOM     71  C   UNL A   1      43.094  23.181  26.345  1.00  0.00     0.059 A 
ATOM     72  F   UNL A   1      41.812  24.573  27.692  1.00  0.00    -0.206 F 
ATOM     73  C   UNL A   1      44.129  22.994  25.436  1.00  0.00     0.060 A 
BRANCH  73  74
ATOM     74  S   UNL A   1      44.737  21.325  25.082  1.00  0.00     0.124 S 
ATOM     75  O   UNL A   1      43.774  20.492  25.795  1.00  0.00    -0.237 OA
ATOM     76  O   UNL A   1      44.667  21.273  23.626  1.00  0.00    -0.237 OA
ATOM     77  O   UNL A   1      46.087  21.330  25.638  1.00  0.00    -0.744 OA
ENDBRANCH  73  74
ENDBRANCH  41  66
BRANCH  53  78
ATOM     78  C   UNL A   1      45.513  31.171  28.513  1.00  0.00     0.058 A 
ATOM     79  C   UNL A   1      44.595  31.700  27.588  1.00  0.00     0.135 A 
ATOM     80  C   UNL A   1      46.800  31.733  28.533  1.00  0.00     0.135 A 
ATOM     81  F   UNL A   1      43.321  31.282  27.562  1.00  0.00    -0.206 F 
ATOM     82  C   UNL A   1      44.951  32.726  26.708  1.00  0.00     0.059 A 
ATOM     83  C   UNL A   1      47.166  32.776  27.688  1.00  0.00     0.059 A 
ATOM     84  F   UNL A   1      47.707  31.305  29.427  1.00  0.00    -0.206 F 
ATOM     85  C   UNL A   1      46.236  33.265  26.773  1.00  0.00     0.060 A 
BRANCH  85  86
ATOM     86  S   UNL A   1      46.656  34.668  25.717  1.00  0.00     0.124 S 
ATOM     87  O   UNL A   1      45.729  34.507  24.602  1.00  0.00    -0.237 OA
ATOM     88  O   UNL A   1      46.403  35.810  26.594  1.00  0.00    -0.237 OA
ATOM     89  O   UNL A   1      48.063  34.446  25.394  1.00  0.00    -0.744 OA
ENDBRANCH  85  86
ENDBRANCH  53  78
ENDBRANCH  27  28
ENDBRANCH  20  22
ENDBRANCH  19  20
ENDBRANCH  18  19
ENDBRANCH   1  18
TORSDOF 17
ENDMDL
MODEL 3
REMARK VINA RESULT:     -10.5      2.904     10.927
REMARK SMILES O=C(Cn1ccc2ccc(CO)cc21)OCCOC(=O)c1ccc(-c2c3nc(c(-c4c(F)cc(S(=O)(=O)[O-])cc4F)c4ccc([nH]4)c(-c4c(F)cc(S(=O)(=O)[O-])cc4F)c4nc(c(-c5c(F)cc(S(=O)(=O)[O-])cc5F)c5ccc2[nH]5)C=C4)C=C3)cc1
REMARK SMILES IDX 16 1 15 2 2 3 1 4 3 5 4 6 5 7 14 8 6 9 7 10 13 11 8 12 10 13
REMARK SMILES IDX 9 14 11 15 12 16 17 18 18 19 19 20 20 21 21 22 22 23 86 24
REMARK SMILES IDX 23 25 85 26 24 27 25 28 26 29 79 30 27 31 84 32 78 33 80 34
REMARK SMILES IDX 28 35 83 36 77 37 76 38 29 40 63 41 42 42 62 43 43 44 46 45
REMARK SMILES IDX 61 46 81 47 44 48 45 49 60 51 82 52 47 53 30 54 31 55 40 56
REMARK SMILES IDX 32 57 33 58 39 59 41 60 34 61 35 62 36 63 37 64 38 65 64 66
REMARK SMILES IDX 65 67 74 68 66 69 67 70 73 71 75 72 68 73 69 74 70 75 71 76
REMARK SMILES IDX 72 77 48 78 49 79 58 80 50 81 51 82 57 83 59 84 52 85 53 86
REMARK SMILES IDX 54 87 55 88 56 89
REMARK H PARENT 12 17 80 39 46 50
REMARK Flexibility Score: inf
ROOT
ATOM      1  C   UNL A   1      32.844  35.712  31.241  1.00  0.00     0.274 C 
ENDROOT
BRANCH   1   2
ATOM      2  O   UNL A   1      33.648  35.935  30.063  1.00  0.00    -0.461 OA
BRANCH   2   3
ATOM      3  C   UNL A   1      33.384  35.417  28.837  1.00  0.00     0.326 C 
ATOM      4  O   UNL A   1      32.213  35.228  28.509  1.00  0.00    -0.250 OA
BRANCH   3   5
ATOM      5  C   UNL A   1      34.521  34.956  27.978  1.00  0.00     0.244 C 
BRANCH   5   6
ATOM      6  N   UNL A   1      35.219  33.727  28.304  1.00  0.00    -0.336 N 
ATOM      7  C   UNL A   1      36.558  33.658  28.567  1.00  0.00     0.087 A 
ATOM      8  C   UNL A   1      34.716  32.463  28.003  1.00  0.00     0.049 A 
ATOM      9  C   UNL A   1      36.950  32.350  28.404  1.00  0.00     0.028 A 
ATOM     10  C   UNL A   1      35.808  31.594  28.025  1.00  0.00    -0.000 A 
ATOM     11  C   UNL A   1      33.428  32.015  27.632  1.00  0.00     0.033 A 
ATOM     12  C   UNL A   1      35.620  30.250  27.653  1.00  0.00     0.011 A 
ATOM     13  C   UNL A   1      33.259  30.674  27.233  1.00  0.00    -0.021 A 
ATOM     14  C   UNL A   1      34.354  29.807  27.252  1.00  0.00     0.007 A 
BRANCH  13  15
ATOM     15  C   UNL A   1      31.921  30.189  26.728  1.00  0.00     0.191 C 
BRANCH  15  16
ATOM     16  O   UNL A   1      31.806  30.391  25.324  1.00  0.00    -0.392 OA
ATOM     17  H   UNL A   1      31.814  29.532  24.873  1.00  0.00     0.211 HD
ENDBRANCH  15  16
ENDBRANCH  13  15
ENDBRANCH   5   6
ENDBRANCH   3   5
ENDBRANCH   2   3
ENDBRANCH   1   2
BRANCH   1  18
ATOM     18  C   UNL A   1      33.691  35.185  32.409  1.00  0.00     0.275 C 
BRANCH  18  19
ATOM     19  O   UNL A   1      34.098  33.832  32.138  1.00  0.00    -0.458 OA
BRANCH  19  20
ATOM     20  C   UNL A   1      34.976  33.260  33.016  1.00  0.00     0.338 C 
ATOM     21  O   UNL A   1      34.811  33.076  34.192  1.00  0.00    -0.246 OA
BRANCH  20  22
ATOM     22  C   UNL A   1      36.026  32.605  32.184  1.00  0.00     0.060 A 
ATOM     23  C   UNL A   1      35.899  31.279  31.763  1.00  0.00     0.016 A 
ATOM     24  C   UNL A   1      37.260  33.259  32.091  1.00  0.00     0.016 A 
ATOM     25  C   UNL A   1      37.052  30.563  31.442  1.00  0.00     0.010 A 
ATOM     26  C   UNL A   1      38.407  32.546  31.735  1.00  0.00     0.010 A 
ATOM     27  C   UNL A   1      38.325  31.175  31.496  1.00  0.00    -0.014 A 
BRANCH  27  28
ATOM     28  C   UNL A   1      39.507  30.333  31.209  1.00  0.00     0.031 A 
ATOM     29  C   UNL A   1      40.315  30.047  32.430  1.00  0.00     0.074 A 
ATOM     30  C   UNL A   1      39.848  29.750  30.034  1.00  0.00     0.049 A 
ATOM     31  N   UNL A   1      41.539  30.378  32.685  1.00  0.00    -0.248 NA
ATOM     32  C   UNL A   1      39.596  29.463  33.574  1.00  0.00     0.031 C 
ATOM     33  C   UNL A   1      39.082  29.698  28.786  1.00  0.00     0.029 A 
ATOM     34  N   UNL A   1      40.948  28.983  29.734  1.00  0.00    -0.354 N 
ATOM     35  C   UNL A   1      41.807  29.867  33.953  1.00  0.00     0.074 A 
ATOM     36  C   UNL A   1      40.540  29.475  34.513  1.00  0.00     0.031 C 
ATOM     37  C   UNL A   1      39.614  28.758  27.968  1.00  0.00     0.029 A 
ATOM     38  C   UNL A   1      40.830  28.231  28.564  1.00  0.00     0.049 A 
ATOM     39  H   UNL A   1      41.754  28.965  30.299  1.00  0.00     0.167 HD
ATOM     40  C   UNL A   1      43.070  29.594  34.376  1.00  0.00     0.037 A 
ATOM     41  C   UNL A   1      41.636  27.215  28.143  1.00  0.00     0.037 A 
ATOM     42  C   UNL A   1      44.062  30.294  33.607  1.00  0.00     0.049 A 
ATOM     43  C   UNL A   1      42.932  27.354  28.850  1.00  0.00     0.074 A 
ATOM     44  C   UNL A   1      44.351  31.622  33.366  1.00  0.00     0.029 A 
ATOM     45  N   UNL A   1      44.772  29.585  32.671  1.00  0.00    -0.354 N 
ATOM     46  N   UNL A   1      43.790  28.310  28.639  1.00  0.00    -0.248 NA
ATOM     47  C   UNL A   1      43.101  26.621  30.094  1.00  0.00     0.031 C 
ATOM     48  C   UNL A   1      44.827  31.665  32.024  1.00  0.00     0.029 A 
ATOM     49  C   UNL A   1      44.839  30.357  31.540  1.00  0.00     0.049 A 
ATOM     50  H   UNL A   1      45.161  28.688  32.790  1.00  0.00     0.167 HD
ATOM     51  C   UNL A   1      44.320  28.584  29.889  1.00  0.00     0.074 A 
ATOM     52  C   UNL A   1      43.928  27.455  30.726  1.00  0.00     0.031 C 
ATOM     53  C   UNL A   1      44.794  29.826  30.197  1.00  0.00     0.037 A 
BRANCH  40  54
ATOM     54  C   UNL A   1      43.400  28.418  35.264  1.00  0.00     0.058 A 
ATOM     55  C   UNL A   1      44.148  28.616  36.440  1.00  0.00     0.135 A 
ATOM     56  C   UNL A   1      43.245  27.072  34.859  1.00  0.00     0.135 A 
ATOM     57  F   UNL A   1      44.379  29.855  36.903  1.00  0.00    -0.206 F 
ATOM     58  C   UNL A   1      44.743  27.559  37.131  1.00  0.00     0.059 A 
ATOM     59  C   UNL A   1      43.777  26.002  35.564  1.00  0.00     0.059 A 
ATOM     60  F   UNL A   1      42.653  26.736  33.705  1.00  0.00    -0.206 F 
ATOM     61  C   UNL A   1      44.559  26.256  36.675  1.00  0.00     0.060 A 
BRANCH  61  62
ATOM     62  S   UNL A   1      45.410  24.900  37.500  1.00  0.00     0.124 S 
ATOM     63  O   UNL A   1      45.002  23.763  36.684  1.00  0.00    -0.237 OA
ATOM     64  O   UNL A   1      46.806  25.305  37.384  1.00  0.00    -0.237 OA
ATOM     65  O   UNL A   1      44.863  24.935  38.853  1.00  0.00    -0.744 OA
ENDBRANCH  61  62
ENDBRANCH  40  54
BRANCH  41  66
ATOM     66  C   UNL A   1      41.279  25.939  27.446  1.00  0.00     0.058 A 
ATOM     67  C   UNL A   1      42.157  25.341  26.516  1.00  0.00     0.135 A 
ATOM     68  C   UNL A   1      40.232  25.121  27.909  1.00  0.00     0.135 A 
ATOM     69  F   UNL A   1      43.196  26.032  26.024  1.00  0.00    -0.206 F 
ATOM     70  C   UNL A   1      42.043  23.997  26.128  1.00  0.00     0.059 A 
ATOM     71  C   UNL A   1      40.093  23.784  27.529  1.00  0.00     0.059 A 
ATOM     72  F   UNL A   1      39.363  25.565  28.830  1.00  0.00    -0.206 F 
ATOM     73  C   UNL A   1      41.021  23.218  26.663  1.00  0.00     0.060 A 
BRANCH  73  74
ATOM     74  S   UNL A   1      40.980  21.440  26.324  1.00  0.00     0.124 S 
ATOM     75  O   UNL A   1      42.081  21.284  25.379  1.00  0.00    -0.237 OA
ATOM     76  O   UNL A   1      41.194  20.867  27.649  1.00  0.00    -0.237 OA
ATOM     77  O   UNL A   1      39.647  21.230  25.766  1.00  0.00    -0.744 OA
ENDBRANCH  73  74
ENDBRANCH  41  66
BRANCH  53  78
ATOM     78  C   UNL A   1      45.057  30.794  29.073  1.00  0.00     0.058 A 
ATOM     79  C   UNL A   1      44.067  31.559  28.431  1.00  0.00     0.135 A 
ATOM     80  C   UNL A   1      46.394  31.066  28.743  1.00  0.00     0.135 A 
ATOM     81  F   UNL A   1      42.772  31.424  28.751  1.00  0.00    -0.206 F 
ATOM     82  C   UNL A   1      44.395  32.536  27.486  1.00  0.00     0.059 A 
ATOM     83  C   UNL A   1      46.744  32.055  27.829  1.00  0.00     0.059 A 
ATOM     84  F   UNL A   1      47.387  30.404  29.359  1.00  0.00    -0.206 F 
ATOM     85  C   UNL A   1      45.738  32.785  27.200  1.00  0.00     0.060 A 
BRANCH  85  86
ATOM     86  S   UNL A   1      46.162  34.126  26.068  1.00  0.00     0.124 S 
ATOM     87  O   UNL A   1      47.556  33.834  25.748  1.00  0.00    -0.237 OA
ATOM     88  O   UNL A   1      45.206  33.934  24.980  1.00  0.00    -0.237 OA
ATOM     89  O   UNL A   1      45.946  35.330  26.866  1.00  0.00    -0.744 OA
ENDBRANCH  85  86
ENDBRANCH  53  78
ENDBRANCH  27  28
ENDBRANCH  20  22
ENDBRANCH  19  20
ENDBRANCH  18  19
ENDBRANCH   1  18
TORSDOF 17
ENDMDL
