MODEL 1
REMARK VINA RESULT:     -11.4      0.000      0.000
REMARK SMILES C[C@@H](C(=O)OCCOC(=O)c1ccc(-c2c3nc(c(-c4c(F)cc(S(=O)(=O)[O-])cc4F)c4ccc([nH]4)c(-c4c(F)cc(S(=O)(=O)[O-])cc4F)c4nc(c(-c5c(F)cc(S(=O)(=O)[O-])cc5F)c5ccc2[nH]5)C=C4)C=C3)cc1)c1ccc(C[C@H]2CCCC2=O)cc1
REMARK SMILES IDX 6 1 5 2 3 3 4 4 2 5 1 6 77 7 78 8 89 9 79 10 88 11 80 12
REMARK SMILES IDX 81 13 82 14 83 15 86 16 84 17 85 18 87 19 7 20 8 21 9 22
REMARK SMILES IDX 10 23 11 24 12 25 76 26 13 27 75 28 14 29 15 30 16 31 69 32
REMARK SMILES IDX 17 33 74 34 68 35 70 36 18 37 73 38 67 39 66 40 19 42 53 43
REMARK SMILES IDX 32 44 52 45 33 46 36 47 51 48 71 49 34 50 35 51 50 53 72 54
REMARK SMILES IDX 37 55 20 56 21 57 30 58 22 59 23 60 29 61 31 62 24 63 25 64
REMARK SMILES IDX 26 65 27 66 28 67 54 68 55 69 64 70 56 71 57 72 63 73 65 74
REMARK SMILES IDX 58 75 59 76 60 77 61 78 62 79 38 80 39 81 48 82 40 83 41 84
REMARK SMILES IDX 47 85 49 86 42 87 43 88 44 89 45 90 46 91
REMARK H PARENT 70 41 36 52
REMARK Flexibility Score: inf
ROOT
ATOM      1  C   UNL A   1      38.631  21.670  25.695  1.00  0.00     0.274 C 
ENDROOT
BRANCH   1   2
ATOM      2  O   UNL A   1      37.546  22.611  25.546  1.00  0.00    -0.462 OA
BRANCH   2   3
ATOM      3  C   UNL A   1      36.328  22.089  25.224  1.00  0.00     0.313 C 
ATOM      4  O   UNL A   1      35.789  21.201  25.874  1.00  0.00    -0.252 OA
BRANCH   3   5
ATOM      5  C   UNL A   1      35.749  22.678  23.919  1.00  0.00     0.126 C 
ATOM      6  C   UNL A   1      36.824  22.831  22.833  1.00  0.00     0.025 C 
BRANCH   5   7
ATOM      7  C   UNL A   1      34.913  23.944  24.157  1.00  0.00    -0.034 A 
ATOM      8  C   UNL A   1      34.827  24.480  25.451  1.00  0.00     0.005 A 
ATOM      9  C   UNL A   1      34.225  24.621  23.139  1.00  0.00     0.005 A 
ATOM     10  C   UNL A   1      34.163  25.685  25.702  1.00  0.00     0.004 A 
ATOM     11  C   UNL A   1      33.512  25.804  23.402  1.00  0.00     0.004 A 
ATOM     12  C   UNL A   1      33.480  26.361  24.686  1.00  0.00    -0.047 A 
BRANCH  12  13
ATOM     13  C   UNL A   1      32.849  27.720  24.914  1.00  0.00     0.047 C 
BRANCH  13  14
ATOM     14  C   UNL A   1      31.343  27.812  25.178  1.00  0.00     0.060 C 
ATOM     15  C   UNL A   1      30.438  27.364  24.028  1.00  0.00     0.012 C 
ATOM     16  C   UNL A   1      30.876  26.934  26.315  1.00  0.00     0.136 C 
ATOM     17  C   UNL A   1      30.022  25.935  24.355  1.00  0.00     0.009 C 
ATOM     18  C   UNL A   1      29.880  25.897  25.870  1.00  0.00     0.076 C 
ATOM     19  O   UNL A   1      31.268  27.032  27.472  1.00  0.00    -0.299 OA
ENDBRANCH  13  14
ENDBRANCH  12  13
ENDBRANCH   5   7
ENDBRANCH   3   5
ENDBRANCH   2   3
ENDBRANCH   1   2
BRANCH   1  20
ATOM     20  C   UNL A   1      39.700  22.258  26.609  1.00  0.00     0.275 C 
BRANCH  20  21
ATOM     21  O   UNL A   1      39.627  23.691  26.548  1.00  0.00    -0.458 OA
BRANCH  21  22
ATOM     22  C   UNL A   1      40.783  24.360  26.754  1.00  0.00     0.338 C 
ATOM     23  O   UNL A   1      41.885  24.094  26.293  1.00  0.00    -0.246 OA
BRANCH  22  24
ATOM     24  C   UNL A   1      40.530  25.498  27.653  1.00  0.00     0.060 A 
ATOM     25  C   UNL A   1      41.379  26.600  27.623  1.00  0.00     0.016 A 
ATOM     26  C   UNL A   1      39.499  25.436  28.592  1.00  0.00     0.016 A 
ATOM     27  C   UNL A   1      41.238  27.604  28.578  1.00  0.00     0.010 A 
ATOM     28  C   UNL A   1      39.322  26.487  29.504  1.00  0.00     0.010 A 
ATOM     29  C   UNL A   1      40.219  27.569  29.538  1.00  0.00    -0.014 A 
BRANCH  29  30
ATOM     30  C   UNL A   1      40.159  28.610  30.611  1.00  0.00     0.031 A 
ATOM     31  C   UNL A   1      41.196  28.623  31.709  1.00  0.00     0.074 A 
ATOM     32  C   UNL A   1      39.240  29.598  30.581  1.00  0.00     0.049 A 
ATOM     33  N   UNL A   1      41.235  29.339  32.805  1.00  0.00    -0.248 NA
ATOM     34  C   UNL A   1      42.339  27.708  31.556  1.00  0.00     0.031 C 
ATOM     35  C   UNL A   1      38.231  29.790  29.539  1.00  0.00     0.029 A 
ATOM     36  N   UNL A   1      39.033  30.656  31.437  1.00  0.00    -0.354 N 
ATOM     37  C   UNL A   1      42.355  28.907  33.506  1.00  0.00     0.074 A 
ATOM     38  C   UNL A   1      42.984  27.882  32.700  1.00  0.00     0.031 C 
ATOM     39  C   UNL A   1      37.569  30.934  29.771  1.00  0.00     0.029 A 
ATOM     40  C   UNL A   1      38.026  31.504  31.034  1.00  0.00     0.049 A 
ATOM     41  H   UNL A   1      39.555  30.794  32.259  1.00  0.00     0.167 HD
ATOM     42  C   UNL A   1      42.812  29.317  34.714  1.00  0.00     0.037 A 
ATOM     43  C   UNL A   1      37.499  32.596  31.625  1.00  0.00     0.037 A 
ATOM     44  C   UNL A   1      42.233  30.387  35.484  1.00  0.00     0.049 A 
ATOM     45  C   UNL A   1      38.003  33.018  32.979  1.00  0.00     0.074 A 
ATOM     46  C   UNL A   1      42.618  30.857  36.729  1.00  0.00     0.029 A 
ATOM     47  N   UNL A   1      41.167  31.171  35.075  1.00  0.00    -0.354 N 
ATOM     48  N   UNL A   1      38.991  32.522  33.683  1.00  0.00    -0.248 NA
ATOM     49  C   UNL A   1      37.292  34.124  33.636  1.00  0.00     0.031 C 
ATOM     50  C   UNL A   1      41.767  31.910  37.083  1.00  0.00     0.029 A 
ATOM     51  C   UNL A   1      40.875  32.117  36.044  1.00  0.00     0.049 A 
ATOM     52  H   UNL A   1      40.687  31.070  34.222  1.00  0.00     0.167 HD
ATOM     53  C   UNL A   1      39.016  33.251  34.867  1.00  0.00     0.074 A 
ATOM     54  C   UNL A   1      37.965  34.242  34.772  1.00  0.00     0.031 C 
ATOM     55  C   UNL A   1      39.828  33.101  35.942  1.00  0.00     0.037 A 
BRANCH  42  56
ATOM     56  C   UNL A   1      43.968  28.564  35.309  1.00  0.00     0.058 A 
ATOM     57  C   UNL A   1      43.789  27.428  36.112  1.00  0.00     0.135 A 
ATOM     58  C   UNL A   1      45.283  28.981  35.043  1.00  0.00     0.135 A 
ATOM     59  F   UNL A   1      42.552  27.002  36.413  1.00  0.00    -0.206 F 
ATOM     60  C   UNL A   1      44.874  26.745  36.650  1.00  0.00     0.059 A 
ATOM     61  C   UNL A   1      46.383  28.300  35.551  1.00  0.00     0.059 A 
ATOM     62  F   UNL A   1      45.507  30.062  34.279  1.00  0.00    -0.206 F 
ATOM     63  C   UNL A   1      46.168  27.191  36.369  1.00  0.00     0.060 A 
BRANCH  63  64
ATOM     64  S   UNL A   1      47.570  26.300  37.076  1.00  0.00     0.124 S 
ATOM     65  O   UNL A   1      48.530  27.381  37.276  1.00  0.00    -0.237 OA
ATOM     66  O   UNL A   1      46.999  25.727  38.291  1.00  0.00    -0.237 OA
ATOM     67  O   UNL A   1      47.918  25.335  36.037  1.00  0.00    -0.744 OA
ENDBRANCH  63  64
ENDBRANCH  42  56
BRANCH  43  68
ATOM     68  C   UNL A   1      36.388  33.339  30.971  1.00  0.00     0.058 A 
ATOM     69  C   UNL A   1      36.619  34.135  29.839  1.00  0.00     0.135 A 
ATOM     70  C   UNL A   1      35.078  33.278  31.470  1.00  0.00     0.135 A 
ATOM     71  F   UNL A   1      37.860  34.251  29.341  1.00  0.00    -0.206 F 
ATOM     72  C   UNL A   1      35.592  34.853  29.230  1.00  0.00     0.059 A 
ATOM     73  C   UNL A   1      34.030  33.964  30.864  1.00  0.00     0.059 A 
ATOM     74  F   UNL A   1      34.803  32.534  32.553  1.00  0.00    -0.206 F 
ATOM     75  C   UNL A   1      34.300  34.760  29.751  1.00  0.00     0.060 A 
BRANCH  75  76
ATOM     76  S   UNL A   1      32.959  35.660  28.943  1.00  0.00     0.124 S 
ATOM     77  O   UNL A   1      32.182  36.119  30.088  1.00  0.00    -0.237 OA
ATOM     78  O   UNL A   1      33.673  36.697  28.203  1.00  0.00    -0.237 OA
ATOM     79  O   UNL A   1      32.323  34.639  28.115  1.00  0.00    -0.744 OA
ENDBRANCH  75  76
ENDBRANCH  43  68
BRANCH  55  80
ATOM     80  C   UNL A   1      39.624  34.036  37.100  1.00  0.00     0.058 A 
ATOM     81  C   UNL A   1      38.922  33.635  38.247  1.00  0.00     0.135 A 
ATOM     82  C   UNL A   1      40.177  35.327  37.085  1.00  0.00     0.135 A 
ATOM     83  F   UNL A   1      38.370  32.412  38.309  1.00  0.00    -0.206 F 
ATOM     84  C   UNL A   1      38.761  34.487  39.335  1.00  0.00     0.059 A 
ATOM     85  C   UNL A   1      40.044  36.189  38.169  1.00  0.00     0.059 A 
ATOM     86  F   UNL A   1      40.865  35.755  36.015  1.00  0.00    -0.206 F 
ATOM     87  C   UNL A   1      39.325  35.763  39.287  1.00  0.00     0.060 A 
BRANCH  87  88
ATOM     88  S   UNL A   1      39.143  36.849  40.718  1.00  0.00     0.124 S 
ATOM     89  O   UNL A   1      38.342  36.023  41.614  1.00  0.00    -0.237 OA
ATOM     90  O   UNL A   1      40.527  37.069  41.126  1.00  0.00    -0.237 OA
ATOM     91  O   UNL A   1      38.466  38.020  40.169  1.00  0.00    -0.744 OA
ENDBRANCH  87  88
ENDBRANCH  55  80
ENDBRANCH  29  30
ENDBRANCH  22  24
ENDBRANCH  21  22
ENDBRANCH  20  21
ENDBRANCH   1  20
TORSDOF 17
ENDMDL
MODEL 2
REMARK VINA RESULT:     -11.3      6.521     12.209
REMARK SMILES C[C@@H](C(=O)OCCOC(=O)c1ccc(-c2c3nc(c(-c4c(F)cc(S(=O)(=O)[O-])cc4F)c4ccc([nH]4)c(-c4c(F)cc(S(=O)(=O)[O-])cc4F)c4nc(c(-c5c(F)cc(S(=O)(=O)[O-])cc5F)c5ccc2[nH]5)C=C4)C=C3)cc1)c1ccc(C[C@H]2CCCC2=O)cc1
REMARK SMILES IDX 6 1 5 2 3 3 4 4 2 5 1 6 77 7 78 8 89 9 79 10 88 11 80 12
REMARK SMILES IDX 81 13 82 14 83 15 86 16 84 17 85 18 87 19 7 20 8 21 9 22
REMARK SMILES IDX 10 23 11 24 12 25 76 26 13 27 75 28 14 29 15 30 16 31 69 32
REMARK SMILES IDX 17 33 74 34 68 35 70 36 18 37 73 38 67 39 66 40 19 42 53 43
REMARK SMILES IDX 32 44 52 45 33 46 36 47 51 48 71 49 34 50 35 51 50 53 72 54
REMARK SMILES IDX 37 55 20 56 21 57 30 58 22 59 23 60 29 61 31 62 24 63 25 64
REMARK SMILES IDX 26 65 27 66 28 67 54 68 55 69 64 70 56 71 57 72 63 73 65 74
REMARK SMILES IDX 58 75 59 76 60 77 61 78 62 79 38 80 39 81 48 82 40 83 41 84
REMARK SMILES IDX 47 85 49 86 42 87 43 88 44 89 45 90 46 91
REMARK H PARENT 70 41 36 52
REMARK Flexibility Score: inf
ROOT
ATOM      1  C   UNL A   1      33.920  30.553  27.327  1.00  0.00     0.274 C 
ENDROOT
BRANCH   1   2
ATOM      2  O   UNL A   1      32.495  30.633  27.108  1.00  0.00    -0.462 OA
BRANCH   2   3
ATOM      3  C   UNL A   1      31.884  29.497  26.664  1.00  0.00     0.313 C 
ATOM      4  O   UNL A   1      31.281  28.729  27.404  1.00  0.00    -0.252 OA
BRANCH   3   5
ATOM      5  C   UNL A   1      32.102  29.249  25.155  1.00  0.00     0.126 C 
ATOM      6  C   UNL A   1      30.809  29.443  24.350  1.00  0.00     0.025 C 
BRANCH   5   7
ATOM      7  C   UNL A   1      32.828  27.927  24.868  1.00  0.00    -0.034 A 
ATOM      8  C   UNL A   1      33.347  27.179  25.936  1.00  0.00     0.005 A 
ATOM      9  C   UNL A   1      33.000  27.401  23.578  1.00  0.00     0.005 A 
ATOM     10  C   UNL A   1      33.926  25.921  25.736  1.00  0.00     0.004 A 
ATOM     11  C   UNL A   1      33.630  26.162  23.373  1.00  0.00     0.004 A 
ATOM     12  C   UNL A   1      34.093  25.397  24.451  1.00  0.00    -0.047 A 
BRANCH  12  13
ATOM     13  C   UNL A   1      34.617  23.993  24.222  1.00  0.00     0.047 C 
BRANCH  13  14
ATOM     14  C   UNL A   1      36.072  23.669  24.579  1.00  0.00     0.060 C 
ATOM     15  C   UNL A   1      36.294  23.040  25.957  1.00  0.00     0.012 C 
ATOM     16  C   UNL A   1      36.707  22.655  23.657  1.00  0.00     0.136 C 
ATOM     17  C   UNL A   1      36.419  21.541  25.717  1.00  0.00     0.009 C 
ATOM     18  C   UNL A   1      37.137  21.408  24.382  1.00  0.00     0.076 C 
ATOM     19  O   UNL A   1      36.848  22.810  22.450  1.00  0.00    -0.299 OA
ENDBRANCH  13  14
ENDBRANCH  12  13
ENDBRANCH   5   7
ENDBRANCH   3   5
ENDBRANCH   2   3
ENDBRANCH   1   2
BRANCH   1  20
ATOM     20  C   UNL A   1      34.404  31.818  28.026  1.00  0.00     0.275 C 
BRANCH  20  21
ATOM     21  O   UNL A   1      35.831  31.749  28.176  1.00  0.00    -0.458 OA
BRANCH  21  22
ATOM     22  C   UNL A   1      36.289  31.277  29.356  1.00  0.00     0.338 C 
ATOM     23  O   UNL A   1      35.768  31.402  30.456  1.00  0.00    -0.246 OA
BRANCH  22  24
ATOM     24  C   UNL A   1      37.558  30.566  29.133  1.00  0.00     0.060 A 
ATOM     25  C   UNL A   1      38.451  30.405  30.188  1.00  0.00     0.016 A 
ATOM     26  C   UNL A   1      37.906  30.135  27.851  1.00  0.00     0.016 A 
ATOM     27  C   UNL A   1      39.717  29.878  29.945  1.00  0.00     0.010 A 
ATOM     28  C   UNL A   1      39.158  29.539  27.632  1.00  0.00     0.010 A 
ATOM     29  C   UNL A   1      40.099  29.441  28.670  1.00  0.00    -0.014 A 
BRANCH  29  30
ATOM     30  C   UNL A   1      41.500  28.975  28.423  1.00  0.00     0.031 A 
ATOM     31  C   UNL A   1      42.659  29.917  28.645  1.00  0.00     0.074 A 
ATOM     32  C   UNL A   1      41.765  27.696  28.080  1.00  0.00     0.049 A 
ATOM     33  N   UNL A   1      43.925  29.759  28.348  1.00  0.00    -0.248 NA
ATOM     34  C   UNL A   1      42.356  31.208  29.283  1.00  0.00     0.031 C 
ATOM     35  C   UNL A   1      40.770  26.634  27.923  1.00  0.00     0.029 A 
ATOM     36  N   UNL A   1      42.962  27.062  27.841  1.00  0.00    -0.354 N 
ATOM     37  C   UNL A   1      44.551  30.953  28.686  1.00  0.00     0.074 A 
ATOM     38  C   UNL A   1      43.530  31.820  29.236  1.00  0.00     0.031 C 
ATOM     39  C   UNL A   1      41.399  25.472  27.694  1.00  0.00     0.029 A 
ATOM     40  C   UNL A   1      42.833  25.717  27.578  1.00  0.00     0.049 A 
ATOM     41  H   UNL A   1      43.830  27.526  27.856  1.00  0.00     0.167 HD
ATOM     42  C   UNL A   1      45.852  31.301  28.543  1.00  0.00     0.037 A 
ATOM     43  C   UNL A   1      43.752  24.788  27.245  1.00  0.00     0.037 A 
ATOM     44  C   UNL A   1      46.885  30.418  28.067  1.00  0.00     0.049 A 
ATOM     45  C   UNL A   1      45.188  25.201  27.065  1.00  0.00     0.074 A 
ATOM     46  C   UNL A   1      48.228  30.691  27.869  1.00  0.00     0.029 A 
ATOM     47  N   UNL A   1      46.698  29.084  27.739  1.00  0.00    -0.354 N 
ATOM     48  N   UNL A   1      45.743  26.370  27.277  1.00  0.00    -0.248 NA
ATOM     49  C   UNL A   1      46.114  24.178  26.560  1.00  0.00     0.031 C 
ATOM     50  C   UNL A   1      48.849  29.529  27.398  1.00  0.00     0.029 A 
ATOM     51  C   UNL A   1      47.899  28.524  27.335  1.00  0.00     0.049 A 
ATOM     52  H   UNL A   1      45.839  28.607  27.786  1.00  0.00     0.167 HD
ATOM     53  C   UNL A   1      47.081  26.222  26.927  1.00  0.00     0.074 A 
ATOM     54  C   UNL A   1      47.259  24.845  26.518  1.00  0.00     0.031 C 
ATOM     55  C   UNL A   1      48.068  27.151  26.930  1.00  0.00     0.037 A 
BRANCH  42  56
ATOM     56  C   UNL A   1      46.227  32.722  28.852  1.00  0.00     0.058 A 
ATOM     57  C   UNL A   1      46.674  33.121  30.121  1.00  0.00     0.135 A 
ATOM     58  C   UNL A   1      46.161  33.697  27.843  1.00  0.00     0.135 A 
ATOM     59  F   UNL A   1      46.736  32.233  31.125  1.00  0.00    -0.206 F 
ATOM     60  C   UNL A   1      47.019  34.443  30.384  1.00  0.00     0.059 A 
ATOM     61  C   UNL A   1      46.522  35.019  28.077  1.00  0.00     0.059 A 
ATOM     62  F   UNL A   1      45.740  33.366  26.612  1.00  0.00    -0.206 F 
ATOM     63  C   UNL A   1      46.935  35.386  29.356  1.00  0.00     0.060 A 
BRANCH  63  64
ATOM     64  S   UNL A   1      47.380  37.100  29.709  1.00  0.00     0.124 S 
ATOM     65  O   UNL A   1      46.095  37.772  29.549  1.00  0.00    -0.237 OA
ATOM     66  O   UNL A   1      47.887  37.019  31.076  1.00  0.00    -0.237 OA
ATOM     67  O   UNL A   1      48.381  37.407  28.692  1.00  0.00    -0.744 OA
ENDBRANCH  63  64
ENDBRANCH  42  56
BRANCH  43  68
ATOM     68  C   UNL A   1      43.338  23.380  26.998  1.00  0.00     0.058 A 
ATOM     69  C   UNL A   1      43.186  22.889  25.693  1.00  0.00     0.135 A 
ATOM     70  C   UNL A   1      43.075  22.501  28.061  1.00  0.00     0.135 A 
ATOM     71  F   UNL A   1      43.397  23.698  24.643  1.00  0.00    -0.206 F 
ATOM     72  C   UNL A   1      42.779  21.580  25.449  1.00  0.00     0.059 A 
ATOM     73  C   UNL A   1      42.693  21.182  27.843  1.00  0.00     0.059 A 
ATOM     74  F   UNL A   1      43.202  22.921  29.330  1.00  0.00    -0.206 F 
ATOM     75  C   UNL A   1      42.535  20.733  26.532  1.00  0.00     0.060 A 
BRANCH  75  76
ATOM     76  S   UNL A   1      42.042  19.024  26.219  1.00  0.00     0.124 S 
ATOM     77  O   UNL A   1      42.920  18.664  25.111  1.00  0.00    -0.237 OA
ATOM     78  O   UNL A   1      42.328  18.372  27.494  1.00  0.00    -0.237 OA
ATOM     79  O   UNL A   1      40.624  19.141  25.890  1.00  0.00    -0.744 OA
ENDBRANCH  75  76
ENDBRANCH  43  68
BRANCH  55  80
ATOM     80  C   UNL A   1      49.435  26.711  26.490  1.00  0.00     0.058 A 
ATOM     81  C   UNL A   1      50.316  26.069  27.374  1.00  0.00     0.135 A 
ATOM     82  C   UNL A   1      49.850  26.885  25.160  1.00  0.00     0.135 A 
ATOM     83  F   UNL A   1      49.968  25.883  28.658  1.00  0.00    -0.206 F 
ATOM     84  C   UNL A   1      51.570  25.630  26.960  1.00  0.00     0.059 A 
ATOM     85  C   UNL A   1      51.091  26.437  24.719  1.00  0.00     0.059 A 
ATOM     86  F   UNL A   1      49.041  27.485  24.272  1.00  0.00    -0.206 F 
ATOM     87  C   UNL A   1      51.949  25.818  25.629  1.00  0.00     0.060 A 
BRANCH  87  88
ATOM     88  S   UNL A   1      53.562  25.212  25.091  1.00  0.00     0.124 S 
ATOM     89  O   UNL A   1      53.603  25.673  23.707  1.00  0.00    -0.237 OA
ATOM     90  O   UNL A   1      54.476  25.883  26.010  1.00  0.00    -0.237 OA
ATOM     91  O   UNL A   1      53.457  23.767  25.268  1.00  0.00    -0.744 OA
ENDBRANCH  87  88
ENDBRANCH  55  80
ENDBRANCH  29  30
ENDBRANCH  22  24
ENDBRANCH  21  22
ENDBRANCH  20  21
ENDBRANCH   1  20
TORSDOF 17
ENDMDL
MODEL 3
REMARK VINA RESULT:     -11.3      1.752      8.936
REMARK SMILES C[C@@H](C(=O)OCCOC(=O)c1ccc(-c2c3nc(c(-c4c(F)cc(S(=O)(=O)[O-])cc4F)c4ccc([nH]4)c(-c4c(F)cc(S(=O)(=O)[O-])cc4F)c4nc(c(-c5c(F)cc(S(=O)(=O)[O-])cc5F)c5ccc2[nH]5)C=C4)C=C3)cc1)c1ccc(C[C@H]2CCCC2=O)cc1
REMARK SMILES IDX 6 1 5 2 3 3 4 4 2 5 1 6 77 7 78 8 89 9 79 10 88 11 80 12
REMARK SMILES IDX 81 13 82 14 83 15 86 16 84 17 85 18 87 19 7 20 8 21 9 22
REMARK SMILES IDX 10 23 11 24 12 25 76 26 13 27 75 28 14 29 15 30 16 31 69 32
REMARK SMILES IDX 17 33 74 34 68 35 70 36 18 37 73 38 67 39 66 40 19 42 53 43
REMARK SMILES IDX 32 44 52 45 33 46 36 47 51 48 71 49 34 50 35 51 50 53 72 54
REMARK SMILES IDX 37 55 20 56 21 57 30 58 22 59 23 60 29 61 31 62 24 63 25 64
REMARK SMILES IDX 26 65 27 66 28 67 54 68 55 69 64 70 56 71 57 72 63 73 65 74
REMARK SMILES IDX 58 75 59 76 60 77 61 78 62 79 38 80 39 81 48 82 40 83 41 84
REMARK SMILES IDX 47 85 49 86 42 87 43 88 44 89 45 90 46 91
REMARK H PARENT 70 41 36 52
REMARK Flexibility Score: inf
ROOT
ATOM      1  C   UNL A   1      44.034  23.396  24.975  1.00  0.00     0.274 C 
ENDROOT
BRANCH   1   2
ATOM      2  O   UNL A   1      42.818  22.619  25.026  1.00  0.00    -0.462 OA
BRANCH   2   3
ATOM      3  C   UNL A   1      42.893  21.415  25.660  1.00  0.00     0.313 C 
ATOM      4  O   UNL A   1      43.593  20.491  25.260  1.00  0.00    -0.252 OA
BRANCH   3   5
ATOM      5  C   UNL A   1      41.949  21.319  26.879  1.00  0.00     0.126 C 
ATOM      6  C   UNL A   1      41.889  19.893  27.445  1.00  0.00     0.025 C 
BRANCH   5   7
ATOM      7  C   UNL A   1      40.573  21.948  26.617  1.00  0.00    -0.034 A 
ATOM      8  C   UNL A   1      40.309  23.246  27.080  1.00  0.00     0.005 A 
ATOM      9  C   UNL A   1      39.544  21.299  25.918  1.00  0.00     0.005 A 
ATOM     10  C   UNL A   1      39.110  23.901  26.780  1.00  0.00     0.004 A 
ATOM     11  C   UNL A   1      38.318  21.937  25.664  1.00  0.00     0.004 A 
ATOM     12  C   UNL A   1      38.087  23.254  26.081  1.00  0.00    -0.047 A 
BRANCH  12  13
ATOM     13  C   UNL A   1      36.827  23.981  25.653  1.00  0.00     0.047 C 
BRANCH  13  14
ATOM     14  C   UNL A   1      35.664  23.178  25.061  1.00  0.00     0.060 C 
ATOM     15  C   UNL A   1      34.266  23.586  25.535  1.00  0.00     0.012 C 
ATOM     16  C   UNL A   1      35.544  23.306  23.561  1.00  0.00     0.136 C 
ATOM     17  C   UNL A   1      33.701  24.485  24.443  1.00  0.00     0.009 C 
ATOM     18  C   UNL A   1      34.234  23.913  23.138  1.00  0.00     0.076 C 
ATOM     19  O   UNL A   1      36.415  22.972  22.766  1.00  0.00    -0.299 OA
ENDBRANCH  13  14
ENDBRANCH  12  13
ENDBRANCH   5   7
ENDBRANCH   3   5
ENDBRANCH   2   3
ENDBRANCH   1   2
BRANCH   1  20
ATOM     20  C   UNL A   1      44.048  24.404  26.119  1.00  0.00     0.275 C 
BRANCH  20  21
ATOM     21  O   UNL A   1      43.713  25.701  25.601  1.00  0.00    -0.458 OA
BRANCH  21  22
ATOM     22  C   UNL A   1      42.446  26.122  25.811  1.00  0.00     0.338 C 
ATOM     23  O   UNL A   1      41.490  25.999  25.058  1.00  0.00    -0.246 OA
BRANCH  22  24
ATOM     24  C   UNL A   1      42.369  26.783  27.124  1.00  0.00     0.060 A 
ATOM     25  C   UNL A   1      41.567  26.238  28.122  1.00  0.00     0.016 A 
ATOM     26  C   UNL A   1      43.023  27.997  27.339  1.00  0.00     0.016 A 
ATOM     27  C   UNL A   1      41.365  26.943  29.306  1.00  0.00     0.010 A 
ATOM     28  C   UNL A   1      42.869  28.665  28.564  1.00  0.00     0.010 A 
ATOM     29  C   UNL A   1      42.002  28.167  29.551  1.00  0.00    -0.014 A 
BRANCH  29  30
ATOM     30  C   UNL A   1      41.684  28.946  30.788  1.00  0.00     0.031 A 
ATOM     31  C   UNL A   1      40.442  29.804  30.841  1.00  0.00     0.074 A 
ATOM     32  C   UNL A   1      42.443  28.841  31.900  1.00  0.00     0.049 A 
ATOM     33  N   UNL A   1      40.068  30.667  31.754  1.00  0.00    -0.248 NA
ATOM     34  C   UNL A   1      39.497  29.678  29.721  1.00  0.00     0.031 C 
ATOM     35  C   UNL A   1      43.617  27.980  32.049  1.00  0.00     0.029 A 
ATOM     36  N   UNL A   1      42.312  29.435  33.134  1.00  0.00    -0.354 N 
ATOM     37  C   UNL A   1      38.894  31.241  31.281  1.00  0.00     0.074 A 
ATOM     38  C   UNL A   1      38.601  30.610  30.011  1.00  0.00     0.031 C 
ATOM     39  C   UNL A   1      44.049  28.041  33.318  1.00  0.00     0.029 A 
ATOM     40  C   UNL A   1      43.255  29.024  34.048  1.00  0.00     0.049 A 
ATOM     41  H   UNL A   1      41.610  30.092  33.344  1.00  0.00     0.167 HD
ATOM     42  C   UNL A   1      38.135  32.210  31.846  1.00  0.00     0.037 A 
ATOM     43  C   UNL A   1      43.486  29.415  35.318  1.00  0.00     0.037 A 
ATOM     44  C   UNL A   1      38.380  32.787  33.142  1.00  0.00     0.049 A 
ATOM     45  C   UNL A   1      42.648  30.512  35.917  1.00  0.00     0.074 A 
ATOM     46  C   UNL A   1      37.674  33.790  33.785  1.00  0.00     0.029 A 
ATOM     47  N   UNL A   1      39.391  32.396  34.004  1.00  0.00    -0.354 N 
ATOM     48  N   UNL A   1      41.609  31.128  35.407  1.00  0.00    -0.248 NA
ATOM     49  C   UNL A   1      43.041  30.995  37.249  1.00  0.00     0.031 C 
ATOM     50  C   UNL A   1      38.275  34.023  35.027  1.00  0.00     0.029 A 
ATOM     51  C   UNL A   1      39.333  33.141  35.171  1.00  0.00     0.049 A 
ATOM     52  H   UNL A   1      40.054  31.693  33.816  1.00  0.00     0.167 HD
ATOM     53  C   UNL A   1      41.229  32.074  36.353  1.00  0.00     0.074 A 
ATOM     54  C   UNL A   1      42.128  31.929  37.478  1.00  0.00     0.031 C 
ATOM     55  C   UNL A   1      40.231  32.990  36.287  1.00  0.00     0.037 A 
BRANCH  42  56
ATOM     56  C   UNL A   1      36.992  32.755  31.036  1.00  0.00     0.058 A 
ATOM     57  C   UNL A   1      35.667  32.338  31.234  1.00  0.00     0.135 A 
ATOM     58  C   UNL A   1      37.234  33.735  30.059  1.00  0.00     0.135 A 
ATOM     59  F   UNL A   1      35.386  31.390  32.141  1.00  0.00    -0.206 F 
ATOM     60  C   UNL A   1      34.624  32.859  30.475  1.00  0.00     0.059 A 
ATOM     61  C   UNL A   1      36.205  34.285  29.304  1.00  0.00     0.059 A 
ATOM     62  F   UNL A   1      38.485  34.167  29.832  1.00  0.00    -0.206 F 
ATOM     63  C   UNL A   1      34.904  33.829  29.508  1.00  0.00     0.060 A 
BRANCH  63  64
ATOM     64  S   UNL A   1      33.544  34.494  28.524  1.00  0.00     0.124 S 
ATOM     65  O   UNL A   1      34.211  35.567  27.796  1.00  0.00    -0.237 OA
ATOM     66  O   UNL A   1      33.140  33.342  27.724  1.00  0.00    -0.237 OA
ATOM     67  O   UNL A   1      32.576  34.923  29.529  1.00  0.00    -0.744 OA
ENDBRANCH  63  64
ENDBRANCH  42  56
BRANCH  43  68
ATOM     68  C   UNL A   1      44.599  28.808  36.098  1.00  0.00     0.058 A 
ATOM     69  C   UNL A   1      44.380  27.698  36.928  1.00  0.00     0.135 A 
ATOM     70  C   UNL A   1      45.900  29.332  36.038  1.00  0.00     0.135 A 
ATOM     71  F   UNL A   1      43.148  27.179  37.042  1.00  0.00    -0.206 F 
ATOM     72  C   UNL A   1      45.409  27.135  37.679  1.00  0.00     0.059 A 
ATOM     73  C   UNL A   1      46.950  28.771  36.758  1.00  0.00     0.059 A 
ATOM     74  F   UNL A   1      46.164  30.395  35.263  1.00  0.00    -0.206 F 
ATOM     75  C   UNL A   1      46.691  27.679  37.586  1.00  0.00     0.060 A 
BRANCH  75  76
ATOM     76  S   UNL A   1      48.035  26.928  38.532  1.00  0.00     0.124 S 
ATOM     77  O   UNL A   1      49.157  27.071  37.611  1.00  0.00    -0.237 OA
ATOM     78  O   UNL A   1      48.086  27.762  39.730  1.00  0.00    -0.237 OA
ATOM     79  O   UNL A   1      47.566  25.563  38.750  1.00  0.00    -0.744 OA
ENDBRANCH  75  76
ENDBRANCH  43  68
BRANCH  55  80
ATOM     80  C   UNL A   1      40.049  33.902  37.466  1.00  0.00     0.058 A 
ATOM     81  C   UNL A   1      40.701  35.143  37.538  1.00  0.00     0.135 A 
ATOM     82  C   UNL A   1      39.178  33.557  38.512  1.00  0.00     0.135 A 
ATOM     83  F   UNL A   1      41.549  35.517  36.566  1.00  0.00    -0.206 F 
ATOM     84  C   UNL A   1      40.508  36.005  38.613  1.00  0.00     0.059 A 
ATOM     85  C   UNL A   1      38.955  34.411  39.587  1.00  0.00     0.059 A 
ATOM     86  F   UNL A   1      38.524  32.385  38.487  1.00  0.00    -0.206 F 
ATOM     87  C   UNL A   1      39.633  35.630  39.634  1.00  0.00     0.060 A 
BRANCH  87  88
ATOM     88  S   UNL A   1      39.359  36.770  41.007  1.00  0.00     0.124 S 
ATOM     89  O   UNL A   1      38.570  35.949  41.918  1.00  0.00    -0.237 OA
ATOM     90  O   UNL A   1      40.719  37.072  41.443  1.00  0.00    -0.237 OA
ATOM     91  O   UNL A   1      38.647  37.882  40.386  1.00  0.00    -0.744 OA
ENDBRANCH  87  88
ENDBRANCH  55  80
ENDBRANCH  29  30
ENDBRANCH  22  24
ENDBRANCH  21  22
ENDBRANCH  20  21
ENDBRANCH   1  20
TORSDOF 17
ENDMDL
