MODEL 1
REMARK VINA RESULT:     -11.3      0.000      0.000
REMARK SMILES COc1ccc(/C=N/Nc2cccc(C(=O)OCCOC(=O)c3ccc(-c4c5nc(c(-c6c(F)cc(S(=O)(=O)[O-])cc6F)c6ccc([nH]6)c(-c6c(F)cc(S(=O)(=O)[O-])cc6F)c6nc(c(-c7c(F)cc(S(=O)(=O)[O-])cc7F)c7ccc4[nH]7)C=C6)C=C5)cc3)c2)cc1O
REMARK SMILES IDX 18 1 17 2 15 3 16 4 14 5 10 6 11 7 89 8 12 9 13 10 9 11 8 13
REMARK SMILES IDX 7 14 6 15 3 16 4 17 91 18 5 19 90 20 2 21 1 22 92 23 19 25
REMARK SMILES IDX 20 26 21 27 22 28 23 29 24 30 88 31 25 32 87 33 26 34 27 35
REMARK SMILES IDX 28 36 81 37 29 38 86 39 80 40 82 41 30 42 85 43 79 44 78 45
REMARK SMILES IDX 31 47 65 48 44 49 64 50 45 51 48 52 63 53 83 54 46 55 47 56
REMARK SMILES IDX 62 58 84 59 49 60 32 61 33 62 42 63 34 64 35 65 41 66 43 67
REMARK SMILES IDX 36 68 37 69 38 70 39 71 40 72 66 73 67 74 76 75 68 76 69 77
REMARK SMILES IDX 75 78 77 79 70 80 71 81 72 82 73 83 74 84 50 85 51 86 60 87
REMARK SMILES IDX 52 88 53 89 59 90 61 91 54 92 55 93 56 94 57 95 58 96
REMARK H PARENT 9 12 92 24 82 46 48 57
REMARK Flexibility Score: inf
ROOT
ATOM      1  C   UNL A   1      38.582  21.783  25.897  1.00  0.00     0.275 C 
ENDROOT
BRANCH   1   2
ATOM      2  O   UNL A   1      37.534  21.655  24.917  1.00  0.00    -0.458 OA
BRANCH   2   3
ATOM      3  C   UNL A   1      36.864  20.477  24.896  1.00  0.00     0.338 C 
ATOM      4  O   UNL A   1      37.360  19.361  24.967  1.00  0.00    -0.246 OA
BRANCH   3   5
ATOM      5  C   UNL A   1      35.397  20.705  24.858  1.00  0.00     0.062 A 
ATOM      6  C   UNL A   1      33.490  22.194  24.657  1.00  0.00     0.057 A 
ATOM      7  C   UNL A   1      32.631  21.091  24.759  1.00  0.00     0.028 A 
ATOM      8  C   UNL A   1      34.870  21.993  24.791  1.00  0.00     0.043 A 
ATOM      9  C   UNL A   1      33.146  19.800  24.854  1.00  0.00     0.003 A 
ATOM     10  C   UNL A   1      34.526  19.608  24.832  1.00  0.00     0.016 A 
BRANCH   6  11
ATOM     11  N   UNL A   1      32.959  23.426  24.229  1.00  0.00    -0.278 N 
ATOM     12  H   UNL A   1      32.728  23.523  23.276  1.00  0.00     0.190 HD
BRANCH  11  13
ATOM     13  N   UNL A   1      32.745  24.493  25.049  1.00  0.00    -0.183 NA
ATOM     14  C   UNL A   1      33.192  25.640  24.633  1.00  0.00     0.141 C 
BRANCH  14  15
ATOM     15  C   UNL A   1      33.075  26.861  25.441  1.00  0.00    -0.002 A 
ATOM     16  C   UNL A   1      32.831  29.170  27.020  1.00  0.00     0.160 A 
ATOM     17  C   UNL A   1      33.760  29.100  25.967  1.00  0.00     0.051 A 
ATOM     18  C   UNL A   1      32.013  28.059  27.259  1.00  0.00     0.158 A 
ATOM     19  C   UNL A   1      33.884  27.958  25.178  1.00  0.00     0.014 A 
ATOM     20  C   UNL A   1      32.139  26.906  26.476  1.00  0.00     0.060 A 
BRANCH  16  21
ATOM     21  O   UNL A   1      32.829  30.400  27.612  1.00  0.00    -0.493 OA
ATOM     22  C   UNL A   1      33.996  31.199  27.589  1.00  0.00     0.278 C 
ENDBRANCH  16  21
BRANCH  18  23
ATOM     23  O   UNL A   1      31.016  27.981  28.189  1.00  0.00    -0.504 OA
ATOM     24  H   UNL A   1      31.178  28.248  29.071  1.00  0.00     0.293 HD
ENDBRANCH  18  23
ENDBRANCH  14  15
ENDBRANCH  11  13
ENDBRANCH   6  11
ENDBRANCH   3   5
ENDBRANCH   2   3
ENDBRANCH   1   2
BRANCH   1  25
ATOM     25  C   UNL A   1      38.832  23.252  26.243  1.00  0.00     0.275 C 
BRANCH  25  26
ATOM     26  O   UNL A   1      39.818  23.374  27.287  1.00  0.00    -0.458 OA
BRANCH  26  27
ATOM     27  C   UNL A   1      40.754  24.328  27.080  1.00  0.00     0.338 C 
ATOM     28  O   UNL A   1      41.644  24.325  26.247  1.00  0.00    -0.246 OA
BRANCH  27  29
ATOM     29  C   UNL A   1      40.482  25.495  27.933  1.00  0.00     0.060 A 
ATOM     30  C   UNL A   1      41.484  26.450  28.030  1.00  0.00     0.016 A 
ATOM     31  C   UNL A   1      39.365  25.575  28.757  1.00  0.00     0.016 A 
ATOM     32  C   UNL A   1      41.438  27.440  29.002  1.00  0.00     0.010 A 
ATOM     33  C   UNL A   1      39.270  26.631  29.679  1.00  0.00     0.010 A 
ATOM     34  C   UNL A   1      40.322  27.556  29.837  1.00  0.00    -0.014 A 
BRANCH  34  35
ATOM     35  C   UNL A   1      40.298  28.619  30.884  1.00  0.00     0.031 A 
ATOM     36  C   UNL A   1      41.253  28.562  32.050  1.00  0.00     0.074 A 
ATOM     37  C   UNL A   1      39.448  29.663  30.770  1.00  0.00     0.049 A 
ATOM     38  N   UNL A   1      41.302  29.318  33.117  1.00  0.00    -0.248 NA
ATOM     39  C   UNL A   1      42.282  27.509  32.020  1.00  0.00     0.031 C 
ATOM     40  C   UNL A   1      38.500  29.869  29.671  1.00  0.00     0.029 A 
ATOM     41  N   UNL A   1      39.245  30.752  31.582  1.00  0.00    -0.354 N 
ATOM     42  C   UNL A   1      42.326  28.805  33.905  1.00  0.00     0.074 A 
ATOM     43  C   UNL A   1      42.868  27.665  33.200  1.00  0.00     0.031 C 
ATOM     44  C   UNL A   1      37.845  31.024  29.860  1.00  0.00     0.029 A 
ATOM     45  C   UNL A   1      38.252  31.596  31.137  1.00  0.00     0.049 A 
ATOM     46  H   UNL A   1      39.760  30.916  32.405  1.00  0.00     0.167 HD
ATOM     47  C   UNL A   1      42.773  29.246  35.106  1.00  0.00     0.037 A 
ATOM     48  C   UNL A   1      37.691  32.680  31.708  1.00  0.00     0.037 A 
ATOM     49  C   UNL A   1      42.261  30.415  35.778  1.00  0.00     0.049 A 
ATOM     50  C   UNL A   1      38.180  33.125  33.059  1.00  0.00     0.074 A 
ATOM     51  C   UNL A   1      42.668  30.959  36.984  1.00  0.00     0.029 A 
ATOM     52  N   UNL A   1      41.239  31.224  35.302  1.00  0.00    -0.354 N 
ATOM     53  N   UNL A   1      39.134  32.613  33.801  1.00  0.00    -0.248 NA
ATOM     54  C   UNL A   1      37.511  34.288  33.658  1.00  0.00     0.031 C 
ATOM     55  C   UNL A   1      41.857  32.063  37.264  1.00  0.00     0.029 A 
ATOM     56  C   UNL A   1      40.987  32.247  36.203  1.00  0.00     0.049 A 
ATOM     57  H   UNL A   1      40.762  31.091  34.452  1.00  0.00     0.167 HD
ATOM     58  C   UNL A   1      39.193  33.405  34.942  1.00  0.00     0.074 A 
ATOM     59  C   UNL A   1      38.197  34.443  34.781  1.00  0.00     0.031 C 
ATOM     60  C   UNL A   1      39.997  33.281  36.027  1.00  0.00     0.037 A 
BRANCH  47  61
ATOM     61  C   UNL A   1      43.850  28.454  35.799  1.00  0.00     0.058 A 
ATOM     62  C   UNL A   1      43.557  27.404  36.683  1.00  0.00     0.135 A 
ATOM     63  C   UNL A   1      45.203  28.706  35.513  1.00  0.00     0.135 A 
ATOM     64  F   UNL A   1      42.284  27.129  37.007  1.00  0.00    -0.206 F 
ATOM     65  C   UNL A   1      44.565  26.642  37.266  1.00  0.00     0.059 A 
ATOM     66  C   UNL A   1      46.226  27.939  36.061  1.00  0.00     0.059 A 
ATOM     67  F   UNL A   1      45.543  29.700  34.676  1.00  0.00    -0.206 F 
ATOM     68  C   UNL A   1      45.896  26.912  36.944  1.00  0.00     0.060 A 
BRANCH  68  69
ATOM     69  S   UNL A   1      47.189  25.889  37.680  1.00  0.00     0.124 S 
ATOM     70  O   UNL A   1      46.405  24.976  38.506  1.00  0.00    -0.237 OA
ATOM     71  O   UNL A   1      47.822  25.295  36.506  1.00  0.00    -0.237 OA
ATOM     72  O   UNL A   1      48.010  26.848  38.412  1.00  0.00    -0.744 OA
ENDBRANCH  68  69
ENDBRANCH  47  61
BRANCH  48  73
ATOM     73  C   UNL A   1      36.565  33.388  31.034  1.00  0.00     0.058 A 
ATOM     74  C   UNL A   1      35.246  33.264  31.493  1.00  0.00     0.135 A 
ATOM     75  C   UNL A   1      36.788  34.190  29.904  1.00  0.00     0.135 A 
ATOM     76  F   UNL A   1      34.976  32.500  32.563  1.00  0.00    -0.206 F 
ATOM     77  C   UNL A   1      34.185  33.888  30.842  1.00  0.00     0.059 A 
ATOM     78  C   UNL A   1      35.750  34.854  29.258  1.00  0.00     0.059 A 
ATOM     79  F   UNL A   1      38.033  34.354  29.428  1.00  0.00    -0.206 F 
ATOM     80  C   UNL A   1      34.449  34.683  29.725  1.00  0.00     0.060 A 
BRANCH  80  81
ATOM     81  S   UNL A   1      33.071  35.507  28.900  1.00  0.00     0.124 S 
ATOM     82  O   UNL A   1      32.477  34.406  28.151  1.00  0.00    -0.237 OA
ATOM     83  O   UNL A   1      32.291  36.004  30.030  1.00  0.00    -0.237 OA
ATOM     84  O   UNL A   1      33.726  36.536  28.099  1.00  0.00    -0.744 OA
ENDBRANCH  80  81
ENDBRANCH  48  73
BRANCH  60  85
ATOM     85  C   UNL A   1      39.864  34.321  37.106  1.00  0.00     0.058 A 
ATOM     86  C   UNL A   1      40.586  35.523  37.072  1.00  0.00     0.135 A 
ATOM     87  C   UNL A   1      38.978  34.120  38.178  1.00  0.00     0.135 A 
ATOM     88  F   UNL A   1      41.451  35.764  36.074  1.00  0.00    -0.206 F 
ATOM     89  C   UNL A   1      40.464  36.474  38.080  1.00  0.00     0.059 A 
ATOM     90  C   UNL A   1      38.814  35.071  39.179  1.00  0.00     0.059 A 
ATOM     91  F   UNL A   1      38.254  32.991  38.255  1.00  0.00    -0.206 F 
ATOM     92  C   UNL A   1      39.575  36.238  39.130  1.00  0.00     0.060 A 
BRANCH  92  93
ATOM     93  S   UNL A   1      39.414  37.486  40.425  1.00  0.00     0.124 S 
ATOM     94  O   UNL A   1      40.693  38.180  40.325  1.00  0.00    -0.237 OA
ATOM     95  O   UNL A   1      38.246  38.243  39.986  1.00  0.00    -0.237 OA
ATOM     96  O   UNL A   1      39.222  36.696  41.637  1.00  0.00    -0.744 OA
ENDBRANCH  92  93
ENDBRANCH  60  85
ENDBRANCH  34  35
ENDBRANCH  27  29
ENDBRANCH  26  27
ENDBRANCH  25  26
ENDBRANCH   1  25
TORSDOF 19
ENDMDL
MODEL 2
REMARK VINA RESULT:     -11.1      5.056     11.053
REMARK SMILES COc1ccc(/C=N/Nc2cccc(C(=O)OCCOC(=O)c3ccc(-c4c5nc(c(-c6c(F)cc(S(=O)(=O)[O-])cc6F)c6ccc([nH]6)c(-c6c(F)cc(S(=O)(=O)[O-])cc6F)c6nc(c(-c7c(F)cc(S(=O)(=O)[O-])cc7F)c7ccc4[nH]7)C=C6)C=C5)cc3)c2)cc1O
REMARK SMILES IDX 18 1 17 2 15 3 16 4 14 5 10 6 11 7 89 8 12 9 13 10 9 11 8 13
REMARK SMILES IDX 7 14 6 15 3 16 4 17 91 18 5 19 90 20 2 21 1 22 92 23 19 25
REMARK SMILES IDX 20 26 21 27 22 28 23 29 24 30 88 31 25 32 87 33 26 34 27 35
REMARK SMILES IDX 28 36 81 37 29 38 86 39 80 40 82 41 30 42 85 43 79 44 78 45
REMARK SMILES IDX 31 47 65 48 44 49 64 50 45 51 48 52 63 53 83 54 46 55 47 56
REMARK SMILES IDX 62 58 84 59 49 60 32 61 33 62 42 63 34 64 35 65 41 66 43 67
REMARK SMILES IDX 36 68 37 69 38 70 39 71 40 72 66 73 67 74 76 75 68 76 69 77
REMARK SMILES IDX 75 78 77 79 70 80 71 81 72 82 73 83 74 84 50 85 51 86 60 87
REMARK SMILES IDX 52 88 53 89 59 90 61 91 54 92 55 93 56 94 57 95 58 96
REMARK H PARENT 9 12 92 24 82 46 48 57
REMARK Flexibility Score: inf
ROOT
ATOM      1  C   UNL A   1      33.014  29.675  25.369  1.00  0.00     0.275 C 
ENDROOT
BRANCH   1   2
ATOM      2  O   UNL A   1      31.889  29.237  24.581  1.00  0.00    -0.458 OA
BRANCH   2   3
ATOM      3  C   UNL A   1      32.174  28.606  23.416  1.00  0.00     0.338 C 
ATOM      4  O   UNL A   1      32.868  29.042  22.509  1.00  0.00    -0.246 OA
BRANCH   3   5
ATOM      5  C   UNL A   1      31.592  27.240  23.399  1.00  0.00     0.062 A 
ATOM      6  C   UNL A   1      31.656  24.919  22.691  1.00  0.00     0.057 A 
ATOM      7  C   UNL A   1      30.483  24.676  23.418  1.00  0.00     0.028 A 
ATOM      8  C   UNL A   1      32.153  26.228  22.625  1.00  0.00     0.043 A 
ATOM      9  C   UNL A   1      29.896  25.688  24.175  1.00  0.00     0.003 A 
ATOM     10  C   UNL A   1      30.493  26.946  24.218  1.00  0.00     0.016 A 
BRANCH   6  11
ATOM     11  N   UNL A   1      32.401  23.819  22.222  1.00  0.00    -0.278 N 
ATOM     12  H   UNL A   1      33.162  23.999  21.623  1.00  0.00     0.190 HD
BRANCH  11  13
ATOM     13  N   UNL A   1      32.134  22.522  22.543  1.00  0.00    -0.183 NA
ATOM     14  C   UNL A   1      32.898  21.983  23.445  1.00  0.00     0.141 C 
BRANCH  14  15
ATOM     15  C   UNL A   1      32.755  20.578  23.849  1.00  0.00    -0.002 A 
ATOM     16  C   UNL A   1      32.488  17.879  24.574  1.00  0.00     0.160 A 
ATOM     17  C   UNL A   1      32.842  18.857  25.519  1.00  0.00     0.051 A 
ATOM     18  C   UNL A   1      32.255  18.284  23.253  1.00  0.00     0.158 A 
ATOM     19  C   UNL A   1      32.973  20.199  25.167  1.00  0.00     0.014 A 
ATOM     20  C   UNL A   1      32.395  19.628  22.891  1.00  0.00     0.060 A 
BRANCH  16  21
ATOM     21  O   UNL A   1      32.346  16.648  25.148  1.00  0.00    -0.493 OA
ATOM     22  C   UNL A   1      33.426  15.736  25.142  1.00  0.00     0.278 C 
ENDBRANCH  16  21
BRANCH  18  23
ATOM     23  O   UNL A   1      31.838  17.483  22.230  1.00  0.00    -0.504 OA
ATOM     24  H   UNL A   1      31.107  16.911  22.350  1.00  0.00     0.293 HD
ENDBRANCH  18  23
ENDBRANCH  14  15
ENDBRANCH  11  13
ENDBRANCH   6  11
ENDBRANCH   3   5
ENDBRANCH   2   3
ENDBRANCH   1   2
BRANCH   1  25
ATOM     25  C   UNL A   1      33.719  28.487  26.027  1.00  0.00     0.275 C 
BRANCH  25  26
ATOM     26  O   UNL A   1      33.865  28.697  27.444  1.00  0.00    -0.458 OA
BRANCH  26  27
ATOM     27  C   UNL A   1      34.279  29.936  27.798  1.00  0.00     0.338 C 
ATOM     28  O   UNL A   1      33.605  30.949  27.871  1.00  0.00    -0.246 OA
BRANCH  27  29
ATOM     29  C   UNL A   1      35.682  29.893  28.237  1.00  0.00     0.060 A 
ATOM     30  C   UNL A   1      36.650  30.142  27.273  1.00  0.00     0.016 A 
ATOM     31  C   UNL A   1      36.059  29.448  29.499  1.00  0.00     0.016 A 
ATOM     32  C   UNL A   1      37.988  29.867  27.515  1.00  0.00     0.010 A 
ATOM     33  C   UNL A   1      37.422  29.258  29.778  1.00  0.00     0.010 A 
ATOM     34  C   UNL A   1      38.401  29.432  28.778  1.00  0.00    -0.014 A 
BRANCH  34  35
ATOM     35  C   UNL A   1      39.843  29.129  29.014  1.00  0.00     0.031 A 
ATOM     36  C   UNL A   1      40.755  30.179  29.601  1.00  0.00     0.074 A 
ATOM     37  C   UNL A   1      40.331  27.900  28.744  1.00  0.00     0.049 A 
ATOM     38  N   UNL A   1      42.053  30.148  29.764  1.00  0.00    -0.248 NA
ATOM     39  C   UNL A   1      40.128  31.432  30.053  1.00  0.00     0.031 C 
ATOM     40  C   UNL A   1      39.553  26.775  28.216  1.00  0.00     0.029 A 
ATOM     41  N   UNL A   1      41.596  27.381  28.881  1.00  0.00    -0.354 N 
ATOM     42  C   UNL A   1      42.403  31.388  30.287  1.00  0.00     0.074 A 
ATOM     43  C   UNL A   1      41.183  32.155  30.405  1.00  0.00     0.031 C 
ATOM     44  C   UNL A   1      40.345  25.699  28.106  1.00  0.00     0.029 A 
ATOM     45  C   UNL A   1      41.707  26.074  28.463  1.00  0.00     0.049 A 
ATOM     46  H   UNL A   1      42.354  27.896  29.244  1.00  0.00     0.167 HD
ATOM     47  C   UNL A   1      43.631  31.843  30.637  1.00  0.00     0.037 A 
ATOM     48  C   UNL A   1      42.785  25.277  28.330  1.00  0.00     0.037 A 
ATOM     49  C   UNL A   1      44.836  31.055  30.565  1.00  0.00     0.049 A 
ATOM     50  C   UNL A   1      44.140  25.821  28.690  1.00  0.00     0.074 A 
ATOM     51  C   UNL A   1      46.122  31.417  30.924  1.00  0.00     0.029 A 
ATOM     52  N   UNL A   1      44.904  29.745  30.111  1.00  0.00    -0.354 N 
ATOM     53  N   UNL A   1      44.457  27.004  29.160  1.00  0.00    -0.248 NA
ATOM     54  C   UNL A   1      45.289  24.927  28.491  1.00  0.00     0.031 C 
ATOM     55  C   UNL A   1      46.976  30.348  30.636  1.00  0.00     0.029 A 
ATOM     56  C   UNL A   1      46.215  29.295  30.160  1.00  0.00     0.049 A 
ATOM     57  H   UNL A   1      44.136  29.213  29.801  1.00  0.00     0.167 HD
ATOM     58  C   UNL A   1      45.835  26.988  29.334  1.00  0.00     0.074 A 
ATOM     59  C   UNL A   1      46.289  25.670  28.942  1.00  0.00     0.031 C 
ATOM     60  C   UNL A   1      46.653  27.976  29.774  1.00  0.00     0.037 A 
BRANCH  47  61
ATOM     61  C   UNL A   1      43.754  33.271  31.103  1.00  0.00     0.058 A 
ATOM     62  C   UNL A   1      43.774  33.616  32.464  1.00  0.00     0.135 A 
ATOM     63  C   UNL A   1      43.932  34.304  30.167  1.00  0.00     0.135 A 
ATOM     64  F   UNL A   1      43.592  32.674  33.402  1.00  0.00    -0.206 F 
ATOM     65  C   UNL A   1      43.952  34.933  32.877  1.00  0.00     0.059 A 
ATOM     66  C   UNL A   1      44.140  35.622  30.558  1.00  0.00     0.059 A 
ATOM     67  F   UNL A   1      43.920  34.032  28.851  1.00  0.00    -0.206 F 
ATOM     68  C   UNL A   1      44.141  35.928  31.917  1.00  0.00     0.060 A 
BRANCH  68  69
ATOM     69  S   UNL A   1      44.409  37.626  32.473  1.00  0.00     0.124 S 
ATOM     70  O   UNL A   1      45.807  37.581  32.886  1.00  0.00    -0.237 OA
ATOM     71  O   UNL A   1      44.130  38.396  31.265  1.00  0.00    -0.237 OA
ATOM     72  O   UNL A   1      43.441  37.789  33.553  1.00  0.00    -0.744 OA
ENDBRANCH  68  69
ENDBRANCH  47  61
BRANCH  48  73
ATOM     73  C   UNL A   1      42.638  23.899  27.781  1.00  0.00     0.058 A 
ATOM     74  C   UNL A   1      42.589  23.665  26.399  1.00  0.00     0.135 A 
ATOM     75  C   UNL A   1      42.526  22.788  28.633  1.00  0.00     0.135 A 
ATOM     76  F   UNL A   1      42.680  24.693  25.541  1.00  0.00    -0.206 F 
ATOM     77  C   UNL A   1      42.409  22.385  25.882  1.00  0.00     0.059 A 
ATOM     78  C   UNL A   1      42.383  21.496  28.140  1.00  0.00     0.059 A 
ATOM     79  F   UNL A   1      42.578  22.951  29.964  1.00  0.00    -0.206 F 
ATOM     80  C   UNL A   1      42.308  21.306  26.762  1.00  0.00     0.060 A 
BRANCH  80  81
ATOM     81  S   UNL A   1      42.097  19.647  26.081  1.00  0.00     0.124 S 
ATOM     82  O   UNL A   1      40.678  19.645  25.749  1.00  0.00    -0.237 OA
ATOM     83  O   UNL A   1      43.018  19.662  24.948  1.00  0.00    -0.237 OA
ATOM     84  O   UNL A   1      42.489  18.779  27.187  1.00  0.00    -0.744 OA
ENDBRANCH  80  81
ENDBRANCH  48  73
BRANCH  60  85
ATOM     85  C   UNL A   1      48.117  27.655  29.899  1.00  0.00     0.058 A 
ATOM     86  C   UNL A   1      48.670  27.157  31.089  1.00  0.00     0.135 A 
ATOM     87  C   UNL A   1      48.976  27.826  28.800  1.00  0.00     0.135 A 
ATOM     88  F   UNL A   1      47.896  26.981  32.172  1.00  0.00    -0.206 F 
ATOM     89  C   UNL A   1      50.027  26.873  31.197  1.00  0.00     0.059 A 
ATOM     90  C   UNL A   1      50.330  27.516  28.875  1.00  0.00     0.059 A 
ATOM     91  F   UNL A   1      48.498  28.289  27.634  1.00  0.00    -0.206 F 
ATOM     92  C   UNL A   1      50.849  27.056  30.084  1.00  0.00     0.060 A 
BRANCH  92  93
ATOM     93  S   UNL A   1      52.606  26.671  30.233  1.00  0.00     0.124 S 
ATOM     94  O   UNL A   1      52.588  25.582  31.203  1.00  0.00    -0.237 OA
ATOM     95  O   UNL A   1      52.961  26.297  28.868  1.00  0.00    -0.237 OA
ATOM     96  O   UNL A   1      53.191  27.923  30.705  1.00  0.00    -0.744 OA
ENDBRANCH  92  93
ENDBRANCH  60  85
ENDBRANCH  34  35
ENDBRANCH  27  29
ENDBRANCH  26  27
ENDBRANCH  25  26
ENDBRANCH   1  25
TORSDOF 19
ENDMDL
MODEL 3
REMARK VINA RESULT:     -11.1      3.375      6.115
REMARK SMILES COc1ccc(/C=N/Nc2cccc(C(=O)OCCOC(=O)c3ccc(-c4c5nc(c(-c6c(F)cc(S(=O)(=O)[O-])cc6F)c6ccc([nH]6)c(-c6c(F)cc(S(=O)(=O)[O-])cc6F)c6nc(c(-c7c(F)cc(S(=O)(=O)[O-])cc7F)c7ccc4[nH]7)C=C6)C=C5)cc3)c2)cc1O
REMARK SMILES IDX 18 1 17 2 15 3 16 4 14 5 10 6 11 7 89 8 12 9 13 10 9 11 8 13
REMARK SMILES IDX 7 14 6 15 3 16 4 17 91 18 5 19 90 20 2 21 1 22 92 23 19 25
REMARK SMILES IDX 20 26 21 27 22 28 23 29 24 30 88 31 25 32 87 33 26 34 27 35
REMARK SMILES IDX 28 36 81 37 29 38 86 39 80 40 82 41 30 42 85 43 79 44 78 45
REMARK SMILES IDX 31 47 65 48 44 49 64 50 45 51 48 52 63 53 83 54 46 55 47 56
REMARK SMILES IDX 62 58 84 59 49 60 32 61 33 62 42 63 34 64 35 65 41 66 43 67
REMARK SMILES IDX 36 68 37 69 38 70 39 71 40 72 66 73 67 74 76 75 68 76 69 77
REMARK SMILES IDX 75 78 77 79 70 80 71 81 72 82 73 83 74 84 50 85 51 86 60 87
REMARK SMILES IDX 52 88 53 89 59 90 61 91 54 92 55 93 56 94 57 95 58 96
REMARK H PARENT 9 12 92 24 82 46 48 57
REMARK Flexibility Score: inf
ROOT
ATOM      1  C   UNL A   1      40.728  20.772  26.909  1.00  0.00     0.275 C 
ENDROOT
BRANCH   1   2
ATOM      2  O   UNL A   1      41.659  20.648  25.816  1.00  0.00    -0.458 OA
BRANCH   2   3
ATOM      3  C   UNL A   1      42.355  19.487  25.742  1.00  0.00     0.338 C 
ATOM      4  O   UNL A   1      41.894  18.360  25.847  1.00  0.00    -0.246 OA
BRANCH   3   5
ATOM      5  C   UNL A   1      43.782  19.748  25.425  1.00  0.00     0.062 A 
ATOM      6  C   UNL A   1      45.602  21.287  24.962  1.00  0.00     0.057 A 
ATOM      7  C   UNL A   1      46.481  20.200  24.861  1.00  0.00     0.028 A 
ATOM      8  C   UNL A   1      44.238  21.039  25.164  1.00  0.00     0.043 A 
ATOM      9  C   UNL A   1      46.031  18.902  25.094  1.00  0.00     0.003 A 
ATOM     10  C   UNL A   1      44.700  18.689  25.444  1.00  0.00     0.016 A 
BRANCH   6  11
ATOM     11  N   UNL A   1      46.140  22.585  25.058  1.00  0.00    -0.278 N 
ATOM     12  H   UNL A   1      46.301  23.081  24.222  1.00  0.00     0.190 HD
BRANCH  11  13
ATOM     13  N   UNL A   1      46.452  23.199  26.234  1.00  0.00    -0.183 NA
ATOM     14  C   UNL A   1      45.458  23.474  27.023  1.00  0.00     0.141 C 
BRANCH  14  15
ATOM     15  C   UNL A   1      45.646  24.180  28.297  1.00  0.00    -0.002 A 
ATOM     16  C   UNL A   1      46.035  25.562  30.710  1.00  0.00     0.160 A 
ATOM     17  C   UNL A   1      44.915  24.735  30.515  1.00  0.00     0.051 A 
ATOM     18  C   UNL A   1      46.968  25.673  29.672  1.00  0.00     0.158 A 
ATOM     19  C   UNL A   1      44.718  24.044  29.321  1.00  0.00     0.014 A 
ATOM     20  C   UNL A   1      46.770  24.990  28.467  1.00  0.00     0.060 A 
BRANCH  16  21
ATOM     21  O   UNL A   1      46.066  26.081  31.972  1.00  0.00    -0.493 OA
ATOM     22  C   UNL A   1      46.448  25.267  33.064  1.00  0.00     0.278 C 
ENDBRANCH  16  21
BRANCH  18  23
ATOM     23  O   UNL A   1      48.139  26.373  29.718  1.00  0.00    -0.504 OA
ATOM     24  H   UNL A   1      48.769  26.189  30.384  1.00  0.00     0.293 HD
ENDBRANCH  18  23
ENDBRANCH  14  15
ENDBRANCH  11  13
ENDBRANCH   6  11
ENDBRANCH   3   5
ENDBRANCH   2   3
ENDBRANCH   1   2
BRANCH   1  25
ATOM     25  C   UNL A   1      40.188  22.201  27.009  1.00  0.00     0.275 C 
BRANCH  25  26
ATOM     26  O   UNL A   1      41.119  23.053  27.704  1.00  0.00    -0.458 OA
BRANCH  26  27
ATOM     27  C   UNL A   1      41.464  24.182  27.042  1.00  0.00     0.338 C 
ATOM     28  O   UNL A   1      41.865  24.274  25.894  1.00  0.00    -0.246 OA
BRANCH  27  29
ATOM     29  C   UNL A   1      41.158  25.362  27.864  1.00  0.00     0.060 A 
ATOM     30  C   UNL A   1      42.209  26.229  28.134  1.00  0.00     0.016 A 
ATOM     31  C   UNL A   1      39.936  25.532  28.504  1.00  0.00     0.016 A 
ATOM     32  C   UNL A   1      42.092  27.213  29.105  1.00  0.00     0.010 A 
ATOM     33  C   UNL A   1      39.785  26.587  29.419  1.00  0.00     0.010 A 
ATOM     34  C   UNL A   1      40.873  27.419  29.757  1.00  0.00    -0.014 A 
BRANCH  34  35
ATOM     35  C   UNL A   1      40.771  28.475  30.808  1.00  0.00     0.031 A 
ATOM     36  C   UNL A   1      41.708  28.464  31.990  1.00  0.00     0.074 A 
ATOM     37  C   UNL A   1      39.868  29.471  30.682  1.00  0.00     0.049 A 
ATOM     38  N   UNL A   1      41.696  29.218  33.060  1.00  0.00    -0.248 NA
ATOM     39  C   UNL A   1      42.794  27.469  31.974  1.00  0.00     0.031 C 
ATOM     40  C   UNL A   1      38.930  29.630  29.567  1.00  0.00     0.029 A 
ATOM     41  N   UNL A   1      39.591  30.544  31.494  1.00  0.00    -0.354 N 
ATOM     42  C   UNL A   1      42.733  28.757  33.865  1.00  0.00     0.074 A 
ATOM     43  C   UNL A   1      43.349  27.651  33.165  1.00  0.00     0.031 C 
ATOM     44  C   UNL A   1      38.209  30.746  29.748  1.00  0.00     0.029 A 
ATOM     45  C   UNL A   1      38.562  31.334  31.034  1.00  0.00     0.049 A 
ATOM     46  H   UNL A   1      40.083  30.731  32.327  1.00  0.00     0.167 HD
ATOM     47  C   UNL A   1      43.134  29.217  35.075  1.00  0.00     0.037 A 
ATOM     48  C   UNL A   1      37.933  32.383  31.599  1.00  0.00     0.037 A 
ATOM     49  C   UNL A   1      42.548  30.353  35.742  1.00  0.00     0.049 A 
ATOM     50  C   UNL A   1      38.373  32.849  32.960  1.00  0.00     0.074 A 
ATOM     51  C   UNL A   1      42.903  30.913  36.957  1.00  0.00     0.029 A 
ATOM     52  N   UNL A   1      41.491  31.107  35.251  1.00  0.00    -0.354 N 
ATOM     53  N   UNL A   1      39.340  32.386  33.718  1.00  0.00    -0.248 NA
ATOM     54  C   UNL A   1      37.632  33.970  33.551  1.00  0.00     0.031 C 
ATOM     55  C   UNL A   1      42.028  31.970  37.226  1.00  0.00     0.029 A 
ATOM     56  C   UNL A   1      41.168  32.111  36.151  1.00  0.00     0.049 A 
ATOM     57  H   UNL A   1      41.038  30.952  34.392  1.00  0.00     0.167 HD
ATOM     58  C   UNL A   1      39.336  33.176  34.862  1.00  0.00     0.074 A 
ATOM     59  C   UNL A   1      38.288  34.158  34.687  1.00  0.00     0.031 C 
ATOM     60  C   UNL A   1      40.127  33.091  35.961  1.00  0.00     0.037 A 
BRANCH  47  61
ATOM     61  C   UNL A   1      44.241  28.482  35.785  1.00  0.00     0.058 A 
ATOM     62  C   UNL A   1      45.593  28.817  35.614  1.00  0.00     0.135 A 
ATOM     63  C   UNL A   1      43.932  27.471  36.711  1.00  0.00     0.135 A 
ATOM     64  F   UNL A   1      45.949  29.762  34.730  1.00  0.00    -0.206 F 
ATOM     65  C   UNL A   1      46.598  28.169  36.326  1.00  0.00     0.059 A 
ATOM     66  C   UNL A   1      44.918  26.830  37.454  1.00  0.00     0.059 A 
ATOM     67  F   UNL A   1      42.655  27.108  36.914  1.00  0.00    -0.206 F 
ATOM     68  C   UNL A   1      46.251  27.181  37.249  1.00  0.00     0.060 A 
BRANCH  68  69
ATOM     69  S   UNL A   1      47.565  26.376  38.191  1.00  0.00     0.124 S 
ATOM     70  O   UNL A   1      47.258  26.812  39.550  1.00  0.00    -0.237 OA
ATOM     71  O   UNL A   1      47.328  24.964  37.911  1.00  0.00    -0.237 OA
ATOM     72  O   UNL A   1      48.786  26.930  37.616  1.00  0.00    -0.744 OA
ENDBRANCH  68  69
ENDBRANCH  47  61
BRANCH  48  73
ATOM     73  C   UNL A   1      36.782  33.031  30.908  1.00  0.00     0.058 A 
ATOM     74  C   UNL A   1      35.462  32.820  31.332  1.00  0.00     0.135 A 
ATOM     75  C   UNL A   1      36.982  33.864  29.795  1.00  0.00     0.135 A 
ATOM     76  F   UNL A   1      35.215  32.024  32.384  1.00  0.00    -0.206 F 
ATOM     77  C   UNL A   1      34.381  33.389  30.664  1.00  0.00     0.059 A 
ATOM     78  C   UNL A   1      35.921  34.474  29.133  1.00  0.00     0.059 A 
ATOM     79  F   UNL A   1      38.225  34.111  29.352  1.00  0.00    -0.206 F 
ATOM     80  C   UNL A   1      34.622  34.215  29.565  1.00  0.00     0.060 A 
BRANCH  80  81
ATOM     81  S   UNL A   1      33.216  34.967  28.718  1.00  0.00     0.124 S 
ATOM     82  O   UNL A   1      33.840  36.119  28.080  1.00  0.00    -0.237 OA
ATOM     83  O   UNL A   1      32.789  33.895  27.823  1.00  0.00    -0.237 OA
ATOM     84  O   UNL A   1      32.292  35.270  29.806  1.00  0.00    -0.744 OA
ENDBRANCH  80  81
ENDBRANCH  48  73
BRANCH  60  85
ATOM     85  C   UNL A   1      39.918  34.117  37.040  1.00  0.00     0.058 A 
ATOM     86  C   UNL A   1      39.123  33.858  38.167  1.00  0.00     0.135 A 
ATOM     87  C   UNL A   1      40.545  35.371  36.956  1.00  0.00     0.135 A 
ATOM     88  F   UNL A   1      38.495  32.678  38.295  1.00  0.00    -0.206 F 
ATOM     89  C   UNL A   1      38.927  34.817  39.156  1.00  0.00     0.059 A 
ATOM     90  C   UNL A   1      40.391  36.333  37.949  1.00  0.00     0.059 A 
ATOM     91  F   UNL A   1      41.325  35.668  35.905  1.00  0.00    -0.206 F 
ATOM     92  C   UNL A   1      39.566  36.052  39.037  1.00  0.00     0.060 A 
BRANCH  92  93
ATOM     93  S   UNL A   1      39.316  37.284  40.332  1.00  0.00     0.124 S 
ATOM     94  O   UNL A   1      40.690  37.624  40.685  1.00  0.00    -0.237 OA
ATOM     95  O   UNL A   1      38.565  38.323  39.634  1.00  0.00    -0.237 OA
ATOM     96  O   UNL A   1      38.567  36.557  41.353  1.00  0.00    -0.744 OA
ENDBRANCH  92  93
ENDBRANCH  60  85
ENDBRANCH  34  35
ENDBRANCH  27  29
ENDBRANCH  26  27
ENDBRANCH  25  26
ENDBRANCH   1  25
TORSDOF 19
ENDMDL
