MODEL 1
REMARK VINA RESULT:     -12.8      0.000      0.000
REMARK SMILES CC[C@H](C)C[C@H](CC)[N@@H+]1CCO[C@H](CC(=O)OCCOC(=O)c2ccc(-c3c4nc(c(-c5c(F)cc(S(=O)(=O)[O-])cc5F)c5ccc([nH]5)c(-c5c(F)cc(S(=O)(=O)[O-])cc5F)c5nc(c(-c6c(F)cc(S(=O)(=O)[O-])cc6F)c6ccc3[nH]6)C=C5)C=C4)cc2)C1
REMARK SMILES IDX 18 1 17 2 15 3 16 4 14 5 13 6 9 7 10 8 89 9 11 11 12 12 6 13
REMARK SMILES IDX 5 14 3 15 4 16 2 17 1 18 7 19 8 20 19 21 20 22 21 23 22 24
REMARK SMILES IDX 23 25 24 26 88 27 25 28 87 29 26 30 27 31 28 32 81 33 29 34
REMARK SMILES IDX 86 35 80 36 82 37 30 38 85 39 79 40 78 41 31 43 65 44 44 45
REMARK SMILES IDX 64 46 45 47 48 48 63 49 83 50 46 51 47 52 62 54 84 55 49 56
REMARK SMILES IDX 32 57 33 58 42 59 34 60 35 61 41 62 43 63 36 64 37 65 38 66
REMARK SMILES IDX 39 67 40 68 66 69 67 70 76 71 68 72 69 73 75 74 77 75 70 76
REMARK SMILES IDX 71 77 72 78 73 79 74 80 50 81 51 82 60 83 52 84 53 85 59 86
REMARK SMILES IDX 61 87 54 88 55 89 56 90 57 91 58 92
REMARK H PARENT 9 10 82 42 48 53
REMARK Flexibility Score: inf
ROOT
ATOM      1  C   UNL A   1      31.598  27.558  25.814  1.00  0.00     0.274 C 
ENDROOT
BRANCH   1   2
ATOM      2  O   UNL A   1      31.226  26.021  26.581  1.00  0.00    -0.462 OA
BRANCH   2   3
ATOM      3  C   UNL A   1      31.290  24.584  26.812  1.00  0.00     0.308 C 
ATOM      4  O   UNL A   1      30.212  24.094  27.194  1.00  0.00    -0.252 OA
BRANCH   3   5
ATOM      5  C   UNL A   1      32.632  23.356  26.622  1.00  0.00     0.160 C 
BRANCH   5   6
ATOM      6  C   UNL A   1      32.780  21.605  26.466  1.00  0.00     0.184 C 
ATOM      7  N   UNL A   1      34.560  21.190  24.739  1.00  0.00    -0.328 N 
ATOM      8  C   UNL A   1      33.606  20.425  23.897  1.00  0.00     0.291 C 
ATOM      9  C   UNL A   1      34.153  20.872  26.145  1.00  0.00     0.295 C 
ATOM     10  H   UNL A   1      35.501  20.928  24.441  1.00  0.00     0.348 HD
ATOM     11  C   UNL A   1      32.252  20.095  24.598  1.00  0.00     0.222 C 
ATOM     12  O   UNL A   1      31.783  21.113  25.521  1.00  0.00    -0.366 OA
BRANCH   7  13
ATOM     13  C   UNL A   1      34.480  22.690  24.642  1.00  0.00     0.184 C 
BRANCH  13  14
ATOM     14  C   UNL A   1      33.612  23.022  23.130  1.00  0.00     0.068 C 
BRANCH  14  15
ATOM     15  C   UNL A   1      32.284  23.910  22.740  1.00  0.00    -0.009 C 
ATOM     16  C   UNL A   1      30.880  23.663  23.373  1.00  0.00     0.008 C 
BRANCH  15  17
ATOM     17  C   UNL A   1      32.575  25.411  23.095  1.00  0.00    -0.000 C 
ATOM     18  C   UNL A   1      33.407  26.199  22.069  1.00  0.00     0.004 C 
ENDBRANCH  15  17
ENDBRANCH  14  15
ENDBRANCH  13  14
BRANCH  13  19
ATOM     19  C   UNL A   1      35.607  23.558  25.834  1.00  0.00     0.061 C 
ATOM     20  C   UNL A   1      37.280  23.914  25.967  1.00  0.00     0.010 C 
ENDBRANCH  13  19
ENDBRANCH   7  13
ENDBRANCH   5   6
ENDBRANCH   3   5
ENDBRANCH   2   3
ENDBRANCH   1   2
BRANCH   1  21
ATOM     21  C   UNL A   1      32.156  29.097  26.514  1.00  0.00     0.275 C 
BRANCH  21  22
ATOM     22  O   UNL A   1      33.290  29.150  27.563  1.00  0.00    -0.458 OA
BRANCH  22  23
ATOM     23  C   UNL A   1      34.079  30.268  27.849  1.00  0.00     0.338 C 
ATOM     24  O   UNL A   1      33.614  31.392  27.995  1.00  0.00    -0.246 OA
BRANCH  23  25
ATOM     25  C   UNL A   1      35.579  29.979  28.199  1.00  0.00     0.060 A 
ATOM     26  C   UNL A   1      36.578  29.953  27.205  1.00  0.00     0.016 A 
ATOM     27  C   UNL A   1      36.033  29.534  29.439  1.00  0.00     0.016 A 
ATOM     28  C   UNL A   1      37.955  29.734  27.413  1.00  0.00     0.010 A 
ATOM     29  C   UNL A   1      37.425  29.223  29.661  1.00  0.00     0.010 A 
ATOM     30  C   UNL A   1      38.414  29.361  28.661  1.00  0.00    -0.014 A 
BRANCH  30  31
ATOM     31  C   UNL A   1      39.862  28.986  28.831  1.00  0.00     0.031 A 
ATOM     32  C   UNL A   1      40.845  30.009  29.350  1.00  0.00     0.074 A 
ATOM     33  C   UNL A   1      40.327  27.729  28.653  1.00  0.00     0.049 A 
ATOM     34  N   UNL A   1      42.155  29.978  29.365  1.00  0.00    -0.248 NA
ATOM     35  C   UNL A   1      40.267  31.216  29.958  1.00  0.00     0.031 C 
ATOM     36  C   UNL A   1      39.514  26.550  28.362  1.00  0.00     0.029 A 
ATOM     37  N   UNL A   1      41.618  27.232  28.689  1.00  0.00    -0.354 N 
ATOM     38  C   UNL A   1      42.562  31.184  29.925  1.00  0.00     0.074 A 
ATOM     39  C   UNL A   1      41.355  31.908  30.271  1.00  0.00     0.031 C 
ATOM     40  C   UNL A   1      40.321  25.484  28.204  1.00  0.00     0.029 A 
ATOM     41  C   UNL A   1      41.717  25.907  28.318  1.00  0.00     0.049 A 
ATOM     42  H   UNL A   1      42.395  27.775  28.954  1.00  0.00     0.167 HD
ATOM     43  C   UNL A   1      43.820  31.657  30.115  1.00  0.00     0.037 A 
ATOM     44  C   UNL A   1      42.793  25.136  28.041  1.00  0.00     0.037 A 
ATOM     45  C   UNL A   1      45.028  30.933  29.809  1.00  0.00     0.049 A 
ATOM     46  C   UNL A   1      44.188  25.716  28.125  1.00  0.00     0.074 A 
ATOM     47  C   UNL A   1      46.342  31.363  29.920  1.00  0.00     0.029 A 
ATOM     48  N   UNL A   1      45.079  29.627  29.350  1.00  0.00    -0.354 N 
ATOM     49  N   UNL A   1      44.563  26.909  28.517  1.00  0.00    -0.248 NA
ATOM     50  C   UNL A   1      45.304  24.851  27.703  1.00  0.00     0.031 C 
ATOM     51  C   UNL A   1      47.184  30.332  29.490  1.00  0.00     0.029 A 
ATOM     52  C   UNL A   1      46.398  29.243  29.154  1.00  0.00     0.049 A 
ATOM     53  H   UNL A   1      44.295  29.057  29.184  1.00  0.00     0.167 HD
ATOM     54  C   UNL A   1      45.952  26.931  28.406  1.00  0.00     0.074 A 
ATOM     55  C   UNL A   1      46.356  25.631  27.921  1.00  0.00     0.031 C 
ATOM     56  C   UNL A   1      46.810  27.945  28.682  1.00  0.00     0.037 A 
BRANCH  43  57
ATOM     57  C   UNL A   1      43.959  33.072  30.605  1.00  0.00     0.058 A 
ATOM     58  C   UNL A   1      43.967  34.172  29.736  1.00  0.00     0.135 A 
ATOM     59  C   UNL A   1      44.054  33.325  31.984  1.00  0.00     0.135 A 
ATOM     60  F   UNL A   1      43.894  33.986  28.408  1.00  0.00    -0.206 F 
ATOM     61  C   UNL A   1      44.091  35.473  30.215  1.00  0.00     0.059 A 
ATOM     62  C   UNL A   1      44.155  34.617  32.486  1.00  0.00     0.059 A 
ATOM     63  F   UNL A   1      44.047  32.306  32.858  1.00  0.00    -0.206 F 
ATOM     64  C   UNL A   1      44.190  35.685  31.592  1.00  0.00     0.060 A 
BRANCH  64  65
ATOM     65  S   UNL A   1      44.368  37.376  32.202  1.00  0.00     0.124 S 
ATOM     66  O   UNL A   1      45.791  37.416  32.529  1.00  0.00    -0.237 OA
ATOM     67  O   UNL A   1      43.961  38.170  31.049  1.00  0.00    -0.237 OA
ATOM     68  O   UNL A   1      43.460  37.422  33.344  1.00  0.00    -0.744 OA
ENDBRANCH  64  65
ENDBRANCH  43  57
BRANCH  44  69
ATOM     69  C   UNL A   1      42.609  23.734  27.556  1.00  0.00     0.058 A 
ATOM     70  C   UNL A   1      42.462  23.439  26.193  1.00  0.00     0.135 A 
ATOM     71  C   UNL A   1      42.537  22.663  28.462  1.00  0.00     0.135 A 
ATOM     72  F   UNL A   1      42.483  24.428  25.285  1.00  0.00    -0.206 F 
ATOM     73  C   UNL A   1      42.255  22.135  25.744  1.00  0.00     0.059 A 
ATOM     74  C   UNL A   1      42.358  21.350  28.038  1.00  0.00     0.059 A 
ATOM     75  F   UNL A   1      42.653  22.890  29.780  1.00  0.00    -0.206 F 
ATOM     76  C   UNL A   1      42.211  21.097  26.675  1.00  0.00     0.060 A 
BRANCH  76  77
ATOM     77  S   UNL A   1      42.008  19.401  26.082  1.00  0.00     0.124 S 
ATOM     78  O   UNL A   1      42.449  18.629  27.236  1.00  0.00    -0.237 OA
ATOM     79  O   UNL A   1      40.583  19.346  25.780  1.00  0.00    -0.237 OA
ATOM     80  O   UNL A   1      42.890  19.350  24.914  1.00  0.00    -0.744 OA
ENDBRANCH  76  77
ENDBRANCH  44  69
BRANCH  56  81
ATOM     81  C   UNL A   1      48.284  27.691  28.509  1.00  0.00     0.058 A 
ATOM     82  C   UNL A   1      49.065  27.140  29.537  1.00  0.00     0.135 A 
ATOM     83  C   UNL A   1      48.914  27.949  27.279  1.00  0.00     0.135 A 
ATOM     84  F   UNL A   1      48.518  26.877  30.734  1.00  0.00    -0.206 F 
ATOM     85  C   UNL A   1      50.420  26.868  29.358  1.00  0.00     0.059 A 
ATOM     86  C   UNL A   1      50.262  27.666  27.071  1.00  0.00     0.059 A 
ATOM     87  F   UNL A   1      48.213  28.466  26.257  1.00  0.00    -0.206 F 
ATOM     88  C   UNL A   1      51.010  27.134  28.120  1.00  0.00     0.060 A 
BRANCH  88  89
ATOM     89  S   UNL A   1      52.759  26.744  27.887  1.00  0.00     0.124 S 
ATOM     90  O   UNL A   1      52.688  25.565  27.031  1.00  0.00    -0.237 OA
ATOM     91  O   UNL A   1      53.271  27.956  27.254  1.00  0.00    -0.237 OA
ATOM     92  O   UNL A   1      53.239  26.506  29.245  1.00  0.00    -0.744 OA
ENDBRANCH  88  89
ENDBRANCH  56  81
ENDBRANCH  30  31
ENDBRANCH  23  25
ENDBRANCH  22  23
ENDBRANCH  21  22
ENDBRANCH   1  21
TORSDOF 20
ENDMDL
MODEL 2
REMARK VINA RESULT:     -12.2      5.290     10.068
REMARK SMILES CC[C@H](C)C[C@H](CC)[N@@H+]1CCO[C@H](CC(=O)OCCOC(=O)c2ccc(-c3c4nc(c(-c5c(F)cc(S(=O)(=O)[O-])cc5F)c5ccc([nH]5)c(-c5c(F)cc(S(=O)(=O)[O-])cc5F)c5nc(c(-c6c(F)cc(S(=O)(=O)[O-])cc6F)c6ccc3[nH]6)C=C5)C=C4)cc2)C1
REMARK SMILES IDX 18 1 17 2 15 3 16 4 14 5 13 6 9 7 10 8 89 9 11 11 12 12 6 13
REMARK SMILES IDX 5 14 3 15 4 16 2 17 1 18 7 19 8 20 19 21 20 22 21 23 22 24
REMARK SMILES IDX 23 25 24 26 88 27 25 28 87 29 26 30 27 31 28 32 81 33 29 34
REMARK SMILES IDX 86 35 80 36 82 37 30 38 85 39 79 40 78 41 31 43 65 44 44 45
REMARK SMILES IDX 64 46 45 47 48 48 63 49 83 50 46 51 47 52 62 54 84 55 49 56
REMARK SMILES IDX 32 57 33 58 42 59 34 60 35 61 41 62 43 63 36 64 37 65 38 66
REMARK SMILES IDX 39 67 40 68 66 69 67 70 76 71 68 72 69 73 75 74 77 75 70 76
REMARK SMILES IDX 71 77 72 78 73 79 74 80 50 81 51 82 60 83 52 84 53 85 59 86
REMARK SMILES IDX 61 87 54 88 55 89 56 90 57 91 58 92
REMARK H PARENT 9 10 82 42 48 53
REMARK Flexibility Score: inf
ROOT
ATOM      1  C   UNL A   1      31.894  30.876  26.362  1.00  0.00     0.274 C 
ENDROOT
BRANCH   1   2
ATOM      2  O   UNL A   1      31.524  29.162  26.478  1.00  0.00    -0.462 OA
BRANCH   2   3
ATOM      3  C   UNL A   1      31.693  27.775  26.893  1.00  0.00     0.308 C 
ATOM      4  O   UNL A   1      31.443  27.583  28.097  1.00  0.00    -0.252 OA
BRANCH   3   5
ATOM      5  C   UNL A   1      32.169  26.260  25.987  1.00  0.00     0.160 C 
BRANCH   5   6
ATOM      6  C   UNL A   1      31.453  24.692  25.609  1.00  0.00     0.184 C 
ATOM      7  N   UNL A   1      33.025  23.558  24.006  1.00  0.00    -0.328 N 
ATOM      8  C   UNL A   1      31.950  23.445  22.987  1.00  0.00     0.291 C 
ATOM      9  C   UNL A   1      32.315  23.389  25.315  1.00  0.00     0.295 C 
ATOM     10  H   UNL A   1      33.745  22.878  23.760  1.00  0.00     0.348 HD
ATOM     11  C   UNL A   1      30.525  23.797  23.515  1.00  0.00     0.222 C 
ATOM     12  O   UNL A   1      30.492  24.843  24.521  1.00  0.00    -0.366 OA
BRANCH   7  13
ATOM     13  C   UNL A   1      33.711  24.894  24.106  1.00  0.00     0.184 C 
BRANCH  13  14
ATOM     14  C   UNL A   1      33.272  25.765  22.622  1.00  0.00     0.068 C 
BRANCH  14  15
ATOM     15  C   UNL A   1      32.696  27.271  22.304  1.00  0.00    -0.009 C 
ATOM     16  C   UNL A   1      31.457  27.880  23.030  1.00  0.00     0.008 C 
BRANCH  15  17
ATOM     17  C   UNL A   1      33.833  28.308  22.612  1.00  0.00    -0.000 C 
ATOM     18  C   UNL A   1      34.164  28.526  24.099  1.00  0.00     0.004 C 
ENDBRANCH  15  17
ENDBRANCH  14  15
ENDBRANCH  13  14
BRANCH  13  19
ATOM     19  C   UNL A   1      35.000  24.953  25.440  1.00  0.00     0.061 C 
ATOM     20  C   UNL A   1      36.264  23.952  26.027  1.00  0.00     0.010 C 
ENDBRANCH  13  19
ENDBRANCH   7  13
ENDBRANCH   5   6
ENDBRANCH   3   5
ENDBRANCH   2   3
ENDBRANCH   1   2
BRANCH   1  21
ATOM     21  C   UNL A   1      32.852  31.930  27.431  1.00  0.00     0.275 C 
BRANCH  21  22
ATOM     22  O   UNL A   1      32.547  33.438  27.574  1.00  0.00    -0.458 OA
BRANCH  22  23
ATOM     23  C   UNL A   1      33.134  34.300  28.505  1.00  0.00     0.338 C 
ATOM     24  O   UNL A   1      32.574  35.303  28.930  1.00  0.00    -0.246 OA
BRANCH  23  25
ATOM     25  C   UNL A   1      34.469  33.801  29.157  1.00  0.00     0.060 A 
ATOM     26  C   UNL A   1      34.474  33.040  30.343  1.00  0.00     0.016 A 
ATOM     27  C   UNL A   1      35.743  34.209  28.767  1.00  0.00     0.016 A 
ATOM     28  C   UNL A   1      35.610  32.518  30.995  1.00  0.00     0.010 A 
ATOM     29  C   UNL A   1      36.922  33.756  29.465  1.00  0.00     0.010 A 
ATOM     30  C   UNL A   1      36.874  32.868  30.564  1.00  0.00    -0.014 A 
BRANCH  30  31
ATOM     31  C   UNL A   1      38.072  32.423  31.359  1.00  0.00     0.031 A 
ATOM     32  C   UNL A   1      38.959  31.322  30.826  1.00  0.00     0.074 A 
ATOM     33  C   UNL A   1      38.479  33.040  32.492  1.00  0.00     0.049 A 
ATOM     34  N   UNL A   1      39.897  30.636  31.432  1.00  0.00    -0.248 NA
ATOM     35  C   UNL A   1      38.777  30.969  29.411  1.00  0.00     0.031 C 
ATOM     36  C   UNL A   1      37.894  34.251  33.063  1.00  0.00     0.029 A 
ATOM     37  N   UNL A   1      39.493  32.720  33.377  1.00  0.00    -0.354 N 
ATOM     38  C   UNL A   1      40.377  29.729  30.494  1.00  0.00     0.074 A 
ATOM     39  C   UNL A   1      39.650  29.979  29.265  1.00  0.00     0.031 C 
ATOM     40  C   UNL A   1      38.525  34.546  34.215  1.00  0.00     0.029 A 
ATOM     41  C   UNL A   1      39.520  33.512  34.505  1.00  0.00     0.049 A 
ATOM     42  H   UNL A   1      40.137  31.992  33.216  1.00  0.00     0.167 HD
ATOM     43  C   UNL A   1      41.318  28.763  30.643  1.00  0.00     0.037 A 
ATOM     44  C   UNL A   1      40.211  33.395  35.663  1.00  0.00     0.037 A 
ATOM     45  C   UNL A   1      42.075  28.527  31.847  1.00  0.00     0.049 A 
ATOM     46  C   UNL A   1      41.158  32.234  35.870  1.00  0.00     0.074 A 
ATOM     47  C   UNL A   1      43.007  27.532  32.098  1.00  0.00     0.029 A 
ATOM     48  N   UNL A   1      42.003  29.298  32.996  1.00  0.00    -0.354 N 
ATOM     49  N   UNL A   1      41.501  31.289  35.028  1.00  0.00    -0.248 NA
ATOM     50  C   UNL A   1      41.792  32.109  37.194  1.00  0.00     0.031 C 
ATOM     51  C   UNL A   1      43.469  27.679  33.411  1.00  0.00     0.029 A 
ATOM     52  C   UNL A   1      42.859  28.791  33.963  1.00  0.00     0.049 A 
ATOM     53  H   UNL A   1      41.428  30.088  33.110  1.00  0.00     0.167 HD
ATOM     54  C   UNL A   1      42.400  30.473  35.713  1.00  0.00     0.074 A 
ATOM     55  C   UNL A   1      42.558  31.038  37.035  1.00  0.00     0.031 C 
ATOM     56  C   UNL A   1      43.032  29.355  35.278  1.00  0.00     0.037 A 
BRANCH  43  57
ATOM     57  C   UNL A   1      41.527  27.819  29.492  1.00  0.00     0.058 A 
ATOM     58  C   UNL A   1      40.602  26.819  29.160  1.00  0.00     0.135 A 
ATOM     59  C   UNL A   1      42.671  27.947  28.685  1.00  0.00     0.135 A 
ATOM     60  F   UNL A   1      39.500  26.643  29.907  1.00  0.00    -0.206 F 
ATOM     61  C   UNL A   1      40.816  25.961  28.085  1.00  0.00     0.059 A 
ATOM     62  C   UNL A   1      42.894  27.117  27.592  1.00  0.00     0.059 A 
ATOM     63  F   UNL A   1      43.586  28.892  28.957  1.00  0.00    -0.206 F 
ATOM     64  C   UNL A   1      41.968  26.114  27.310  1.00  0.00     0.060 A 
BRANCH  64  65
ATOM     65  S   UNL A   1      42.245  24.985  25.928  1.00  0.00     0.124 S 
ATOM     66  O   UNL A   1      41.099  24.088  26.055  1.00  0.00    -0.237 OA
ATOM     67  O   UNL A   1      42.222  25.883  24.779  1.00  0.00    -0.237 OA
ATOM     68  O   UNL A   1      43.543  24.390  26.231  1.00  0.00    -0.744 OA
ENDBRANCH  64  65
ENDBRANCH  43  57
BRANCH  44  69
ATOM     69  C   UNL A   1      39.971  34.356  36.782  1.00  0.00     0.058 A 
ATOM     70  C   UNL A   1      39.112  34.047  37.847  1.00  0.00     0.135 A 
ATOM     71  C   UNL A   1      40.574  35.625  36.783  1.00  0.00     0.135 A 
ATOM     72  F   UNL A   1      38.478  32.865  37.878  1.00  0.00    -0.206 F 
ATOM     73  C   UNL A   1      38.861  34.958  38.873  1.00  0.00     0.059 A 
ATOM     74  C   UNL A   1      40.361  36.541  37.808  1.00  0.00     0.059 A 
ATOM     75  F   UNL A   1      41.392  35.980  35.779  1.00  0.00    -0.206 F 
ATOM     76  C   UNL A   1      39.497  36.201  38.847  1.00  0.00     0.060 A 
BRANCH  76  77
ATOM     77  S   UNL A   1      39.220  37.351  40.214  1.00  0.00     0.124 S 
ATOM     78  O   UNL A   1      40.584  37.686  40.600  1.00  0.00    -0.237 OA
ATOM     79  O   UNL A   1      38.455  38.415  39.574  1.00  0.00    -0.237 OA
ATOM     80  O   UNL A   1      38.469  36.545  41.179  1.00  0.00    -0.744 OA
ENDBRANCH  76  77
ENDBRANCH  44  69
BRANCH  56  81
ATOM     81  C   UNL A   1      43.992  28.674  36.218  1.00  0.00     0.058 A 
ATOM     82  C   UNL A   1      43.601  27.587  37.016  1.00  0.00     0.135 A 
ATOM     83  C   UNL A   1      45.337  29.077  36.281  1.00  0.00     0.135 A 
ATOM     84  F   UNL A   1      42.328  27.162  37.000  1.00  0.00    -0.206 F 
ATOM     85  C   UNL A   1      44.503  26.934  37.852  1.00  0.00     0.059 A 
ATOM     86  C   UNL A   1      46.261  28.426  37.094  1.00  0.00     0.059 A 
ATOM     87  F   UNL A   1      45.770  30.104  35.532  1.00  0.00    -0.206 F 
ATOM     88  C   UNL A   1      45.833  27.360  37.885  1.00  0.00     0.060 A 
BRANCH  88  89
ATOM     89  S   UNL A   1      47.004  26.484  38.947  1.00  0.00     0.124 S 
ATOM     90  O   UNL A   1      46.210  26.275  40.153  1.00  0.00    -0.237 OA
ATOM     91  O   UNL A   1      47.299  25.285  38.168  1.00  0.00    -0.237 OA
ATOM     92  O   UNL A   1      48.112  27.425  39.079  1.00  0.00    -0.744 OA
ENDBRANCH  88  89
ENDBRANCH  56  81
ENDBRANCH  30  31
ENDBRANCH  23  25
ENDBRANCH  22  23
ENDBRANCH  21  22
ENDBRANCH   1  21
TORSDOF 20
ENDMDL
MODEL 3
REMARK VINA RESULT:     -12.1      3.083      7.722
REMARK SMILES CC[C@H](C)C[C@H](CC)[N@@H+]1CCO[C@H](CC(=O)OCCOC(=O)c2ccc(-c3c4nc(c(-c5c(F)cc(S(=O)(=O)[O-])cc5F)c5ccc([nH]5)c(-c5c(F)cc(S(=O)(=O)[O-])cc5F)c5nc(c(-c6c(F)cc(S(=O)(=O)[O-])cc6F)c6ccc3[nH]6)C=C5)C=C4)cc2)C1
REMARK SMILES IDX 18 1 17 2 15 3 16 4 14 5 13 6 9 7 10 8 89 9 11 11 12 12 6 13
REMARK SMILES IDX 5 14 3 15 4 16 2 17 1 18 7 19 8 20 19 21 20 22 21 23 22 24
REMARK SMILES IDX 23 25 24 26 88 27 25 28 87 29 26 30 27 31 28 32 81 33 29 34
REMARK SMILES IDX 86 35 80 36 82 37 30 38 85 39 79 40 78 41 31 43 65 44 44 45
REMARK SMILES IDX 64 46 45 47 48 48 63 49 83 50 46 51 47 52 62 54 84 55 49 56
REMARK SMILES IDX 32 57 33 58 42 59 34 60 35 61 41 62 43 63 36 64 37 65 38 66
REMARK SMILES IDX 39 67 40 68 66 69 67 70 76 71 68 72 69 73 75 74 77 75 70 76
REMARK SMILES IDX 71 77 72 78 73 79 74 80 50 81 51 82 60 83 52 84 53 85 59 86
REMARK SMILES IDX 61 87 54 88 55 89 56 90 57 91 58 92
REMARK H PARENT 9 10 82 42 48 53
REMARK Flexibility Score: inf
ROOT
ATOM      1  C   UNL A   1      37.328  20.951  25.166  1.00  0.00     0.274 C 
ENDROOT
BRANCH   1   2
ATOM      2  O   UNL A   1      35.817  21.217  26.023  1.00  0.00    -0.462 OA
BRANCH   2   3
ATOM      3  C   UNL A   1      34.705  21.972  26.585  1.00  0.00     0.308 C 
ATOM      4  O   UNL A   1      34.177  21.422  27.568  1.00  0.00    -0.252 OA
BRANCH   3   5
ATOM      5  C   UNL A   1      33.954  23.582  26.150  1.00  0.00     0.160 C 
BRANCH   5   6
ATOM      6  C   UNL A   1      33.388  24.401  24.694  1.00  0.00     0.184 C 
ATOM      7  N   UNL A   1      31.435  23.067  23.837  1.00  0.00    -0.328 N 
ATOM      8  C   UNL A   1      32.118  22.850  22.536  1.00  0.00     0.291 C 
ATOM      9  C   UNL A   1      31.861  24.442  24.254  1.00  0.00     0.295 C 
ATOM     10  H   UNL A   1      30.440  22.899  23.686  1.00  0.00     0.348 HD
ATOM     11  C   UNL A   1      33.405  23.708  22.334  1.00  0.00     0.222 C 
ATOM     12  O   UNL A   1      34.168  23.950  23.545  1.00  0.00    -0.366 OA
BRANCH   7  13
ATOM     13  C   UNL A   1      31.858  22.170  24.969  1.00  0.00     0.184 C 
BRANCH  13  14
ATOM     14  C   UNL A   1      32.743  20.832  24.209  1.00  0.00     0.068 C 
BRANCH  14  15
ATOM     15  C   UNL A   1      32.579  19.196  24.217  1.00  0.00    -0.009 C 
ATOM     16  C   UNL A   1      32.181  18.374  22.954  1.00  0.00     0.008 C 
BRANCH  15  17
ATOM     17  C   UNL A   1      33.957  18.567  24.630  1.00  0.00    -0.000 C 
ATOM     18  C   UNL A   1      34.389  17.314  23.849  1.00  0.00     0.004 C 
ENDBRANCH  15  17
ENDBRANCH  14  15
ENDBRANCH  13  14
BRANCH  13  19
ATOM     19  C   UNL A   1      30.991  22.553  26.564  1.00  0.00     0.061 C 
ATOM     20  C   UNL A   1      29.377  22.726  27.121  1.00  0.00     0.010 C 
ENDBRANCH  13  19
ENDBRANCH   7  13
ENDBRANCH   5   6
ENDBRANCH   3   5
ENDBRANCH   2   3
ENDBRANCH   1   2
BRANCH   1  21
ATOM     21  C   UNL A   1      39.013  21.034  25.736  1.00  0.00     0.275 C 
BRANCH  21  22
ATOM     22  O   UNL A   1      39.914  19.780  25.799  1.00  0.00    -0.458 OA
BRANCH  22  23
ATOM     23  C   UNL A   1      41.278  19.775  26.104  1.00  0.00     0.338 C 
ATOM     24  O   UNL A   1      42.012  18.825  25.861  1.00  0.00    -0.246 OA
BRANCH  23  25
ATOM     25  C   UNL A   1      41.882  21.143  26.573  1.00  0.00     0.060 A 
ATOM     26  C   UNL A   1      42.232  22.152  25.653  1.00  0.00     0.016 A 
ATOM     27  C   UNL A   1      42.309  21.418  27.871  1.00  0.00     0.016 A 
ATOM     28  C   UNL A   1      42.752  23.424  25.968  1.00  0.00     0.010 A 
ATOM     29  C   UNL A   1      42.920  22.682  28.208  1.00  0.00     0.010 A 
ATOM     30  C   UNL A   1      43.110  23.721  27.268  1.00  0.00    -0.014 A 
BRANCH  30  31
ATOM     31  C   UNL A   1      43.800  25.026  27.562  1.00  0.00     0.031 A 
ATOM     32  C   UNL A   1      43.010  26.180  28.133  1.00  0.00     0.074 A 
ATOM     33  C   UNL A   1      45.138  25.197  27.452  1.00  0.00     0.049 A 
ATOM     34  N   UNL A   1      43.340  27.442  28.253  1.00  0.00    -0.248 NA
ATOM     35  C   UNL A   1      41.678  25.856  28.663  1.00  0.00     0.031 C 
ATOM     36  C   UNL A   1      46.109  24.155  27.126  1.00  0.00     0.029 A 
ATOM     37  N   UNL A   1      45.916  26.331  27.603  1.00  0.00    -0.354 N 
ATOM     38  C   UNL A   1      42.239  28.077  28.814  1.00  0.00     0.074 A 
ATOM     39  C   UNL A   1      41.242  27.050  29.046  1.00  0.00     0.031 C 
ATOM     40  C   UNL A   1      47.337  24.701  27.059  1.00  0.00     0.029 A 
ATOM     41  C   UNL A   1      47.242  26.146  27.273  1.00  0.00     0.049 A 
ATOM     42  H   UNL A   1      45.555  27.193  27.916  1.00  0.00     0.167 HD
ATOM     43  C   UNL A   1      42.060  29.393  29.092  1.00  0.00     0.037 A 
ATOM     44  C   UNL A   1      48.251  27.030  27.101  1.00  0.00     0.037 A 
ATOM     45  C   UNL A   1      43.054  30.419  28.901  1.00  0.00     0.049 A 
ATOM     46  C   UNL A   1      48.005  28.511  27.282  1.00  0.00     0.074 A 
ATOM     47  C   UNL A   1      42.934  31.785  29.105  1.00  0.00     0.029 A 
ATOM     48  N   UNL A   1      44.355  30.198  28.479  1.00  0.00    -0.354 N 
ATOM     49  N   UNL A   1      46.914  29.125  27.674  1.00  0.00    -0.248 NA
ATOM     50  C   UNL A   1      49.119  29.424  26.971  1.00  0.00     0.031 C 
ATOM     51  C   UNL A   1      44.148  32.393  28.769  1.00  0.00     0.029 A 
ATOM     52  C   UNL A   1      45.040  31.401  28.398  1.00  0.00     0.049 A 
ATOM     53  H   UNL A   1      44.736  29.316  28.265  1.00  0.00     0.167 HD
ATOM     54  C   UNL A   1      47.217  30.485  27.674  1.00  0.00     0.074 A 
ATOM     55  C   UNL A   1      48.595  30.609  27.253  1.00  0.00     0.031 C 
ATOM     56  C   UNL A   1      46.417  31.533  27.992  1.00  0.00     0.037 A 
BRANCH  43  57
ATOM     57  C   UNL A   1      40.696  29.822  29.557  1.00  0.00     0.058 A 
ATOM     58  C   UNL A   1      39.607  29.947  28.683  1.00  0.00     0.135 A 
ATOM     59  C   UNL A   1      40.474  30.081  30.920  1.00  0.00     0.135 A 
ATOM     60  F   UNL A   1      39.767  29.726  27.368  1.00  0.00    -0.206 F 
ATOM     61  C   UNL A   1      38.352  30.340  29.139  1.00  0.00     0.059 A 
ATOM     62  C   UNL A   1      39.224  30.452  31.403  1.00  0.00     0.059 A 
ATOM     63  F   UNL A   1      41.483  29.972  31.800  1.00  0.00    -0.206 F 
ATOM     64  C   UNL A   1      38.172  30.596  30.501  1.00  0.00     0.060 A 
BRANCH  64  65
ATOM     65  S   UNL A   1      36.544  31.122  31.080  1.00  0.00     0.124 S 
ATOM     66  O   UNL A   1      36.855  32.420  31.673  1.00  0.00    -0.237 OA
ATOM     67  O   UNL A   1      35.768  31.159  29.845  1.00  0.00    -0.237 OA
ATOM     68  O   UNL A   1      36.165  30.075  32.024  1.00  0.00    -0.744 OA
ENDBRANCH  64  65
ENDBRANCH  43  57
BRANCH  44  69
ATOM     69  C   UNL A   1      49.592  26.561  26.637  1.00  0.00     0.058 A 
ATOM     70  C   UNL A   1      50.597  26.189  27.543  1.00  0.00     0.135 A 
ATOM     71  C   UNL A   1      49.905  26.515  25.268  1.00  0.00     0.135 A 
ATOM     72  F   UNL A   1      50.367  26.251  28.864  1.00  0.00    -0.206 F 
ATOM     73  C   UNL A   1      51.860  25.786  27.110  1.00  0.00     0.059 A 
ATOM     74  C   UNL A   1      51.148  26.090  24.811  1.00  0.00     0.059 A 
ATOM     75  F   UNL A   1      48.987  26.877  24.358  1.00  0.00    -0.206 F 
ATOM     76  C   UNL A   1      52.122  25.733  25.741  1.00  0.00     0.060 A 
BRANCH  76  77
ATOM     77  S   UNL A   1      53.739  25.146  25.184  1.00  0.00     0.124 S 
ATOM     78  O   UNL A   1      54.638  25.860  26.080  1.00  0.00    -0.237 OA
ATOM     79  O   UNL A   1      53.635  23.707  25.392  1.00  0.00    -0.237 OA
ATOM     80  O   UNL A   1      53.780  25.565  23.781  1.00  0.00    -0.744 OA
ENDBRANCH  76  77
ENDBRANCH  44  69
BRANCH  56  81
ATOM     81  C   UNL A   1      47.010  32.917  27.943  1.00  0.00     0.058 A 
ATOM     82  C   UNL A   1      47.801  33.419  28.988  1.00  0.00     0.135 A 
ATOM     83  C   UNL A   1      46.832  33.730  26.811  1.00  0.00     0.135 A 
ATOM     84  F   UNL A   1      48.001  32.688  30.095  1.00  0.00    -0.206 F 
ATOM     85  C   UNL A   1      48.383  34.684  28.919  1.00  0.00     0.059 A 
ATOM     86  C   UNL A   1      47.421  34.989  26.712  1.00  0.00     0.059 A 
ATOM     87  F   UNL A   1      46.094  33.296  25.777  1.00  0.00    -0.206 F 
ATOM     88  C   UNL A   1      48.187  35.462  27.776  1.00  0.00     0.060 A 
BRANCH  88  89
ATOM     89  S   UNL A   1      48.974  37.086  27.682  1.00  0.00     0.124 S 
ATOM     90  O   UNL A   1      49.163  37.240  26.243  1.00  0.00    -0.237 OA
ATOM     91  O   UNL A   1      47.972  37.958  28.287  1.00  0.00    -0.237 OA
ATOM     92  O   UNL A   1      50.198  36.916  28.461  1.00  0.00    -0.744 OA
ENDBRANCH  88  89
ENDBRANCH  56  81
ENDBRANCH  30  31
ENDBRANCH  23  25
ENDBRANCH  22  23
ENDBRANCH  21  22
ENDBRANCH   1  21
TORSDOF 20
ENDMDL
