MODEL 1
REMARK VINA RESULT:     -10.7      0.000      0.000
REMARK SMILES CCOc1ccccc1NC(=O)N[C@@](C)(CC)C(=O)OCCOC(=O)c1ccc(-c2c3nc(c(-c4c(F)cc(S(=O)(=O)[O-])cc4F)c4ccc([nH]4)c(-c4c(F)cc(S(=O)(=O)[O-])cc4F)c4nc(c(-c5c(F)cc(S(=O)(=O)[O-])cc5F)c5ccc2[nH]5)C=C4)C=C3)cc1
REMARK SMILES IDX 21 1 20 2 18 3 19 4 14 5 15 6 13 7 10 8 11 9 12 11 9 13 4 14
REMARK SMILES IDX 5 15 6 16 8 17 7 18 3 19 2 20 1 21 16 22 17 23 22 24 23 25
REMARK SMILES IDX 24 26 25 27 26 28 27 29 91 30 28 31 90 32 29 33 30 34 31 35
REMARK SMILES IDX 84 36 32 37 89 38 83 39 85 40 33 41 88 42 82 43 81 44 34 46
REMARK SMILES IDX 68 47 47 48 67 49 48 50 51 51 66 52 86 53 49 54 50 55 65 57
REMARK SMILES IDX 87 58 52 59 35 60 36 61 45 62 37 63 38 64 44 65 46 66 39 67
REMARK SMILES IDX 40 68 41 69 42 70 43 71 69 72 70 73 79 74 71 75 72 76 78 77
REMARK SMILES IDX 80 78 73 79 74 80 75 81 76 82 77 83 53 84 54 85 63 86 55 87
REMARK SMILES IDX 56 88 62 89 64 90 57 91 58 92 59 93 60 94 61 95
REMARK H PARENT 10 10 13 12 85 45 51 56
REMARK Flexibility Score: inf
ROOT
ATOM      1  C   UNL A   1      39.646  21.444  26.488  1.00  0.00     0.274 C 
ENDROOT
BRANCH   1   2
ATOM      2  O   UNL A   1      38.682  21.473  25.403  1.00  0.00    -0.460 OA
BRANCH   2   3
ATOM      3  C   UNL A   1      37.678  22.361  25.602  1.00  0.00     0.331 C 
ATOM      4  O   UNL A   1      37.908  23.526  25.889  1.00  0.00    -0.249 OA
BRANCH   3   5
ATOM      5  C   UNL A   1      36.235  21.843  25.408  1.00  0.00     0.136 C 
ATOM      6  C   UNL A   1      36.081  20.378  24.970  1.00  0.00     0.047 C 
BRANCH   5   7
ATOM      7  N   UNL A   1      35.525  21.967  26.724  1.00  0.00    -0.322 N 
ATOM      8  N   UNL A   1      33.371  20.983  26.458  1.00  0.00    -0.305 N 
ATOM      9  C   UNL A   1      34.225  21.807  27.113  1.00  0.00     0.320 C 
ATOM     10  H   UNL A   1      33.049  20.246  27.024  1.00  0.00     0.172 HD
ATOM     11  O   UNL A   1      33.949  22.176  28.257  1.00  0.00    -0.248 OA
ATOM     12  H   UNL A   1      36.123  22.217  27.465  1.00  0.00     0.166 HD
BRANCH   8  13
ATOM     13  C   UNL A   1      32.834  20.936  25.153  1.00  0.00     0.085 A 
ATOM     14  C   UNL A   1      32.832  19.698  24.478  1.00  0.00     0.142 A 
ATOM     15  C   UNL A   1      32.492  19.613  23.124  1.00  0.00     0.048 A 
ATOM     16  C   UNL A   1      32.142  20.771  22.433  1.00  0.00     0.004 A 
ATOM     17  C   UNL A   1      32.352  22.053  24.482  1.00  0.00     0.030 A 
ATOM     18  C   UNL A   1      32.058  21.984  23.115  1.00  0.00     0.002 A 
BRANCH  14  19
ATOM     19  O   UNL A   1      33.417  18.593  25.045  1.00  0.00    -0.492 OA
BRANCH  19  20
ATOM     20  C   UNL A   1      32.998  17.357  24.464  1.00  0.00     0.226 C 
ATOM     21  C   UNL A   1      32.546  16.438  25.587  1.00  0.00     0.049 C 
ENDBRANCH  19  20
ENDBRANCH  14  19
ENDBRANCH   8  13
ENDBRANCH   5   7
BRANCH   5  22
ATOM     22  C   UNL A   1      35.505  22.669  24.289  1.00  0.00     0.037 C 
ATOM     23  C   UNL A   1      35.120  24.121  24.525  1.00  0.00     0.007 C 
ENDBRANCH   5  22
ENDBRANCH   3   5
ENDBRANCH   2   3
ENDBRANCH   1   2
BRANCH   1  24
ATOM     24  C   UNL A   1      41.150  21.652  26.172  1.00  0.00     0.275 C 
BRANCH  24  25
ATOM     25  O   UNL A   1      41.506  22.975  25.714  1.00  0.00    -0.458 OA
BRANCH  25  26
ATOM     26  C   UNL A   1      42.359  23.652  26.528  1.00  0.00     0.338 C 
ATOM     27  O   UNL A   1      43.549  23.424  26.661  1.00  0.00    -0.246 OA
BRANCH  26  28
ATOM     28  C   UNL A   1      41.731  24.860  27.123  1.00  0.00     0.060 A 
ATOM     29  C   UNL A   1      42.531  26.009  27.202  1.00  0.00     0.016 A 
ATOM     30  C   UNL A   1      40.474  24.860  27.723  1.00  0.00     0.016 A 
ATOM     31  C   UNL A   1      42.139  27.127  27.919  1.00  0.00     0.010 A 
ATOM     32  C   UNL A   1      40.078  25.979  28.476  1.00  0.00     0.010 A 
ATOM     33  C   UNL A   1      40.942  27.086  28.626  1.00  0.00    -0.014 A 
BRANCH  33  34
ATOM     34  C   UNL A   1      40.797  28.042  29.750  1.00  0.00     0.031 A 
ATOM     35  C   UNL A   1      41.820  27.957  30.856  1.00  0.00     0.074 A 
ATOM     36  C   UNL A   1      39.893  29.038  29.722  1.00  0.00     0.049 A 
ATOM     37  N   UNL A   1      41.938  28.674  31.940  1.00  0.00    -0.248 NA
ATOM     38  C   UNL A   1      42.864  26.925  30.705  1.00  0.00     0.031 C 
ATOM     39  C   UNL A   1      38.945  29.295  28.637  1.00  0.00     0.029 A 
ATOM     40  N   UNL A   1      39.639  30.031  30.633  1.00  0.00    -0.354 N 
ATOM     41  C   UNL A   1      43.052  28.172  32.605  1.00  0.00     0.074 A 
ATOM     42  C   UNL A   1      43.570  27.081  31.814  1.00  0.00     0.031 C 
ATOM     43  C   UNL A   1      38.199  30.369  28.956  1.00  0.00     0.029 A 
ATOM     44  C   UNL A   1      38.598  30.857  30.274  1.00  0.00     0.049 A 
ATOM     45  H   UNL A   1      40.152  30.143  31.465  1.00  0.00     0.167 HD
ATOM     46  C   UNL A   1      43.595  28.583  33.774  1.00  0.00     0.037 A 
ATOM     47  C   UNL A   1      38.031  31.876  30.951  1.00  0.00     0.037 A 
ATOM     48  C   UNL A   1      43.074  29.674  34.551  1.00  0.00     0.049 A 
ATOM     49  C   UNL A   1      38.600  32.254  32.300  1.00  0.00     0.074 A 
ATOM     50  C   UNL A   1      43.523  30.161  35.764  1.00  0.00     0.029 A 
ATOM     51  N   UNL A   1      41.979  30.445  34.187  1.00  0.00    -0.354 N 
ATOM     52  N   UNL A   1      39.637  31.753  32.933  1.00  0.00    -0.248 NA
ATOM     53  C   UNL A   1      37.924  33.339  33.023  1.00  0.00     0.031 C 
ATOM     54  C   UNL A   1      42.668  31.194  36.159  1.00  0.00     0.029 A 
ATOM     55  C   UNL A   1      41.723  31.390  35.163  1.00  0.00     0.049 A 
ATOM     56  H   UNL A   1      41.462  30.335  33.356  1.00  0.00     0.167 HD
ATOM     57  C   UNL A   1      39.760  32.491  34.106  1.00  0.00     0.074 A 
ATOM     58  C   UNL A   1      38.700  33.478  34.089  1.00  0.00     0.031 C 
ATOM     59  C   UNL A   1      40.668  32.372  35.109  1.00  0.00     0.037 A 
BRANCH  46  60
ATOM     60  C   UNL A   1      44.770  27.811  34.306  1.00  0.00     0.058 A 
ATOM     61  C   UNL A   1      46.096  28.167  34.013  1.00  0.00     0.135 A 
ATOM     62  C   UNL A   1      44.560  26.695  35.132  1.00  0.00     0.135 A 
ATOM     63  F   UNL A   1      46.355  29.205  33.203  1.00  0.00    -0.206 F 
ATOM     64  C   UNL A   1      47.173  27.437  34.511  1.00  0.00     0.059 A 
ATOM     65  C   UNL A   1      45.621  25.966  35.662  1.00  0.00     0.059 A 
ATOM     66  F   UNL A   1      43.312  26.302  35.432  1.00  0.00    -0.206 F 
ATOM     67  C   UNL A   1      46.923  26.339  35.338  1.00  0.00     0.060 A 
BRANCH  67  68
ATOM     68  S   UNL A   1      48.327  25.414  35.995  1.00  0.00     0.124 S 
ATOM     69  O   UNL A   1      49.346  25.666  34.981  1.00  0.00    -0.237 OA
ATOM     70  O   UNL A   1      48.546  26.055  37.287  1.00  0.00    -0.237 OA
ATOM     71  O   UNL A   1      47.832  24.041  36.056  1.00  0.00    -0.744 OA
ENDBRANCH  67  68
ENDBRANCH  46  60
BRANCH  47  72
ATOM     72  C   UNL A   1      36.851  32.601  30.398  1.00  0.00     0.058 A 
ATOM     73  C   UNL A   1      36.999  33.629  29.453  1.00  0.00     0.135 A 
ATOM     74  C   UNL A   1      35.551  32.322  30.852  1.00  0.00     0.135 A 
ATOM     75  F   UNL A   1      38.220  33.947  28.995  1.00  0.00    -0.206 F 
ATOM     76  C   UNL A   1      35.912  34.379  29.009  1.00  0.00     0.059 A 
ATOM     77  C   UNL A   1      34.445  33.038  30.400  1.00  0.00     0.059 A 
ATOM     78  F   UNL A   1      35.346  31.348  31.752  1.00  0.00    -0.206 F 
ATOM     79  C   UNL A   1      34.638  34.079  29.493  1.00  0.00     0.060 A 
BRANCH  79  80
ATOM     80  S   UNL A   1      33.235  35.060  28.918  1.00  0.00     0.124 S 
ATOM     81  O   UNL A   1      32.503  35.283  30.160  1.00  0.00    -0.237 OA
ATOM     82  O   UNL A   1      33.891  36.230  28.345  1.00  0.00    -0.237 OA
ATOM     83  O   UNL A   1      32.583  34.180  27.952  1.00  0.00    -0.744 OA
ENDBRANCH  79  80
ENDBRANCH  47  72
BRANCH  59  84
ATOM     84  C   UNL A   1      40.589  33.369  36.232  1.00  0.00     0.058 A 
ATOM     85  C   UNL A   1      39.758  33.173  37.345  1.00  0.00     0.135 A 
ATOM     86  C   UNL A   1      41.381  34.530  36.201  1.00  0.00     0.135 A 
ATOM     87  F   UNL A   1      38.983  32.079  37.426  1.00  0.00    -0.206 F 
ATOM     88  C   UNL A   1      39.678  34.115  38.365  1.00  0.00     0.059 A 
ATOM     89  C   UNL A   1      41.342  35.468  37.226  1.00  0.00     0.059 A 
ATOM     90  F   UNL A   1      42.210  34.757  35.169  1.00  0.00    -0.206 F 
ATOM     91  C   UNL A   1      40.468  35.263  38.293  1.00  0.00     0.060 A 
BRANCH  91  92
ATOM     92  S   UNL A   1      40.351  36.483  39.617  1.00  0.00     0.124 S 
ATOM     93  O   UNL A   1      41.634  36.309  40.289  1.00  0.00    -0.237 OA
ATOM     94  O   UNL A   1      40.183  37.732  38.880  1.00  0.00    -0.237 OA
ATOM     95  O   UNL A   1      39.181  36.050  40.376  1.00  0.00    -0.744 OA
ENDBRANCH  91  92
ENDBRANCH  59  84
ENDBRANCH  33  34
ENDBRANCH  26  28
ENDBRANCH  25  26
ENDBRANCH  24  25
ENDBRANCH   1  24
TORSDOF 19
ENDMDL
MODEL 2
REMARK VINA RESULT:     -10.6      3.352      9.516
REMARK SMILES CCOc1ccccc1NC(=O)N[C@@](C)(CC)C(=O)OCCOC(=O)c1ccc(-c2c3nc(c(-c4c(F)cc(S(=O)(=O)[O-])cc4F)c4ccc([nH]4)c(-c4c(F)cc(S(=O)(=O)[O-])cc4F)c4nc(c(-c5c(F)cc(S(=O)(=O)[O-])cc5F)c5ccc2[nH]5)C=C4)C=C3)cc1
REMARK SMILES IDX 21 1 20 2 18 3 19 4 14 5 15 6 13 7 10 8 11 9 12 11 9 13 4 14
REMARK SMILES IDX 5 15 6 16 8 17 7 18 3 19 2 20 1 21 16 22 17 23 22 24 23 25
REMARK SMILES IDX 24 26 25 27 26 28 27 29 91 30 28 31 90 32 29 33 30 34 31 35
REMARK SMILES IDX 84 36 32 37 89 38 83 39 85 40 33 41 88 42 82 43 81 44 34 46
REMARK SMILES IDX 68 47 47 48 67 49 48 50 51 51 66 52 86 53 49 54 50 55 65 57
REMARK SMILES IDX 87 58 52 59 35 60 36 61 45 62 37 63 38 64 44 65 46 66 39 67
REMARK SMILES IDX 40 68 41 69 42 70 43 71 69 72 70 73 79 74 71 75 72 76 78 77
REMARK SMILES IDX 80 78 73 79 74 80 75 81 76 82 77 83 53 84 54 85 63 86 55 87
REMARK SMILES IDX 56 88 62 89 64 90 57 91 58 92 59 93 60 94 61 95
REMARK H PARENT 10 10 13 12 85 45 51 56
REMARK Flexibility Score: inf
ROOT
ATOM      1  C   UNL A   1      31.782  29.153  26.099  1.00  0.00     0.274 C 
ENDROOT
BRANCH   1   2
ATOM      2  O   UNL A   1      31.999  27.861  25.474  1.00  0.00    -0.460 OA
BRANCH   2   3
ATOM      3  C   UNL A   1      32.514  27.949  24.224  1.00  0.00     0.331 C 
ATOM      4  O   UNL A   1      33.715  28.083  24.040  1.00  0.00    -0.249 OA
BRANCH   3   5
ATOM      5  C   UNL A   1      31.522  27.829  23.045  1.00  0.00     0.136 C 
ATOM      6  C   UNL A   1      31.073  29.144  22.386  1.00  0.00     0.047 C 
BRANCH   5   7
ATOM      7  N   UNL A   1      32.187  27.024  21.969  1.00  0.00    -0.322 N 
ATOM      8  N   UNL A   1      32.232  24.759  22.708  1.00  0.00    -0.305 N 
ATOM      9  C   UNL A   1      32.696  25.757  21.916  1.00  0.00     0.320 C 
ATOM     10  H   UNL A   1      31.832  24.023  22.191  1.00  0.00     0.172 HD
ATOM     11  O   UNL A   1      33.353  25.474  20.911  1.00  0.00    -0.248 OA
ATOM     12  H   UNL A   1      32.278  27.513  21.118  1.00  0.00     0.166 HD
BRANCH   8  13
ATOM     13  C   UNL A   1      32.189  24.528  24.099  1.00  0.00     0.085 A 
ATOM     14  C   UNL A   1      33.400  24.581  24.821  1.00  0.00     0.142 A 
ATOM     15  C   UNL A   1      33.462  24.181  26.159  1.00  0.00     0.048 A 
ATOM     16  C   UNL A   1      32.307  23.729  26.793  1.00  0.00     0.004 A 
ATOM     17  C   UNL A   1      31.026  24.204  24.787  1.00  0.00     0.030 A 
ATOM     18  C   UNL A   1      31.090  23.756  26.112  1.00  0.00     0.002 A 
BRANCH  14  19
ATOM     19  O   UNL A   1      34.593  24.766  24.168  1.00  0.00    -0.492 OA
BRANCH  19  20
ATOM     20  C   UNL A   1      35.592  23.804  24.510  1.00  0.00     0.226 C 
ATOM     21  C   UNL A   1      35.924  23.005  23.261  1.00  0.00     0.049 C 
ENDBRANCH  19  20
ENDBRANCH  14  19
ENDBRANCH   8  13
ENDBRANCH   5   7
BRANCH   5  22
ATOM     22  C   UNL A   1      30.188  27.149  23.521  1.00  0.00     0.037 C 
ATOM     23  C   UNL A   1      28.853  27.853  23.341  1.00  0.00     0.007 C 
ENDBRANCH   5  22
ENDBRANCH   3   5
ENDBRANCH   2   3
ENDBRANCH   1   2
BRANCH   1  24
ATOM     24  C   UNL A   1      32.983  30.112  26.296  1.00  0.00     0.275 C 
BRANCH  24  25
ATOM     25  O   UNL A   1      33.545  30.129  27.627  1.00  0.00    -0.458 OA
BRANCH  25  26
ATOM     26  C   UNL A   1      34.307  31.218  27.912  1.00  0.00     0.338 C 
ATOM     27  O   UNL A   1      33.889  32.314  28.242  1.00  0.00    -0.246 OA
BRANCH  26  28
ATOM     28  C   UNL A   1      35.756  30.891  27.973  1.00  0.00     0.060 A 
ATOM     29  C   UNL A   1      36.097  29.534  27.900  1.00  0.00     0.016 A 
ATOM     30  C   UNL A   1      36.747  31.832  28.243  1.00  0.00     0.016 A 
ATOM     31  C   UNL A   1      37.383  29.086  28.155  1.00  0.00     0.010 A 
ATOM     32  C   UNL A   1      38.049  31.386  28.531  1.00  0.00     0.010 A 
ATOM     33  C   UNL A   1      38.348  30.006  28.550  1.00  0.00    -0.014 A 
BRANCH  33  34
ATOM     34  C   UNL A   1      39.518  29.471  29.287  1.00  0.00     0.031 A 
ATOM     35  C   UNL A   1      39.809  30.074  30.639  1.00  0.00     0.074 A 
ATOM     36  C   UNL A   1      40.203  28.399  28.848  1.00  0.00     0.049 A 
ATOM     37  N   UNL A   1      40.751  29.787  31.496  1.00  0.00    -0.248 NA
ATOM     38  C   UNL A   1      38.894  31.140  31.092  1.00  0.00     0.031 C 
ATOM     39  C   UNL A   1      39.922  27.655  27.621  1.00  0.00     0.029 A 
ATOM     40  N   UNL A   1      41.272  27.742  29.402  1.00  0.00    -0.354 N 
ATOM     41  C   UNL A   1      40.554  30.644  32.574  1.00  0.00     0.074 A 
ATOM     42  C   UNL A   1      39.414  31.472  32.263  1.00  0.00     0.031 C 
ATOM     43  C   UNL A   1      40.810  26.651  27.507  1.00  0.00     0.029 A 
ATOM     44  C   UNL A   1      41.736  26.697  28.636  1.00  0.00     0.049 A 
ATOM     45  H   UNL A   1      41.670  27.993  30.267  1.00  0.00     0.167 HD
ATOM     46  C   UNL A   1      41.263  30.735  33.722  1.00  0.00     0.037 A 
ATOM     47  C   UNL A   1      42.799  25.890  28.828  1.00  0.00     0.037 A 
ATOM     48  C   UNL A   1      42.396  29.901  34.024  1.00  0.00     0.049 A 
ATOM     49  C   UNL A   1      43.631  26.076  30.076  1.00  0.00     0.074 A 
ATOM     50  C   UNL A   1      43.208  29.921  35.141  1.00  0.00     0.029 A 
ATOM     51  N   UNL A   1      42.875  28.897  33.193  1.00  0.00    -0.354 N 
ATOM     52  N   UNL A   1      43.453  26.909  31.077  1.00  0.00    -0.248 NA
ATOM     53  C   UNL A   1      44.806  25.207  30.224  1.00  0.00     0.031 C 
ATOM     54  C   UNL A   1      44.212  28.964  34.964  1.00  0.00     0.029 A 
ATOM     55  C   UNL A   1      43.988  28.306  33.764  1.00  0.00     0.049 A 
ATOM     56  H   UNL A   1      42.481  28.644  32.328  1.00  0.00     0.167 HD
ATOM     57  C   UNL A   1      44.468  26.634  31.988  1.00  0.00     0.074 A 
ATOM     58  C   UNL A   1      45.247  25.551  31.426  1.00  0.00     0.031 C 
ATOM     59  C   UNL A   1      44.733  27.217  33.186  1.00  0.00     0.037 A 
BRANCH  46  60
ATOM     60  C   UNL A   1      40.873  31.807  34.700  1.00  0.00     0.058 A 
ATOM     61  C   UNL A   1      41.481  33.072  34.708  1.00  0.00     0.135 A 
ATOM     62  C   UNL A   1      39.861  31.562  35.643  1.00  0.00     0.135 A 
ATOM     63  F   UNL A   1      42.475  33.351  33.851  1.00  0.00    -0.206 F 
ATOM     64  C   UNL A   1      41.109  34.053  35.625  1.00  0.00     0.059 A 
ATOM     65  C   UNL A   1      39.455  32.535  36.551  1.00  0.00     0.059 A 
ATOM     66  F   UNL A   1      39.257  30.364  35.689  1.00  0.00    -0.206 F 
ATOM     67  C   UNL A   1      40.092  33.774  36.541  1.00  0.00     0.060 A 
BRANCH  67  68
ATOM     68  S   UNL A   1      39.604  35.061  37.710  1.00  0.00     0.124 S 
ATOM     69  O   UNL A   1      39.525  36.231  36.842  1.00  0.00    -0.237 OA
ATOM     70  O   UNL A   1      38.331  34.557  38.214  1.00  0.00    -0.237 OA
ATOM     71  O   UNL A   1      40.697  35.072  38.679  1.00  0.00    -0.744 OA
ENDBRANCH  67  68
ENDBRANCH  46  60
BRANCH  47  72
ATOM     72  C   UNL A   1      43.166  24.854  27.821  1.00  0.00     0.058 A 
ATOM     73  C   UNL A   1      42.781  23.513  27.976  1.00  0.00     0.135 A 
ATOM     74  C   UNL A   1      43.966  25.173  26.711  1.00  0.00     0.135 A 
ATOM     75  F   UNL A   1      42.028  23.149  29.026  1.00  0.00    -0.206 F 
ATOM     76  C   UNL A   1      43.207  22.521  27.095  1.00  0.00     0.059 A 
ATOM     77  C   UNL A   1      44.379  24.204  25.800  1.00  0.00     0.059 A 
ATOM     78  F   UNL A   1      44.362  26.439  26.508  1.00  0.00    -0.206 F 
ATOM     79  C   UNL A   1      44.010  22.877  26.011  1.00  0.00     0.060 A 
BRANCH  79  80
ATOM     80  S   UNL A   1      44.564  21.584  24.877  1.00  0.00     0.124 S 
ATOM     81  O   UNL A   1      44.424  22.246  23.585  1.00  0.00    -0.237 OA
ATOM     82  O   UNL A   1      45.931  21.344  25.326  1.00  0.00    -0.237 OA
ATOM     83  O   UNL A   1      43.628  20.492  25.130  1.00  0.00    -0.744 OA
ENDBRANCH  79  80
ENDBRANCH  47  72
BRANCH  59  84
ATOM     84  C   UNL A   1      45.874  26.653  33.988  1.00  0.00     0.058 A 
ATOM     85  C   UNL A   1      45.702  25.579  34.875  1.00  0.00     0.135 A 
ATOM     86  C   UNL A   1      47.167  27.184  33.844  1.00  0.00     0.135 A 
ATOM     87  F   UNL A   1      44.487  25.033  35.048  1.00  0.00    -0.206 F 
ATOM     88  C   UNL A   1      46.761  25.083  35.627  1.00  0.00     0.059 A 
ATOM     89  C   UNL A   1      48.247  26.681  34.561  1.00  0.00     0.059 A 
ATOM     90  F   UNL A   1      47.392  28.198  32.993  1.00  0.00    -0.206 F 
ATOM     91  C   UNL A   1      48.029  25.646  35.468  1.00  0.00     0.060 A 
BRANCH  91  92
ATOM     92  S   UNL A   1      49.395  25.000  36.454  1.00  0.00     0.124 S 
ATOM     93  O   UNL A   1      48.891  25.188  37.810  1.00  0.00    -0.237 OA
ATOM     94  O   UNL A   1      49.488  23.618  35.996  1.00  0.00    -0.237 OA
ATOM     95  O   UNL A   1      50.519  25.854  36.078  1.00  0.00    -0.744 OA
ENDBRANCH  91  92
ENDBRANCH  59  84
ENDBRANCH  33  34
ENDBRANCH  26  28
ENDBRANCH  25  26
ENDBRANCH  24  25
ENDBRANCH   1  24
TORSDOF 19
ENDMDL
MODEL 3
REMARK VINA RESULT:     -10.4      5.903      7.764
REMARK SMILES CCOc1ccccc1NC(=O)N[C@@](C)(CC)C(=O)OCCOC(=O)c1ccc(-c2c3nc(c(-c4c(F)cc(S(=O)(=O)[O-])cc4F)c4ccc([nH]4)c(-c4c(F)cc(S(=O)(=O)[O-])cc4F)c4nc(c(-c5c(F)cc(S(=O)(=O)[O-])cc5F)c5ccc2[nH]5)C=C4)C=C3)cc1
REMARK SMILES IDX 21 1 20 2 18 3 19 4 14 5 15 6 13 7 10 8 11 9 12 11 9 13 4 14
REMARK SMILES IDX 5 15 6 16 8 17 7 18 3 19 2 20 1 21 16 22 17 23 22 24 23 25
REMARK SMILES IDX 24 26 25 27 26 28 27 29 91 30 28 31 90 32 29 33 30 34 31 35
REMARK SMILES IDX 84 36 32 37 89 38 83 39 85 40 33 41 88 42 82 43 81 44 34 46
REMARK SMILES IDX 68 47 47 48 67 49 48 50 51 51 66 52 86 53 49 54 50 55 65 57
REMARK SMILES IDX 87 58 52 59 35 60 36 61 45 62 37 63 38 64 44 65 46 66 39 67
REMARK SMILES IDX 40 68 41 69 42 70 43 71 69 72 70 73 79 74 71 75 72 76 78 77
REMARK SMILES IDX 80 78 73 79 74 80 75 81 76 82 77 83 53 84 54 85 63 86 55 87
REMARK SMILES IDX 56 88 62 89 64 90 57 91 58 92 59 93 60 94 61 95
REMARK H PARENT 10 10 13 12 85 45 51 56
REMARK Flexibility Score: inf
ROOT
ATOM      1  C   UNL A   1      38.132  21.210  25.310  1.00  0.00     0.274 C 
ENDROOT
BRANCH   1   2
ATOM      2  O   UNL A   1      36.841  21.616  25.832  1.00  0.00    -0.460 OA
BRANCH   2   3
ATOM      3  C   UNL A   1      35.805  20.922  25.300  1.00  0.00     0.331 C 
ATOM      4  O   UNL A   1      35.931  19.754  24.963  1.00  0.00    -0.249 OA
BRANCH   3   5
ATOM      5  C   UNL A   1      34.453  21.659  25.180  1.00  0.00     0.136 C 
ATOM      6  C   UNL A   1      33.356  20.958  24.362  1.00  0.00     0.047 C 
BRANCH   5   7
ATOM      7  N   UNL A   1      33.902  21.830  26.565  1.00  0.00    -0.322 N 
ATOM      8  N   UNL A   1      31.813  22.960  26.358  1.00  0.00    -0.305 N 
ATOM      9  C   UNL A   1      32.890  22.582  27.091  1.00  0.00     0.320 C 
ATOM     10  H   UNL A   1      30.971  22.588  26.706  1.00  0.00     0.172 HD
ATOM     11  O   UNL A   1      32.827  22.626  28.322  1.00  0.00    -0.248 OA
ATOM     12  H   UNL A   1      34.369  21.284  27.239  1.00  0.00     0.166 HD
BRANCH   8  13
ATOM     13  C   UNL A   1      31.619  23.761  25.213  1.00  0.00     0.085 A 
ATOM     14  C   UNL A   1      32.010  25.116  25.275  1.00  0.00     0.142 A 
ATOM     15  C   UNL A   1      31.679  26.010  24.252  1.00  0.00     0.048 A 
ATOM     16  C   UNL A   1      30.956  25.555  23.152  1.00  0.00     0.004 A 
ATOM     17  C   UNL A   1      31.018  23.301  24.048  1.00  0.00     0.030 A 
ATOM     18  C   UNL A   1      30.640  24.202  23.045  1.00  0.00     0.002 A 
BRANCH  14  19
ATOM     19  O   UNL A   1      32.485  25.652  26.445  1.00  0.00    -0.492 OA
BRANCH  19  20
ATOM     20  C   UNL A   1      31.899  26.911  26.782  1.00  0.00     0.226 C 
ATOM     21  C   UNL A   1      33.008  27.951  26.819  1.00  0.00     0.049 C 
ENDBRANCH  19  20
ENDBRANCH  14  19
ENDBRANCH   8  13
ENDBRANCH   5   7
BRANCH   5  22
ATOM     22  C   UNL A   1      34.649  23.047  24.472  1.00  0.00     0.037 C 
ATOM     23  C   UNL A   1      34.953  23.121  22.984  1.00  0.00     0.007 C 
ENDBRANCH   5  22
ENDBRANCH   3   5
ENDBRANCH   2   3
ENDBRANCH   1   2
BRANCH   1  24
ATOM     24  C   UNL A   1      39.417  21.566  26.102  1.00  0.00     0.275 C 
BRANCH  24  25
ATOM     25  O   UNL A   1      40.012  20.471  26.834  1.00  0.00    -0.458 OA
BRANCH  25  26
ATOM     26  C   UNL A   1      41.229  20.073  26.378  1.00  0.00     0.338 C 
ATOM     27  O   UNL A   1      41.458  19.046  25.763  1.00  0.00    -0.246 OA
BRANCH  26  28
ATOM     28  C   UNL A   1      42.263  21.129  26.535  1.00  0.00     0.060 A 
ATOM     29  C   UNL A   1      42.506  21.580  27.840  1.00  0.00     0.016 A 
ATOM     30  C   UNL A   1      42.872  21.776  25.463  1.00  0.00     0.016 A 
ATOM     31  C   UNL A   1      43.284  22.697  28.096  1.00  0.00     0.010 A 
ATOM     32  C   UNL A   1      43.641  22.927  25.710  1.00  0.00     0.010 A 
ATOM     33  C   UNL A   1      43.791  23.422  27.023  1.00  0.00    -0.014 A 
BRANCH  33  34
ATOM     34  C   UNL A   1      44.161  24.833  27.287  1.00  0.00     0.031 A 
ATOM     35  C   UNL A   1      45.591  25.230  27.010  1.00  0.00     0.074 A 
ATOM     36  C   UNL A   1      43.240  25.758  27.615  1.00  0.00     0.049 A 
ATOM     37  N   UNL A   1      46.174  26.390  27.137  1.00  0.00    -0.248 NA
ATOM     38  C   UNL A   1      46.479  24.166  26.502  1.00  0.00     0.031 C 
ATOM     39  C   UNL A   1      41.807  25.511  27.776  1.00  0.00     0.029 A 
ATOM     40  N   UNL A   1      43.378  27.102  27.854  1.00  0.00    -0.354 N 
ATOM     41  C   UNL A   1      47.494  26.193  26.745  1.00  0.00     0.074 A 
ATOM     42  C   UNL A   1      47.634  24.802  26.387  1.00  0.00     0.031 C 
ATOM     43  C   UNL A   1      41.200  26.666  28.106  1.00  0.00     0.029 A 
ATOM     44  C   UNL A   1      42.202  27.725  28.204  1.00  0.00     0.049 A 
ATOM     45  H   UNL A   1      44.238  27.576  27.782  1.00  0.00     0.167 HD
ATOM     46  C   UNL A   1      48.503  27.093  26.689  1.00  0.00     0.037 A 
ATOM     47  C   UNL A   1      41.978  29.001  28.576  1.00  0.00     0.037 A 
ATOM     48  C   UNL A   1      48.351  28.478  27.043  1.00  0.00     0.049 A 
ATOM     49  C   UNL A   1      43.143  29.964  28.595  1.00  0.00     0.074 A 
ATOM     50  C   UNL A   1      49.307  29.476  27.052  1.00  0.00     0.029 A 
ATOM     51  N   UNL A   1      47.159  29.057  27.455  1.00  0.00    -0.354 N 
ATOM     52  N   UNL A   1      44.394  29.760  28.249  1.00  0.00    -0.248 NA
ATOM     53  C   UNL A   1      42.864  31.332  29.051  1.00  0.00     0.031 C 
ATOM     54  C   UNL A   1      48.706  30.648  27.521  1.00  0.00     0.029 A 
ATOM     55  C   UNL A   1      47.361  30.395  27.744  1.00  0.00     0.049 A 
ATOM     56  H   UNL A   1      46.298  28.586  27.529  1.00  0.00     0.167 HD
ATOM     57  C   UNL A   1      45.038  30.984  28.405  1.00  0.00     0.074 A 
ATOM     58  C   UNL A   1      44.036  31.923  28.865  1.00  0.00     0.031 C 
ATOM     59  C   UNL A   1      46.338  31.309  28.185  1.00  0.00     0.037 A 
BRANCH  46  60
ATOM     60  C   UNL A   1      49.863  26.592  26.290  1.00  0.00     0.058 A 
ATOM     61  C   UNL A   1      50.359  26.728  24.984  1.00  0.00     0.135 A 
ATOM     62  C   UNL A   1      50.687  25.970  27.242  1.00  0.00     0.135 A 
ATOM     63  F   UNL A   1      49.602  27.285  24.027  1.00  0.00    -0.206 F 
ATOM     64  C   UNL A   1      51.620  26.252  24.632  1.00  0.00     0.059 A 
ATOM     65  C   UNL A   1      51.961  25.511  26.919  1.00  0.00     0.059 A 
ATOM     66  F   UNL A   1      50.257  25.801  28.502  1.00  0.00    -0.206 F 
ATOM     67  C   UNL A   1      52.414  25.648  25.609  1.00  0.00     0.060 A 
BRANCH  67  68
ATOM     68  S   UNL A   1      54.056  25.056  25.145  1.00  0.00     0.124 S 
ATOM     69  O   UNL A   1      54.312  25.824  23.930  1.00  0.00    -0.237 OA
ATOM     70  O   UNL A   1      54.859  25.421  26.307  1.00  0.00    -0.237 OA
ATOM     71  O   UNL A   1      53.858  23.622  24.949  1.00  0.00    -0.744 OA
ENDBRANCH  67  68
ENDBRANCH  46  60
BRANCH  47  72
ATOM     72  C   UNL A   1      40.617  29.451  28.987  1.00  0.00     0.058 A 
ATOM     73  C   UNL A   1      40.300  29.691  30.333  1.00  0.00     0.135 A 
ATOM     74  C   UNL A   1      39.585  29.591  28.045  1.00  0.00     0.135 A 
ATOM     75  F   UNL A   1      41.244  29.559  31.278  1.00  0.00    -0.206 F 
ATOM     76  C   UNL A   1      39.006  30.012  30.736  1.00  0.00     0.059 A 
ATOM     77  C   UNL A   1      38.290  29.941  28.419  1.00  0.00     0.059 A 
ATOM     78  F   UNL A   1      39.828  29.379  26.742  1.00  0.00    -0.206 F 
ATOM     79  C   UNL A   1      38.005  30.130  29.771  1.00  0.00     0.060 A 
BRANCH  79  80
ATOM     80  S   UNL A   1      36.327  30.540  30.301  1.00  0.00     0.124 S 
ATOM     81  O   UNL A   1      35.602  30.506  29.037  1.00  0.00    -0.237 OA
ATOM     82  O   UNL A   1      36.028  29.462  31.238  1.00  0.00    -0.237 OA
ATOM     83  O   UNL A   1      36.480  31.861  30.905  1.00  0.00    -0.744 OA
ENDBRANCH  79  80
ENDBRANCH  47  72
BRANCH  59  84
ATOM     84  C   UNL A   1      46.730  32.748  28.380  1.00  0.00     0.058 A 
ATOM     85  C   UNL A   1      47.224  33.227  29.603  1.00  0.00     0.135 A 
ATOM     86  C   UNL A   1      46.630  33.657  27.312  1.00  0.00     0.135 A 
ATOM     87  F   UNL A   1      47.342  32.400  30.655  1.00  0.00    -0.206 F 
ATOM     88  C   UNL A   1      47.561  34.565  29.776  1.00  0.00     0.059 A 
ATOM     89  C   UNL A   1      46.994  34.992  27.453  1.00  0.00     0.059 A 
ATOM     90  F   UNL A   1      46.183  33.248  26.114  1.00  0.00    -0.206 F 
ATOM     91  C   UNL A   1      47.436  35.441  28.697  1.00  0.00     0.060 A 
BRANCH  91  92
ATOM     92  S   UNL A   1      47.868  37.177  28.933  1.00  0.00     0.124 S 
ATOM     93  O   UNL A   1      46.564  37.821  28.818  1.00  0.00    -0.237 OA
ATOM     94  O   UNL A   1      48.460  37.175  30.267  1.00  0.00    -0.237 OA
ATOM     95  O   UNL A   1      48.800  37.447  27.842  1.00  0.00    -0.744 OA
ENDBRANCH  91  92
ENDBRANCH  59  84
ENDBRANCH  33  34
ENDBRANCH  26  28
ENDBRANCH  25  26
ENDBRANCH  24  25
ENDBRANCH   1  24
TORSDOF 19
ENDMDL
