MODEL 1
REMARK VINA RESULT:     -11.6      0.000      0.000
REMARK SMILES Cc1cc2c(c(C)c1Cl)C=C(C(=O)OCCOC(=O)c1ccc(-c3c4nc(c(-c5c(F)cc(S(=O)(=O)[O-])cc5F)c5ccc([nH]5)c(-c5c(F)cc(S(=O)(=O)[O-])cc5F)c5nc(c(-c6c(F)cc(S(=O)(=O)[O-])cc6F)c6ccc3[nH]6)C=C5)C=C4)cc1)[C@@H](C(F)(F)F)O2
REMARK SMILES IDX 16 1 15 2 14 3 12 4 13 5 11 6 1 7 2 8 3 9 8 10 4 11 6 12
REMARK SMILES IDX 9 13 5 14 91 15 7 16 10 17 86 18 87 19 88 20 89 21 90 22
REMARK SMILES IDX 17 23 18 24 19 25 20 26 21 27 85 28 22 29 84 30 23 31 24 32
REMARK SMILES IDX 25 33 78 34 26 35 83 36 77 37 79 38 27 39 82 40 76 41 75 42
REMARK SMILES IDX 28 44 62 45 41 46 61 47 42 48 45 49 60 50 80 51 43 52 44 53
REMARK SMILES IDX 59 55 81 56 46 57 29 58 30 59 39 60 31 61 32 62 38 63 40 64
REMARK SMILES IDX 33 65 34 66 35 67 36 68 37 69 63 70 64 71 73 72 65 73 66 74
REMARK SMILES IDX 72 75 74 76 67 77 68 78 69 79 70 80 71 81 47 82 48 83 57 84
REMARK SMILES IDX 49 85 50 86 56 87 58 88 51 89 52 90 53 91 54 92 55 93
REMARK H PARENT 79 43 45 54
REMARK Flexibility Score: inf
ROOT
ATOM      1  C   UNL A   1      32.597  30.491  27.032  1.00  0.00     0.275 C 
ENDROOT
BRANCH   1   2
ATOM      2  C   UNL A   1      31.928  29.380  26.223  1.00  0.00     0.275 C 
BRANCH   2   3
ATOM      3  O   UNL A   1      32.548  28.099  26.470  1.00  0.00    -0.459 OA
BRANCH   3   4
ATOM      4  C   UNL A   1      33.218  27.567  25.421  1.00  0.00     0.338 C 
ATOM      5  O   UNL A   1      33.836  28.183  24.565  1.00  0.00    -0.246 OA
BRANCH   4   6
ATOM      6  C   UNL A   1      33.108  26.096  25.424  1.00  0.00     0.087 C 
ATOM      7  C   UNL A   1      33.732  19.684  24.633  1.00  0.00     0.046 C 
ATOM      8  C   UNL A   1      33.929  21.157  24.870  1.00  0.00    -0.028 A 
ATOM      9  C   UNL A   1      32.795  21.976  24.962  1.00  0.00     0.052 A 
ATOM     10  C   UNL A   1      35.202  21.730  25.054  1.00  0.00     0.047 A 
ATOM     11  C   UNL A   1      32.915  23.347  25.171  1.00  0.00     0.128 A 
ATOM     12  C   UNL A   1      35.347  23.121  25.257  1.00  0.00    -0.021 A 
ATOM     13  Cl  UNL A   1      36.594  20.688  25.032  1.00  0.00    -0.084 Cl
ATOM     14  C   UNL A   1      34.179  23.930  25.302  1.00  0.00     0.022 A 
ATOM     15  O   UNL A   1      31.734  24.032  25.251  1.00  0.00    -0.475 OA
ATOM     16  C   UNL A   1      36.710  23.751  25.435  1.00  0.00     0.047 C 
ATOM     17  C   UNL A   1      34.238  25.381  25.456  1.00  0.00     0.027 C 
ATOM     18  C   UNL A   1      31.755  25.484  25.242  1.00  0.00     0.316 C 
BRANCH  18  19
ATOM     19  C   UNL A   1      31.077  25.983  23.956  1.00  0.00     0.430 C 
ATOM     20  F   UNL A   1      30.009  25.214  23.631  1.00  0.00    -0.167 F 
ATOM     21  F   UNL A   1      30.607  27.247  24.098  1.00  0.00    -0.167 F 
ATOM     22  F   UNL A   1      31.917  25.979  22.896  1.00  0.00    -0.167 F 
ENDBRANCH  18  19
ENDBRANCH   4   6
ENDBRANCH   3   4
ENDBRANCH   2   3
ENDBRANCH   1   2
BRANCH   1  23
ATOM     23  O   UNL A   1      33.467  29.929  28.030  1.00  0.00    -0.458 OA
BRANCH  23  24
ATOM     24  C   UNL A   1      34.460  30.746  28.451  1.00  0.00     0.338 C 
ATOM     25  O   UNL A   1      34.351  31.891  28.858  1.00  0.00    -0.246 OA
BRANCH  24  26
ATOM     26  C   UNL A   1      35.745  30.031  28.443  1.00  0.00     0.060 A 
ATOM     27  C   UNL A   1      36.262  29.586  29.651  1.00  0.00     0.016 A 
ATOM     28  C   UNL A   1      36.531  29.991  27.294  1.00  0.00     0.016 A 
ATOM     29  C   UNL A   1      37.613  29.271  29.752  1.00  0.00     0.010 A 
ATOM     30  C   UNL A   1      37.852  29.525  27.375  1.00  0.00     0.010 A 
ATOM     31  C   UNL A   1      38.436  29.221  28.618  1.00  0.00    -0.014 A 
BRANCH  31  32
ATOM     32  C   UNL A   1      39.895  28.909  28.749  1.00  0.00     0.031 A 
ATOM     33  C   UNL A   1      40.856  29.948  29.289  1.00  0.00     0.074 A 
ATOM     34  C   UNL A   1      40.374  27.685  28.435  1.00  0.00     0.049 A 
ATOM     35  N   UNL A   1      42.165  29.951  29.276  1.00  0.00    -0.248 NA
ATOM     36  C   UNL A   1      40.269  31.147  29.911  1.00  0.00     0.031 C 
ATOM     37  C   UNL A   1      39.573  26.550  27.969  1.00  0.00     0.029 A 
ATOM     38  N   UNL A   1      41.652  27.178  28.478  1.00  0.00    -0.354 N 
ATOM     39  C   UNL A   1      42.554  31.173  29.821  1.00  0.00     0.074 A 
ATOM     40  C   UNL A   1      41.341  31.889  30.149  1.00  0.00     0.031 C 
ATOM     41  C   UNL A   1      40.357  25.469  27.850  1.00  0.00     0.029 A 
ATOM     42  C   UNL A   1      41.739  25.861  28.086  1.00  0.00     0.049 A 
ATOM     43  H   UNL A   1      42.432  27.707  28.764  1.00  0.00     0.167 HD
ATOM     44  C   UNL A   1      43.806  31.650  30.029  1.00  0.00     0.037 A 
ATOM     45  C   UNL A   1      42.805  25.065  27.873  1.00  0.00     0.037 A 
ATOM     46  C   UNL A   1      45.009  30.899  29.765  1.00  0.00     0.049 A 
ATOM     47  C   UNL A   1      44.183  25.633  28.046  1.00  0.00     0.074 A 
ATOM     48  C   UNL A   1      46.325  31.294  29.937  1.00  0.00     0.029 A 
ATOM     49  N   UNL A   1      45.044  29.591  29.303  1.00  0.00    -0.354 N 
ATOM     50  N   UNL A   1      44.533  26.829  28.454  1.00  0.00    -0.248 NA
ATOM     51  C   UNL A   1      45.309  24.758  27.696  1.00  0.00     0.031 C 
ATOM     52  C   UNL A   1      47.156  30.242  29.536  1.00  0.00     0.029 A 
ATOM     53  C   UNL A   1      46.357  29.172  29.167  1.00  0.00     0.049 A 
ATOM     54  H   UNL A   1      44.252  29.042  29.100  1.00  0.00     0.167 HD
ATOM     55  C   UNL A   1      45.923  26.848  28.418  1.00  0.00     0.074 A 
ATOM     56  C   UNL A   1      46.347  25.537  27.971  1.00  0.00     0.031 C 
ATOM     57  C   UNL A   1      46.768  27.863  28.721  1.00  0.00     0.037 A 
BRANCH  44  58
ATOM     58  C   UNL A   1      43.956  33.061  30.540  1.00  0.00     0.058 A 
ATOM     59  C   UNL A   1      44.029  34.166  29.679  1.00  0.00     0.135 A 
ATOM     60  C   UNL A   1      43.961  33.311  31.924  1.00  0.00     0.135 A 
ATOM     61  F   UNL A   1      44.046  33.988  28.350  1.00  0.00    -0.206 F 
ATOM     62  C   UNL A   1      44.122  35.467  30.171  1.00  0.00     0.059 A 
ATOM     63  C   UNL A   1      44.022  34.605  32.436  1.00  0.00     0.059 A 
ATOM     64  F   UNL A   1      43.891  32.294  32.796  1.00  0.00    -0.206 F 
ATOM     65  C   UNL A   1      44.113  35.677  31.551  1.00  0.00     0.060 A 
BRANCH  65  66
ATOM     66  S   UNL A   1      44.218  37.370  32.168  1.00  0.00     0.124 S 
ATOM     67  O   UNL A   1      43.740  38.131  31.017  1.00  0.00    -0.237 OA
ATOM     68  O   UNL A   1      43.323  37.337  33.320  1.00  0.00    -0.237 OA
ATOM     69  O   UNL A   1      45.634  37.534  32.481  1.00  0.00    -0.744 OA
ENDBRANCH  65  66
ENDBRANCH  44  58
BRANCH  45  70
ATOM     70  C   UNL A   1      42.600  23.662  27.413  1.00  0.00     0.058 A 
ATOM     71  C   UNL A   1      42.628  23.338  26.049  1.00  0.00     0.135 A 
ATOM     72  C   UNL A   1      42.414  22.613  28.329  1.00  0.00     0.135 A 
ATOM     73  F   UNL A   1      42.784  24.304  25.133  1.00  0.00    -0.206 F 
ATOM     74  C   UNL A   1      42.484  22.025  25.610  1.00  0.00     0.059 A 
ATOM     75  C   UNL A   1      42.304  21.289  27.916  1.00  0.00     0.059 A 
ATOM     76  F   UNL A   1      42.386  22.866  29.647  1.00  0.00    -0.206 F 
ATOM     77  C   UNL A   1      42.335  21.006  26.552  1.00  0.00     0.060 A 
BRANCH  77  78
ATOM     78  S   UNL A   1      42.227  19.298  25.974  1.00  0.00     0.124 S 
ATOM     79  O   UNL A   1      43.163  19.307  24.857  1.00  0.00    -0.237 OA
ATOM     80  O   UNL A   1      42.648  18.551  27.155  1.00  0.00    -0.237 OA
ATOM     81  O   UNL A   1      40.819  19.153  25.617  1.00  0.00    -0.744 OA
ENDBRANCH  77  78
ENDBRANCH  45  70
BRANCH  57  82
ATOM     82  C   UNL A   1      48.242  27.592  28.605  1.00  0.00     0.058 A 
ATOM     83  C   UNL A   1      48.971  27.026  29.661  1.00  0.00     0.135 A 
ATOM     84  C   UNL A   1      48.922  27.856  27.405  1.00  0.00     0.135 A 
ATOM     85  F   UNL A   1      48.371  26.763  30.833  1.00  0.00    -0.206 F 
ATOM     86  C   UNL A   1      50.328  26.749  29.540  1.00  0.00     0.059 A 
ATOM     87  C   UNL A   1      50.273  27.560  27.251  1.00  0.00     0.059 A 
ATOM     88  F   UNL A   1      48.269  28.389  26.360  1.00  0.00    -0.206 F 
ATOM     89  C   UNL A   1      50.969  27.016  28.329  1.00  0.00     0.060 A 
BRANCH  89  90
ATOM     90  S   UNL A   1      52.724  26.621  28.178  1.00  0.00     0.124 S 
ATOM     91  O   UNL A   1      53.265  27.872  27.658  1.00  0.00    -0.237 OA
ATOM     92  O   UNL A   1      53.089  26.297  29.554  1.00  0.00    -0.237 OA
ATOM     93  O   UNL A   1      52.743  25.496  27.248  1.00  0.00    -0.744 OA
ENDBRANCH  89  90
ENDBRANCH  57  82
ENDBRANCH  31  32
ENDBRANCH  24  26
ENDBRANCH  23  24
ENDBRANCH   1  23
TORSDOF 15
ENDMDL
MODEL 2
REMARK VINA RESULT:     -11.6      0.989      1.847
REMARK SMILES Cc1cc2c(c(C)c1Cl)C=C(C(=O)OCCOC(=O)c1ccc(-c3c4nc(c(-c5c(F)cc(S(=O)(=O)[O-])cc5F)c5ccc([nH]5)c(-c5c(F)cc(S(=O)(=O)[O-])cc5F)c5nc(c(-c6c(F)cc(S(=O)(=O)[O-])cc6F)c6ccc3[nH]6)C=C5)C=C4)cc1)[C@@H](C(F)(F)F)O2
REMARK SMILES IDX 16 1 15 2 14 3 12 4 13 5 11 6 1 7 2 8 3 9 8 10 4 11 6 12
REMARK SMILES IDX 9 13 5 14 91 15 7 16 10 17 86 18 87 19 88 20 89 21 90 22
REMARK SMILES IDX 17 23 18 24 19 25 20 26 21 27 85 28 22 29 84 30 23 31 24 32
REMARK SMILES IDX 25 33 78 34 26 35 83 36 77 37 79 38 27 39 82 40 76 41 75 42
REMARK SMILES IDX 28 44 62 45 41 46 61 47 42 48 45 49 60 50 80 51 43 52 44 53
REMARK SMILES IDX 59 55 81 56 46 57 29 58 30 59 39 60 31 61 32 62 38 63 40 64
REMARK SMILES IDX 33 65 34 66 35 67 36 68 37 69 63 70 64 71 73 72 65 73 66 74
REMARK SMILES IDX 72 75 74 76 67 77 68 78 69 79 70 80 71 81 47 82 48 83 57 84
REMARK SMILES IDX 49 85 50 86 56 87 58 88 51 89 52 90 53 91 54 92 55 93
REMARK H PARENT 79 43 45 54
REMARK Flexibility Score: inf
ROOT
ATOM      1  C   UNL A   1      33.563  28.612  25.845  1.00  0.00     0.275 C 
ENDROOT
BRANCH   1   2
ATOM      2  C   UNL A   1      32.378  27.652  25.748  1.00  0.00     0.275 C 
BRANCH   2   3
ATOM      3  O   UNL A   1      32.795  26.343  25.300  1.00  0.00    -0.459 OA
BRANCH   3   4
ATOM      4  C   UNL A   1      32.168  25.301  25.893  1.00  0.00     0.338 C 
ATOM      5  O   UNL A   1      31.087  25.330  26.462  1.00  0.00    -0.246 OA
BRANCH   4   6
ATOM      6  C   UNL A   1      32.975  24.071  25.774  1.00  0.00     0.087 C 
ATOM      7  C   UNL A   1      37.468  19.506  24.724  1.00  0.00     0.046 C 
ATOM      8  C   UNL A   1      36.694  20.742  25.097  1.00  0.00    -0.028 A 
ATOM      9  C   UNL A   1      35.297  20.715  24.980  1.00  0.00     0.052 A 
ATOM     10  C   UNL A   1      37.315  21.898  25.606  1.00  0.00     0.047 A 
ATOM     11  C   UNL A   1      34.529  21.830  25.302  1.00  0.00     0.128 A 
ATOM     12  C   UNL A   1      36.555  23.046  25.928  1.00  0.00    -0.021 A 
ATOM     13  Cl  UNL A   1      39.038  21.885  25.835  1.00  0.00    -0.084 Cl
ATOM     14  C   UNL A   1      35.145  23.000  25.757  1.00  0.00     0.022 A 
ATOM     15  O   UNL A   1      33.179  21.673  25.153  1.00  0.00    -0.475 OA
ATOM     16  C   UNL A   1      37.212  24.301  26.456  1.00  0.00     0.047 C 
ATOM     17  C   UNL A   1      34.288  24.154  26.017  1.00  0.00     0.027 C 
ATOM     18  C   UNL A   1      32.315  22.836  25.246  1.00  0.00     0.316 C 
BRANCH  18  19
ATOM     19  C   UNL A   1      31.667  23.085  23.875  1.00  0.00     0.430 C 
ATOM     20  F   UNL A   1      32.356  24.011  23.164  1.00  0.00    -0.167 F 
ATOM     21  F   UNL A   1      31.652  21.959  23.119  1.00  0.00    -0.167 F 
ATOM     22  F   UNL A   1      30.391  23.520  23.978  1.00  0.00    -0.167 F 
ENDBRANCH  18  19
ENDBRANCH   4   6
ENDBRANCH   3   4
ENDBRANCH   2   3
ENDBRANCH   1   2
BRANCH   1  23
ATOM     23  O   UNL A   1      34.168  28.531  27.148  1.00  0.00    -0.458 OA
BRANCH  23  24
ATOM     24  C   UNL A   1      34.439  29.722  27.730  1.00  0.00     0.338 C 
ATOM     25  O   UNL A   1      33.649  30.617  27.981  1.00  0.00    -0.246 OA
BRANCH  24  26
ATOM     26  C   UNL A   1      35.854  29.785  28.124  1.00  0.00     0.060 A 
ATOM     27  C   UNL A   1      36.793  30.128  27.161  1.00  0.00     0.016 A 
ATOM     28  C   UNL A   1      36.271  29.307  29.363  1.00  0.00     0.016 A 
ATOM     29  C   UNL A   1      38.135  29.825  27.366  1.00  0.00     0.010 A 
ATOM     30  C   UNL A   1      37.642  29.149  29.618  1.00  0.00     0.010 A 
ATOM     31  C   UNL A   1      38.593  29.340  28.600  1.00  0.00    -0.014 A 
BRANCH  31  32
ATOM     32  C   UNL A   1      40.037  28.992  28.793  1.00  0.00     0.031 A 
ATOM     33  C   UNL A   1      40.996  30.002  29.390  1.00  0.00     0.074 A 
ATOM     34  C   UNL A   1      40.502  27.761  28.484  1.00  0.00     0.049 A 
ATOM     35  N   UNL A   1      42.305  29.973  29.435  1.00  0.00    -0.248 NA
ATOM     36  C   UNL A   1      40.410  31.206  30.000  1.00  0.00     0.031 C 
ATOM     37  C   UNL A   1      39.697  26.651  27.968  1.00  0.00     0.029 A 
ATOM     38  N   UNL A   1      41.764  27.224  28.578  1.00  0.00    -0.354 N 
ATOM     39  C   UNL A   1      42.696  31.179  30.013  1.00  0.00     0.074 A 
ATOM     40  C   UNL A   1      41.487  31.920  30.296  1.00  0.00     0.031 C 
ATOM     41  C   UNL A   1      40.459  25.554  27.870  1.00  0.00     0.029 A 
ATOM     42  C   UNL A   1      41.838  25.910  28.173  1.00  0.00     0.049 A 
ATOM     43  H   UNL A   1      42.542  27.730  28.905  1.00  0.00     0.167 HD
ATOM     44  C   UNL A   1      43.948  31.624  30.283  1.00  0.00     0.037 A 
ATOM     45  C   UNL A   1      42.894  25.091  27.997  1.00  0.00     0.037 A 
ATOM     46  C   UNL A   1      45.144  30.848  30.064  1.00  0.00     0.049 A 
ATOM     47  C   UNL A   1      44.275  25.625  28.239  1.00  0.00     0.074 A 
ATOM     48  C   UNL A   1      46.460  31.210  30.300  1.00  0.00     0.029 A 
ATOM     49  N   UNL A   1      45.170  29.546  29.586  1.00  0.00    -0.354 N 
ATOM     50  N   UNL A   1      44.635  26.806  28.679  1.00  0.00    -0.248 NA
ATOM     51  C   UNL A   1      45.396  24.728  27.929  1.00  0.00     0.031 C 
ATOM     52  C   UNL A   1      47.283  30.144  29.923  1.00  0.00     0.029 A 
ATOM     53  C   UNL A   1      46.478  29.097  29.504  1.00  0.00     0.049 A 
ATOM     54  H   UNL A   1      44.376  29.018  29.341  1.00  0.00     0.167 HD
ATOM     55  C   UNL A   1      46.025  26.793  28.706  1.00  0.00     0.074 A 
ATOM     56  C   UNL A   1      46.438  25.478  28.260  1.00  0.00     0.031 C 
ATOM     57  C   UNL A   1      46.878  27.785  29.060  1.00  0.00     0.037 A 
BRANCH  44  58
ATOM     58  C   UNL A   1      44.108  33.024  30.819  1.00  0.00     0.058 A 
ATOM     59  C   UNL A   1      44.245  34.138  29.978  1.00  0.00     0.135 A 
ATOM     60  C   UNL A   1      44.055  33.258  32.205  1.00  0.00     0.135 A 
ATOM     61  F   UNL A   1      44.318  33.976  28.648  1.00  0.00    -0.206 F 
ATOM     62  C   UNL A   1      44.346  35.430  30.490  1.00  0.00     0.059 A 
ATOM     63  C   UNL A   1      44.123  34.543  32.738  1.00  0.00     0.059 A 
ATOM     64  F   UNL A   1      43.923  32.231  33.060  1.00  0.00    -0.206 F 
ATOM     65  C   UNL A   1      44.279  35.623  31.871  1.00  0.00     0.060 A 
BRANCH  65  66
ATOM     66  S   UNL A   1      44.394  37.306  32.515  1.00  0.00     0.124 S 
ATOM     67  O   UNL A   1      43.965  38.091  31.361  1.00  0.00    -0.237 OA
ATOM     68  O   UNL A   1      43.466  37.273  33.639  1.00  0.00    -0.237 OA
ATOM     69  O   UNL A   1      45.804  37.440  32.872  1.00  0.00    -0.744 OA
ENDBRANCH  65  66
ENDBRANCH  44  58
BRANCH  45  70
ATOM     70  C   UNL A   1      42.679  23.699  27.510  1.00  0.00     0.058 A 
ATOM     71  C   UNL A   1      42.726  23.398  26.141  1.00  0.00     0.135 A 
ATOM     72  C   UNL A   1      42.461  22.638  28.404  1.00  0.00     0.135 A 
ATOM     73  F   UNL A   1      42.913  24.377  25.245  1.00  0.00    -0.206 F 
ATOM     74  C   UNL A   1      42.572  22.094  25.677  1.00  0.00     0.059 A 
ATOM     75  C   UNL A   1      42.340  21.323  27.967  1.00  0.00     0.059 A 
ATOM     76  F   UNL A   1      42.412  22.869  29.726  1.00  0.00    -0.206 F 
ATOM     77  C   UNL A   1      42.392  21.063  26.599  1.00  0.00     0.060 A 
BRANCH  77  78
ATOM     78  S   UNL A   1      42.270  19.366  25.991  1.00  0.00     0.124 S 
ATOM     79  O   UNL A   1      40.834  19.234  25.776  1.00  0.00    -0.237 OA
ATOM     80  O   UNL A   1      43.094  19.416  24.787  1.00  0.00    -0.237 OA
ATOM     81  O   UNL A   1      42.820  18.575  27.087  1.00  0.00    -0.744 OA
ENDBRANCH  77  78
ENDBRANCH  45  70
BRANCH  57  82
ATOM     82  C   UNL A   1      48.350  27.480  29.006  1.00  0.00     0.058 A 
ATOM     83  C   UNL A   1      49.099  27.682  27.838  1.00  0.00     0.135 A 
ATOM     84  C   UNL A   1      49.026  27.030  30.151  1.00  0.00     0.135 A 
ATOM     85  F   UNL A   1      48.500  28.103  26.713  1.00  0.00    -0.206 F 
ATOM     86  C   UNL A   1      50.466  27.428  27.800  1.00  0.00     0.059 A 
ATOM     87  C   UNL A   1      50.397  26.797  30.145  1.00  0.00     0.059 A 
ATOM     88  F   UNL A   1      48.356  26.829  31.297  1.00  0.00    -0.206 F 
ATOM     89  C   UNL A   1      51.107  26.989  28.961  1.00  0.00     0.060 A 
BRANCH  89  90
ATOM     90  S   UNL A   1      52.887  26.694  28.903  1.00  0.00     0.124 S 
ATOM     91  O   UNL A   1      53.014  25.898  27.687  1.00  0.00    -0.237 OA
ATOM     92  O   UNL A   1      53.424  28.050  28.831  1.00  0.00    -0.237 OA
ATOM     93  O   UNL A   1      53.156  25.983  30.149  1.00  0.00    -0.744 OA
ENDBRANCH  89  90
ENDBRANCH  57  82
ENDBRANCH  31  32
ENDBRANCH  24  26
ENDBRANCH  23  24
ENDBRANCH   1  23
TORSDOF 15
ENDMDL
MODEL 3
REMARK VINA RESULT:     -11.6      1.801      2.346
REMARK SMILES Cc1cc2c(c(C)c1Cl)C=C(C(=O)OCCOC(=O)c1ccc(-c3c4nc(c(-c5c(F)cc(S(=O)(=O)[O-])cc5F)c5ccc([nH]5)c(-c5c(F)cc(S(=O)(=O)[O-])cc5F)c5nc(c(-c6c(F)cc(S(=O)(=O)[O-])cc6F)c6ccc3[nH]6)C=C5)C=C4)cc1)[C@@H](C(F)(F)F)O2
REMARK SMILES IDX 16 1 15 2 14 3 12 4 13 5 11 6 1 7 2 8 3 9 8 10 4 11 6 12
REMARK SMILES IDX 9 13 5 14 91 15 7 16 10 17 86 18 87 19 88 20 89 21 90 22
REMARK SMILES IDX 17 23 18 24 19 25 20 26 21 27 85 28 22 29 84 30 23 31 24 32
REMARK SMILES IDX 25 33 78 34 26 35 83 36 77 37 79 38 27 39 82 40 76 41 75 42
REMARK SMILES IDX 28 44 62 45 41 46 61 47 42 48 45 49 60 50 80 51 43 52 44 53
REMARK SMILES IDX 59 55 81 56 46 57 29 58 30 59 39 60 31 61 32 62 38 63 40 64
REMARK SMILES IDX 33 65 34 66 35 67 36 68 37 69 63 70 64 71 73 72 65 73 66 74
REMARK SMILES IDX 72 75 74 76 67 77 68 78 69 79 70 80 71 81 47 82 48 83 57 84
REMARK SMILES IDX 49 85 50 86 56 87 58 88 51 89 52 90 53 91 54 92 55 93
REMARK H PARENT 79 43 45 54
REMARK Flexibility Score: inf
ROOT
ATOM      1  C   UNL A   1      33.853  31.219  27.963  1.00  0.00     0.275 C 
ENDROOT
BRANCH   1   2
ATOM      2  C   UNL A   1      32.941  30.482  26.983  1.00  0.00     0.275 C 
BRANCH   2   3
ATOM      3  O   UNL A   1      33.164  29.055  27.026  1.00  0.00    -0.459 OA
BRANCH   3   4
ATOM      4  C   UNL A   1      33.407  28.470  25.830  1.00  0.00     0.338 C 
ATOM      5  O   UNL A   1      33.896  29.002  24.846  1.00  0.00    -0.246 OA
BRANCH   4   6
ATOM      6  C   UNL A   1      32.991  27.054  25.849  1.00  0.00     0.087 C 
ATOM      7  C   UNL A   1      32.158  20.673  25.001  1.00  0.00     0.046 C 
ATOM      8  C   UNL A   1      32.686  22.066  25.212  1.00  0.00    -0.028 A 
ATOM      9  C   UNL A   1      31.767  23.102  25.431  1.00  0.00     0.052 A 
ATOM     10  C   UNL A   1      34.063  22.356  25.247  1.00  0.00     0.047 A 
ATOM     11  C   UNL A   1      32.196  24.413  25.624  1.00  0.00     0.128 A 
ATOM     12  C   UNL A   1      34.520  23.681  25.430  1.00  0.00    -0.021 A 
ATOM     13  Cl  UNL A   1      35.193  21.047  25.068  1.00  0.00    -0.084 Cl
ATOM     14  C   UNL A   1      33.561  24.715  25.607  1.00  0.00     0.022 A 
ATOM     15  O   UNL A   1      31.203  25.328  25.837  1.00  0.00    -0.475 OA
ATOM     16  C   UNL A   1      35.996  24.008  25.450  1.00  0.00     0.047 C 
ATOM     17  C   UNL A   1      33.941  26.117  25.752  1.00  0.00     0.027 C 
ATOM     18  C   UNL A   1      31.527  26.743  25.824  1.00  0.00     0.316 C 
BRANCH  18  19
ATOM     19  C   UNL A   1      30.830  27.402  24.623  1.00  0.00     0.430 C 
ATOM     20  F   UNL A   1      31.550  27.239  23.485  1.00  0.00    -0.167 F 
ATOM     21  F   UNL A   1      29.615  26.850  24.387  1.00  0.00    -0.167 F 
ATOM     22  F   UNL A   1      30.646  28.730  24.798  1.00  0.00    -0.167 F 
ENDBRANCH  18  19
ENDBRANCH   4   6
ENDBRANCH   3   4
ENDBRANCH   2   3
ENDBRANCH   1   2
BRANCH   1  23
ATOM     23  O   UNL A   1      35.226  30.852  27.743  1.00  0.00    -0.458 OA
BRANCH  23  24
ATOM     24  C   UNL A   1      36.004  30.854  28.850  1.00  0.00     0.338 C 
ATOM     25  O   UNL A   1      35.758  31.375  29.925  1.00  0.00    -0.246 OA
BRANCH  24  26
ATOM     26  C   UNL A   1      37.210  30.042  28.625  1.00  0.00     0.060 A 
ATOM     27  C   UNL A   1      37.918  29.591  29.730  1.00  0.00     0.016 A 
ATOM     28  C   UNL A   1      37.753  29.909  27.350  1.00  0.00     0.016 A 
ATOM     29  C   UNL A   1      39.237  29.174  29.584  1.00  0.00     0.010 A 
ATOM     30  C   UNL A   1      39.028  29.344  27.197  1.00  0.00     0.010 A 
ATOM     31  C   UNL A   1      39.819  29.030  28.316  1.00  0.00    -0.014 A 
BRANCH  31  32
ATOM     32  C   UNL A   1      41.250  28.608  28.179  1.00  0.00     0.031 A 
ATOM     33  C   UNL A   1      42.367  29.609  28.394  1.00  0.00     0.074 A 
ATOM     34  C   UNL A   1      41.573  27.324  27.909  1.00  0.00     0.049 A 
ATOM     35  N   UNL A   1      43.642  29.499  28.112  1.00  0.00    -0.248 NA
ATOM     36  C   UNL A   1      42.003  30.906  28.988  1.00  0.00     0.031 C 
ATOM     37  C   UNL A   1      40.621  26.223  27.744  1.00  0.00     0.029 A 
ATOM     38  N   UNL A   1      42.796  26.717  27.744  1.00  0.00    -0.354 N 
ATOM     39  C   UNL A   1      44.213  30.729  28.429  1.00  0.00     0.074 A 
ATOM     40  C   UNL A   1      43.146  31.573  28.919  1.00  0.00     0.031 C 
ATOM     41  C   UNL A   1      41.291  25.073  27.586  1.00  0.00     0.029 A 
ATOM     42  C   UNL A   1      42.714  25.367  27.489  1.00  0.00     0.049 A 
ATOM     43  H   UNL A   1      43.651  27.202  27.804  1.00  0.00     0.167 HD
ATOM     44  C   UNL A   1      45.509  31.116  28.322  1.00  0.00     0.037 A 
ATOM     45  C   UNL A   1      43.657  24.467  27.150  1.00  0.00     0.037 A 
ATOM     46  C   UNL A   1      46.578  30.245  27.901  1.00  0.00     0.049 A 
ATOM     47  C   UNL A   1      45.074  24.930  26.974  1.00  0.00     0.074 A 
ATOM     48  C   UNL A   1      47.923  30.541  27.755  1.00  0.00     0.029 A 
ATOM     49  N   UNL A   1      46.431  28.901  27.587  1.00  0.00    -0.354 N 
ATOM     50  N   UNL A   1      45.578  26.124  27.168  1.00  0.00    -0.248 NA
ATOM     51  C   UNL A   1      46.043  23.934  26.498  1.00  0.00     0.031 C 
ATOM     52  C   UNL A   1      48.581  29.389  27.310  1.00  0.00     0.029 A 
ATOM     53  C   UNL A   1      47.657  28.360  27.232  1.00  0.00     0.049 A 
ATOM     54  H   UNL A   1      45.581  28.404  27.612  1.00  0.00     0.167 HD
ATOM     55  C   UNL A   1      46.927  26.022  26.847  1.00  0.00     0.074 A 
ATOM     56  C   UNL A   1      47.162  24.643  26.467  1.00  0.00     0.031 C 
ATOM     57  C   UNL A   1      47.879  26.986  26.857  1.00  0.00     0.037 A 
BRANCH  44  58
ATOM     58  C   UNL A   1      45.853  32.550  28.634  1.00  0.00     0.058 A 
ATOM     59  C   UNL A   1      46.257  32.964  29.912  1.00  0.00     0.135 A 
ATOM     60  C   UNL A   1      45.839  33.516  27.611  1.00  0.00     0.135 A 
ATOM     61  F   UNL A   1      46.274  32.091  30.931  1.00  0.00    -0.206 F 
ATOM     62  C   UNL A   1      46.615  34.286  30.170  1.00  0.00     0.059 A 
ATOM     63  C   UNL A   1      46.222  34.835  27.840  1.00  0.00     0.059 A 
ATOM     64  F   UNL A   1      45.463  33.179  26.367  1.00  0.00    -0.206 F 
ATOM     65  C   UNL A   1      46.599  35.213  29.127  1.00  0.00     0.060 A 
BRANCH  65  66
ATOM     66  S   UNL A   1      47.082  36.917  29.479  1.00  0.00     0.124 S 
ATOM     67  O   UNL A   1      46.055  37.666  28.762  1.00  0.00    -0.237 OA
ATOM     68  O   UNL A   1      47.004  36.968  30.935  1.00  0.00    -0.237 OA
ATOM     69  O   UNL A   1      48.429  37.013  28.922  1.00  0.00    -0.744 OA
ENDBRANCH  65  66
ENDBRANCH  44  58
BRANCH  45  70
ATOM     70  C   UNL A   1      43.272  23.049  26.898  1.00  0.00     0.058 A 
ATOM     71  C   UNL A   1      43.262  22.524  25.598  1.00  0.00     0.135 A 
ATOM     72  C   UNL A   1      42.945  22.182  27.954  1.00  0.00     0.135 A 
ATOM     73  F   UNL A   1      43.548  23.314  24.553  1.00  0.00    -0.206 F 
ATOM     74  C   UNL A   1      42.948  21.190  25.355  1.00  0.00     0.059 A 
ATOM     75  C   UNL A   1      42.663  20.837  27.739  1.00  0.00     0.059 A 
ATOM     76  F   UNL A   1      42.944  22.631  29.220  1.00  0.00    -0.206 F 
ATOM     77  C   UNL A   1      42.662  20.352  26.434  1.00  0.00     0.060 A 
BRANCH  77  78
ATOM     78  S   UNL A   1      42.332  18.605  26.112  1.00  0.00     0.124 S 
ATOM     79  O   UNL A   1      43.261  18.326  25.024  1.00  0.00    -0.237 OA
ATOM     80  O   UNL A   1      42.651  17.994  27.399  1.00  0.00    -0.237 OA
ATOM     81  O   UNL A   1      40.917  18.591  25.752  1.00  0.00    -0.744 OA
ENDBRANCH  77  78
ENDBRANCH  45  70
BRANCH  57  82
ATOM     82  C   UNL A   1      49.275  26.581  26.471  1.00  0.00     0.058 A 
ATOM     83  C   UNL A   1      50.152  25.996  27.396  1.00  0.00     0.135 A 
ATOM     84  C   UNL A   1      49.720  26.734  25.148  1.00  0.00     0.135 A 
ATOM     85  F   UNL A   1      49.779  25.836  28.675  1.00  0.00    -0.206 F 
ATOM     86  C   UNL A   1      51.433  25.596  27.029  1.00  0.00     0.059 A 
ATOM     87  C   UNL A   1      50.986  26.315  24.751  1.00  0.00     0.059 A 
ATOM     88  F   UNL A   1      48.916  27.280  24.222  1.00  0.00    -0.206 F 
ATOM     89  C   UNL A   1      51.839  25.755  25.702  1.00  0.00     0.060 A 
BRANCH  89  90
ATOM     90  S   UNL A   1      53.491  25.201  25.235  1.00  0.00     0.124 S 
ATOM     91  O   UNL A   1      53.591  25.692  23.865  1.00  0.00    -0.237 OA
ATOM     92  O   UNL A   1      54.335  25.880  26.214  1.00  0.00    -0.237 OA
ATOM     93  O   UNL A   1      53.419  23.750  25.377  1.00  0.00    -0.744 OA
ENDBRANCH  89  90
ENDBRANCH  57  82
ENDBRANCH  31  32
ENDBRANCH  24  26
ENDBRANCH  23  24
ENDBRANCH   1  23
TORSDOF 15
ENDMDL
