MODEL 1
REMARK VINA RESULT:     -11.5      0.000      0.000
REMARK SMILES CC[C@](C)(NC(=O)[C@H]1CNc2ccccc2O1)C(=O)OCCOC(=O)c1ccc(-c2c3nc(c(-c4c(F)cc(S(=O)(=O)[O-])cc4F)c4ccc([nH]4)c(-c4c(F)cc(S(=O)(=O)[O-])cc4F)c4nc(c(-c5c(F)cc(S(=O)(=O)[O-])cc5F)c5ccc2[nH]5)C=C4)C=C3)cc1
REMARK SMILES IDX 22 1 21 2 20 3 18 4 19 5 3 6 4 7 2 8 1 9 5 10 6 11 7 13 8 14
REMARK SMILES IDX 9 15 17 16 10 17 16 18 11 19 15 21 12 22 14 23 13 24 23 25
REMARK SMILES IDX 24 26 25 27 26 28 27 29 91 30 28 31 90 32 29 33 30 34 31 35
REMARK SMILES IDX 84 36 32 37 89 38 83 39 85 40 33 41 88 42 82 43 81 44 34 46
REMARK SMILES IDX 68 47 47 48 67 49 48 50 51 51 66 52 86 53 49 54 50 55 65 57
REMARK SMILES IDX 87 58 52 59 35 60 36 61 45 62 37 63 38 64 44 65 46 66 39 67
REMARK SMILES IDX 40 68 41 69 42 70 43 71 69 72 70 73 79 74 71 75 72 76 78 77
REMARK SMILES IDX 80 78 73 79 74 80 75 81 76 82 77 83 53 84 54 85 63 86 55 87
REMARK SMILES IDX 56 88 62 89 64 90 57 91 58 92 59 93 60 94 61 95
REMARK H PARENT 5 12 10 20 85 45 51 56
REMARK Flexibility Score: inf
ROOT
ATOM      1  C   UNL A   1      37.553  22.335  24.852  1.00  0.00     0.275 C 
ENDROOT
BRANCH   1   2
ATOM      2  C   UNL A   1      36.489  22.802  23.854  1.00  0.00     0.274 C 
BRANCH   2   3
ATOM      3  O   UNL A   1      35.639  23.835  24.408  1.00  0.00    -0.460 OA
BRANCH   3   4
ATOM      4  C   UNL A   1      34.540  24.170  23.698  1.00  0.00     0.331 C 
ATOM      5  O   UNL A   1      34.484  24.080  22.476  1.00  0.00    -0.249 OA
BRANCH   4   6
ATOM      6  C   UNL A   1      33.357  24.716  24.566  1.00  0.00     0.135 C 
ATOM      7  C   UNL A   1      32.346  25.395  23.623  1.00  0.00     0.047 C 
BRANCH   6   8
ATOM      8  C   UNL A   1      33.992  25.783  25.523  1.00  0.00     0.037 C 
ATOM      9  C   UNL A   1      33.103  26.901  26.057  1.00  0.00     0.007 C 
ENDBRANCH   6   8
BRANCH   6  10
ATOM     10  N   UNL A   1      32.555  23.843  25.500  1.00  0.00    -0.337 N 
ATOM     11  C   UNL A   1      31.950  22.620  25.353  1.00  0.00     0.263 C 
ATOM     12  H   UNL A   1      32.442  24.230  26.398  1.00  0.00     0.164 HD
ATOM     13  O   UNL A   1      30.795  22.524  25.774  1.00  0.00    -0.271 OA
BRANCH  11  14
ATOM     14  C   UNL A   1      32.762  21.415  24.890  1.00  0.00     0.281 C 
ATOM     15  C   UNL A   1      33.799  21.146  25.996  1.00  0.00     0.168 C 
ATOM     16  O   UNL A   1      31.994  20.219  24.687  1.00  0.00    -0.477 OA
ATOM     17  N   UNL A   1      34.747  20.136  25.550  1.00  0.00    -0.378 N 
ATOM     18  C   UNL A   1      32.826  19.151  24.395  1.00  0.00     0.143 A 
ATOM     19  C   UNL A   1      34.172  19.096  24.820  1.00  0.00     0.077 A 
ATOM     20  H   UNL A   1      35.711  20.183  25.748  1.00  0.00     0.160 HD
ATOM     21  C   UNL A   1      32.270  18.104  23.664  1.00  0.00     0.049 A 
ATOM     22  C   UNL A   1      34.968  18.029  24.398  1.00  0.00     0.029 A 
ATOM     23  C   UNL A   1      33.069  17.026  23.282  1.00  0.00     0.004 A 
ATOM     24  C   UNL A   1      34.420  16.997  23.634  1.00  0.00     0.002 A 
ENDBRANCH  11  14
ENDBRANCH   6  10
ENDBRANCH   4   6
ENDBRANCH   3   4
ENDBRANCH   2   3
ENDBRANCH   1   2
BRANCH   1  25
ATOM     25  O   UNL A   1      38.025  23.447  25.628  1.00  0.00    -0.458 OA
BRANCH  25  26
ATOM     26  C   UNL A   1      39.233  23.303  26.221  1.00  0.00     0.338 C 
ATOM     27  O   UNL A   1      39.997  22.361  26.163  1.00  0.00    -0.246 OA
BRANCH  26  28
ATOM     28  C   UNL A   1      39.529  24.537  26.952  1.00  0.00     0.060 A 
ATOM     29  C   UNL A   1      38.969  24.720  28.216  1.00  0.00     0.016 A 
ATOM     30  C   UNL A   1      40.340  25.512  26.380  1.00  0.00     0.016 A 
ATOM     31  C   UNL A   1      39.206  25.885  28.924  1.00  0.00     0.010 A 
ATOM     32  C   UNL A   1      40.646  26.651  27.125  1.00  0.00     0.010 A 
ATOM     33  C   UNL A   1      40.093  26.830  28.406  1.00  0.00    -0.014 A 
BRANCH  33  34
ATOM     34  C   UNL A   1      40.531  27.960  29.248  1.00  0.00     0.031 A 
ATOM     35  C   UNL A   1      41.769  27.831  30.076  1.00  0.00     0.074 A 
ATOM     36  C   UNL A   1      39.751  29.058  29.293  1.00  0.00     0.049 A 
ATOM     37  N   UNL A   1      42.184  28.590  31.051  1.00  0.00    -0.248 NA
ATOM     38  C   UNL A   1      42.645  26.684  29.783  1.00  0.00     0.031 C 
ATOM     39  C   UNL A   1      38.538  29.266  28.491  1.00  0.00     0.029 A 
ATOM     40  N   UNL A   1      39.836  30.191  30.056  1.00  0.00    -0.354 N 
ATOM     41  C   UNL A   1      43.339  27.986  31.530  1.00  0.00     0.074 A 
ATOM     42  C   UNL A   1      43.571  26.807  30.724  1.00  0.00     0.031 C 
ATOM     43  C   UNL A   1      37.989  30.445  28.814  1.00  0.00     0.029 A 
ATOM     44  C   UNL A   1      38.762  31.037  29.896  1.00  0.00     0.049 A 
ATOM     45  H   UNL A   1      40.590  30.382  30.660  1.00  0.00     0.167 HD
ATOM     46  C   UNL A   1      44.113  28.386  32.565  1.00  0.00     0.037 A 
ATOM     47  C   UNL A   1      38.405  32.131  30.593  1.00  0.00     0.037 A 
ATOM     48  C   UNL A   1      43.857  29.587  33.320  1.00  0.00     0.049 A 
ATOM     49  C   UNL A   1      39.279  32.547  31.740  1.00  0.00     0.074 A 
ATOM     50  C   UNL A   1      44.592  30.125  34.359  1.00  0.00     0.029 A 
ATOM     51  N   UNL A   1      42.776  30.434  33.108  1.00  0.00    -0.354 N 
ATOM     52  N   UNL A   1      40.372  31.972  32.187  1.00  0.00    -0.248 NA
ATOM     53  C   UNL A   1      38.870  33.738  32.490  1.00  0.00     0.031 C 
ATOM     54  C   UNL A   1      43.934  31.278  34.801  1.00  0.00     0.029 A 
ATOM     55  C   UNL A   1      42.810  31.478  34.013  1.00  0.00     0.049 A 
ATOM     56  H   UNL A   1      42.087  30.308  32.416  1.00  0.00     0.167 HD
ATOM     57  C   UNL A   1      40.782  32.729  33.273  1.00  0.00     0.074 A 
ATOM     58  C   UNL A   1      39.832  33.819  33.400  1.00  0.00     0.031 C 
ATOM     59  C   UNL A   1      41.839  32.541  34.100  1.00  0.00     0.037 A 
BRANCH  46  60
ATOM     60  C   UNL A   1      45.263  27.510  32.968  1.00  0.00     0.058 A 
ATOM     61  C   UNL A   1      45.135  26.509  33.943  1.00  0.00     0.135 A 
ATOM     62  C   UNL A   1      46.510  27.651  32.337  1.00  0.00     0.135 A 
ATOM     63  F   UNL A   1      43.973  26.344  34.592  1.00  0.00    -0.206 F 
ATOM     64  C   UNL A   1      46.205  25.686  34.286  1.00  0.00     0.059 A 
ATOM     65  C   UNL A   1      47.589  26.828  32.649  1.00  0.00     0.059 A 
ATOM     66  F   UNL A   1      46.691  28.599  31.404  1.00  0.00    -0.206 F 
ATOM     67  C   UNL A   1      47.429  25.852  33.632  1.00  0.00     0.060 A 
BRANCH  67  68
ATOM     68  S   UNL A   1      48.802  24.765  34.071  1.00  0.00     0.124 S 
ATOM     69  O   UNL A   1      49.276  25.378  35.309  1.00  0.00    -0.237 OA
ATOM     70  O   UNL A   1      48.142  23.471  34.219  1.00  0.00    -0.237 OA
ATOM     71  O   UNL A   1      49.704  24.877  32.930  1.00  0.00    -0.744 OA
ENDBRANCH  67  68
ENDBRANCH  46  60
BRANCH  47  72
ATOM     72  C   UNL A   1      37.143  32.845  30.266  1.00  0.00     0.058 A 
ATOM     73  C   UNL A   1      37.121  33.890  29.332  1.00  0.00     0.135 A 
ATOM     74  C   UNL A   1      35.922  32.471  30.852  1.00  0.00     0.135 A 
ATOM     75  F   UNL A   1      38.260  34.287  28.744  1.00  0.00    -0.206 F 
ATOM     76  C   UNL A   1      35.940  34.544  28.997  1.00  0.00     0.059 A 
ATOM     77  C   UNL A   1      34.724  33.092  30.515  1.00  0.00     0.059 A 
ATOM     78  F   UNL A   1      35.884  31.463  31.739  1.00  0.00    -0.206 F 
ATOM     79  C   UNL A   1      34.745  34.136  29.593  1.00  0.00     0.060 A 
BRANCH  79  80
ATOM     80  S   UNL A   1      33.207  34.955  29.116  1.00  0.00     0.124 S 
ATOM     81  O   UNL A   1      32.493  35.003  30.386  1.00  0.00    -0.237 OA
ATOM     82  O   UNL A   1      33.682  36.236  28.602  1.00  0.00    -0.237 OA
ATOM     83  O   UNL A   1      32.648  34.056  28.110  1.00  0.00    -0.744 OA
ENDBRANCH  79  80
ENDBRANCH  47  72
BRANCH  59  84
ATOM     84  C   UNL A   1      42.018  33.540  35.202  1.00  0.00     0.058 A 
ATOM     85  C   UNL A   1      42.808  34.684  35.023  1.00  0.00     0.135 A 
ATOM     86  C   UNL A   1      41.342  33.381  36.421  1.00  0.00     0.135 A 
ATOM     87  F   UNL A   1      43.482  34.869  33.876  1.00  0.00    -0.206 F 
ATOM     88  C   UNL A   1      42.926  35.641  36.023  1.00  0.00     0.059 A 
ATOM     89  C   UNL A   1      41.430  34.335  37.426  1.00  0.00     0.059 A 
ATOM     90  F   UNL A   1      40.571  32.301  36.631  1.00  0.00    -0.206 F 
ATOM     91  C   UNL A   1      42.229  35.459  37.219  1.00  0.00     0.060 A 
BRANCH  91  92
ATOM     92  S   UNL A   1      42.344  36.735  38.490  1.00  0.00     0.124 S 
ATOM     93  O   UNL A   1      40.948  37.135  38.630  1.00  0.00    -0.237 OA
ATOM     94  O   UNL A   1      42.911  36.003  39.618  1.00  0.00    -0.237 OA
ATOM     95  O   UNL A   1      43.227  37.731  37.891  1.00  0.00    -0.744 OA
ENDBRANCH  91  92
ENDBRANCH  59  84
ENDBRANCH  33  34
ENDBRANCH  26  28
ENDBRANCH  25  26
ENDBRANCH   1  25
TORSDOF 17
ENDMDL
MODEL 2
REMARK VINA RESULT:     -11.4      1.089      3.512
REMARK SMILES CC[C@](C)(NC(=O)[C@H]1CNc2ccccc2O1)C(=O)OCCOC(=O)c1ccc(-c2c3nc(c(-c4c(F)cc(S(=O)(=O)[O-])cc4F)c4ccc([nH]4)c(-c4c(F)cc(S(=O)(=O)[O-])cc4F)c4nc(c(-c5c(F)cc(S(=O)(=O)[O-])cc5F)c5ccc2[nH]5)C=C4)C=C3)cc1
REMARK SMILES IDX 22 1 21 2 20 3 18 4 19 5 3 6 4 7 2 8 1 9 5 10 6 11 7 13 8 14
REMARK SMILES IDX 9 15 17 16 10 17 16 18 11 19 15 21 12 22 14 23 13 24 23 25
REMARK SMILES IDX 24 26 25 27 26 28 27 29 91 30 28 31 90 32 29 33 30 34 31 35
REMARK SMILES IDX 84 36 32 37 89 38 83 39 85 40 33 41 88 42 82 43 81 44 34 46
REMARK SMILES IDX 68 47 47 48 67 49 48 50 51 51 66 52 86 53 49 54 50 55 65 57
REMARK SMILES IDX 87 58 52 59 35 60 36 61 45 62 37 63 38 64 44 65 46 66 39 67
REMARK SMILES IDX 40 68 41 69 42 70 43 71 69 72 70 73 79 74 71 75 72 76 78 77
REMARK SMILES IDX 80 78 73 79 74 80 75 81 76 82 77 83 53 84 54 85 63 86 55 87
REMARK SMILES IDX 56 88 62 89 64 90 57 91 58 92 59 93 60 94 61 95
REMARK H PARENT 5 12 10 20 85 45 51 56
REMARK Flexibility Score: inf
ROOT
ATOM      1  C   UNL A   1      37.571  22.148  25.109  1.00  0.00     0.275 C 
ENDROOT
BRANCH   1   2
ATOM      2  C   UNL A   1      36.409  22.462  24.162  1.00  0.00     0.274 C 
BRANCH   2   3
ATOM      3  O   UNL A   1      35.249  21.639  24.430  1.00  0.00    -0.460 OA
BRANCH   3   4
ATOM      4  C   UNL A   1      34.075  22.278  24.622  1.00  0.00     0.331 C 
ATOM      5  O   UNL A   1      33.701  23.208  23.916  1.00  0.00    -0.249 OA
BRANCH   4   6
ATOM      6  C   UNL A   1      33.249  21.750  25.843  1.00  0.00     0.135 C 
ATOM      7  C   UNL A   1      34.026  22.094  27.128  1.00  0.00     0.047 C 
BRANCH   6   8
ATOM      8  C   UNL A   1      33.177  20.194  25.665  1.00  0.00     0.037 C 
ATOM      9  C   UNL A   1      32.492  19.636  24.422  1.00  0.00     0.007 C 
ENDBRANCH   6   8
BRANCH   6  10
ATOM     10  N   UNL A   1      31.813  22.142  26.091  1.00  0.00    -0.337 N 
ATOM     11  C   UNL A   1      31.226  23.241  26.663  1.00  0.00     0.263 C 
ATOM     12  H   UNL A   1      31.164  21.470  25.778  1.00  0.00     0.164 HD
ATOM     13  O   UNL A   1      30.330  23.023  27.483  1.00  0.00    -0.271 OA
BRANCH  11  14
ATOM     14  C   UNL A   1      31.536  24.638  26.134  1.00  0.00     0.281 C 
ATOM     15  C   UNL A   1      30.704  24.805  24.851  1.00  0.00     0.168 C 
ATOM     16  O   UNL A   1      31.202  25.706  27.035  1.00  0.00    -0.477 OA
ATOM     17  N   UNL A   1      31.086  26.033  24.169  1.00  0.00    -0.378 N 
ATOM     18  C   UNL A   1      31.397  26.934  26.424  1.00  0.00     0.143 A 
ATOM     19  C   UNL A   1      31.334  27.106  25.024  1.00  0.00     0.077 A 
ATOM     20  H   UNL A   1      31.163  26.099  23.190  1.00  0.00     0.160 HD
ATOM     21  C   UNL A   1      31.649  28.018  27.262  1.00  0.00     0.049 A 
ATOM     22  C   UNL A   1      31.639  28.359  24.486  1.00  0.00     0.029 A 
ATOM     23  C   UNL A   1      31.916  29.271  26.710  1.00  0.00     0.004 A 
ATOM     24  C   UNL A   1      31.928  29.438  25.324  1.00  0.00     0.002 A 
ENDBRANCH  11  14
ENDBRANCH   6  10
ENDBRANCH   4   6
ENDBRANCH   3   4
ENDBRANCH   2   3
ENDBRANCH   1   2
BRANCH   1  25
ATOM     25  O   UNL A   1      38.167  23.366  25.582  1.00  0.00    -0.458 OA
BRANCH  25  26
ATOM     26  C   UNL A   1      39.377  23.256  26.178  1.00  0.00     0.338 C 
ATOM     27  O   UNL A   1      40.166  22.333  26.127  1.00  0.00    -0.246 OA
BRANCH  26  28
ATOM     28  C   UNL A   1      39.640  24.501  26.903  1.00  0.00     0.060 A 
ATOM     29  C   UNL A   1      39.085  24.670  28.170  1.00  0.00     0.016 A 
ATOM     30  C   UNL A   1      40.415  25.500  26.321  1.00  0.00     0.016 A 
ATOM     31  C   UNL A   1      39.290  25.845  28.873  1.00  0.00     0.010 A 
ATOM     32  C   UNL A   1      40.690  26.650  27.059  1.00  0.00     0.010 A 
ATOM     33  C   UNL A   1      40.143  26.816  28.344  1.00  0.00    -0.014 A 
BRANCH  33  34
ATOM     34  C   UNL A   1      40.551  27.962  29.179  1.00  0.00     0.031 A 
ATOM     35  C   UNL A   1      41.783  27.864  30.020  1.00  0.00     0.074 A 
ATOM     36  C   UNL A   1      39.751  29.046  29.205  1.00  0.00     0.049 A 
ATOM     37  N   UNL A   1      42.174  28.640  30.992  1.00  0.00    -0.248 NA
ATOM     38  C   UNL A   1      42.683  26.731  29.748  1.00  0.00     0.031 C 
ATOM     39  C   UNL A   1      38.542  29.223  28.389  1.00  0.00     0.029 A 
ATOM     40  N   UNL A   1      39.807  30.188  29.957  1.00  0.00    -0.354 N 
ATOM     41  C   UNL A   1      43.335  28.063  31.489  1.00  0.00     0.074 A 
ATOM     42  C   UNL A   1      43.597  26.880  30.697  1.00  0.00     0.031 C 
ATOM     43  C   UNL A   1      37.969  30.396  28.694  1.00  0.00     0.029 A 
ATOM     44  C   UNL A   1      38.720  31.012  29.778  1.00  0.00     0.049 A 
ATOM     45  H   UNL A   1      40.552  30.398  30.567  1.00  0.00     0.167 HD
ATOM     46  C   UNL A   1      44.091  28.487  32.527  1.00  0.00     0.037 A 
ATOM     47  C   UNL A   1      38.336  32.107  30.460  1.00  0.00     0.037 A 
ATOM     48  C   UNL A   1      43.806  29.690  33.267  1.00  0.00     0.049 A 
ATOM     49  C   UNL A   1      39.191  32.550  31.612  1.00  0.00     0.074 A 
ATOM     50  C   UNL A   1      44.520  30.252  34.308  1.00  0.00     0.029 A 
ATOM     51  N   UNL A   1      42.711  30.515  33.036  1.00  0.00    -0.354 N 
ATOM     52  N   UNL A   1      40.289  31.999  32.075  1.00  0.00    -0.248 NA
ATOM     53  C   UNL A   1      38.752  33.741  32.346  1.00  0.00     0.031 C 
ATOM     54  C   UNL A   1      43.837  31.398  34.731  1.00  0.00     0.029 A 
ATOM     55  C   UNL A   1      42.717  31.569  33.931  1.00  0.00     0.049 A 
ATOM     56  H   UNL A   1      42.032  30.370  32.339  1.00  0.00     0.167 HD
ATOM     57  C   UNL A   1      40.674  32.775  33.158  1.00  0.00     0.074 A 
ATOM     58  C   UNL A   1      39.703  33.849  33.264  1.00  0.00     0.031 C 
ATOM     59  C   UNL A   1      41.726  32.615  33.997  1.00  0.00     0.037 A 
BRANCH  46  60
ATOM     60  C   UNL A   1      45.253  27.636  32.950  1.00  0.00     0.058 A 
ATOM     61  C   UNL A   1      45.130  26.631  33.921  1.00  0.00     0.135 A 
ATOM     62  C   UNL A   1      46.509  27.807  32.343  1.00  0.00     0.135 A 
ATOM     63  F   UNL A   1      43.959  26.438  34.548  1.00  0.00    -0.206 F 
ATOM     64  C   UNL A   1      46.211  25.831  34.283  1.00  0.00     0.059 A 
ATOM     65  C   UNL A   1      47.599  27.007  32.674  1.00  0.00     0.059 A 
ATOM     66  F   UNL A   1      46.686  28.761  31.415  1.00  0.00    -0.206 F 
ATOM     67  C   UNL A   1      47.443  26.027  33.653  1.00  0.00     0.060 A 
BRANCH  67  68
ATOM     68  S   UNL A   1      48.832  24.970  34.116  1.00  0.00     0.124 S 
ATOM     69  O   UNL A   1      48.152  23.716  34.428  1.00  0.00    -0.237 OA
ATOM     70  O   UNL A   1      49.640  24.965  32.901  1.00  0.00    -0.237 OA
ATOM     71  O   UNL A   1      49.423  25.663  35.255  1.00  0.00    -0.744 OA
ENDBRANCH  67  68
ENDBRANCH  46  60
BRANCH  47  72
ATOM     72  C   UNL A   1      37.064  32.794  30.114  1.00  0.00     0.058 A 
ATOM     73  C   UNL A   1      35.862  32.462  30.752  1.00  0.00     0.135 A 
ATOM     74  C   UNL A   1      37.033  33.829  29.162  1.00  0.00     0.135 A 
ATOM     75  F   UNL A   1      35.837  31.481  31.667  1.00  0.00    -0.206 F 
ATOM     76  C   UNL A   1      34.673  33.121  30.455  1.00  0.00     0.059 A 
ATOM     77  C   UNL A   1      35.862  34.519  28.868  1.00  0.00     0.059 A 
ATOM     78  F   UNL A   1      38.161  34.200  28.536  1.00  0.00    -0.206 F 
ATOM     79  C   UNL A   1      34.683  34.151  29.512  1.00  0.00     0.060 A 
BRANCH  79  80
ATOM     80  S   UNL A   1      33.147  35.037  29.169  1.00  0.00     0.124 S 
ATOM     81  O   UNL A   1      32.526  35.068  30.487  1.00  0.00    -0.237 OA
ATOM     82  O   UNL A   1      33.633  36.317  28.661  1.00  0.00    -0.237 OA
ATOM     83  O   UNL A   1      32.487  34.191  28.178  1.00  0.00    -0.744 OA
ENDBRANCH  79  80
ENDBRANCH  47  72
BRANCH  59  84
ATOM     84  C   UNL A   1      41.875  33.628  35.090  1.00  0.00     0.058 A 
ATOM     85  C   UNL A   1      41.335  33.404  36.365  1.00  0.00     0.135 A 
ATOM     86  C   UNL A   1      42.617  34.799  34.878  1.00  0.00     0.135 A 
ATOM     87  F   UNL A   1      40.606  32.302  36.607  1.00  0.00    -0.206 F 
ATOM     88  C   UNL A   1      41.523  34.315  37.396  1.00  0.00     0.059 A 
ATOM     89  C   UNL A   1      42.836  35.712  35.900  1.00  0.00     0.059 A 
ATOM     90  F   UNL A   1      43.156  35.049  33.673  1.00  0.00    -0.206 F 
ATOM     91  C   UNL A   1      42.279  35.463  37.155  1.00  0.00     0.060 A 
BRANCH  91  92
ATOM     92  S   UNL A   1      42.566  36.612  38.517  1.00  0.00     0.124 S 
ATOM     93  O   UNL A   1      41.246  37.214  38.675  1.00  0.00    -0.237 OA
ATOM     94  O   UNL A   1      42.990  35.721  39.594  1.00  0.00    -0.237 OA
ATOM     95  O   UNL A   1      43.604  37.497  38.001  1.00  0.00    -0.744 OA
ENDBRANCH  91  92
ENDBRANCH  59  84
ENDBRANCH  33  34
ENDBRANCH  26  28
ENDBRANCH  25  26
ENDBRANCH   1  25
TORSDOF 17
ENDMDL
MODEL 3
REMARK VINA RESULT:     -11.3      5.569     10.699
REMARK SMILES CC[C@](C)(NC(=O)[C@H]1CNc2ccccc2O1)C(=O)OCCOC(=O)c1ccc(-c2c3nc(c(-c4c(F)cc(S(=O)(=O)[O-])cc4F)c4ccc([nH]4)c(-c4c(F)cc(S(=O)(=O)[O-])cc4F)c4nc(c(-c5c(F)cc(S(=O)(=O)[O-])cc5F)c5ccc2[nH]5)C=C4)C=C3)cc1
REMARK SMILES IDX 22 1 21 2 20 3 18 4 19 5 3 6 4 7 2 8 1 9 5 10 6 11 7 13 8 14
REMARK SMILES IDX 9 15 17 16 10 17 16 18 11 19 15 21 12 22 14 23 13 24 23 25
REMARK SMILES IDX 24 26 25 27 26 28 27 29 91 30 28 31 90 32 29 33 30 34 31 35
REMARK SMILES IDX 84 36 32 37 89 38 83 39 85 40 33 41 88 42 82 43 81 44 34 46
REMARK SMILES IDX 68 47 47 48 67 49 48 50 51 51 66 52 86 53 49 54 50 55 65 57
REMARK SMILES IDX 87 58 52 59 35 60 36 61 45 62 37 63 38 64 44 65 46 66 39 67
REMARK SMILES IDX 40 68 41 69 42 70 43 71 69 72 70 73 79 74 71 75 72 76 78 77
REMARK SMILES IDX 80 78 73 79 74 80 75 81 76 82 77 83 53 84 54 85 63 86 55 87
REMARK SMILES IDX 56 88 62 89 64 90 57 91 58 92 59 93 60 94 61 95
REMARK H PARENT 5 12 10 20 85 45 51 56
REMARK Flexibility Score: inf
ROOT
ATOM      1  C   UNL A   1      34.356  29.817  27.377  1.00  0.00     0.275 C 
ENDROOT
BRANCH   1   2
ATOM      2  C   UNL A   1      33.353  28.678  27.174  1.00  0.00     0.274 C 
BRANCH   2   3
ATOM      3  O   UNL A   1      33.671  27.873  26.012  1.00  0.00    -0.460 OA
BRANCH   3   4
ATOM      4  C   UNL A   1      32.635  27.298  25.364  1.00  0.00     0.331 C 
ATOM      5  O   UNL A   1      31.926  26.437  25.875  1.00  0.00    -0.249 OA
BRANCH   4   6
ATOM      6  C   UNL A   1      32.442  27.798  23.893  1.00  0.00     0.135 C 
ATOM      7  C   UNL A   1      33.613  28.738  23.551  1.00  0.00     0.047 C 
BRANCH   6   8
ATOM      8  C   UNL A   1      31.096  28.603  23.894  1.00  0.00     0.037 C 
ATOM      9  C   UNL A   1      29.833  27.906  23.400  1.00  0.00     0.007 C 
ENDBRANCH   6   8
BRANCH   6  10
ATOM     10  N   UNL A   1      32.288  26.859  22.722  1.00  0.00    -0.337 N 
ATOM     11  C   UNL A   1      33.098  25.893  22.181  1.00  0.00     0.263 C 
ATOM     12  H   UNL A   1      31.429  26.960  22.249  1.00  0.00     0.164 HD
ATOM     13  O   UNL A   1      33.226  25.907  20.954  1.00  0.00    -0.271 OA
BRANCH  11  14
ATOM     14  C   UNL A   1      33.619  24.754  23.052  1.00  0.00     0.281 C 
ATOM     15  C   UNL A   1      32.567  23.634  22.966  1.00  0.00     0.168 C 
ATOM     16  O   UNL A   1      34.887  24.220  22.641  1.00  0.00    -0.477 OA
ATOM     17  N   UNL A   1      32.884  22.584  23.923  1.00  0.00    -0.378 N 
ATOM     18  C   UNL A   1      35.218  23.114  23.405  1.00  0.00     0.143 A 
ATOM     19  C   UNL A   1      34.245  22.301  24.030  1.00  0.00     0.077 A 
ATOM     20  H   UNL A   1      32.197  22.114  24.449  1.00  0.00     0.160 HD
ATOM     21  C   UNL A   1      36.573  22.817  23.526  1.00  0.00     0.049 A 
ATOM     22  C   UNL A   1      34.670  21.264  24.863  1.00  0.00     0.029 A 
ATOM     23  C   UNL A   1      36.980  21.753  24.333  1.00  0.00     0.004 A 
ATOM     24  C   UNL A   1      36.031  20.988  25.013  1.00  0.00     0.002 A 
ENDBRANCH  11  14
ENDBRANCH   6  10
ENDBRANCH   4   6
ENDBRANCH   3   4
ENDBRANCH   2   3
ENDBRANCH   1   2
BRANCH   1  25
ATOM     25  O   UNL A   1      35.590  29.303  27.902  1.00  0.00    -0.458 OA
BRANCH  25  26
ATOM     26  C   UNL A   1      36.217  30.062  28.830  1.00  0.00     0.338 C 
ATOM     27  O   UNL A   1      35.727  30.802  29.660  1.00  0.00    -0.246 OA
BRANCH  26  28
ATOM     28  C   UNL A   1      37.656  29.819  28.717  1.00  0.00     0.060 A 
ATOM     29  C   UNL A   1      38.418  29.741  29.882  1.00  0.00     0.016 A 
ATOM     30  C   UNL A   1      38.249  29.688  27.464  1.00  0.00     0.016 A 
ATOM     31  C   UNL A   1      39.785  29.539  29.813  1.00  0.00     0.010 A 
ATOM     32  C   UNL A   1      39.612  29.404  27.394  1.00  0.00     0.010 A 
ATOM     33  C   UNL A   1      40.379  29.311  28.569  1.00  0.00    -0.014 A 
BRANCH  33  34
ATOM     34  C   UNL A   1      41.785  28.868  28.501  1.00  0.00     0.031 A 
ATOM     35  C   UNL A   1      42.884  29.878  28.570  1.00  0.00     0.074 A 
ATOM     36  C   UNL A   1      42.028  27.556  28.310  1.00  0.00     0.049 A 
ATOM     37  N   UNL A   1      44.148  29.733  28.286  1.00  0.00    -0.248 NA
ATOM     38  C   UNL A   1      42.509  31.238  28.992  1.00  0.00     0.031 C 
ATOM     39  C   UNL A   1      41.004  26.505  28.259  1.00  0.00     0.029 A 
ATOM     40  N   UNL A   1      43.200  26.881  28.096  1.00  0.00    -0.354 N 
ATOM     41  C   UNL A   1      44.714  30.992  28.438  1.00  0.00     0.074 A 
ATOM     42  C   UNL A   1      43.658  31.887  28.860  1.00  0.00     0.031 C 
ATOM     43  C   UNL A   1      41.591  25.325  28.017  1.00  0.00     0.029 A 
ATOM     44  C   UNL A   1      43.015  25.547  27.816  1.00  0.00     0.049 A 
ATOM     45  H   UNL A   1      44.086  27.309  28.136  1.00  0.00     0.167 HD
ATOM     46  C   UNL A   1      45.999  31.353  28.221  1.00  0.00     0.037 A 
ATOM     47  C   UNL A   1      43.888  24.620  27.380  1.00  0.00     0.037 A 
ATOM     48  C   UNL A   1      47.023  30.417  27.831  1.00  0.00     0.049 A 
ATOM     49  C   UNL A   1      45.306  25.051  27.142  1.00  0.00     0.074 A 
ATOM     50  C   UNL A   1      48.369  30.648  27.626  1.00  0.00     0.029 A 
ATOM     51  N   UNL A   1      46.803  29.067  27.586  1.00  0.00    -0.354 N 
ATOM     52  N   UNL A   1      45.835  26.244  27.290  1.00  0.00    -0.248 NA
ATOM     53  C   UNL A   1      46.240  24.029  26.661  1.00  0.00     0.031 C 
ATOM     54  C   UNL A   1      48.958  29.445  27.221  1.00  0.00     0.029 A 
ATOM     55  C   UNL A   1      47.984  28.456  27.209  1.00  0.00     0.049 A 
ATOM     56  H   UNL A   1      45.933  28.613  27.669  1.00  0.00     0.167 HD
ATOM     57  C   UNL A   1      47.164  26.118  26.918  1.00  0.00     0.074 A 
ATOM     58  C   UNL A   1      47.365  24.725  26.562  1.00  0.00     0.031 C 
ATOM     59  C   UNL A   1      48.133  27.064  26.864  1.00  0.00     0.037 A 
BRANCH  46  60
ATOM     60  C   UNL A   1      46.358  32.805  28.353  1.00  0.00     0.058 A 
ATOM     61  C   UNL A   1      46.837  33.350  29.554  1.00  0.00     0.135 A 
ATOM     62  C   UNL A   1      46.256  33.659  27.243  1.00  0.00     0.135 A 
ATOM     63  F   UNL A   1      46.935  32.584  30.652  1.00  0.00    -0.206 F 
ATOM     64  C   UNL A   1      47.192  34.693  29.653  1.00  0.00     0.059 A 
ATOM     65  C   UNL A   1      46.623  35.000  27.313  1.00  0.00     0.059 A 
ATOM     66  F   UNL A   1      45.794  33.192  26.072  1.00  0.00    -0.206 F 
ATOM     67  C   UNL A   1      47.082  35.511  28.526  1.00  0.00     0.060 A 
BRANCH  67  68
ATOM     68  S   UNL A   1      47.566  37.245  28.662  1.00  0.00     0.124 S 
ATOM     69  O   UNL A   1      47.842  37.360  30.091  1.00  0.00    -0.237 OA
ATOM     70  O   UNL A   1      48.731  37.316  27.786  1.00  0.00    -0.237 OA
ATOM     71  O   UNL A   1      46.388  37.965  28.191  1.00  0.00    -0.744 OA
ENDBRANCH  67  68
ENDBRANCH  46  60
BRANCH  47  72
ATOM     72  C   UNL A   1      43.424  23.240  27.080  1.00  0.00     0.058 A 
ATOM     73  C   UNL A   1      43.329  22.777  25.760  1.00  0.00     0.135 A 
ATOM     74  C   UNL A   1      43.104  22.340  28.111  1.00  0.00     0.135 A 
ATOM     75  F   UNL A   1      43.621  23.597  24.739  1.00  0.00    -0.206 F 
ATOM     76  C   UNL A   1      42.924  21.477  25.471  1.00  0.00     0.059 A 
ATOM     77  C   UNL A   1      42.722  21.029  27.848  1.00  0.00     0.059 A 
ATOM     78  F   UNL A   1      43.198  22.726  29.393  1.00  0.00    -0.206 F 
ATOM     79  C   UNL A   1      42.625  20.609  26.523  1.00  0.00     0.060 A 
BRANCH  79  80
ATOM     80  S   UNL A   1      42.150  18.908  26.143  1.00  0.00     0.124 S 
ATOM     81  O   UNL A   1      43.047  18.593  25.038  1.00  0.00    -0.237 OA
ATOM     82  O   UNL A   1      42.422  18.220  27.403  1.00  0.00    -0.237 OA
ATOM     83  O   UNL A   1      40.736  19.025  25.797  1.00  0.00    -0.744 OA
ENDBRANCH  79  80
ENDBRANCH  47  72
BRANCH  59  84
ATOM     84  C   UNL A   1      49.488  26.614  26.411  1.00  0.00     0.058 A 
ATOM     85  C   UNL A   1      49.903  26.787  25.082  1.00  0.00     0.135 A 
ATOM     86  C   UNL A   1      50.398  26.066  27.326  1.00  0.00     0.135 A 
ATOM     87  F   UNL A   1      49.059  27.297  24.171  1.00  0.00    -0.206 F 
ATOM     88  C   UNL A   1      51.180  26.426  24.674  1.00  0.00     0.059 A 
ATOM     89  C   UNL A   1      51.687  25.717  26.945  1.00  0.00     0.059 A 
ATOM     90  F   UNL A   1      50.042  25.887  28.609  1.00  0.00    -0.206 F 
ATOM     91  C   UNL A   1      52.066  25.896  25.614  1.00  0.00     0.060 A 
BRANCH  91  92
ATOM     92  S   UNL A   1      53.742  25.482  25.086  1.00  0.00     0.124 S 
ATOM     93  O   UNL A   1      53.718  25.894  23.686  1.00  0.00    -0.237 OA
ATOM     94  O   UNL A   1      54.561  26.302  25.975  1.00  0.00    -0.237 OA
ATOM     95  O   UNL A   1      53.824  24.045  25.319  1.00  0.00    -0.744 OA
ENDBRANCH  91  92
ENDBRANCH  59  84
ENDBRANCH  33  34
ENDBRANCH  26  28
ENDBRANCH  25  26
ENDBRANCH   1  25
TORSDOF 17
ENDMDL
