MODEL 1
REMARK VINA RESULT:     -12.4      0.000      0.000
REMARK SMILES COc1ccccc1[C@@H]1C[N@@H+](Cc2cc3c(cc2C)OCO3)C[C@H]1C(=O)OCCOC(=O)c1ccc(-c2c3nc(c(-c4c(F)cc(S(=O)(=O)[O-])cc4F)c4ccc([nH]4)c(-c4c(F)cc(S(=O)(=O)[O-])cc4F)c4nc(c(-c5c(F)cc(S(=O)(=O)[O-])cc5F)c5ccc2[nH]5)C=C4)C=C3)cc1
REMARK SMILES IDX 29 1 28 2 27 3 25 4 26 5 24 6 9 7 10 8 11 9 23 10 8 12 3 13
REMARK SMILES IDX 4 14 5 15 7 16 6 17 2 18 1 19 12 20 13 21 14 22 18 23 15 24
REMARK SMILES IDX 17 25 19 26 16 27 22 28 20 29 21 30 30 31 31 32 32 33 33 34
REMARK SMILES IDX 34 35 98 36 35 37 97 38 36 39 37 40 38 41 91 42 39 43 96 44
REMARK SMILES IDX 90 45 92 46 40 47 95 48 89 49 88 50 41 52 75 53 54 54 74 55
REMARK SMILES IDX 55 56 58 57 73 58 93 59 56 60 57 61 72 63 94 64 59 65 42 66
REMARK SMILES IDX 43 67 52 68 44 69 45 70 51 71 53 72 46 73 47 74 48 75 49 76
REMARK SMILES IDX 50 77 76 78 77 79 86 80 78 81 79 82 85 83 87 84 80 85 81 86
REMARK SMILES IDX 82 87 83 88 84 89 60 90 61 91 70 92 62 93 63 94 69 95 71 96
REMARK SMILES IDX 64 97 65 98 66 99 67 100 68 101
REMARK H PARENT 11 11 92 51 58 62
REMARK Flexibility Score: inf
ROOT
ATOM      1  C   UNL A   1      32.472  29.636  27.297  1.00  0.00     0.275 C 
ENDROOT
BRANCH   1   2
ATOM      2  C   UNL A   1      31.654  28.386  27.619  1.00  0.00     0.274 C 
BRANCH   2   3
ATOM      3  O   UNL A   1      31.186  27.768  26.395  1.00  0.00    -0.462 OA
BRANCH   3   4
ATOM      4  C   UNL A   1      31.700  26.546  26.124  1.00  0.00     0.315 C 
ATOM      5  O   UNL A   1      31.273  25.507  26.625  1.00  0.00    -0.252 OA
BRANCH   4   6
ATOM      6  C   UNL A   1      32.808  26.514  25.085  1.00  0.00     0.167 C 
ATOM      7  C   UNL A   1      33.066  25.276  24.222  1.00  0.00     0.098 C 
ATOM      8  C   UNL A   1      33.298  25.817  22.805  1.00  0.00     0.272 C 
ATOM      9  N   UNL A   1      32.584  27.091  22.727  1.00  0.00    -0.330 N 
ATOM     10  C   UNL A   1      32.591  27.653  24.081  1.00  0.00     0.278 C 
ATOM     11  H   UNL A   1      33.069  27.729  22.094  1.00  0.00     0.348 HD
BRANCH   7  12
ATOM     12  C   UNL A   1      34.141  24.252  24.587  1.00  0.00     0.004 A 
ATOM     13  C   UNL A   1      34.355  23.507  25.763  1.00  0.00     0.122 A 
ATOM     14  C   UNL A   1      35.428  22.578  25.797  1.00  0.00     0.047 A 
ATOM     15  C   UNL A   1      36.308  22.390  24.738  1.00  0.00     0.004 A 
ATOM     16  C   UNL A   1      35.097  24.071  23.542  1.00  0.00     0.008 A 
ATOM     17  C   UNL A   1      36.151  23.157  23.606  1.00  0.00     0.001 A 
BRANCH  13  18
ATOM     18  O   UNL A   1      33.737  23.436  26.970  1.00  0.00    -0.496 OA
ATOM     19  C   UNL A   1      33.542  22.308  27.781  1.00  0.00     0.278 C 
ENDBRANCH  13  18
ENDBRANCH   7  12
BRANCH   9  20
ATOM     20  C   UNL A   1      31.282  27.049  22.045  1.00  0.00     0.299 C 
BRANCH  20  21
ATOM     21  C   UNL A   1      30.201  28.000  22.531  1.00  0.00     0.013 A 
ATOM     22  C   UNL A   1      30.306  29.361  22.157  1.00  0.00     0.060 A 
ATOM     23  C   UNL A   1      29.089  27.590  23.320  1.00  0.00    -0.038 A 
ATOM     24  C   UNL A   1      29.279  30.224  22.474  1.00  0.00     0.166 A 
ATOM     25  C   UNL A   1      28.037  28.493  23.564  1.00  0.00     0.054 A 
ATOM     26  C   UNL A   1      28.949  26.226  23.941  1.00  0.00     0.045 C 
ATOM     27  C   UNL A   1      28.155  29.787  23.122  1.00  0.00     0.166 A 
ATOM     28  O   UNL A   1      29.235  31.556  22.210  1.00  0.00    -0.454 OA
ATOM     29  O   UNL A   1      27.236  30.773  23.301  1.00  0.00    -0.454 OA
ATOM     30  C   UNL A   1      28.007  31.915  22.879  1.00  0.00     0.468 C 
ENDBRANCH  20  21
ENDBRANCH   9  20
ENDBRANCH   4   6
ENDBRANCH   3   4
ENDBRANCH   2   3
ENDBRANCH   1   2
BRANCH   1  31
ATOM     31  O   UNL A   1      33.852  29.334  27.547  1.00  0.00    -0.458 OA
BRANCH  31  32
ATOM     32  C   UNL A   1      34.569  30.398  27.975  1.00  0.00     0.338 C 
ATOM     33  O   UNL A   1      34.140  31.495  28.290  1.00  0.00    -0.246 OA
BRANCH  32  34
ATOM     34  C   UNL A   1      35.943  29.940  28.185  1.00  0.00     0.060 A 
ATOM     35  C   UNL A   1      36.281  29.372  29.413  1.00  0.00     0.016 A 
ATOM     36  C   UNL A   1      36.895  30.081  27.182  1.00  0.00     0.016 A 
ATOM     37  C   UNL A   1      37.589  28.995  29.681  1.00  0.00     0.010 A 
ATOM     38  C   UNL A   1      38.199  29.656  27.430  1.00  0.00     0.010 A 
ATOM     39  C   UNL A   1      38.560  29.136  28.689  1.00  0.00    -0.014 A 
BRANCH  39  40
ATOM     40  C   UNL A   1      39.974  28.802  28.972  1.00  0.00     0.031 A 
ATOM     41  C   UNL A   1      40.873  29.871  29.522  1.00  0.00     0.074 A 
ATOM     42  C   UNL A   1      40.443  27.568  28.710  1.00  0.00     0.049 A 
ATOM     43  N   UNL A   1      42.174  29.880  29.632  1.00  0.00    -0.248 NA
ATOM     44  C   UNL A   1      40.218  31.105  29.988  1.00  0.00     0.031 C 
ATOM     45  C   UNL A   1      39.640  26.439  28.237  1.00  0.00     0.029 A 
ATOM     46  N   UNL A   1      41.715  27.062  28.787  1.00  0.00    -0.354 N 
ATOM     47  C   UNL A   1      42.499  31.135  30.133  1.00  0.00     0.074 A 
ATOM     48  C   UNL A   1      41.260  31.865  30.291  1.00  0.00     0.031 C 
ATOM     49  C   UNL A   1      40.439  25.374  28.062  1.00  0.00     0.029 A 
ATOM     50  C   UNL A   1      41.816  25.767  28.336  1.00  0.00     0.049 A 
ATOM     51  H   UNL A   1      42.481  27.576  29.132  1.00  0.00     0.167 HD
ATOM     52  C   UNL A   1      43.726  31.625  30.428  1.00  0.00     0.037 A 
ATOM     53  C   UNL A   1      42.904  25.003  28.120  1.00  0.00     0.037 A 
ATOM     54  C   UNL A   1      44.940  30.863  30.286  1.00  0.00     0.049 A 
ATOM     55  C   UNL A   1      44.260  25.590  28.402  1.00  0.00     0.074 A 
ATOM     56  C   UNL A   1      46.237  31.248  30.573  1.00  0.00     0.029 A 
ATOM     57  N   UNL A   1      45.002  29.556  29.819  1.00  0.00    -0.354 N 
ATOM     58  N   UNL A   1      44.564  26.785  28.853  1.00  0.00    -0.248 NA
ATOM     59  C   UNL A   1      45.422  24.732  28.137  1.00  0.00     0.031 C 
ATOM     60  C   UNL A   1      47.088  30.194  30.226  1.00  0.00     0.029 A 
ATOM     61  C   UNL A   1      46.319  29.128  29.785  1.00  0.00     0.049 A 
ATOM     62  H   UNL A   1      44.226  29.015  29.550  1.00  0.00     0.167 HD
ATOM     63  C   UNL A   1      45.950  26.812  28.956  1.00  0.00     0.074 A 
ATOM     64  C   UNL A   1      46.422  25.508  28.530  1.00  0.00     0.031 C 
ATOM     65  C   UNL A   1      46.760  27.820  29.367  1.00  0.00     0.037 A 
BRANCH  52  66
ATOM     66  C   UNL A   1      43.819  33.055  30.891  1.00  0.00     0.058 A 
ATOM     67  C   UNL A   1      43.745  33.410  32.247  1.00  0.00     0.135 A 
ATOM     68  C   UNL A   1      44.009  34.087  29.957  1.00  0.00     0.135 A 
ATOM     69  F   UNL A   1      43.542  32.469  33.183  1.00  0.00    -0.206 F 
ATOM     70  C   UNL A   1      43.830  34.737  32.659  1.00  0.00     0.059 A 
ATOM     71  C   UNL A   1      44.129  35.417  30.348  1.00  0.00     0.059 A 
ATOM     72  F   UNL A   1      44.080  33.808  28.646  1.00  0.00    -0.206 F 
ATOM     73  C   UNL A   1      44.023  35.734  31.701  1.00  0.00     0.060 A 
BRANCH  73  74
ATOM     74  S   UNL A   1      44.140  37.449  32.252  1.00  0.00     0.124 S 
ATOM     75  O   UNL A   1      43.170  37.472  33.341  1.00  0.00    -0.237 OA
ATOM     76  O   UNL A   1      45.541  37.553  32.650  1.00  0.00    -0.237 OA
ATOM     77  O   UNL A   1      43.771  38.215  31.066  1.00  0.00    -0.744 OA
ENDBRANCH  73  74
ENDBRANCH  52  66
BRANCH  53  78
ATOM     78  C   UNL A   1      42.753  23.622  27.588  1.00  0.00     0.058 A 
ATOM     79  C   UNL A   1      42.570  22.532  28.452  1.00  0.00     0.135 A 
ATOM     80  C   UNL A   1      42.774  23.362  26.208  1.00  0.00     0.135 A 
ATOM     81  F   UNL A   1      42.550  22.726  29.779  1.00  0.00    -0.206 F 
ATOM     82  C   UNL A   1      42.427  21.235  27.971  1.00  0.00     0.059 A 
ATOM     83  C   UNL A   1      42.603  22.077  25.700  1.00  0.00     0.059 A 
ATOM     84  F   UNL A   1      42.933  24.368  25.335  1.00  0.00    -0.206 F 
ATOM     85  C   UNL A   1      42.441  21.018  26.592  1.00  0.00     0.060 A 
BRANCH  85  86
ATOM     86  S   UNL A   1      42.212  19.334  25.979  1.00  0.00     0.124 S 
ATOM     87  O   UNL A   1      43.057  19.338  24.790  1.00  0.00    -0.237 OA
ATOM     88  O   UNL A   1      42.690  18.533  27.101  1.00  0.00    -0.237 OA
ATOM     89  O   UNL A   1      40.775  19.259  25.732  1.00  0.00    -0.744 OA
ENDBRANCH  85  86
ENDBRANCH  53  78
BRANCH  65  90
ATOM     90  C   UNL A   1      48.236  27.537  29.422  1.00  0.00     0.058 A 
ATOM     91  C   UNL A   1      49.097  27.869  28.366  1.00  0.00     0.135 A 
ATOM     92  C   UNL A   1      48.802  26.969  30.576  1.00  0.00     0.135 A 
ATOM     93  F   UNL A   1      48.607  28.406  27.237  1.00  0.00    -0.206 F 
ATOM     94  C   UNL A   1      50.464  27.627  28.441  1.00  0.00     0.059 A 
ATOM     95  C   UNL A   1      50.170  26.748  30.685  1.00  0.00     0.059 A 
ATOM     96  F   UNL A   1      48.024  26.640  31.620  1.00  0.00    -0.206 F 
ATOM     97  C   UNL A   1      50.992  27.070  29.607  1.00  0.00     0.060 A 
BRANCH  97  98
ATOM     98  S   UNL A   1      52.772  26.795  29.704  1.00  0.00     0.124 S 
ATOM     99  O   UNL A   1      53.269  28.150  29.914  1.00  0.00    -0.237 OA
ATOM    100  O   UNL A   1      52.887  25.892  30.846  1.00  0.00    -0.237 OA
ATOM    101  O   UNL A   1      53.096  26.201  28.410  1.00  0.00    -0.744 OA
ENDBRANCH  97  98
ENDBRANCH  65  90
ENDBRANCH  39  40
ENDBRANCH  32  34
ENDBRANCH  31  32
ENDBRANCH   1  31
TORSDOF 18
ENDMDL
MODEL 2
REMARK VINA RESULT:     -11.8      3.485      9.641
REMARK SMILES COc1ccccc1[C@@H]1C[N@@H+](Cc2cc3c(cc2C)OCO3)C[C@H]1C(=O)OCCOC(=O)c1ccc(-c2c3nc(c(-c4c(F)cc(S(=O)(=O)[O-])cc4F)c4ccc([nH]4)c(-c4c(F)cc(S(=O)(=O)[O-])cc4F)c4nc(c(-c5c(F)cc(S(=O)(=O)[O-])cc5F)c5ccc2[nH]5)C=C4)C=C3)cc1
REMARK SMILES IDX 29 1 28 2 27 3 25 4 26 5 24 6 9 7 10 8 11 9 23 10 8 12 3 13
REMARK SMILES IDX 4 14 5 15 7 16 6 17 2 18 1 19 12 20 13 21 14 22 18 23 15 24
REMARK SMILES IDX 17 25 19 26 16 27 22 28 20 29 21 30 30 31 31 32 32 33 33 34
REMARK SMILES IDX 34 35 98 36 35 37 97 38 36 39 37 40 38 41 91 42 39 43 96 44
REMARK SMILES IDX 90 45 92 46 40 47 95 48 89 49 88 50 41 52 75 53 54 54 74 55
REMARK SMILES IDX 55 56 58 57 73 58 93 59 56 60 57 61 72 63 94 64 59 65 42 66
REMARK SMILES IDX 43 67 52 68 44 69 45 70 51 71 53 72 46 73 47 74 48 75 49 76
REMARK SMILES IDX 50 77 76 78 77 79 86 80 78 81 79 82 85 83 87 84 80 85 81 86
REMARK SMILES IDX 82 87 83 88 84 89 60 90 61 91 70 92 62 93 63 94 69 95 71 96
REMARK SMILES IDX 64 97 65 98 66 99 67 100 68 101
REMARK H PARENT 11 11 92 51 58 62
REMARK Flexibility Score: inf
ROOT
ATOM      1  C   UNL A   1      36.990  22.832  24.308  1.00  0.00     0.275 C 
ENDROOT
BRANCH   1   2
ATOM      2  C   UNL A   1      35.638  23.438  23.932  1.00  0.00     0.274 C 
BRANCH   2   3
ATOM      3  O   UNL A   1      35.001  24.000  25.105  1.00  0.00    -0.462 OA
BRANCH   3   4
ATOM      4  C   UNL A   1      34.406  25.202  24.927  1.00  0.00     0.315 C 
ATOM      5  O   UNL A   1      34.471  25.840  23.877  1.00  0.00    -0.252 OA
BRANCH   4   6
ATOM      6  C   UNL A   1      33.568  25.701  26.092  1.00  0.00     0.167 C 
ATOM      7  C   UNL A   1      32.506  26.788  25.912  1.00  0.00     0.098 C 
ATOM      8  C   UNL A   1      31.295  26.302  26.718  1.00  0.00     0.272 C 
ATOM      9  N   UNL A   1      31.389  24.843  26.766  1.00  0.00    -0.330 N 
ATOM     10  C   UNL A   1      32.817  24.518  26.716  1.00  0.00     0.278 C 
ATOM     11  H   UNL A   1      30.993  24.492  27.639  1.00  0.00     0.348 HD
BRANCH   7  12
ATOM     12  C   UNL A   1      32.799  28.257  26.219  1.00  0.00     0.004 A 
ATOM     13  C   UNL A   1      32.140  29.439  25.829  1.00  0.00     0.122 A 
ATOM     14  C   UNL A   1      32.620  30.682  26.317  1.00  0.00     0.047 A 
ATOM     15  C   UNL A   1      33.738  30.800  27.135  1.00  0.00     0.004 A 
ATOM     16  C   UNL A   1      33.973  28.422  27.015  1.00  0.00     0.008 A 
ATOM     17  C   UNL A   1      34.431  29.660  27.473  1.00  0.00     0.001 A 
BRANCH  13  18
ATOM     18  O   UNL A   1      31.064  29.714  25.048  1.00  0.00    -0.496 OA
ATOM     19  C   UNL A   1      30.762  29.205  23.775  1.00  0.00     0.278 C 
ENDBRANCH  13  18
ENDBRANCH   7  12
BRANCH   9  20
ATOM     20  C   UNL A   1      30.522  24.120  25.823  1.00  0.00     0.299 C 
BRANCH  20  21
ATOM     21  C   UNL A   1      31.165  23.058  24.947  1.00  0.00     0.013 A 
ATOM     22  C   UNL A   1      31.441  21.800  25.535  1.00  0.00     0.060 A 
ATOM     23  C   UNL A   1      31.482  23.257  23.574  1.00  0.00    -0.038 A 
ATOM     24  C   UNL A   1      31.908  20.777  24.738  1.00  0.00     0.166 A 
ATOM     25  C   UNL A   1      31.896  22.164  22.789  1.00  0.00     0.054 A 
ATOM     26  C   UNL A   1      31.415  24.588  22.874  1.00  0.00     0.045 C 
ATOM     27  C   UNL A   1      32.086  20.946  23.391  1.00  0.00     0.166 A 
ATOM     28  O   UNL A   1      32.242  19.525  25.148  1.00  0.00    -0.454 OA
ATOM     29  O   UNL A   1      32.503  19.811  22.770  1.00  0.00    -0.454 OA
ATOM     30  C   UNL A   1      32.765  18.978  23.917  1.00  0.00     0.468 C 
ENDBRANCH  20  21
ENDBRANCH   9  20
ENDBRANCH   4   6
ENDBRANCH   3   4
ENDBRANCH   2   3
ENDBRANCH   1   2
BRANCH   1  31
ATOM     31  O   UNL A   1      37.723  23.820  25.046  1.00  0.00    -0.458 OA
BRANCH  31  32
ATOM     32  C   UNL A   1      38.676  23.297  25.850  1.00  0.00     0.338 C 
ATOM     33  O   UNL A   1      39.139  22.170  25.804  1.00  0.00    -0.246 OA
BRANCH  32  34
ATOM     34  C   UNL A   1      39.202  24.389  26.671  1.00  0.00     0.060 A 
ATOM     35  C   UNL A   1      38.841  24.451  28.016  1.00  0.00     0.016 A 
ATOM     36  C   UNL A   1      40.036  25.351  26.114  1.00  0.00     0.016 A 
ATOM     37  C   UNL A   1      39.255  25.511  28.811  1.00  0.00     0.010 A 
ATOM     38  C   UNL A   1      40.495  26.390  26.923  1.00  0.00     0.010 A 
ATOM     39  C   UNL A   1      40.086  26.490  28.267  1.00  0.00    -0.014 A 
BRANCH  39  40
ATOM     40  C   UNL A   1      40.488  27.664  29.075  1.00  0.00     0.031 A 
ATOM     41  C   UNL A   1      41.774  27.604  29.847  1.00  0.00     0.074 A 
ATOM     42  C   UNL A   1      39.694  28.749  29.134  1.00  0.00     0.049 A 
ATOM     43  N   UNL A   1      42.213  28.400  30.784  1.00  0.00    -0.248 NA
ATOM     44  C   UNL A   1      42.675  26.481  29.537  1.00  0.00     0.031 C 
ATOM     45  C   UNL A   1      38.458  28.936  28.372  1.00  0.00     0.029 A 
ATOM     46  N   UNL A   1      39.800  29.893  29.883  1.00  0.00    -0.354 N 
ATOM     47  C   UNL A   1      43.416  27.850  31.210  1.00  0.00     0.074 A 
ATOM     48  C   UNL A   1      43.630  26.644  30.440  1.00  0.00     0.031 C 
ATOM     49  C   UNL A   1      37.917  30.122  28.697  1.00  0.00     0.029 A 
ATOM     50  C   UNL A   1      38.726  30.740  29.741  1.00  0.00     0.049 A 
ATOM     51  H   UNL A   1      40.569  30.088  30.466  1.00  0.00     0.167 HD
ATOM     52  C   UNL A   1      44.258  28.316  32.163  1.00  0.00     0.037 A 
ATOM     53  C   UNL A   1      38.407  31.861  30.415  1.00  0.00     0.037 A 
ATOM     54  C   UNL A   1      44.031  29.536  32.894  1.00  0.00     0.049 A 
ATOM     55  C   UNL A   1      39.329  32.328  31.508  1.00  0.00     0.074 A 
ATOM     56  C   UNL A   1      44.823  30.117  33.867  1.00  0.00     0.029 A 
ATOM     57  N   UNL A   1      42.927  30.363  32.727  1.00  0.00    -0.354 N 
ATOM     58  N   UNL A   1      40.453  31.792  31.924  1.00  0.00    -0.248 NA
ATOM     59  C   UNL A   1      38.938  33.544  32.231  1.00  0.00     0.031 C 
ATOM     60  C   UNL A   1      44.171  31.265  34.328  1.00  0.00     0.029 A 
ATOM     61  C   UNL A   1      43.006  31.438  33.598  1.00  0.00     0.049 A 
ATOM     62  H   UNL A   1      42.197  30.209  32.086  1.00  0.00     0.167 HD
ATOM     63  C   UNL A   1      40.920  32.623  32.936  1.00  0.00     0.074 A 
ATOM     64  C   UNL A   1      39.961  33.703  33.060  1.00  0.00     0.031 C 
ATOM     65  C   UNL A   1      42.040  32.506  33.693  1.00  0.00     0.037 A 
BRANCH  52  66
ATOM     66  C   UNL A   1      45.471  27.488  32.495  1.00  0.00     0.058 A 
ATOM     67  C   UNL A   1      45.438  26.461  33.452  1.00  0.00     0.135 A 
ATOM     68  C   UNL A   1      46.684  27.713  31.823  1.00  0.00     0.135 A 
ATOM     69  F   UNL A   1      44.312  26.214  34.142  1.00  0.00    -0.206 F 
ATOM     70  C   UNL A   1      46.568  25.706  33.750  1.00  0.00     0.059 A 
ATOM     71  C   UNL A   1      47.818  26.950  32.082  1.00  0.00     0.059 A 
ATOM     72  F   UNL A   1      46.777  28.686  30.903  1.00  0.00    -0.206 F 
ATOM     73  C   UNL A   1      47.754  25.957  33.058  1.00  0.00     0.060 A 
BRANCH  73  74
ATOM     74  S   UNL A   1      49.209  24.963  33.449  1.00  0.00     0.124 S 
ATOM     75  O   UNL A   1      48.600  23.768  34.022  1.00  0.00    -0.237 OA
ATOM     76  O   UNL A   1      49.831  24.792  32.139  1.00  0.00    -0.237 OA
ATOM     77  O   UNL A   1      49.952  25.799  34.387  1.00  0.00    -0.744 OA
ENDBRANCH  73  74
ENDBRANCH  52  66
BRANCH  53  78
ATOM     78  C   UNL A   1      37.153  32.595  30.093  1.00  0.00     0.058 A 
ATOM     79  C   UNL A   1      37.133  33.587  29.101  1.00  0.00     0.135 A 
ATOM     80  C   UNL A   1      35.948  32.313  30.757  1.00  0.00     0.135 A 
ATOM     81  F   UNL A   1      38.259  33.899  28.443  1.00  0.00    -0.206 F 
ATOM     82  C   UNL A   1      35.969  34.282  28.788  1.00  0.00     0.059 A 
ATOM     83  C   UNL A   1      34.764  32.973  30.441  1.00  0.00     0.059 A 
ATOM     84  F   UNL A   1      35.907  31.365  31.705  1.00  0.00    -0.206 F 
ATOM     85  C   UNL A   1      34.788  33.965  29.462  1.00  0.00     0.060 A 
BRANCH  85  86
ATOM     86  S   UNL A   1      33.275  34.845  29.016  1.00  0.00     0.124 S 
ATOM     87  O   UNL A   1      32.689  33.941  28.033  1.00  0.00    -0.237 OA
ATOM     88  O   UNL A   1      32.583  34.931  30.298  1.00  0.00    -0.237 OA
ATOM     89  O   UNL A   1      33.767  36.115  28.490  1.00  0.00    -0.744 OA
ENDBRANCH  85  86
ENDBRANCH  53  78
BRANCH  65  90
ATOM     90  C   UNL A   1      42.314  33.599  34.688  1.00  0.00     0.058 A 
ATOM     91  C   UNL A   1      41.907  33.504  36.028  1.00  0.00     0.135 A 
ATOM     92  C   UNL A   1      43.042  34.737  34.303  1.00  0.00     0.135 A 
ATOM     93  F   UNL A   1      41.201  32.441  36.446  1.00  0.00    -0.206 F 
ATOM     94  C   UNL A   1      42.190  34.510  36.945  1.00  0.00     0.059 A 
ATOM     95  C   UNL A   1      43.364  35.739  35.211  1.00  0.00     0.059 A 
ATOM     96  F   UNL A   1      43.463  34.874  33.036  1.00  0.00    -0.206 F 
ATOM     97  C   UNL A   1      42.923  35.622  36.527  1.00  0.00     0.060 A 
BRANCH  97  98
ATOM     98  S   UNL A   1      43.314  36.902  37.738  1.00  0.00     0.124 S 
ATOM     99  O   UNL A   1      44.232  36.197  38.626  1.00  0.00    -0.237 OA
ATOM    100  O   UNL A   1      43.910  37.945  36.907  1.00  0.00    -0.237 OA
ATOM    101  O   UNL A   1      42.014  37.235  38.313  1.00  0.00    -0.744 OA
ENDBRANCH  97  98
ENDBRANCH  65  90
ENDBRANCH  39  40
ENDBRANCH  32  34
ENDBRANCH  31  32
ENDBRANCH   1  31
TORSDOF 18
ENDMDL
MODEL 3
REMARK VINA RESULT:     -11.8      1.567      4.642
REMARK SMILES COc1ccccc1[C@@H]1C[N@@H+](Cc2cc3c(cc2C)OCO3)C[C@H]1C(=O)OCCOC(=O)c1ccc(-c2c3nc(c(-c4c(F)cc(S(=O)(=O)[O-])cc4F)c4ccc([nH]4)c(-c4c(F)cc(S(=O)(=O)[O-])cc4F)c4nc(c(-c5c(F)cc(S(=O)(=O)[O-])cc5F)c5ccc2[nH]5)C=C4)C=C3)cc1
REMARK SMILES IDX 29 1 28 2 27 3 25 4 26 5 24 6 9 7 10 8 11 9 23 10 8 12 3 13
REMARK SMILES IDX 4 14 5 15 7 16 6 17 2 18 1 19 12 20 13 21 14 22 18 23 15 24
REMARK SMILES IDX 17 25 19 26 16 27 22 28 20 29 21 30 30 31 31 32 32 33 33 34
REMARK SMILES IDX 34 35 98 36 35 37 97 38 36 39 37 40 38 41 91 42 39 43 96 44
REMARK SMILES IDX 90 45 92 46 40 47 95 48 89 49 88 50 41 52 75 53 54 54 74 55
REMARK SMILES IDX 55 56 58 57 73 58 93 59 56 60 57 61 72 63 94 64 59 65 42 66
REMARK SMILES IDX 43 67 52 68 44 69 45 70 51 71 53 72 46 73 47 74 48 75 49 76
REMARK SMILES IDX 50 77 76 78 77 79 86 80 78 81 79 82 85 83 87 84 80 85 81 86
REMARK SMILES IDX 82 87 83 88 84 89 60 90 61 91 70 92 62 93 63 94 69 95 71 96
REMARK SMILES IDX 64 97 65 98 66 99 67 100 68 101
REMARK H PARENT 11 11 92 51 58 62
REMARK Flexibility Score: inf
ROOT
ATOM      1  C   UNL A   1      32.814  29.875  26.707  1.00  0.00     0.275 C 
ENDROOT
BRANCH   1   2
ATOM      2  C   UNL A   1      32.012  28.623  26.352  1.00  0.00     0.274 C 
BRANCH   2   3
ATOM      3  O   UNL A   1      32.793  27.759  25.490  1.00  0.00    -0.462 OA
BRANCH   3   4
ATOM      4  C   UNL A   1      32.667  26.432  25.725  1.00  0.00     0.315 C 
ATOM      5  O   UNL A   1      33.508  25.770  26.331  1.00  0.00    -0.252 OA
BRANCH   4   6
ATOM      6  C   UNL A   1      31.366  25.802  25.256  1.00  0.00     0.167 C 
ATOM      7  C   UNL A   1      30.822  26.035  23.845  1.00  0.00     0.098 C 
ATOM      8  C   UNL A   1      30.345  24.657  23.367  1.00  0.00     0.272 C 
ATOM      9  N   UNL A   1      31.138  23.669  24.099  1.00  0.00    -0.330 N 
ATOM     10  C   UNL A   1      31.468  24.278  25.391  1.00  0.00     0.278 C 
ATOM     11  H   UNL A   1      30.589  22.822  24.255  1.00  0.00     0.348 HD
BRANCH   7  12
ATOM     12  C   UNL A   1      29.761  27.098  23.558  1.00  0.00     0.004 A 
ATOM     13  C   UNL A   1      29.871  28.414  23.070  1.00  0.00     0.122 A 
ATOM     14  C   UNL A   1      28.685  29.164  22.854  1.00  0.00     0.047 A 
ATOM     15  C   UNL A   1      27.414  28.679  23.137  1.00  0.00     0.004 A 
ATOM     16  C   UNL A   1      28.444  26.654  23.887  1.00  0.00     0.008 A 
ATOM     17  C   UNL A   1      27.294  27.418  23.675  1.00  0.00     0.001 A 
BRANCH  13  18
ATOM     18  O   UNL A   1      30.910  29.212  22.712  1.00  0.00    -0.496 OA
ATOM     19  C   UNL A   1      32.236  28.841  22.441  1.00  0.00     0.278 C 
ENDBRANCH  13  18
ENDBRANCH   7  12
BRANCH   9  20
ATOM     20  C   UNL A   1      32.257  23.075  23.354  1.00  0.00     0.299 C 
BRANCH  20  21
ATOM     21  C   UNL A   1      32.895  21.818  23.923  1.00  0.00     0.013 A 
ATOM     22  C   UNL A   1      32.111  20.640  23.953  1.00  0.00     0.060 A 
ATOM     23  C   UNL A   1      34.234  21.764  24.403  1.00  0.00    -0.038 A 
ATOM     24  C   UNL A   1      32.698  19.456  24.346  1.00  0.00     0.166 A 
ATOM     25  C   UNL A   1      34.805  20.520  24.733  1.00  0.00     0.054 A 
ATOM     26  C   UNL A   1      35.112  22.970  24.600  1.00  0.00     0.045 C 
ATOM     27  C   UNL A   1      34.023  19.393  24.683  1.00  0.00     0.166 A 
ATOM     28  O   UNL A   1      32.082  18.248  24.453  1.00  0.00    -0.454 OA
ATOM     29  O   UNL A   1      34.427  18.133  24.993  1.00  0.00    -0.454 OA
ATOM     30  C   UNL A   1      33.153  17.459  25.014  1.00  0.00     0.468 C 
ENDBRANCH  20  21
ENDBRANCH   9  20
ENDBRANCH   4   6
ENDBRANCH   3   4
ENDBRANCH   2   3
ENDBRANCH   1   2
BRANCH   1  31
ATOM     31  O   UNL A   1      33.788  29.506  27.693  1.00  0.00    -0.458 OA
BRANCH  31  32
ATOM     32  C   UNL A   1      34.509  30.551  28.159  1.00  0.00     0.338 C 
ATOM     33  O   UNL A   1      34.082  31.633  28.525  1.00  0.00    -0.246 OA
BRANCH  32  34
ATOM     34  C   UNL A   1      35.887  30.088  28.332  1.00  0.00     0.060 A 
ATOM     35  C   UNL A   1      36.288  29.635  29.589  1.00  0.00     0.016 A 
ATOM     36  C   UNL A   1      36.778  30.109  27.266  1.00  0.00     0.016 A 
ATOM     37  C   UNL A   1      37.605  29.260  29.816  1.00  0.00     0.010 A 
ATOM     38  C   UNL A   1      38.088  29.684  27.479  1.00  0.00     0.010 A 
ATOM     39  C   UNL A   1      38.516  29.282  28.760  1.00  0.00    -0.014 A 
BRANCH  39  40
ATOM     40  C   UNL A   1      39.939  28.948  28.991  1.00  0.00     0.031 A 
ATOM     41  C   UNL A   1      40.863  30.023  29.486  1.00  0.00     0.074 A 
ATOM     42  C   UNL A   1      40.394  27.708  28.732  1.00  0.00     0.049 A 
ATOM     43  N   UNL A   1      42.167  30.030  29.544  1.00  0.00    -0.248 NA
ATOM     44  C   UNL A   1      40.231  31.267  29.957  1.00  0.00     0.031 C 
ATOM     45  C   UNL A   1      39.569  26.574  28.311  1.00  0.00     0.029 A 
ATOM     46  N   UNL A   1      41.667  27.199  28.767  1.00  0.00    -0.354 N 
ATOM     47  C   UNL A   1      42.516  31.291  30.011  1.00  0.00     0.074 A 
ATOM     48  C   UNL A   1      41.286  32.029  30.205  1.00  0.00     0.031 C 
ATOM     49  C   UNL A   1      40.358  25.504  28.122  1.00  0.00     0.029 A 
ATOM     50  C   UNL A   1      41.746  25.897  28.333  1.00  0.00     0.049 A 
ATOM     51  H   UNL A   1      42.448  27.716  29.071  1.00  0.00     0.167 HD
ATOM     52  C   UNL A   1      43.755  31.782  30.248  1.00  0.00     0.037 A 
ATOM     53  C   UNL A   1      42.822  25.125  28.087  1.00  0.00     0.037 A 
ATOM     54  C   UNL A   1      44.960  31.014  30.070  1.00  0.00     0.049 A 
ATOM     55  C   UNL A   1      44.190  25.712  28.304  1.00  0.00     0.074 A 
ATOM     56  C   UNL A   1      46.269  31.398  30.298  1.00  0.00     0.029 A 
ATOM     57  N   UNL A   1      45.000  29.699  29.623  1.00  0.00    -0.354 N 
ATOM     58  N   UNL A   1      44.516  26.913  28.723  1.00  0.00    -0.248 NA
ATOM     59  C   UNL A   1      45.338  24.845  28.008  1.00  0.00     0.031 C 
ATOM     60  C   UNL A   1      47.103  30.336  29.935  1.00  0.00     0.029 A 
ATOM     61  C   UNL A   1      46.313  29.266  29.544  1.00  0.00     0.049 A 
ATOM     62  H   UNL A   1      44.212  29.156  29.395  1.00  0.00     0.167 HD
ATOM     63  C   UNL A   1      45.905  26.937  28.770  1.00  0.00     0.074 A 
ATOM     64  C   UNL A   1      46.355  25.625  28.347  1.00  0.00     0.031 C 
ATOM     65  C   UNL A   1      46.733  27.949  29.130  1.00  0.00     0.037 A 
BRANCH  52  66
ATOM     66  C   UNL A   1      43.870  33.219  30.682  1.00  0.00     0.058 A 
ATOM     67  C   UNL A   1      43.857  33.597  32.034  1.00  0.00     0.135 A 
ATOM     68  C   UNL A   1      44.021  34.236  29.724  1.00  0.00     0.135 A 
ATOM     69  F   UNL A   1      43.695  32.671  32.994  1.00  0.00    -0.206 F 
ATOM     70  C   UNL A   1      43.963  34.930  32.420  1.00  0.00     0.059 A 
ATOM     71  C   UNL A   1      44.159  35.572  30.087  1.00  0.00     0.059 A 
ATOM     72  F   UNL A   1      44.033  33.935  28.416  1.00  0.00    -0.206 F 
ATOM     73  C   UNL A   1      44.115  35.911  31.438  1.00  0.00     0.060 A 
BRANCH  73  74
ATOM     74  S   UNL A   1      44.259  37.634  31.954  1.00  0.00     0.124 S 
ATOM     75  O   UNL A   1      45.688  37.738  32.229  1.00  0.00    -0.237 OA
ATOM     76  O   UNL A   1      43.787  38.353  30.774  1.00  0.00    -0.237 OA
ATOM     77  O   UNL A   1      43.388  37.715  33.123  1.00  0.00    -0.744 OA
ENDBRANCH  73  74
ENDBRANCH  52  66
BRANCH  53  78
ATOM     78  C   UNL A   1      42.646  23.735  27.585  1.00  0.00     0.058 A 
ATOM     79  C   UNL A   1      42.613  23.465  26.209  1.00  0.00     0.135 A 
ATOM     80  C   UNL A   1      42.523  22.648  28.466  1.00  0.00     0.135 A 
ATOM     81  F   UNL A   1      42.718  24.469  25.326  1.00  0.00    -0.206 F 
ATOM     82  C   UNL A   1      42.449  22.172  25.723  1.00  0.00     0.059 A 
ATOM     83  C   UNL A   1      42.389  21.341  28.004  1.00  0.00     0.059 A 
ATOM     84  F   UNL A   1      42.562  22.847  29.792  1.00  0.00    -0.206 F 
ATOM     85  C   UNL A   1      42.342  21.115  26.630  1.00  0.00     0.060 A 
BRANCH  85  86
ATOM     86  S   UNL A   1      42.174  19.436  25.985  1.00  0.00     0.124 S 
ATOM     87  O   UNL A   1      40.734  19.351  25.763  1.00  0.00    -0.237 OA
ATOM     88  O   UNL A   1      43.003  19.485  24.786  1.00  0.00    -0.237 OA
ATOM     89  O   UNL A   1      42.694  18.607  27.067  1.00  0.00    -0.744 OA
ENDBRANCH  85  86
ENDBRANCH  53  78
BRANCH  65  90
ATOM     90  C   UNL A   1      48.209  27.661  29.132  1.00  0.00     0.058 A 
ATOM     91  C   UNL A   1      48.850  27.064  30.228  1.00  0.00     0.135 A 
ATOM     92  C   UNL A   1      48.983  27.944  27.994  1.00  0.00     0.135 A 
ATOM     93  F   UNL A   1      48.158  26.781  31.343  1.00  0.00    -0.206 F 
ATOM     94  C   UNL A   1      50.210  26.779  30.206  1.00  0.00     0.059 A 
ATOM     95  C   UNL A   1      50.338  27.636  27.938  1.00  0.00     0.059 A 
ATOM     96  F   UNL A   1      48.418  28.507  26.914  1.00  0.00    -0.206 F 
ATOM     97  C   UNL A   1      50.945  27.065  29.054  1.00  0.00     0.060 A 
BRANCH  97  98
ATOM     98  S   UNL A   1      52.702  26.656  29.027  1.00  0.00     0.124 S 
ATOM     99  O   UNL A   1      53.310  27.975  28.892  1.00  0.00    -0.237 OA
ATOM    100  O   UNL A   1      52.889  26.000  30.318  1.00  0.00    -0.237 OA
ATOM    101  O   UNL A   1      52.831  25.783  27.863  1.00  0.00    -0.744 OA
ENDBRANCH  97  98
ENDBRANCH  65  90
ENDBRANCH  39  40
ENDBRANCH  32  34
ENDBRANCH  31  32
ENDBRANCH   1  31
TORSDOF 18
ENDMDL
