MODEL 1
REMARK VINA RESULT:     -10.0      0.000      0.000
REMARK SMILES CCCc1c(C(=O)OCCOC(=O)c2ccc(-c3c4nc(c(-c5c(F)cc(S(=O)(=O)[O-])cc5F)c5ccc([nH]5)c(-c5c(F)cc(S(=O)(=O)[O-])cc5F)c5nc(c(-c6c(F)cc(S(=O)(=O)[O-])cc6F)c6ccc3[nH]6)C=C5)C=C4)cc2)nnn1[C@@H](C)[C@H](C)O
REMARK SMILES IDX 9 1 8 2 6 3 7 4 5 5 4 6 82 7 80 8 81 9 3 10 2 11 1 12 83 13
REMARK SMILES IDX 84 14 85 15 86 16 87 17 10 19 11 20 12 21 13 22 14 23 15 24
REMARK SMILES IDX 79 25 16 26 78 27 17 28 18 29 19 30 72 31 20 32 77 33 71 34
REMARK SMILES IDX 73 35 21 36 76 37 70 38 69 39 22 41 56 42 35 43 55 44 36 45
REMARK SMILES IDX 39 46 54 47 74 48 37 49 38 50 53 52 75 53 40 54 23 55 24 56
REMARK SMILES IDX 33 57 25 58 26 59 32 60 34 61 27 62 28 63 29 64 30 65 31 66
REMARK SMILES IDX 57 67 58 68 67 69 59 70 60 71 66 72 68 73 61 74 62 75 63 76
REMARK SMILES IDX 64 77 65 78 41 79 42 80 51 81 43 82 44 83 50 84 52 85 45 86
REMARK SMILES IDX 46 87 47 88 48 89 49 90
REMARK H PARENT 87 18 73 40 39 51
REMARK Flexibility Score: inf
ROOT
ATOM      1  C   UNL A   1      43.777  19.108  25.307  1.00  0.00     0.275 C 
ENDROOT
BRANCH   1   2
ATOM      2  O   UNL A   1      42.383  19.356  25.054  1.00  0.00    -0.457 OA
BRANCH   2   3
ATOM      3  C   UNL A   1      41.582  19.477  26.160  1.00  0.00     0.360 C 
ATOM      4  O   UNL A   1      41.975  19.254  27.303  1.00  0.00    -0.244 OA
BRANCH   3   5
ATOM      5  C   UNL A   1      40.230  19.941  25.855  1.00  0.00     0.193 A 
ATOM      6  C   UNL A   1      39.664  21.202  26.003  1.00  0.00     0.074 A 
ATOM      7  N   UNL A   1      38.375  21.033  25.542  1.00  0.00    -0.243 N 
ATOM      8  N   UNL A   1      39.276  19.085  25.350  1.00  0.00    -0.123 NA
ATOM      9  N   UNL A   1      38.147  19.757  25.187  1.00  0.00    -0.066 NA
BRANCH   6  10
ATOM     10  C   UNL A   1      40.234  22.487  26.500  1.00  0.00     0.058 C 
BRANCH  10  11
ATOM     11  C   UNL A   1      40.487  22.476  28.010  1.00  0.00     0.003 C 
ATOM     12  C   UNL A   1      41.959  22.392  28.385  1.00  0.00     0.004 C 
ENDBRANCH  10  11
ENDBRANCH   6  10
BRANCH   7  13
ATOM     13  C   UNL A   1      37.348  22.035  25.288  1.00  0.00     0.135 C 
ATOM     14  C   UNL A   1      37.129  22.210  23.777  1.00  0.00     0.036 C 
BRANCH  13  15
ATOM     15  C   UNL A   1      36.018  21.785  26.036  1.00  0.00     0.135 C 
ATOM     16  C   UNL A   1      34.854  21.350  25.155  1.00  0.00     0.040 C 
BRANCH  15  17
ATOM     17  O   UNL A   1      35.616  22.911  26.816  1.00  0.00    -0.391 OA
ATOM     18  H   UNL A   1      36.192  23.666  26.616  1.00  0.00     0.211 HD
ENDBRANCH  15  17
ENDBRANCH  13  15
ENDBRANCH   7  13
ENDBRANCH   3   5
ENDBRANCH   2   3
ENDBRANCH   1   2
BRANCH   1  19
ATOM     19  C   UNL A   1      44.668  19.879  24.343  1.00  0.00     0.275 C 
BRANCH  19  20
ATOM     20  O   UNL A   1      44.204  21.214  24.157  1.00  0.00    -0.458 OA
BRANCH  20  21
ATOM     21  C   UNL A   1      45.081  22.172  24.537  1.00  0.00     0.338 C 
ATOM     22  O   UNL A   1      46.275  22.209  24.289  1.00  0.00    -0.246 OA
BRANCH  21  23
ATOM     23  C   UNL A   1      44.441  23.040  25.527  1.00  0.00     0.060 A 
ATOM     24  C   UNL A   1      43.425  23.891  25.082  1.00  0.00     0.016 A 
ATOM     25  C   UNL A   1      45.070  23.216  26.767  1.00  0.00     0.016 A 
ATOM     26  C   UNL A   1      43.152  25.029  25.814  1.00  0.00     0.010 A 
ATOM     27  C   UNL A   1      44.823  24.364  27.474  1.00  0.00     0.010 A 
ATOM     28  C   UNL A   1      43.913  25.285  26.957  1.00  0.00    -0.014 A 
BRANCH  28  29
ATOM     29  C   UNL A   1      43.660  26.492  27.718  1.00  0.00     0.031 A 
ATOM     30  C   UNL A   1      44.712  27.515  27.504  1.00  0.00     0.074 A 
ATOM     31  C   UNL A   1      42.488  26.683  28.357  1.00  0.00     0.049 A 
ATOM     32  N   UNL A   1      45.571  27.968  28.354  1.00  0.00    -0.248 NA
ATOM     33  C   UNL A   1      44.982  27.930  26.112  1.00  0.00     0.031 C 
ATOM     34  C   UNL A   1      41.308  25.811  28.330  1.00  0.00     0.029 A 
ATOM     35  N   UNL A   1      42.053  27.753  29.072  1.00  0.00    -0.354 N 
ATOM     36  C   UNL A   1      46.308  28.920  27.652  1.00  0.00     0.074 A 
ATOM     37  C   UNL A   1      46.089  28.655  26.260  1.00  0.00     0.031 C 
ATOM     38  C   UNL A   1      40.236  26.492  28.795  1.00  0.00     0.029 A 
ATOM     39  C   UNL A   1      40.674  27.795  29.264  1.00  0.00     0.049 A 
ATOM     40  H   UNL A   1      42.661  28.442  29.425  1.00  0.00     0.167 HD
ATOM     41  C   UNL A   1      46.754  30.048  28.269  1.00  0.00     0.037 A 
ATOM     42  C   UNL A   1      39.954  28.858  29.708  1.00  0.00     0.037 A 
ATOM     43  C   UNL A   1      46.731  29.885  29.701  1.00  0.00     0.049 A 
ATOM     44  C   UNL A   1      40.914  29.784  30.362  1.00  0.00     0.074 A 
ATOM     45  C   UNL A   1      47.367  29.064  30.609  1.00  0.00     0.029 A 
ATOM     46  N   UNL A   1      45.636  30.409  30.340  1.00  0.00    -0.354 N 
ATOM     47  N   UNL A   1      41.559  29.505  31.461  1.00  0.00    -0.248 NA
ATOM     48  C   UNL A   1      41.482  30.865  29.569  1.00  0.00     0.031 C 
ATOM     49  C   UNL A   1      46.421  28.848  31.654  1.00  0.00     0.029 A 
ATOM     50  C   UNL A   1      45.270  29.586  31.370  1.00  0.00     0.049 A 
ATOM     51  H   UNL A   1      45.184  31.249  30.096  1.00  0.00     0.167 HD
ATOM     52  C   UNL A   1      42.817  30.060  31.286  1.00  0.00     0.074 A 
ATOM     53  C   UNL A   1      42.665  30.994  30.176  1.00  0.00     0.031 C 
ATOM     54  C   UNL A   1      43.913  29.486  31.865  1.00  0.00     0.037 A 
BRANCH  41  55
ATOM     55  C   UNL A   1      46.742  31.424  27.624  1.00  0.00     0.058 A 
ATOM     56  C   UNL A   1      47.922  32.197  27.665  1.00  0.00     0.135 A 
ATOM     57  C   UNL A   1      45.575  32.132  27.249  1.00  0.00     0.135 A 
ATOM     58  F   UNL A   1      49.095  31.637  28.003  1.00  0.00    -0.206 F 
ATOM     59  C   UNL A   1      47.924  33.576  27.448  1.00  0.00     0.059 A 
ATOM     60  C   UNL A   1      45.565  33.493  26.975  1.00  0.00     0.059 A 
ATOM     61  F   UNL A   1      44.362  31.573  27.218  1.00  0.00    -0.206 F 
ATOM     62  C   UNL A   1      46.733  34.218  27.122  1.00  0.00     0.060 A 
BRANCH  62  63
ATOM     63  S   UNL A   1      46.702  36.008  26.949  1.00  0.00     0.124 S 
ATOM     64  O   UNL A   1      45.269  36.275  26.966  1.00  0.00    -0.237 OA
ATOM     65  O   UNL A   1      47.451  36.438  28.123  1.00  0.00    -0.237 OA
ATOM     66  O   UNL A   1      47.371  36.232  25.669  1.00  0.00    -0.744 OA
ENDBRANCH  62  63
ENDBRANCH  41  55
BRANCH  42  67
ATOM     67  C   UNL A   1      38.578  29.284  29.331  1.00  0.00     0.058 A 
ATOM     68  C   UNL A   1      37.618  29.604  30.310  1.00  0.00     0.135 A 
ATOM     69  C   UNL A   1      38.264  29.663  28.011  1.00  0.00     0.135 A 
ATOM     70  F   UNL A   1      37.840  29.298  31.597  1.00  0.00    -0.206 F 
ATOM     71  C   UNL A   1      36.445  30.306  30.008  1.00  0.00     0.059 A 
ATOM     72  C   UNL A   1      37.097  30.355  27.684  1.00  0.00     0.059 A 
ATOM     73  F   UNL A   1      39.130  29.455  27.008  1.00  0.00    -0.206 F 
ATOM     74  C   UNL A   1      36.203  30.697  28.691  1.00  0.00     0.060 A 
BRANCH  74  75
ATOM     75  S   UNL A   1      34.783  31.757  28.321  1.00  0.00     0.124 S 
ATOM     76  O   UNL A   1      33.906  30.844  27.596  1.00  0.00    -0.237 OA
ATOM     77  O   UNL A   1      34.334  32.151  29.652  1.00  0.00    -0.237 OA
ATOM     78  O   UNL A   1      35.363  32.832  27.519  1.00  0.00    -0.744 OA
ENDBRANCH  74  75
ENDBRANCH  42  67
BRANCH  54  79
ATOM     79  C   UNL A   1      43.673  28.527  33.001  1.00  0.00     0.058 A 
ATOM     80  C   UNL A   1      43.532  27.135  32.866  1.00  0.00     0.135 A 
ATOM     81  C   UNL A   1      43.707  29.045  34.304  1.00  0.00     0.135 A 
ATOM     82  F   UNL A   1      43.584  26.550  31.661  1.00  0.00    -0.206 F 
ATOM     83  C   UNL A   1      43.391  26.302  33.978  1.00  0.00     0.059 A 
ATOM     84  C   UNL A   1      43.602  28.232  35.425  1.00  0.00     0.059 A 
ATOM     85  F   UNL A   1      43.897  30.362  34.498  1.00  0.00    -0.206 F 
ATOM     86  C   UNL A   1      43.428  26.860  35.255  1.00  0.00     0.060 A 
BRANCH  86  87
ATOM     87  S   UNL A   1      43.313  25.780  36.697  1.00  0.00     0.124 S 
ATOM     88  O   UNL A   1      42.357  26.491  37.540  1.00  0.00    -0.237 OA
ATOM     89  O   UNL A   1      42.839  24.526  36.119  1.00  0.00    -0.237 OA
ATOM     90  O   UNL A   1      44.683  25.741  37.204  1.00  0.00    -0.744 OA
ENDBRANCH  86  87
ENDBRANCH  54  79
ENDBRANCH  28  29
ENDBRANCH  21  23
ENDBRANCH  20  21
ENDBRANCH  19  20
ENDBRANCH   1  19
TORSDOF 19
ENDMDL
MODEL 2
REMARK VINA RESULT:     -10.0      3.511     11.409
REMARK SMILES CCCc1c(C(=O)OCCOC(=O)c2ccc(-c3c4nc(c(-c5c(F)cc(S(=O)(=O)[O-])cc5F)c5ccc([nH]5)c(-c5c(F)cc(S(=O)(=O)[O-])cc5F)c5nc(c(-c6c(F)cc(S(=O)(=O)[O-])cc6F)c6ccc3[nH]6)C=C5)C=C4)cc2)nnn1[C@@H](C)[C@H](C)O
REMARK SMILES IDX 9 1 8 2 6 3 7 4 5 5 4 6 82 7 80 8 81 9 3 10 2 11 1 12 83 13
REMARK SMILES IDX 84 14 85 15 86 16 87 17 10 19 11 20 12 21 13 22 14 23 15 24
REMARK SMILES IDX 79 25 16 26 78 27 17 28 18 29 19 30 72 31 20 32 77 33 71 34
REMARK SMILES IDX 73 35 21 36 76 37 70 38 69 39 22 41 56 42 35 43 55 44 36 45
REMARK SMILES IDX 39 46 54 47 74 48 37 49 38 50 53 52 75 53 40 54 23 55 24 56
REMARK SMILES IDX 33 57 25 58 26 59 32 60 34 61 27 62 28 63 29 64 30 65 31 66
REMARK SMILES IDX 57 67 58 68 67 69 59 70 60 71 66 72 68 73 61 74 62 75 63 76
REMARK SMILES IDX 64 77 65 78 41 79 42 80 51 81 43 82 44 83 50 84 52 85 45 86
REMARK SMILES IDX 46 87 47 88 48 89 49 90
REMARK H PARENT 87 18 73 40 39 51
REMARK Flexibility Score: inf
ROOT
ATOM      1  C   UNL A   1      33.358  34.322  28.695  1.00  0.00     0.275 C 
ENDROOT
BRANCH   1   2
ATOM      2  O   UNL A   1      34.236  34.676  29.778  1.00  0.00    -0.457 OA
BRANCH   2   3
ATOM      3  C   UNL A   1      33.630  35.048  30.950  1.00  0.00     0.360 C 
ATOM      4  O   UNL A   1      32.455  35.406  31.016  1.00  0.00    -0.244 OA
BRANCH   3   5
ATOM      5  C   UNL A   1      34.498  34.933  32.119  1.00  0.00     0.193 A 
ATOM      6  C   UNL A   1      35.505  34.015  32.398  1.00  0.00     0.074 A 
ATOM      7  N   UNL A   1      35.972  34.413  33.633  1.00  0.00    -0.243 N 
ATOM      8  N   UNL A   1      34.389  35.804  33.182  1.00  0.00    -0.123 NA
ATOM      9  N   UNL A   1      35.274  35.461  34.104  1.00  0.00    -0.066 NA
BRANCH   6  10
ATOM     10  C   UNL A   1      36.040  32.868  31.609  1.00  0.00     0.058 C 
BRANCH  10  11
ATOM     11  C   UNL A   1      35.615  31.511  32.179  1.00  0.00     0.003 C 
ATOM     12  C   UNL A   1      36.781  30.632  32.605  1.00  0.00     0.004 C 
ENDBRANCH  10  11
ENDBRANCH   6  10
BRANCH   7  13
ATOM     13  C   UNL A   1      37.138  33.947  34.373  1.00  0.00     0.135 C 
ATOM     14  C   UNL A   1      38.407  34.659  33.880  1.00  0.00     0.036 C 
BRANCH  13  15
ATOM     15  C   UNL A   1      36.990  34.031  35.909  1.00  0.00     0.135 C 
ATOM     16  C   UNL A   1      38.022  33.236  36.700  1.00  0.00     0.040 C 
BRANCH  15  17
ATOM     17  O   UNL A   1      35.682  33.664  36.348  1.00  0.00    -0.391 OA
ATOM     18  H   UNL A   1      35.448  32.797  35.980  1.00  0.00     0.211 HD
ENDBRANCH  15  17
ENDBRANCH  13  15
ENDBRANCH   7  13
ENDBRANCH   3   5
ENDBRANCH   2   3
ENDBRANCH   1   2
BRANCH   1  19
ATOM     19  C   UNL A   1      33.939  33.201  27.844  1.00  0.00     0.275 C 
BRANCH  19  20
ATOM     20  O   UNL A   1      34.216  32.042  28.627  1.00  0.00    -0.458 OA
BRANCH  20  21
ATOM     21  C   UNL A   1      34.884  31.066  27.968  1.00  0.00     0.338 C 
ATOM     22  O   UNL A   1      34.465  30.394  27.039  1.00  0.00    -0.246 OA
BRANCH  21  23
ATOM     23  C   UNL A   1      36.105  30.740  28.706  1.00  0.00     0.060 A 
ATOM     24  C   UNL A   1      37.087  31.731  28.801  1.00  0.00     0.016 A 
ATOM     25  C   UNL A   1      36.373  29.396  28.994  1.00  0.00     0.016 A 
ATOM     26  C   UNL A   1      38.393  31.344  29.027  1.00  0.00     0.010 A 
ATOM     27  C   UNL A   1      37.675  29.009  29.182  1.00  0.00     0.010 A 
ATOM     28  C   UNL A   1      38.675  29.979  29.133  1.00  0.00    -0.014 A 
BRANCH  28  29
ATOM     29  C   UNL A   1      40.045  29.556  29.338  1.00  0.00     0.031 A 
ATOM     30  C   UNL A   1      40.371  29.404  30.777  1.00  0.00     0.074 A 
ATOM     31  C   UNL A   1      40.818  29.162  28.305  1.00  0.00     0.049 A 
ATOM     32  N   UNL A   1      41.191  30.101  31.489  1.00  0.00    -0.248 NA
ATOM     33  C   UNL A   1      39.515  28.500  31.574  1.00  0.00     0.031 C 
ATOM     34  C   UNL A   1      40.416  29.014  26.902  1.00  0.00     0.029 A 
ATOM     35  N   UNL A   1      42.092  28.693  28.303  1.00  0.00    -0.354 N 
ATOM     36  C   UNL A   1      41.138  29.534  32.761  1.00  0.00     0.074 A 
ATOM     37  C   UNL A   1      39.928  28.765  32.811  1.00  0.00     0.031 C 
ATOM     38  C   UNL A   1      41.345  28.281  26.245  1.00  0.00     0.029 A 
ATOM     39  C   UNL A   1      42.455  28.014  27.143  1.00  0.00     0.049 A 
ATOM     40  H   UNL A   1      42.710  28.822  29.060  1.00  0.00     0.167 HD
ATOM     41  C   UNL A   1      42.253  29.463  33.537  1.00  0.00     0.037 A 
ATOM     42  C   UNL A   1      43.556  27.236  26.974  1.00  0.00     0.037 A 
ATOM     43  C   UNL A   1      43.262  30.375  33.060  1.00  0.00     0.049 A 
ATOM     44  C   UNL A   1      44.504  27.593  28.061  1.00  0.00     0.074 A 
ATOM     45  C   UNL A   1      43.368  31.745  32.929  1.00  0.00     0.029 A 
ATOM     46  N   UNL A   1      44.230  29.824  32.260  1.00  0.00    -0.354 N 
ATOM     47  N   UNL A   1      45.092  28.753  28.161  1.00  0.00    -0.248 NA
ATOM     48  C   UNL A   1      44.485  26.802  29.283  1.00  0.00     0.031 C 
ATOM     49  C   UNL A   1      44.170  31.953  31.768  1.00  0.00     0.029 A 
ATOM     50  C   UNL A   1      44.565  30.709  31.272  1.00  0.00     0.049 A 
ATOM     51  H   UNL A   1      44.624  28.930  32.379  1.00  0.00     0.167 HD
ATOM     52  C   UNL A   1      45.129  29.017  29.521  1.00  0.00     0.074 A 
ATOM     53  C   UNL A   1      44.871  27.731  30.161  1.00  0.00     0.031 C 
ATOM     54  C   UNL A   1      45.071  30.303  29.978  1.00  0.00     0.037 A 
BRANCH  41  55
ATOM     55  C   UNL A   1      42.610  28.260  34.395  1.00  0.00     0.058 A 
ATOM     56  C   UNL A   1      42.739  28.440  35.789  1.00  0.00     0.135 A 
ATOM     57  C   UNL A   1      43.122  27.036  33.900  1.00  0.00     0.135 A 
ATOM     58  F   UNL A   1      42.287  29.560  36.377  1.00  0.00    -0.206 F 
ATOM     59  C   UNL A   1      43.408  27.527  36.605  1.00  0.00     0.059 A 
ATOM     60  C   UNL A   1      43.743  26.089  34.704  1.00  0.00     0.059 A 
ATOM     61  F   UNL A   1      43.139  26.726  32.600  1.00  0.00    -0.206 F 
ATOM     62  C   UNL A   1      43.924  26.362  36.047  1.00  0.00     0.060 A 
BRANCH  62  63
ATOM     63  S   UNL A   1      44.883  25.231  37.067  1.00  0.00     0.124 S 
ATOM     64  O   UNL A   1      44.489  25.648  38.407  1.00  0.00    -0.237 OA
ATOM     65  O   UNL A   1      44.387  23.933  36.625  1.00  0.00    -0.237 OA
ATOM     66  O   UNL A   1      46.262  25.531  36.693  1.00  0.00    -0.744 OA
ENDBRANCH  62  63
ENDBRANCH  41  55
BRANCH  42  67
ATOM     67  C   UNL A   1      43.716  26.000  26.159  1.00  0.00     0.058 A 
ATOM     68  C   UNL A   1      44.874  25.778  25.388  1.00  0.00     0.135 A 
ATOM     69  C   UNL A   1      42.875  24.886  26.345  1.00  0.00     0.135 A 
ATOM     70  F   UNL A   1      45.743  26.778  25.175  1.00  0.00    -0.206 F 
ATOM     71  C   UNL A   1      45.204  24.517  24.879  1.00  0.00     0.059 A 
ATOM     72  C   UNL A   1      43.178  23.621  25.840  1.00  0.00     0.059 A 
ATOM     73  F   UNL A   1      41.774  24.971  27.106  1.00  0.00    -0.206 F 
ATOM     74  C   UNL A   1      44.359  23.436  25.129  1.00  0.00     0.060 A 
BRANCH  74  75
ATOM     75  S   UNL A   1      44.865  21.771  24.631  1.00  0.00     0.124 S 
ATOM     76  O   UNL A   1      46.293  21.790  24.926  1.00  0.00    -0.237 OA
ATOM     77  O   UNL A   1      44.047  20.927  25.495  1.00  0.00    -0.237 OA
ATOM     78  O   UNL A   1      44.522  21.723  23.212  1.00  0.00    -0.744 OA
ENDBRANCH  74  75
ENDBRANCH  42  67
BRANCH  54  79
ATOM     79  C   UNL A   1      45.387  31.401  28.997  1.00  0.00     0.058 A 
ATOM     80  C   UNL A   1      46.682  31.809  28.632  1.00  0.00     0.135 A 
ATOM     81  C   UNL A   1      44.313  31.983  28.308  1.00  0.00     0.135 A 
ATOM     82  F   UNL A   1      47.765  31.235  29.174  1.00  0.00    -0.206 F 
ATOM     83  C   UNL A   1      46.894  32.782  27.653  1.00  0.00     0.059 A 
ATOM     84  C   UNL A   1      44.502  32.929  27.308  1.00  0.00     0.059 A 
ATOM     85  F   UNL A   1      43.055  31.591  28.573  1.00  0.00    -0.206 F 
ATOM     86  C   UNL A   1      45.796  33.337  26.995  1.00  0.00     0.060 A 
BRANCH  86  87
ATOM     87  S   UNL A   1      46.069  34.546  25.683  1.00  0.00     0.124 S 
ATOM     88  O   UNL A   1      45.156  34.083  24.643  1.00  0.00    -0.237 OA
ATOM     89  O   UNL A   1      45.708  35.804  26.329  1.00  0.00    -0.237 OA
ATOM     90  O   UNL A   1      47.490  34.401  25.375  1.00  0.00    -0.744 OA
ENDBRANCH  86  87
ENDBRANCH  54  79
ENDBRANCH  28  29
ENDBRANCH  21  23
ENDBRANCH  20  21
ENDBRANCH  19  20
ENDBRANCH   1  19
TORSDOF 19
ENDMDL
MODEL 3
REMARK VINA RESULT:      -9.8      3.214      9.921
REMARK SMILES CCCc1c(C(=O)OCCOC(=O)c2ccc(-c3c4nc(c(-c5c(F)cc(S(=O)(=O)[O-])cc5F)c5ccc([nH]5)c(-c5c(F)cc(S(=O)(=O)[O-])cc5F)c5nc(c(-c6c(F)cc(S(=O)(=O)[O-])cc6F)c6ccc3[nH]6)C=C5)C=C4)cc2)nnn1[C@@H](C)[C@H](C)O
REMARK SMILES IDX 9 1 8 2 6 3 7 4 5 5 4 6 82 7 80 8 81 9 3 10 2 11 1 12 83 13
REMARK SMILES IDX 84 14 85 15 86 16 87 17 10 19 11 20 12 21 13 22 14 23 15 24
REMARK SMILES IDX 79 25 16 26 78 27 17 28 18 29 19 30 72 31 20 32 77 33 71 34
REMARK SMILES IDX 73 35 21 36 76 37 70 38 69 39 22 41 56 42 35 43 55 44 36 45
REMARK SMILES IDX 39 46 54 47 74 48 37 49 38 50 53 52 75 53 40 54 23 55 24 56
REMARK SMILES IDX 33 57 25 58 26 59 32 60 34 61 27 62 28 63 29 64 30 65 31 66
REMARK SMILES IDX 57 67 58 68 67 69 59 70 60 71 66 72 68 73 61 74 62 75 63 76
REMARK SMILES IDX 64 77 65 78 41 79 42 80 51 81 43 82 44 83 50 84 52 85 45 86
REMARK SMILES IDX 46 87 47 88 48 89 49 90
REMARK H PARENT 87 18 73 40 39 51
REMARK Flexibility Score: inf
ROOT
ATOM      1  C   UNL A   1      32.945  29.678  25.446  1.00  0.00     0.275 C 
ENDROOT
BRANCH   1   2
ATOM      2  O   UNL A   1      33.232  29.422  24.060  1.00  0.00    -0.457 OA
BRANCH   2   3
ATOM      3  C   UNL A   1      32.351  28.603  23.402  1.00  0.00     0.360 C 
ATOM      4  O   UNL A   1      31.240  28.973  23.028  1.00  0.00    -0.244 OA
BRANCH   3   5
ATOM      5  C   UNL A   1      32.878  27.265  23.145  1.00  0.00     0.193 A 
ATOM      6  C   UNL A   1      32.817  26.115  23.926  1.00  0.00     0.074 A 
ATOM      7  N   UNL A   1      33.474  25.172  23.164  1.00  0.00    -0.243 N 
ATOM      8  N   UNL A   1      33.572  26.976  21.990  1.00  0.00    -0.123 NA
ATOM      9  N   UNL A   1      33.948  25.708  22.026  1.00  0.00    -0.066 NA
BRANCH   6  10
ATOM     10  C   UNL A   1      32.195  25.860  25.257  1.00  0.00     0.058 C 
BRANCH  10  11
ATOM     11  C   UNL A   1      30.822  25.190  25.147  1.00  0.00     0.003 C 
ATOM     12  C   UNL A   1      29.955  25.748  24.028  1.00  0.00     0.004 C 
ENDBRANCH  10  11
ENDBRANCH   6  10
BRANCH   7  13
ATOM     13  C   UNL A   1      33.586  23.734  23.372  1.00  0.00     0.135 C 
ATOM     14  C   UNL A   1      33.012  22.969  22.170  1.00  0.00     0.036 C 
BRANCH  13  15
ATOM     15  C   UNL A   1      35.011  23.255  23.732  1.00  0.00     0.135 C 
ATOM     16  C   UNL A   1      35.646  23.960  24.924  1.00  0.00     0.040 C 
BRANCH  15  17
ATOM     17  O   UNL A   1      35.904  23.327  22.619  1.00  0.00    -0.391 OA
ATOM     18  H   UNL A   1      36.013  22.443  22.234  1.00  0.00     0.211 HD
ENDBRANCH  15  17
ENDBRANCH  13  15
ENDBRANCH   7  13
ENDBRANCH   3   5
ENDBRANCH   2   3
ENDBRANCH   1   2
BRANCH   1  19
ATOM     19  C   UNL A   1      34.179  29.495  26.318  1.00  0.00     0.275 C 
BRANCH  19  20
ATOM     20  O   UNL A   1      33.998  30.077  27.607  1.00  0.00    -0.458 OA
BRANCH  20  21
ATOM     21  C   UNL A   1      34.742  31.185  27.833  1.00  0.00     0.338 C 
ATOM     22  O   UNL A   1      34.578  32.288  27.338  1.00  0.00    -0.246 OA
BRANCH  21  23
ATOM     23  C   UNL A   1      35.953  30.807  28.564  1.00  0.00     0.060 A 
ATOM     24  C   UNL A   1      36.884  31.813  28.839  1.00  0.00     0.016 A 
ATOM     25  C   UNL A   1      36.273  29.447  28.666  1.00  0.00     0.016 A 
ATOM     26  C   UNL A   1      38.198  31.451  29.058  1.00  0.00     0.010 A 
ATOM     27  C   UNL A   1      37.585  29.091  28.848  1.00  0.00     0.010 A 
ATOM     28  C   UNL A   1      38.539  30.098  28.978  1.00  0.00    -0.014 A 
BRANCH  28  29
ATOM     29  C   UNL A   1      39.920  29.707  29.173  1.00  0.00     0.031 A 
ATOM     30  C   UNL A   1      40.303  29.716  30.606  1.00  0.00     0.074 A 
ATOM     31  C   UNL A   1      40.655  29.205  28.160  1.00  0.00     0.049 A 
ATOM     32  N   UNL A   1      41.144  30.491  31.204  1.00  0.00    -0.248 NA
ATOM     33  C   UNL A   1      39.488  28.902  31.531  1.00  0.00     0.031 C 
ATOM     34  C   UNL A   1      40.201  28.901  26.799  1.00  0.00     0.029 A 
ATOM     35  N   UNL A   1      41.934  28.745  28.159  1.00  0.00    -0.354 N 
ATOM     36  C   UNL A   1      41.147  30.068  32.531  1.00  0.00     0.074 A 
ATOM     37  C   UNL A   1      39.947  29.304  32.714  1.00  0.00     0.031 C 
ATOM     38  C   UNL A   1      41.110  28.105  26.190  1.00  0.00     0.029 A 
ATOM     39  C   UNL A   1      42.257  27.944  27.067  1.00  0.00     0.049 A 
ATOM     40  H   UNL A   1      42.579  28.960  28.872  1.00  0.00     0.167 HD
ATOM     41  C   UNL A   1      42.291  30.088  33.266  1.00  0.00     0.037 A 
ATOM     42  C   UNL A   1      43.357  27.157  26.942  1.00  0.00     0.037 A 
ATOM     43  C   UNL A   1      43.272  30.948  32.652  1.00  0.00     0.049 A 
ATOM     44  C   UNL A   1      44.343  27.636  27.944  1.00  0.00     0.074 A 
ATOM     45  C   UNL A   1      43.360  32.295  32.366  1.00  0.00     0.029 A 
ATOM     46  N   UNL A   1      44.214  30.316  31.879  1.00  0.00    -0.354 N 
ATOM     47  N   UNL A   1      44.924  28.803  27.892  1.00  0.00    -0.248 NA
ATOM     48  C   UNL A   1      44.379  26.985  29.245  1.00  0.00     0.031 C 
ATOM     49  C   UNL A   1      44.115  32.377  31.158  1.00  0.00     0.029 A 
ATOM     50  C   UNL A   1      44.501  31.088  30.787  1.00  0.00     0.049 A 
ATOM     51  H   UNL A   1      44.620  29.442  32.080  1.00  0.00     0.167 HD
ATOM     52  C   UNL A   1      45.012  29.216  29.212  1.00  0.00     0.074 A 
ATOM     53  C   UNL A   1      44.792  28.007  30.000  1.00  0.00     0.031 C 
ATOM     54  C   UNL A   1      44.961  30.544  29.526  1.00  0.00     0.037 A 
BRANCH  41  55
ATOM     55  C   UNL A   1      42.692  28.989  34.236  1.00  0.00     0.058 A 
ATOM     56  C   UNL A   1      42.735  27.659  33.768  1.00  0.00     0.135 A 
ATOM     57  C   UNL A   1      42.737  29.130  35.644  1.00  0.00     0.135 A 
ATOM     58  F   UNL A   1      42.703  27.397  32.450  1.00  0.00    -0.206 F 
ATOM     59  C   UNL A   1      42.722  26.559  34.627  1.00  0.00     0.059 A 
ATOM     60  C   UNL A   1      42.780  28.049  36.516  1.00  0.00     0.059 A 
ATOM     61  F   UNL A   1      42.645  30.311  36.263  1.00  0.00    -0.206 F 
ATOM     62  C   UNL A   1      42.725  26.768  36.003  1.00  0.00     0.060 A 
BRANCH  62  63
ATOM     63  S   UNL A   1      42.598  25.362  37.119  1.00  0.00     0.124 S 
ATOM     64  O   UNL A   1      43.641  24.486  36.600  1.00  0.00    -0.237 OA
ATOM     65  O   UNL A   1      42.862  25.980  38.413  1.00  0.00    -0.237 OA
ATOM     66  O   UNL A   1      41.227  24.898  36.919  1.00  0.00    -0.744 OA
ENDBRANCH  62  63
ENDBRANCH  41  55
BRANCH  42  67
ATOM     67  C   UNL A   1      43.497  25.840  26.262  1.00  0.00     0.058 A 
ATOM     68  C   UNL A   1      44.565  25.581  25.381  1.00  0.00     0.135 A 
ATOM     69  C   UNL A   1      42.757  24.716  26.681  1.00  0.00     0.135 A 
ATOM     70  F   UNL A   1      45.336  26.588  24.944  1.00  0.00    -0.206 F 
ATOM     71  C   UNL A   1      44.912  24.284  24.984  1.00  0.00     0.059 A 
ATOM     72  C   UNL A   1      43.077  23.416  26.292  1.00  0.00     0.059 A 
ATOM     73  F   UNL A   1      41.753  24.841  27.561  1.00  0.00    -0.206 F 
ATOM     74  C   UNL A   1      44.173  23.203  25.463  1.00  0.00     0.060 A 
BRANCH  74  75
ATOM     75  S   UNL A   1      44.721  21.516  25.102  1.00  0.00     0.124 S 
ATOM     76  O   UNL A   1      43.753  20.718  25.846  1.00  0.00    -0.237 OA
ATOM     77  O   UNL A   1      44.611  21.459  23.648  1.00  0.00    -0.237 OA
ATOM     78  O   UNL A   1      46.086  21.485  25.622  1.00  0.00    -0.744 OA
ENDBRANCH  74  75
ENDBRANCH  42  67
BRANCH  54  79
ATOM     79  C   UNL A   1      45.228  31.528  28.418  1.00  0.00     0.058 A 
ATOM     80  C   UNL A   1      44.252  32.058  27.557  1.00  0.00     0.135 A 
ATOM     81  C   UNL A   1      46.528  32.043  28.310  1.00  0.00     0.135 A 
ATOM     82  F   UNL A   1      42.967  31.689  27.659  1.00  0.00    -0.206 F 
ATOM     83  C   UNL A   1      44.566  33.029  26.603  1.00  0.00     0.059 A 
ATOM     84  C   UNL A   1      46.856  33.032  27.391  1.00  0.00     0.059 A 
ATOM     85  F   UNL A   1      47.491  31.616  29.144  1.00  0.00    -0.206 F 
ATOM     86  C   UNL A   1      45.872  33.511  26.528  1.00  0.00     0.060 A 
BRANCH  86  87
ATOM     87  S   UNL A   1      46.268  34.814  25.342  1.00  0.00     0.124 S 
ATOM     88  O   UNL A   1      45.928  36.022  26.088  1.00  0.00    -0.237 OA
ATOM     89  O   UNL A   1      47.691  34.600  25.097  1.00  0.00    -0.237 OA
ATOM     90  O   UNL A   1      45.399  34.517  24.206  1.00  0.00    -0.744 OA
ENDBRANCH  86  87
ENDBRANCH  54  79
ENDBRANCH  28  29
ENDBRANCH  21  23
ENDBRANCH  20  21
ENDBRANCH  19  20
ENDBRANCH   1  19
TORSDOF 19
ENDMDL
