MODEL 1
REMARK VINA RESULT:     -11.8      0.000      0.000
REMARK SMILES Cn1ccc(C(=O)NCc2ccc(C(=O)OCCOC(=O)c3ccc(-c4c5nc(c(-c6c(F)cc(S(=O)(=O)[O-])cc6F)c6ccc([nH]6)c(-c6c(F)cc(S(=O)(=O)[O-])cc6F)c6nc(c(-c7c(F)cc(S(=O)(=O)[O-])cc7F)c7ccc4[nH]7)C=C6)C=C5)cc3)cc2)cc1=O
REMARK SMILES IDX 17 1 16 2 14 3 15 4 13 5 10 6 11 7 89 8 12 9 88 10 9 11 8 12
REMARK SMILES IDX 6 13 7 14 5 16 1 17 2 18 3 19 91 20 4 21 90 22 92 23 18 24
REMARK SMILES IDX 19 25 20 26 21 27 22 28 23 29 87 30 24 31 86 32 25 33 26 34
REMARK SMILES IDX 27 35 80 36 28 37 85 38 79 39 81 40 29 41 84 42 78 43 77 44
REMARK SMILES IDX 30 46 64 47 43 48 63 49 44 50 47 51 62 52 82 53 45 54 46 55
REMARK SMILES IDX 61 57 83 58 48 59 31 60 32 61 41 62 33 63 34 64 40 65 42 66
REMARK SMILES IDX 35 67 36 68 37 69 38 70 39 71 65 72 66 73 75 74 67 75 68 76
REMARK SMILES IDX 74 77 76 78 69 79 70 80 71 81 72 82 73 83 49 84 50 85 59 86
REMARK SMILES IDX 51 87 52 88 58 89 60 90 53 91 54 92 55 93 56 94 57 95
REMARK H PARENT 8 15 81 45 47 56
REMARK Flexibility Score: inf
ROOT
ATOM      1  C   UNL A   1      39.021  21.469  25.763  1.00  0.00     0.275 C 
ENDROOT
BRANCH   1   2
ATOM      2  O   UNL A   1      37.977  22.387  25.377  1.00  0.00    -0.458 OA
BRANCH   2   3
ATOM      3  C   UNL A   1      36.802  21.823  25.000  1.00  0.00     0.338 C 
ATOM      4  O   UNL A   1      36.543  20.630  24.981  1.00  0.00    -0.246 OA
BRANCH   3   5
ATOM      5  C   UNL A   1      35.800  22.874  24.696  1.00  0.00     0.060 A 
ATOM      6  C   UNL A   1      33.831  24.797  24.084  1.00  0.00    -0.029 A 
ATOM      7  C   UNL A   1      33.886  23.588  23.380  1.00  0.00     0.006 A 
ATOM      8  C   UNL A   1      34.772  25.022  25.106  1.00  0.00     0.006 A 
ATOM      9  C   UNL A   1      34.883  22.651  23.661  1.00  0.00     0.016 A 
ATOM     10  C   UNL A   1      35.747  24.069  25.414  1.00  0.00     0.016 A 
BRANCH   6  11
ATOM     11  C   UNL A   1      32.747  25.803  23.765  1.00  0.00     0.152 C 
BRANCH  11  12
ATOM     12  N   UNL A   1      31.662  25.742  24.725  1.00  0.00    -0.348 N 
ATOM     13  C   UNL A   1      31.324  26.475  25.812  1.00  0.00     0.251 C 
ATOM     14  O   UNL A   1      30.366  26.058  26.473  1.00  0.00    -0.269 OA
ATOM     15  H   UNL A   1      31.034  25.006  24.547  1.00  0.00     0.164 HD
BRANCH  13  16
ATOM     16  C   UNL A   1      31.978  27.770  26.205  1.00  0.00     0.046 A 
ATOM     17  C   UNL A   1      34.148  31.175  27.555  1.00  0.00     0.153 C 
ATOM     18  N   UNL A   1      33.407  30.022  27.066  1.00  0.00    -0.319 N 
ATOM     19  C   UNL A   1      33.923  28.762  27.285  1.00  0.00     0.089 A 
ATOM     20  C   UNL A   1      32.215  30.220  26.380  1.00  0.00     0.251 A 
ATOM     21  C   UNL A   1      33.262  27.671  26.888  1.00  0.00     0.032 A 
ATOM     22  C   UNL A   1      31.512  28.992  25.910  1.00  0.00     0.085 A 
ATOM     23  O   UNL A   1      31.712  31.314  26.143  1.00  0.00    -0.269 OA
ENDBRANCH  13  16
ENDBRANCH  11  12
ENDBRANCH   6  11
ENDBRANCH   3   5
ENDBRANCH   2   3
ENDBRANCH   1   2
BRANCH   1  24
ATOM     24  C   UNL A   1      39.887  22.072  26.868  1.00  0.00     0.275 C 
BRANCH  24  25
ATOM     25  O   UNL A   1      39.710  23.499  26.896  1.00  0.00    -0.458 OA
BRANCH  25  26
ATOM     26  C   UNL A   1      40.839  24.239  26.836  1.00  0.00     0.338 C 
ATOM     27  O   UNL A   1      41.844  24.010  26.181  1.00  0.00    -0.246 OA
BRANCH  26  28
ATOM     28  C   UNL A   1      40.694  25.424  27.697  1.00  0.00     0.060 A 
ATOM     29  C   UNL A   1      41.720  26.364  27.745  1.00  0.00     0.016 A 
ATOM     30  C   UNL A   1      39.594  25.546  28.545  1.00  0.00     0.016 A 
ATOM     31  C   UNL A   1      41.693  27.386  28.693  1.00  0.00     0.010 A 
ATOM     32  C   UNL A   1      39.525  26.626  29.433  1.00  0.00     0.010 A 
ATOM     33  C   UNL A   1      40.590  27.540  29.545  1.00  0.00    -0.014 A 
BRANCH  33  34
ATOM     34  C   UNL A   1      40.565  28.623  30.574  1.00  0.00     0.031 A 
ATOM     35  C   UNL A   1      41.530  28.588  31.734  1.00  0.00     0.074 A 
ATOM     36  C   UNL A   1      39.684  29.641  30.481  1.00  0.00     0.049 A 
ATOM     37  N   UNL A   1      41.543  29.315  32.823  1.00  0.00    -0.248 NA
ATOM     38  C   UNL A   1      42.614  27.593  31.670  1.00  0.00     0.031 C 
ATOM     39  C   UNL A   1      38.708  29.826  29.404  1.00  0.00     0.029 A 
ATOM     40  N   UNL A   1      39.461  30.715  31.310  1.00  0.00    -0.354 N 
ATOM     41  C   UNL A   1      42.585  28.822  33.601  1.00  0.00     0.074 A 
ATOM     42  C   UNL A   1      43.190  27.740  32.856  1.00  0.00     0.031 C 
ATOM     43  C   UNL A   1      38.014  30.954  29.624  1.00  0.00     0.029 A 
ATOM     44  C   UNL A   1      38.433  31.530  30.897  1.00  0.00     0.049 A 
ATOM     45  H   UNL A   1      39.989  30.886  32.123  1.00  0.00     0.167 HD
ATOM     46  C   UNL A   1      42.996  29.232  34.825  1.00  0.00     0.037 A 
ATOM     47  C   UNL A   1      37.852  32.592  31.490  1.00  0.00     0.037 A 
ATOM     48  C   UNL A   1      42.446  30.362  35.529  1.00  0.00     0.049 A 
ATOM     49  C   UNL A   1      38.338  33.038  32.841  1.00  0.00     0.074 A 
ATOM     50  C   UNL A   1      42.828  30.879  36.756  1.00  0.00     0.029 A 
ATOM     51  N   UNL A   1      41.411  31.159  35.066  1.00  0.00    -0.354 N 
ATOM     52  N   UNL A   1      39.297  32.533  33.579  1.00  0.00    -0.248 NA
ATOM     53  C   UNL A   1      37.648  34.184  33.451  1.00  0.00     0.031 C 
ATOM     54  C   UNL A   1      42.007  31.972  37.047  1.00  0.00     0.029 A 
ATOM     55  C   UNL A   1      41.137  32.158  35.986  1.00  0.00     0.049 A 
ATOM     56  H   UNL A   1      40.941  31.035  34.210  1.00  0.00     0.167 HD
ATOM     57  C   UNL A   1      39.328  33.302  34.737  1.00  0.00     0.074 A 
ATOM     58  C   UNL A   1      38.310  34.321  34.593  1.00  0.00     0.031 C 
ATOM     59  C   UNL A   1      40.123  33.169  35.826  1.00  0.00     0.037 A 
BRANCH  46  60
ATOM     60  C   UNL A   1      44.083  28.449  35.506  1.00  0.00     0.058 A 
ATOM     61  C   UNL A   1      45.431  28.831  35.445  1.00  0.00     0.135 A 
ATOM     62  C   UNL A   1      43.753  27.334  36.297  1.00  0.00     0.135 A 
ATOM     63  F   UNL A   1      45.803  29.877  34.690  1.00  0.00    -0.206 F 
ATOM     64  C   UNL A   1      46.416  28.131  36.137  1.00  0.00     0.059 A 
ATOM     65  C   UNL A   1      44.718  26.633  37.014  1.00  0.00     0.059 A 
ATOM     66  F   UNL A   1      42.478  26.926  36.389  1.00  0.00    -0.206 F 
ATOM     67  C   UNL A   1      46.049  27.036  36.921  1.00  0.00     0.060 A 
BRANCH  67  68
ATOM     68  S   UNL A   1      47.332  26.159  37.840  1.00  0.00     0.124 S 
ATOM     69  O   UNL A   1      47.476  24.942  37.047  1.00  0.00    -0.237 OA
ATOM     70  O   UNL A   1      48.454  27.090  37.779  1.00  0.00    -0.237 OA
ATOM     71  O   UNL A   1      46.741  25.979  39.163  1.00  0.00    -0.744 OA
ENDBRANCH  67  68
ENDBRANCH  46  60
BRANCH  47  72
ATOM     72  C   UNL A   1      36.702  33.271  30.836  1.00  0.00     0.058 A 
ATOM     73  C   UNL A   1      36.881  34.076  29.701  1.00  0.00     0.135 A 
ATOM     74  C   UNL A   1      35.398  33.126  31.336  1.00  0.00     0.135 A 
ATOM     75  F   UNL A   1      38.110  34.256  29.194  1.00  0.00    -0.206 F 
ATOM     76  C   UNL A   1      35.810  34.723  29.091  1.00  0.00     0.059 A 
ATOM     77  C   UNL A   1      34.309  33.740  30.727  1.00  0.00     0.059 A 
ATOM     78  F   UNL A   1      35.172  32.359  32.413  1.00  0.00    -0.206 F 
ATOM     79  C   UNL A   1      34.526  34.549  29.613  1.00  0.00     0.060 A 
BRANCH  79  80
ATOM     80  S   UNL A   1      33.132  35.353  28.796  1.00  0.00     0.124 S 
ATOM     81  O   UNL A   1      32.575  34.253  28.017  1.00  0.00    -0.237 OA
ATOM     82  O   UNL A   1      32.326  35.807  29.924  1.00  0.00    -0.237 OA
ATOM     83  O   UNL A   1      33.769  36.416  28.023  1.00  0.00    -0.744 OA
ENDBRANCH  79  80
ENDBRANCH  47  72
BRANCH  59  84
ATOM     84  C   UNL A   1      39.942  34.162  36.937  1.00  0.00     0.058 A 
ATOM     85  C   UNL A   1      40.572  35.415  36.910  1.00  0.00     0.135 A 
ATOM     86  C   UNL A   1      39.093  33.875  38.018  1.00  0.00     0.135 A 
ATOM     87  F   UNL A   1      41.399  35.734  35.902  1.00  0.00    -0.206 F 
ATOM     88  C   UNL A   1      40.384  36.343  37.929  1.00  0.00     0.059 A 
ATOM     89  C   UNL A   1      38.873  34.797  39.037  1.00  0.00     0.059 A 
ATOM     90  F   UNL A   1      38.459  32.693  38.085  1.00  0.00    -0.206 F 
ATOM     91  C   UNL A   1      39.532  36.025  38.988  1.00  0.00     0.060 A 
BRANCH  91  92
ATOM     92  S   UNL A   1      39.269  37.248  40.290  1.00  0.00     0.124 S 
ATOM     93  O   UNL A   1      38.505  38.270  39.582  1.00  0.00    -0.237 OA
ATOM     94  O   UNL A   1      38.531  36.487  41.293  1.00  0.00    -0.237 OA
ATOM     95  O   UNL A   1      40.624  37.630  40.675  1.00  0.00    -0.744 OA
ENDBRANCH  91  92
ENDBRANCH  59  84
ENDBRANCH  33  34
ENDBRANCH  26  28
ENDBRANCH  25  26
ENDBRANCH  24  25
ENDBRANCH   1  24
TORSDOF 17
ENDMDL
MODEL 2
REMARK VINA RESULT:     -11.7      6.659     12.078
REMARK SMILES Cn1ccc(C(=O)NCc2ccc(C(=O)OCCOC(=O)c3ccc(-c4c5nc(c(-c6c(F)cc(S(=O)(=O)[O-])cc6F)c6ccc([nH]6)c(-c6c(F)cc(S(=O)(=O)[O-])cc6F)c6nc(c(-c7c(F)cc(S(=O)(=O)[O-])cc7F)c7ccc4[nH]7)C=C6)C=C5)cc3)cc2)cc1=O
REMARK SMILES IDX 17 1 16 2 14 3 15 4 13 5 10 6 11 7 89 8 12 9 88 10 9 11 8 12
REMARK SMILES IDX 6 13 7 14 5 16 1 17 2 18 3 19 91 20 4 21 90 22 92 23 18 24
REMARK SMILES IDX 19 25 20 26 21 27 22 28 23 29 87 30 24 31 86 32 25 33 26 34
REMARK SMILES IDX 27 35 80 36 28 37 85 38 79 39 81 40 29 41 84 42 78 43 77 44
REMARK SMILES IDX 30 46 64 47 43 48 63 49 44 50 47 51 62 52 82 53 45 54 46 55
REMARK SMILES IDX 61 57 83 58 48 59 31 60 32 61 41 62 33 63 34 64 40 65 42 66
REMARK SMILES IDX 35 67 36 68 37 69 38 70 39 71 65 72 66 73 75 74 67 75 68 76
REMARK SMILES IDX 74 77 76 78 69 79 70 80 71 81 72 82 73 83 49 84 50 85 59 86
REMARK SMILES IDX 51 87 52 88 58 89 60 90 53 91 54 92 55 93 56 94 57 95
REMARK H PARENT 8 15 81 45 47 56
REMARK Flexibility Score: inf
ROOT
ATOM      1  C   UNL A   1      34.614  31.757  27.896  1.00  0.00     0.275 C 
ENDROOT
BRANCH   1   2
ATOM      2  O   UNL A   1      33.789  30.587  27.720  1.00  0.00    -0.458 OA
BRANCH   2   3
ATOM      3  C   UNL A   1      34.416  29.489  27.229  1.00  0.00     0.338 C 
ATOM      4  O   UNL A   1      35.617  29.266  27.256  1.00  0.00    -0.246 OA
BRANCH   3   5
ATOM      5  C   UNL A   1      33.423  28.509  26.726  1.00  0.00     0.060 A 
ATOM      6  C   UNL A   1      31.459  26.712  25.796  1.00  0.00    -0.029 A 
ATOM      7  C   UNL A   1      31.153  27.643  26.796  1.00  0.00     0.006 A 
ATOM      8  C   UNL A   1      32.761  26.704  25.262  1.00  0.00     0.006 A 
ATOM      9  C   UNL A   1      32.137  28.509  27.281  1.00  0.00     0.016 A 
ATOM     10  C   UNL A   1      33.736  27.596  25.719  1.00  0.00     0.016 A 
BRANCH   6  11
ATOM     11  C   UNL A   1      30.383  25.779  25.285  1.00  0.00     0.152 C 
BRANCH  11  12
ATOM     12  N   UNL A   1      29.900  24.897  26.330  1.00  0.00    -0.348 N 
ATOM     13  C   UNL A   1      30.282  23.682  26.788  1.00  0.00     0.251 C 
ATOM     14  O   UNL A   1      29.554  23.169  27.645  1.00  0.00    -0.269 OA
ATOM     15  H   UNL A   1      29.124  25.263  26.812  1.00  0.00     0.164 HD
BRANCH  13  16
ATOM     16  C   UNL A   1      31.546  22.977  26.383  1.00  0.00     0.046 A 
ATOM     17  C   UNL A   1      34.862  20.745  24.914  1.00  0.00     0.153 C 
ATOM     18  N   UNL A   1      33.745  21.532  25.414  1.00  0.00    -0.319 N 
ATOM     19  C   UNL A   1      32.537  21.464  24.751  1.00  0.00     0.089 A 
ATOM     20  C   UNL A   1      33.927  22.343  26.528  1.00  0.00     0.251 A 
ATOM     21  C   UNL A   1      31.472  22.138  25.192  1.00  0.00     0.032 A 
ATOM     22  C   UNL A   1      32.738  23.119  26.982  1.00  0.00     0.085 A 
ATOM     23  O   UNL A   1      34.977  22.456  27.151  1.00  0.00    -0.269 OA
ENDBRANCH  13  16
ENDBRANCH  11  12
ENDBRANCH   6  11
ENDBRANCH   3   5
ENDBRANCH   2   3
ENDBRANCH   1   2
BRANCH   1  24
ATOM     24  C   UNL A   1      34.820  32.052  29.381  1.00  0.00     0.275 C 
BRANCH  24  25
ATOM     25  O   UNL A   1      35.702  31.069  29.951  1.00  0.00    -0.458 OA
BRANCH  25  26
ATOM     26  C   UNL A   1      36.737  31.547  30.676  1.00  0.00     0.338 C 
ATOM     27  O   UNL A   1      36.699  32.395  31.555  1.00  0.00    -0.246 OA
BRANCH  26  28
ATOM     28  C   UNL A   1      37.978  30.876  30.259  1.00  0.00     0.060 A 
ATOM     29  C   UNL A   1      38.893  30.468  31.226  1.00  0.00     0.016 A 
ATOM     30  C   UNL A   1      38.291  30.754  28.906  1.00  0.00     0.016 A 
ATOM     31  C   UNL A   1      40.155  30.010  30.851  1.00  0.00     0.010 A 
ATOM     32  C   UNL A   1      39.525  30.208  28.531  1.00  0.00     0.010 A 
ATOM     33  C   UNL A   1      40.488  29.862  29.497  1.00  0.00    -0.014 A 
BRANCH  33  34
ATOM     34  C   UNL A   1      41.846  29.389  29.091  1.00  0.00     0.031 A 
ATOM     35  C   UNL A   1      43.007  30.352  29.068  1.00  0.00     0.074 A 
ATOM     36  C   UNL A   1      42.050  28.102  28.741  1.00  0.00     0.049 A 
ATOM     37  N   UNL A   1      44.207  30.192  28.567  1.00  0.00    -0.248 NA
ATOM     38  C   UNL A   1      42.788  31.678  29.672  1.00  0.00     0.031 C 
ATOM     39  C   UNL A   1      41.032  27.049  28.740  1.00  0.00     0.029 A 
ATOM     40  N   UNL A   1      43.187  27.457  28.312  1.00  0.00    -0.354 N 
ATOM     41  C   UNL A   1      44.857  31.410  28.731  1.00  0.00     0.074 A 
ATOM     42  C   UNL A   1      43.925  32.300  29.388  1.00  0.00     0.031 C 
ATOM     43  C   UNL A   1      41.593  25.891  28.358  1.00  0.00     0.029 A 
ATOM     44  C   UNL A   1      42.988  26.131  28.006  1.00  0.00     0.049 A 
ATOM     45  H   UNL A   1      44.060  27.903  28.232  1.00  0.00     0.167 HD
ATOM     46  C   UNL A   1      46.115  31.755  28.364  1.00  0.00     0.037 A 
ATOM     47  C   UNL A   1      43.813  25.217  27.457  1.00  0.00     0.037 A 
ATOM     48  C   UNL A   1      47.070  30.845  27.785  1.00  0.00     0.049 A 
ATOM     49  C   UNL A   1      45.210  25.620  27.074  1.00  0.00     0.074 A 
ATOM     50  C   UNL A   1      48.382  31.094  27.421  1.00  0.00     0.029 A 
ATOM     51  N   UNL A   1      46.824  29.511  27.501  1.00  0.00    -0.354 N 
ATOM     52  N   UNL A   1      45.793  26.788  27.199  1.00  0.00    -0.248 NA
ATOM     53  C   UNL A   1      46.054  24.589  26.454  1.00  0.00     0.031 C 
ATOM     54  C   UNL A   1      48.922  29.918  26.891  1.00  0.00     0.029 A 
ATOM     55  C   UNL A   1      47.957  28.927  26.958  1.00  0.00     0.049 A 
ATOM     56  H   UNL A   1      45.971  29.047  27.661  1.00  0.00     0.167 HD
ATOM     57  C   UNL A   1      47.072  26.630  26.678  1.00  0.00     0.074 A 
ATOM     58  C   UNL A   1      47.188  25.249  26.259  1.00  0.00     0.031 C 
ATOM     59  C   UNL A   1      48.059  27.550  26.551  1.00  0.00     0.037 A 
BRANCH  46  60
ATOM     60  C   UNL A   1      46.541  33.184  28.553  1.00  0.00     0.058 A 
ATOM     61  C   UNL A   1      47.197  33.622  29.712  1.00  0.00     0.135 A 
ATOM     62  C   UNL A   1      46.351  34.115  27.516  1.00  0.00     0.135 A 
ATOM     63  F   UNL A   1      47.388  32.779  30.739  1.00  0.00    -0.206 F 
ATOM     64  C   UNL A   1      47.643  34.934  29.842  1.00  0.00     0.059 A 
ATOM     65  C   UNL A   1      46.808  35.425  27.615  1.00  0.00     0.059 A 
ATOM     66  F   UNL A   1      45.728  33.747  26.386  1.00  0.00    -0.206 F 
ATOM     67  C   UNL A   1      47.446  35.828  28.787  1.00  0.00     0.060 A 
BRANCH  67  68
ATOM     68  S   UNL A   1      48.061  37.517  28.955  1.00  0.00     0.124 S 
ATOM     69  O   UNL A   1      49.036  37.365  30.031  1.00  0.00    -0.237 OA
ATOM     70  O   UNL A   1      48.616  37.783  27.632  1.00  0.00    -0.237 OA
ATOM     71  O   UNL A   1      46.866  38.282  29.295  1.00  0.00    -0.744 OA
ENDBRANCH  67  68
ENDBRANCH  46  60
BRANCH  47  72
ATOM     72  C   UNL A   1      43.318  23.842  27.179  1.00  0.00     0.058 A 
ATOM     73  C   UNL A   1      42.855  23.478  25.906  1.00  0.00     0.135 A 
ATOM     74  C   UNL A   1      43.299  22.864  28.186  1.00  0.00     0.135 A 
ATOM     75  F   UNL A   1      42.840  24.382  24.915  1.00  0.00    -0.206 F 
ATOM     76  C   UNL A   1      42.380  22.197  25.643  1.00  0.00     0.059 A 
ATOM     77  C   UNL A   1      42.855  21.569  27.940  1.00  0.00     0.059 A 
ATOM     78  F   UNL A   1      43.740  23.158  29.419  1.00  0.00    -0.206 F 
ATOM     79  C   UNL A   1      42.384  21.248  26.669  1.00  0.00     0.060 A 
BRANCH  79  80
ATOM     80  S   UNL A   1      41.809  19.574  26.315  1.00  0.00     0.124 S 
ATOM     81  O   UNL A   1      42.568  19.253  25.112  1.00  0.00    -0.237 OA
ATOM     82  O   UNL A   1      42.192  18.849  27.522  1.00  0.00    -0.237 OA
ATOM     83  O   UNL A   1      40.372  19.749  26.128  1.00  0.00    -0.744 OA
ENDBRANCH  79  80
ENDBRANCH  47  72
BRANCH  59  84
ATOM     84  C   UNL A   1      49.358  27.088  25.955  1.00  0.00     0.058 A 
ATOM     85  C   UNL A   1      49.603  27.175  24.577  1.00  0.00     0.135 A 
ATOM     86  C   UNL A   1      50.384  26.597  26.778  1.00  0.00     0.135 A 
ATOM     87  F   UNL A   1      48.651  27.631  23.748  1.00  0.00    -0.206 F 
ATOM     88  C   UNL A   1      50.816  26.769  24.030  1.00  0.00     0.059 A 
ATOM     89  C   UNL A   1      51.613  26.206  26.255  1.00  0.00     0.059 A 
ATOM     90  F   UNL A   1      50.200  26.503  28.105  1.00  0.00    -0.206 F 
ATOM     91  C   UNL A   1      51.815  26.286  24.877  1.00  0.00     0.060 A 
BRANCH  91  92
ATOM     92  S   UNL A   1      53.398  25.792  24.163  1.00  0.00     0.124 S 
ATOM     93  O   UNL A   1      54.301  26.784  24.735  1.00  0.00    -0.237 OA
ATOM     94  O   UNL A   1      53.557  24.429  24.660  1.00  0.00    -0.237 OA
ATOM     95  O   UNL A   1      53.170  25.903  22.725  1.00  0.00    -0.744 OA
ENDBRANCH  91  92
ENDBRANCH  59  84
ENDBRANCH  33  34
ENDBRANCH  26  28
ENDBRANCH  25  26
ENDBRANCH  24  25
ENDBRANCH   1  24
TORSDOF 17
ENDMDL
MODEL 3
REMARK VINA RESULT:     -11.6      0.987      1.813
REMARK SMILES Cn1ccc(C(=O)NCc2ccc(C(=O)OCCOC(=O)c3ccc(-c4c5nc(c(-c6c(F)cc(S(=O)(=O)[O-])cc6F)c6ccc([nH]6)c(-c6c(F)cc(S(=O)(=O)[O-])cc6F)c6nc(c(-c7c(F)cc(S(=O)(=O)[O-])cc7F)c7ccc4[nH]7)C=C6)C=C5)cc3)cc2)cc1=O
REMARK SMILES IDX 17 1 16 2 14 3 15 4 13 5 10 6 11 7 89 8 12 9 88 10 9 11 8 12
REMARK SMILES IDX 6 13 7 14 5 16 1 17 2 18 3 19 91 20 4 21 90 22 92 23 18 24
REMARK SMILES IDX 19 25 20 26 21 27 22 28 23 29 87 30 24 31 86 32 25 33 26 34
REMARK SMILES IDX 27 35 80 36 28 37 85 38 79 39 81 40 29 41 84 42 78 43 77 44
REMARK SMILES IDX 30 46 64 47 43 48 63 49 44 50 47 51 62 52 82 53 45 54 46 55
REMARK SMILES IDX 61 57 83 58 48 59 31 60 32 61 41 62 33 63 34 64 40 65 42 66
REMARK SMILES IDX 35 67 36 68 37 69 38 70 39 71 65 72 66 73 75 74 67 75 68 76
REMARK SMILES IDX 74 77 76 78 69 79 70 80 71 81 72 82 73 83 49 84 50 85 59 86
REMARK SMILES IDX 51 87 52 88 58 89 60 90 53 91 54 92 55 93 56 94 57 95
REMARK H PARENT 8 15 81 45 47 56
REMARK Flexibility Score: inf
ROOT
ATOM      1  C   UNL A   1      38.986  21.543  25.743  1.00  0.00     0.275 C 
ENDROOT
BRANCH   1   2
ATOM      2  O   UNL A   1      37.558  21.745  25.753  1.00  0.00    -0.458 OA
BRANCH   2   3
ATOM      3  C   UNL A   1      36.820  20.790  25.133  1.00  0.00     0.338 C 
ATOM      4  O   UNL A   1      37.176  19.650  24.879  1.00  0.00    -0.246 OA
BRANCH   3   5
ATOM      5  C   UNL A   1      35.444  21.283  24.882  1.00  0.00     0.060 A 
ATOM      6  C   UNL A   1      32.868  22.307  24.365  1.00  0.00    -0.029 A 
ATOM      7  C   UNL A   1      33.948  23.174  24.573  1.00  0.00     0.006 A 
ATOM      8  C   UNL A   1      33.102  20.920  24.410  1.00  0.00     0.006 A 
ATOM      9  C   UNL A   1      35.217  22.665  24.864  1.00  0.00     0.016 A 
ATOM     10  C   UNL A   1      34.379  20.410  24.663  1.00  0.00     0.016 A 
BRANCH   6  11
ATOM     11  C   UNL A   1      31.500  22.874  24.054  1.00  0.00     0.152 C 
BRANCH  11  12
ATOM     12  N   UNL A   1      30.734  23.114  25.262  1.00  0.00    -0.348 N 
ATOM     13  C   UNL A   1      30.623  24.158  26.116  1.00  0.00     0.251 C 
ATOM     14  O   UNL A   1      29.938  23.966  27.126  1.00  0.00    -0.269 OA
ATOM     15  H   UNL A   1      30.173  22.347  25.518  1.00  0.00     0.164 HD
BRANCH  13  16
ATOM     16  C   UNL A   1      31.201  25.524  25.872  1.00  0.00     0.046 A 
ATOM     17  C   UNL A   1      32.515  29.439  24.833  1.00  0.00     0.153 C 
ATOM     18  N   UNL A   1      32.065  28.109  25.217  1.00  0.00    -0.319 N 
ATOM     19  C   UNL A   1      30.914  27.609  24.646  1.00  0.00     0.089 A 
ATOM     20  C   UNL A   1      32.793  27.388  26.156  1.00  0.00     0.251 A 
ATOM     21  C   UNL A   1      30.480  26.380  24.937  1.00  0.00     0.032 A 
ATOM     22  C   UNL A   1      32.272  26.034  26.498  1.00  0.00     0.085 A 
ATOM     23  O   UNL A   1      33.816  27.783  26.707  1.00  0.00    -0.269 OA
ENDBRANCH  13  16
ENDBRANCH  11  12
ENDBRANCH   6  11
ENDBRANCH   3   5
ENDBRANCH   2   3
ENDBRANCH   1   2
BRANCH   1  24
ATOM     24  C   UNL A   1      39.646  22.302  26.893  1.00  0.00     0.275 C 
BRANCH  24  25
ATOM     25  O   UNL A   1      39.530  23.718  26.668  1.00  0.00    -0.458 OA
BRANCH  25  26
ATOM     26  C   UNL A   1      40.681  24.424  26.715  1.00  0.00     0.338 C 
ATOM     27  O   UNL A   1      41.720  24.192  26.117  1.00  0.00    -0.246 OA
BRANCH  26  28
ATOM     28  C   UNL A   1      40.512  25.574  27.617  1.00  0.00     0.060 A 
ATOM     29  C   UNL A   1      41.385  26.654  27.518  1.00  0.00     0.016 A 
ATOM     30  C   UNL A   1      39.564  25.534  28.638  1.00  0.00     0.016 A 
ATOM     31  C   UNL A   1      41.370  27.661  28.482  1.00  0.00     0.010 A 
ATOM     32  C   UNL A   1      39.490  26.593  29.551  1.00  0.00     0.010 A 
ATOM     33  C   UNL A   1      40.415  27.653  29.508  1.00  0.00    -0.014 A 
BRANCH  33  34
ATOM     34  C   UNL A   1      40.407  28.721  30.553  1.00  0.00     0.031 A 
ATOM     35  C   UNL A   1      41.383  28.662  31.703  1.00  0.00     0.074 A 
ATOM     36  C   UNL A   1      39.531  29.745  30.485  1.00  0.00     0.049 A 
ATOM     37  N   UNL A   1      41.412  29.373  32.802  1.00  0.00    -0.248 NA
ATOM     38  C   UNL A   1      42.460  27.662  31.613  1.00  0.00     0.031 C 
ATOM     39  C   UNL A   1      38.546  29.951  29.420  1.00  0.00     0.029 A 
ATOM     40  N   UNL A   1      39.323  30.808  31.332  1.00  0.00    -0.354 N 
ATOM     41  C   UNL A   1      42.458  28.862  33.562  1.00  0.00     0.074 A 
ATOM     42  C   UNL A   1      43.050  27.787  32.795  1.00  0.00     0.031 C 
ATOM     43  C   UNL A   1      37.861  31.080  29.664  1.00  0.00     0.029 A 
ATOM     44  C   UNL A   1      38.296  31.634  30.941  1.00  0.00     0.049 A 
ATOM     45  H   UNL A   1      39.860  30.963  32.142  1.00  0.00     0.167 HD
ATOM     46  C   UNL A   1      42.884  29.252  34.788  1.00  0.00     0.037 A 
ATOM     47  C   UNL A   1      37.727  32.690  31.556  1.00  0.00     0.037 A 
ATOM     48  C   UNL A   1      42.348  30.374  35.515  1.00  0.00     0.049 A 
ATOM     49  C   UNL A   1      38.229  33.114  32.909  1.00  0.00     0.074 A 
ATOM     50  C   UNL A   1      42.746  30.870  36.745  1.00  0.00     0.029 A 
ATOM     51  N   UNL A   1      41.313  31.184  35.074  1.00  0.00    -0.354 N 
ATOM     52  N   UNL A   1      39.192  32.592  33.629  1.00  0.00    -0.248 NA
ATOM     53  C   UNL A   1      37.553  34.254  33.543  1.00  0.00     0.031 C 
ATOM     54  C   UNL A   1      41.933  31.964  37.061  1.00  0.00     0.029 A 
ATOM     55  C   UNL A   1      41.054  32.170  36.012  1.00  0.00     0.049 A 
ATOM     56  H   UNL A   1      40.834  31.075  34.221  1.00  0.00     0.167 HD
ATOM     57  C   UNL A   1      39.240  33.343  34.798  1.00  0.00     0.074 A 
ATOM     58  C   UNL A   1      38.226  34.370  34.679  1.00  0.00     0.031 C 
ATOM     59  C   UNL A   1      40.045  33.189  35.877  1.00  0.00     0.037 A 
BRANCH  46  60
ATOM     60  C   UNL A   1      43.973  28.451  35.447  1.00  0.00     0.058 A 
ATOM     61  C   UNL A   1      45.332  28.754  35.275  1.00  0.00     0.135 A 
ATOM     62  C   UNL A   1      43.641  27.406  36.326  1.00  0.00     0.135 A 
ATOM     63  F   UNL A   1      45.704  29.731  34.433  1.00  0.00    -0.206 F 
ATOM     64  C   UNL A   1      46.324  28.045  35.945  1.00  0.00     0.059 A 
ATOM     65  C   UNL A   1      44.615  26.698  37.023  1.00  0.00     0.059 A 
ATOM     66  F   UNL A   1      42.355  27.075  36.525  1.00  0.00    -0.206 F 
ATOM     67  C   UNL A   1      45.955  27.020  36.819  1.00  0.00     0.060 A 
BRANCH  67  68
ATOM     68  S   UNL A   1      47.251  26.130  37.708  1.00  0.00     0.124 S 
ATOM     69  O   UNL A   1      47.142  26.715  39.041  1.00  0.00    -0.237 OA
ATOM     70  O   UNL A   1      46.817  24.742  37.590  1.00  0.00    -0.237 OA
ATOM     71  O   UNL A   1      48.464  26.469  36.971  1.00  0.00    -0.744 OA
ENDBRANCH  67  68
ENDBRANCH  46  60
BRANCH  47  72
ATOM     72  C   UNL A   1      36.574  33.386  30.923  1.00  0.00     0.058 A 
ATOM     73  C   UNL A   1      35.277  33.263  31.442  1.00  0.00     0.135 A 
ATOM     74  C   UNL A   1      36.751  34.189  29.786  1.00  0.00     0.135 A 
ATOM     75  F   UNL A   1      35.055  32.496  32.519  1.00  0.00    -0.206 F 
ATOM     76  C   UNL A   1      34.193  33.903  30.848  1.00  0.00     0.059 A 
ATOM     77  C   UNL A   1      35.688  34.860  29.191  1.00  0.00     0.059 A 
ATOM     78  F   UNL A   1      37.974  34.348  29.257  1.00  0.00    -0.206 F 
ATOM     79  C   UNL A   1      34.409  34.700  29.721  1.00  0.00     0.060 A 
BRANCH  79  80
ATOM     80  S   UNL A   1      33.009  35.563  28.978  1.00  0.00     0.124 S 
ATOM     81  O   UNL A   1      32.205  35.883  30.152  1.00  0.00    -0.237 OA
ATOM     82  O   UNL A   1      33.652  36.695  28.319  1.00  0.00    -0.237 OA
ATOM     83  O   UNL A   1      32.442  34.564  28.077  1.00  0.00    -0.744 OA
ENDBRANCH  79  80
ENDBRANCH  47  72
BRANCH  59  84
ATOM     84  C   UNL A   1      39.881  34.167  37.005  1.00  0.00     0.058 A 
ATOM     85  C   UNL A   1      40.582  35.381  37.029  1.00  0.00     0.135 A 
ATOM     86  C   UNL A   1      38.978  33.905  38.048  1.00  0.00     0.135 A 
ATOM     87  F   UNL A   1      41.462  35.674  36.058  1.00  0.00    -0.206 F 
ATOM     88  C   UNL A   1      40.411  36.296  38.063  1.00  0.00     0.059 A 
ATOM     89  C   UNL A   1      38.775  34.816  39.080  1.00  0.00     0.059 A 
ATOM     90  F   UNL A   1      38.276  32.761  38.064  1.00  0.00    -0.206 F 
ATOM     91  C   UNL A   1      39.504  36.005  39.084  1.00  0.00     0.060 A 
BRANCH  91  92
ATOM     92  S   UNL A   1      39.264  37.213  40.405  1.00  0.00     0.124 S 
ATOM     93  O   UNL A   1      40.582  37.834  40.477  1.00  0.00    -0.237 OA
ATOM     94  O   UNL A   1      38.195  38.052  39.874  1.00  0.00    -0.237 OA
ATOM     95  O   UNL A   1      38.894  36.391  41.552  1.00  0.00    -0.744 OA
ENDBRANCH  91  92
ENDBRANCH  59  84
ENDBRANCH  33  34
ENDBRANCH  26  28
ENDBRANCH  25  26
ENDBRANCH  24  25
ENDBRANCH   1  24
TORSDOF 17
ENDMDL
