MODEL 1
REMARK VINA RESULT:      -9.5      0.000      0.000
REMARK SMILES CC[C@H](Nc1cccc(C(F)(F)F)c1)C(=O)OCCOC(=O)c1ccc(-c2c3nc(c(-c4c(F)cc(S(=O)(=O)[O-])cc4F)c4ccc([nH]4)c(-c4c(F)cc(S(=O)(=O)[O-])cc4F)c4nc(c(-c5c(F)cc(S(=O)(=O)[O-])cc5F)c5ccc2[nH]5)C=C4)C=C3)cc1
REMARK SMILES IDX 18 1 17 2 15 3 16 4 3 5 2 6 1 7 4 8 5 10 6 11 14 12 7 13
REMARK SMILES IDX 9 14 8 15 10 16 11 17 12 18 13 19 19 20 20 21 21 22 22 23
REMARK SMILES IDX 23 24 24 25 88 26 25 27 87 28 26 29 27 30 28 31 81 32 29 33
REMARK SMILES IDX 86 34 80 35 82 36 30 37 85 38 79 39 78 40 31 42 65 43 44 44
REMARK SMILES IDX 64 45 45 46 48 47 63 48 83 49 46 50 47 51 62 53 84 54 49 55
REMARK SMILES IDX 32 56 33 57 42 58 34 59 35 60 41 61 43 62 36 63 37 64 38 65
REMARK SMILES IDX 39 66 40 67 66 68 67 69 76 70 68 71 69 72 75 73 77 74 70 75
REMARK SMILES IDX 71 76 72 77 73 78 74 79 50 80 51 81 60 82 52 83 53 84 59 85
REMARK SMILES IDX 61 86 54 87 55 88 56 89 57 90 58 91
REMARK H PARENT 4 9 82 41 48 52
REMARK Flexibility Score: inf
ROOT
ATOM      1  C   UNL A   1      40.910  19.893  26.744  1.00  0.00     0.274 C 
ENDROOT
BRANCH   1   2
ATOM      2  O   UNL A   1      41.530  19.032  25.771  1.00  0.00    -0.461 OA
BRANCH   2   3
ATOM      3  C   UNL A   1      42.814  18.666  25.995  1.00  0.00     0.328 C 
ATOM      4  O   UNL A   1      43.136  17.690  26.669  1.00  0.00    -0.250 OA
BRANCH   3   5
ATOM      5  C   UNL A   1      43.861  19.600  25.366  1.00  0.00     0.189 C 
BRANCH   5   6
ATOM      6  C   UNL A   1      45.033  18.872  24.705  1.00  0.00     0.033 C 
ATOM      7  C   UNL A   1      46.392  19.017  25.364  1.00  0.00     0.007 C 
ENDBRANCH   5   6
BRANCH   5   8
ATOM      8  N   UNL A   1      44.217  20.857  26.054  1.00  0.00    -0.372 N 
ATOM      9  H   UNL A   1      44.460  20.743  27.001  1.00  0.00     0.161 HD
BRANCH   8  10
ATOM     10  C   UNL A   1      44.270  22.159  25.612  1.00  0.00     0.035 A 
ATOM     11  C   UNL A   1      43.062  22.836  25.380  1.00  0.00     0.026 A 
ATOM     12  C   UNL A   1      45.442  22.897  25.449  1.00  0.00     0.038 A 
ATOM     13  C   UNL A   1      43.027  24.194  25.047  1.00  0.00     0.003 A 
ATOM     14  C   UNL A   1      45.433  24.275  25.163  1.00  0.00     0.058 A 
ATOM     15  C   UNL A   1      44.209  24.918  24.955  1.00  0.00     0.013 A 
BRANCH  14  16
ATOM     16  C   UNL A   1      46.715  25.064  25.146  1.00  0.00     0.416 C 
ATOM     17  F   UNL A   1      46.519  26.390  24.899  1.00  0.00    -0.166 F 
ATOM     18  F   UNL A   1      47.381  25.002  26.334  1.00  0.00    -0.166 F 
ATOM     19  F   UNL A   1      47.611  24.644  24.207  1.00  0.00    -0.166 F 
ENDBRANCH  14  16
ENDBRANCH   8  10
ENDBRANCH   5   8
ENDBRANCH   3   5
ENDBRANCH   2   3
ENDBRANCH   1   2
BRANCH   1  20
ATOM     20  C   UNL A   1      39.989  20.885  26.036  1.00  0.00     0.275 C 
BRANCH  20  21
ATOM     21  O   UNL A   1      39.625  21.918  26.966  1.00  0.00    -0.458 OA
BRANCH  21  22
ATOM     22  C   UNL A   1      38.930  22.961  26.460  1.00  0.00     0.338 C 
ATOM     23  O   UNL A   1      37.987  22.935  25.691  1.00  0.00    -0.246 OA
BRANCH  22  24
ATOM     24  C   UNL A   1      39.554  24.197  26.952  1.00  0.00     0.060 A 
ATOM     25  C   UNL A   1      39.862  25.232  26.065  1.00  0.00     0.016 A 
ATOM     26  C   UNL A   1      39.864  24.303  28.307  1.00  0.00     0.016 A 
ATOM     27  C   UNL A   1      40.503  26.380  26.533  1.00  0.00     0.010 A 
ATOM     28  C   UNL A   1      40.476  25.463  28.779  1.00  0.00     0.010 A 
ATOM     29  C   UNL A   1      40.815  26.503  27.895  1.00  0.00    -0.014 A 
BRANCH  29  30
ATOM     30  C   UNL A   1      41.539  27.691  28.407  1.00  0.00     0.031 A 
ATOM     31  C   UNL A   1      40.760  28.843  28.975  1.00  0.00     0.074 A 
ATOM     32  C   UNL A   1      42.881  27.750  28.326  1.00  0.00     0.049 A 
ATOM     33  N   UNL A   1      41.178  30.031  29.327  1.00  0.00    -0.248 NA
ATOM     34  C   UNL A   1      39.316  28.631  29.164  1.00  0.00     0.031 C 
ATOM     35  C   UNL A   1      43.745  26.684  27.819  1.00  0.00     0.029 A 
ATOM     36  N   UNL A   1      43.752  28.761  28.651  1.00  0.00    -0.354 N 
ATOM     37  C   UNL A   1      40.046  30.718  29.755  1.00  0.00     0.074 A 
ATOM     38  C   UNL A   1      38.924  29.818  29.604  1.00  0.00     0.031 C 
ATOM     39  C   UNL A   1      45.022  27.101  27.855  1.00  0.00     0.029 A 
ATOM     40  C   UNL A   1      45.061  28.477  28.342  1.00  0.00     0.049 A 
ATOM     41  H   UNL A   1      43.467  29.607  29.066  1.00  0.00     0.167 HD
ATOM     42  C   UNL A   1      39.956  31.984  30.229  1.00  0.00     0.037 A 
ATOM     43  C   UNL A   1      46.161  29.251  28.408  1.00  0.00     0.037 A 
ATOM     44  C   UNL A   1      41.082  32.868  30.382  1.00  0.00     0.049 A 
ATOM     45  C   UNL A   1      46.033  30.666  28.903  1.00  0.00     0.074 A 
ATOM     46  C   UNL A   1      41.100  34.168  30.857  1.00  0.00     0.029 A 
ATOM     47  N   UNL A   1      42.393  32.542  30.064  1.00  0.00    -0.354 N 
ATOM     48  N   UNL A   1      44.956  31.308  29.291  1.00  0.00    -0.248 NA
ATOM     49  C   UNL A   1      47.265  31.465  28.964  1.00  0.00     0.031 C 
ATOM     50  C   UNL A   1      42.417  34.638  30.797  1.00  0.00     0.029 A 
ATOM     51  C   UNL A   1      43.226  33.618  30.322  1.00  0.00     0.049 A 
ATOM     52  H   UNL A   1      42.688  31.672  29.707  1.00  0.00     0.167 HD
ATOM     53  C   UNL A   1      45.382  32.580  29.657  1.00  0.00     0.074 A 
ATOM     54  C   UNL A   1      46.818  32.613  29.456  1.00  0.00     0.031 C 
ATOM     55  C   UNL A   1      44.653  33.627  30.117  1.00  0.00     0.037 A 
BRANCH  42  56
ATOM     56  C   UNL A   1      38.589  32.491  30.591  1.00  0.00     0.058 A 
ATOM     57  C   UNL A   1      37.792  33.184  29.666  1.00  0.00     0.135 A 
ATOM     58  C   UNL A   1      38.063  32.269  31.873  1.00  0.00     0.135 A 
ATOM     59  F   UNL A   1      38.254  33.439  28.432  1.00  0.00    -0.206 F 
ATOM     60  C   UNL A   1      36.532  33.665  30.010  1.00  0.00     0.059 A 
ATOM     61  C   UNL A   1      36.796  32.722  32.233  1.00  0.00     0.059 A 
ATOM     62  F   UNL A   1      38.785  31.614  32.795  1.00  0.00    -0.206 F 
ATOM     63  C   UNL A   1      36.045  33.433  31.298  1.00  0.00     0.060 A 
BRANCH  63  64
ATOM     64  S   UNL A   1      34.414  34.072  31.735  1.00  0.00     0.124 S 
ATOM     65  O   UNL A   1      33.889  32.989  32.560  1.00  0.00    -0.237 OA
ATOM     66  O   UNL A   1      34.738  35.307  32.442  1.00  0.00    -0.237 OA
ATOM     67  O   UNL A   1      33.761  34.249  30.441  1.00  0.00    -0.744 OA
ENDBRANCH  63  64
ENDBRANCH  42  56
BRANCH  43  68
ATOM     68  C   UNL A   1      47.474  28.708  27.973  1.00  0.00     0.058 A 
ATOM     69  C   UNL A   1      48.349  28.108  28.889  1.00  0.00     0.135 A 
ATOM     70  C   UNL A   1      47.868  28.753  26.626  1.00  0.00     0.135 A 
ATOM     71  F   UNL A   1      48.021  28.050  30.189  1.00  0.00    -0.206 F 
ATOM     72  C   UNL A   1      49.570  27.575  28.489  1.00  0.00     0.059 A 
ATOM     73  C   UNL A   1      49.072  28.207  26.197  1.00  0.00     0.059 A 
ATOM     74  F   UNL A   1      47.060  29.308  25.708  1.00  0.00    -0.206 F 
ATOM     75  C   UNL A   1      49.921  27.625  27.139  1.00  0.00     0.060 A 
BRANCH  75  76
ATOM     76  S   UNL A   1      51.477  26.872  26.616  1.00  0.00     0.124 S 
ATOM     77  O   UNL A   1      52.277  28.046  26.291  1.00  0.00    -0.237 OA
ATOM     78  O   UNL A   1      51.880  26.135  27.810  1.00  0.00    -0.237 OA
ATOM     79  O   UNL A   1      51.082  26.041  25.482  1.00  0.00    -0.744 OA
ENDBRANCH  75  76
ENDBRANCH  43  68
BRANCH  55  80
ATOM     80  C   UNL A   1      45.398  34.886  30.459  1.00  0.00     0.058 A 
ATOM     81  C   UNL A   1      45.584  35.908  29.517  1.00  0.00     0.135 A 
ATOM     82  C   UNL A   1      45.890  35.089  31.758  1.00  0.00     0.135 A 
ATOM     83  F   UNL A   1      45.138  35.758  28.260  1.00  0.00    -0.206 F 
ATOM     84  C   UNL A   1      46.250  37.085  29.846  1.00  0.00     0.059 A 
ATOM     85  C   UNL A   1      46.540  36.265  32.115  1.00  0.00     0.059 A 
ATOM     86  F   UNL A   1      45.730  34.144  32.697  1.00  0.00    -0.206 F 
ATOM     87  C   UNL A   1      46.725  37.254  31.148  1.00  0.00     0.060 A 
BRANCH  87  88
ATOM     88  S   UNL A   1      47.559  38.797  31.576  1.00  0.00     0.124 S 
ATOM     89  O   UNL A   1      47.086  39.017  32.939  1.00  0.00    -0.237 OA
ATOM     90  O   UNL A   1      48.968  38.442  31.443  1.00  0.00    -0.237 OA
ATOM     91  O   UNL A   1      47.060  39.740  30.578  1.00  0.00    -0.744 OA
ENDBRANCH  87  88
ENDBRANCH  55  80
ENDBRANCH  29  30
ENDBRANCH  22  24
ENDBRANCH  21  22
ENDBRANCH  20  21
ENDBRANCH   1  20
TORSDOF 18
ENDMDL
MODEL 2
REMARK VINA RESULT:      -9.4      0.899      8.431
REMARK SMILES CC[C@H](Nc1cccc(C(F)(F)F)c1)C(=O)OCCOC(=O)c1ccc(-c2c3nc(c(-c4c(F)cc(S(=O)(=O)[O-])cc4F)c4ccc([nH]4)c(-c4c(F)cc(S(=O)(=O)[O-])cc4F)c4nc(c(-c5c(F)cc(S(=O)(=O)[O-])cc5F)c5ccc2[nH]5)C=C4)C=C3)cc1
REMARK SMILES IDX 18 1 17 2 15 3 16 4 3 5 2 6 1 7 4 8 5 10 6 11 14 12 7 13
REMARK SMILES IDX 9 14 8 15 10 16 11 17 12 18 13 19 19 20 20 21 21 22 22 23
REMARK SMILES IDX 23 24 24 25 88 26 25 27 87 28 26 29 27 30 28 31 81 32 29 33
REMARK SMILES IDX 86 34 80 35 82 36 30 37 85 38 79 39 78 40 31 42 65 43 44 44
REMARK SMILES IDX 64 45 45 46 48 47 63 48 83 49 46 50 47 51 62 53 84 54 49 55
REMARK SMILES IDX 32 56 33 57 42 58 34 59 35 60 41 61 43 62 36 63 37 64 38 65
REMARK SMILES IDX 39 66 40 67 66 68 67 69 76 70 68 71 69 72 75 73 77 74 70 75
REMARK SMILES IDX 71 76 72 77 73 78 74 79 50 80 51 81 60 82 52 83 53 84 59 85
REMARK SMILES IDX 61 86 54 87 55 88 56 89 57 90 58 91
REMARK H PARENT 4 9 82 41 48 52
REMARK Flexibility Score: inf
ROOT
ATOM      1  C   UNL A   1      40.835  19.888  26.775  1.00  0.00     0.274 C 
ENDROOT
BRANCH   1   2
ATOM      2  O   UNL A   1      41.470  19.099  25.751  1.00  0.00    -0.461 OA
BRANCH   2   3
ATOM      3  C   UNL A   1      42.744  18.702  25.974  1.00  0.00     0.328 C 
ATOM      4  O   UNL A   1      43.042  17.707  26.631  1.00  0.00    -0.250 OA
BRANCH   3   5
ATOM      5  C   UNL A   1      43.815  19.625  25.368  1.00  0.00     0.189 C 
BRANCH   5   6
ATOM      6  C   UNL A   1      44.971  18.885  24.693  1.00  0.00     0.033 C 
ATOM      7  C   UNL A   1      46.319  18.939  25.385  1.00  0.00     0.007 C 
ENDBRANCH   5   6
BRANCH   5   8
ATOM      8  N   UNL A   1      44.198  20.858  26.086  1.00  0.00    -0.372 N 
ATOM      9  H   UNL A   1      44.393  20.724  27.041  1.00  0.00     0.161 HD
BRANCH   8  10
ATOM     10  C   UNL A   1      44.334  22.159  25.660  1.00  0.00     0.035 A 
ATOM     11  C   UNL A   1      43.175  22.876  25.323  1.00  0.00     0.026 A 
ATOM     12  C   UNL A   1      45.538  22.860  25.612  1.00  0.00     0.038 A 
ATOM     13  C   UNL A   1      43.213  24.236  24.999  1.00  0.00     0.003 A 
ATOM     14  C   UNL A   1      45.600  24.239  25.338  1.00  0.00     0.058 A 
ATOM     15  C   UNL A   1      44.422  24.922  25.023  1.00  0.00     0.013 A 
BRANCH  14  16
ATOM     16  C   UNL A   1      46.903  24.986  25.446  1.00  0.00     0.416 C 
ATOM     17  F   UNL A   1      47.751  24.442  26.363  1.00  0.00    -0.166 F 
ATOM     18  F   UNL A   1      47.592  25.005  24.269  1.00  0.00    -0.166 F 
ATOM     19  F   UNL A   1      46.762  26.294  25.805  1.00  0.00    -0.166 F 
ENDBRANCH  14  16
ENDBRANCH   8  10
ENDBRANCH   5   8
ENDBRANCH   3   5
ENDBRANCH   2   3
ENDBRANCH   1   2
BRANCH   1  20
ATOM     20  C   UNL A   1      39.858  20.869  26.133  1.00  0.00     0.275 C 
BRANCH  20  21
ATOM     21  O   UNL A   1      39.875  22.094  26.885  1.00  0.00    -0.458 OA
BRANCH  21  22
ATOM     22  C   UNL A   1      38.916  22.996  26.583  1.00  0.00     0.338 C 
ATOM     23  O   UNL A   1      37.847  22.803  26.035  1.00  0.00    -0.246 OA
BRANCH  22  24
ATOM     24  C   UNL A   1      39.406  24.324  26.979  1.00  0.00     0.060 A 
ATOM     25  C   UNL A   1      39.958  25.184  26.026  1.00  0.00     0.016 A 
ATOM     26  C   UNL A   1      39.345  24.692  28.322  1.00  0.00     0.016 A 
ATOM     27  C   UNL A   1      40.470  26.421  26.421  1.00  0.00     0.010 A 
ATOM     28  C   UNL A   1      39.829  25.941  28.711  1.00  0.00     0.010 A 
ATOM     29  C   UNL A   1      40.409  26.807  27.767  1.00  0.00    -0.014 A 
BRANCH  29  30
ATOM     30  C   UNL A   1      40.990  28.095  28.218  1.00  0.00     0.031 A 
ATOM     31  C   UNL A   1      42.477  28.300  28.148  1.00  0.00     0.074 A 
ATOM     32  C   UNL A   1      40.194  29.055  28.722  1.00  0.00     0.049 A 
ATOM     33  N   UNL A   1      43.202  29.274  28.633  1.00  0.00    -0.248 NA
ATOM     34  C   UNL A   1      43.251  27.263  27.446  1.00  0.00     0.031 C 
ATOM     35  C   UNL A   1      38.736  28.980  28.816  1.00  0.00     0.029 A 
ATOM     36  N   UNL A   1      40.502  30.275  29.271  1.00  0.00    -0.354 N 
ATOM     37  C   UNL A   1      44.519  28.957  28.318  1.00  0.00     0.074 A 
ATOM     38  C   UNL A   1      44.493  27.694  27.614  1.00  0.00     0.031 C 
ATOM     39  C   UNL A   1      38.277  30.100  29.399  1.00  0.00     0.029 A 
ATOM     40  C   UNL A   1      39.409  30.948  29.761  1.00  0.00     0.049 A 
ATOM     41  H   UNL A   1      41.418  30.634  29.309  1.00  0.00     0.167 HD
ATOM     42  C   UNL A   1      45.645  29.659  28.592  1.00  0.00     0.037 A 
ATOM     43  C   UNL A   1      39.332  32.098  30.458  1.00  0.00     0.037 A 
ATOM     44  C   UNL A   1      45.658  30.920  29.286  1.00  0.00     0.049 A 
ATOM     45  C   UNL A   1      40.598  32.844  30.784  1.00  0.00     0.074 A 
ATOM     46  C   UNL A   1      46.743  31.715  29.612  1.00  0.00     0.029 A 
ATOM     47  N   UNL A   1      44.529  31.573  29.762  1.00  0.00    -0.354 N 
ATOM     48  N   UNL A   1      41.838  32.527  30.493  1.00  0.00    -0.248 NA
ATOM     49  C   UNL A   1      40.457  34.097  31.538  1.00  0.00     0.031 C 
ATOM     50  C   UNL A   1      46.273  32.833  30.312  1.00  0.00     0.029 A 
ATOM     51  C   UNL A   1      44.892  32.754  30.387  1.00  0.00     0.049 A 
ATOM     52  H   UNL A   1      43.605  31.244  29.669  1.00  0.00     0.167 HD
ATOM     53  C   UNL A   1      42.623  33.549  31.014  1.00  0.00     0.074 A 
ATOM     54  C   UNL A   1      41.718  34.501  31.627  1.00  0.00     0.031 C 
ATOM     55  C   UNL A   1      43.972  33.689  30.989  1.00  0.00     0.037 A 
BRANCH  42  56
ATOM     56  C   UNL A   1      46.955  29.062  28.162  1.00  0.00     0.058 A 
ATOM     57  C   UNL A   1      47.571  29.430  26.956  1.00  0.00     0.135 A 
ATOM     58  C   UNL A   1      47.610  28.122  28.972  1.00  0.00     0.135 A 
ATOM     59  F   UNL A   1      46.979  30.311  26.135  1.00  0.00    -0.206 F 
ATOM     60  C   UNL A   1      48.778  28.864  26.554  1.00  0.00     0.059 A 
ATOM     61  C   UNL A   1      48.828  27.558  28.601  1.00  0.00     0.059 A 
ATOM     62  F   UNL A   1      47.062  27.734  30.135  1.00  0.00    -0.206 F 
ATOM     63  C   UNL A   1      49.395  27.924  27.382  1.00  0.00     0.060 A 
BRANCH  63  64
ATOM     64  S   UNL A   1      50.954  27.188  26.844  1.00  0.00     0.124 S 
ATOM     65  O   UNL A   1      51.543  28.283  26.080  1.00  0.00    -0.237 OA
ATOM     66  O   UNL A   1      51.609  26.876  28.110  1.00  0.00    -0.237 OA
ATOM     67  O   UNL A   1      50.531  26.031  26.060  1.00  0.00    -0.744 OA
ENDBRANCH  63  64
ENDBRANCH  42  56
BRANCH  43  68
ATOM     68  C   UNL A   1      38.009  32.601  30.910  1.00  0.00     0.058 A 
ATOM     69  C   UNL A   1      37.528  32.318  32.196  1.00  0.00     0.135 A 
ATOM     70  C   UNL A   1      37.212  33.400  30.075  1.00  0.00     0.135 A 
ATOM     71  F   UNL A   1      38.250  31.551  33.028  1.00  0.00    -0.206 F 
ATOM     72  C   UNL A   1      36.302  32.803  32.639  1.00  0.00     0.059 A 
ATOM     73  C   UNL A   1      35.993  33.917  30.502  1.00  0.00     0.059 A 
ATOM     74  F   UNL A   1      37.633  33.709  28.838  1.00  0.00    -0.206 F 
ATOM     75  C   UNL A   1      35.543  33.607  31.785  1.00  0.00     0.060 A 
BRANCH  75  76
ATOM     76  S   UNL A   1      33.984  34.288  32.390  1.00  0.00     0.124 S 
ATOM     77  O   UNL A   1      34.444  35.444  33.150  1.00  0.00    -0.237 OA
ATOM     78  O   UNL A   1      33.274  34.582  31.149  1.00  0.00    -0.237 OA
ATOM     79  O   UNL A   1      33.424  33.195  33.178  1.00  0.00    -0.744 OA
ENDBRANCH  75  76
ENDBRANCH  43  68
BRANCH  55  80
ATOM     80  C   UNL A   1      44.547  34.925  31.618  1.00  0.00     0.058 A 
ATOM     81  C   UNL A   1      44.720  36.109  30.886  1.00  0.00     0.135 A 
ATOM     82  C   UNL A   1      44.886  34.937  32.980  1.00  0.00     0.135 A 
ATOM     83  F   UNL A   1      44.418  36.146  29.579  1.00  0.00    -0.206 F 
ATOM     84  C   UNL A   1      45.227  37.261  31.480  1.00  0.00     0.059 A 
ATOM     85  C   UNL A   1      45.374  36.082  33.600  1.00  0.00     0.059 A 
ATOM     86  F   UNL A   1      44.731  33.831  33.725  1.00  0.00    -0.206 F 
ATOM     87  C   UNL A   1      45.551  37.237  32.838  1.00  0.00     0.060 A 
BRANCH  87  88
ATOM     88  S   UNL A   1      46.177  38.746  33.608  1.00  0.00     0.124 S 
ATOM     89  O   UNL A   1      47.531  38.811  33.067  1.00  0.00    -0.237 OA
ATOM     90  O   UNL A   1      45.248  39.759  33.118  1.00  0.00    -0.237 OA
ATOM     91  O   UNL A   1      46.085  38.460  35.037  1.00  0.00    -0.744 OA
ENDBRANCH  87  88
ENDBRANCH  55  80
ENDBRANCH  29  30
ENDBRANCH  22  24
ENDBRANCH  21  22
ENDBRANCH  20  21
ENDBRANCH   1  20
TORSDOF 18
ENDMDL
MODEL 3
REMARK VINA RESULT:      -9.3      6.165     10.887
REMARK SMILES CC[C@H](Nc1cccc(C(F)(F)F)c1)C(=O)OCCOC(=O)c1ccc(-c2c3nc(c(-c4c(F)cc(S(=O)(=O)[O-])cc4F)c4ccc([nH]4)c(-c4c(F)cc(S(=O)(=O)[O-])cc4F)c4nc(c(-c5c(F)cc(S(=O)(=O)[O-])cc5F)c5ccc2[nH]5)C=C4)C=C3)cc1
REMARK SMILES IDX 18 1 17 2 15 3 16 4 3 5 2 6 1 7 4 8 5 10 6 11 14 12 7 13
REMARK SMILES IDX 9 14 8 15 10 16 11 17 12 18 13 19 19 20 20 21 21 22 22 23
REMARK SMILES IDX 23 24 24 25 88 26 25 27 87 28 26 29 27 30 28 31 81 32 29 33
REMARK SMILES IDX 86 34 80 35 82 36 30 37 85 38 79 39 78 40 31 42 65 43 44 44
REMARK SMILES IDX 64 45 45 46 48 47 63 48 83 49 46 50 47 51 62 53 84 54 49 55
REMARK SMILES IDX 32 56 33 57 42 58 34 59 35 60 41 61 43 62 36 63 37 64 38 65
REMARK SMILES IDX 39 66 40 67 66 68 67 69 76 70 68 71 69 72 75 73 77 74 70 75
REMARK SMILES IDX 71 76 72 77 73 78 74 79 50 80 51 81 60 82 52 83 53 84 59 85
REMARK SMILES IDX 61 86 54 87 55 88 56 89 57 90 58 91
REMARK H PARENT 4 9 82 41 48 52
REMARK Flexibility Score: inf
ROOT
ATOM      1  C   UNL A   1      39.334  21.613  26.339  1.00  0.00     0.274 C 
ENDROOT
BRANCH   1   2
ATOM      2  O   UNL A   1      38.436  22.165  25.358  1.00  0.00    -0.461 OA
BRANCH   2   3
ATOM      3  C   UNL A   1      37.443  22.967  25.808  1.00  0.00     0.328 C 
ATOM      4  O   UNL A   1      37.631  24.094  26.261  1.00  0.00    -0.250 OA
BRANCH   3   5
ATOM      5  C   UNL A   1      36.040  22.341  25.745  1.00  0.00     0.189 C 
BRANCH   5   6
ATOM      6  C   UNL A   1      35.049  22.920  26.755  1.00  0.00     0.033 C 
ATOM      7  C   UNL A   1      33.909  23.753  26.200  1.00  0.00     0.007 C 
ENDBRANCH   5   6
BRANCH   5   8
ATOM      8  N   UNL A   1      35.906  20.890  25.501  1.00  0.00    -0.372 N 
ATOM      9  H   UNL A   1      36.697  20.363  25.758  1.00  0.00     0.161 HD
BRANCH   8  10
ATOM     10  C   UNL A   1      34.874  20.141  24.982  1.00  0.00     0.035 A 
ATOM     11  C   UNL A   1      33.744  20.813  24.488  1.00  0.00     0.026 A 
ATOM     12  C   UNL A   1      34.894  18.756  24.830  1.00  0.00     0.038 A 
ATOM     13  C   UNL A   1      32.708  20.137  23.836  1.00  0.00     0.003 A 
ATOM     14  C   UNL A   1      33.889  18.058  24.135  1.00  0.00     0.058 A 
ATOM     15  C   UNL A   1      32.787  18.763  23.643  1.00  0.00     0.013 A 
BRANCH  14  16
ATOM     16  C   UNL A   1      34.027  16.583  23.863  1.00  0.00     0.416 C 
ATOM     17  F   UNL A   1      32.914  15.874  24.206  1.00  0.00    -0.166 F 
ATOM     18  F   UNL A   1      34.246  16.314  22.544  1.00  0.00    -0.166 F 
ATOM     19  F   UNL A   1      35.059  15.991  24.529  1.00  0.00    -0.166 F 
ENDBRANCH  14  16
ENDBRANCH   8  10
ENDBRANCH   5   8
ENDBRANCH   3   5
ENDBRANCH   2   3
ENDBRANCH   1   2
BRANCH   1  20
ATOM     20  C   UNL A   1      40.718  22.238  26.176  1.00  0.00     0.275 C 
BRANCH  20  21
ATOM     21  O   UNL A   1      40.818  23.371  27.055  1.00  0.00    -0.458 OA
BRANCH  21  22
ATOM     22  C   UNL A   1      41.502  24.436  26.583  1.00  0.00     0.338 C 
ATOM     23  O   UNL A   1      42.176  24.511  25.572  1.00  0.00    -0.246 OA
BRANCH  22  24
ATOM     24  C   UNL A   1      41.356  25.530  27.554  1.00  0.00     0.060 A 
ATOM     25  C   UNL A   1      42.321  26.537  27.630  1.00  0.00     0.016 A 
ATOM     26  C   UNL A   1      40.262  25.522  28.418  1.00  0.00     0.016 A 
ATOM     27  C   UNL A   1      42.200  27.542  28.592  1.00  0.00     0.010 A 
ATOM     28  C   UNL A   1      40.126  26.543  29.358  1.00  0.00     0.010 A 
ATOM     29  C   UNL A   1      41.102  27.551  29.464  1.00  0.00    -0.014 A 
BRANCH  29  30
ATOM     30  C   UNL A   1      40.978  28.579  30.524  1.00  0.00     0.031 A 
ATOM     31  C   UNL A   1      41.864  28.502  31.736  1.00  0.00     0.074 A 
ATOM     32  C   UNL A   1      40.052  29.550  30.419  1.00  0.00     0.049 A 
ATOM     33  N   UNL A   1      41.814  29.195  32.843  1.00  0.00    -0.248 NA
ATOM     34  C   UNL A   1      42.944  27.503  31.697  1.00  0.00     0.031 C 
ATOM     35  C   UNL A   1      39.154  29.741  29.280  1.00  0.00     0.029 A 
ATOM     36  N   UNL A   1      39.698  30.546  31.295  1.00  0.00    -0.354 N 
ATOM     37  C   UNL A   1      42.838  28.702  33.644  1.00  0.00     0.074 A 
ATOM     38  C   UNL A   1      43.482  27.641  32.901  1.00  0.00     0.031 C 
ATOM     39  C   UNL A   1      38.345  30.783  29.531  1.00  0.00     0.029 A 
ATOM     40  C   UNL A   1      38.633  31.301  30.864  1.00  0.00     0.049 A 
ATOM     41  H   UNL A   1      40.162  30.704  32.148  1.00  0.00     0.167 HD
ATOM     42  C   UNL A   1      43.205  29.100  34.886  1.00  0.00     0.037 A 
ATOM     43  C   UNL A   1      37.944  32.275  31.491  1.00  0.00     0.037 A 
ATOM     44  C   UNL A   1      42.561  30.162  35.614  1.00  0.00     0.049 A 
ATOM     45  C   UNL A   1      38.345  32.676  32.884  1.00  0.00     0.074 A 
ATOM     46  C   UNL A   1      42.857  30.647  36.876  1.00  0.00     0.029 A 
ATOM     47  N   UNL A   1      41.489  30.908  35.141  1.00  0.00    -0.354 N 
ATOM     48  N   UNL A   1      39.306  32.193  33.637  1.00  0.00    -0.248 NA
ATOM     49  C   UNL A   1      37.566  33.749  33.518  1.00  0.00     0.031 C 
ATOM     50  C   UNL A   1      41.945  31.664  37.180  1.00  0.00     0.029 A 
ATOM     51  C   UNL A   1      41.106  31.841  36.091  1.00  0.00     0.049 A 
ATOM     52  H   UNL A   1      41.065  30.791  34.261  1.00  0.00     0.167 HD
ATOM     53  C   UNL A   1      39.257  32.912  34.825  1.00  0.00     0.074 A 
ATOM     54  C   UNL A   1      38.180  33.873  34.688  1.00  0.00     0.031 C 
ATOM     55  C   UNL A   1      40.032  32.790  35.931  1.00  0.00     0.037 A 
BRANCH  42  56
ATOM     56  C   UNL A   1      44.337  28.363  35.542  1.00  0.00     0.058 A 
ATOM     57  C   UNL A   1      44.111  27.273  36.398  1.00  0.00     0.135 A 
ATOM     58  C   UNL A   1      45.668  28.740  35.302  1.00  0.00     0.135 A 
ATOM     59  F   UNL A   1      42.857  26.882  36.677  1.00  0.00    -0.206 F 
ATOM     60  C   UNL A   1      45.162  26.603  37.015  1.00  0.00     0.059 A 
ATOM     61  C   UNL A   1      46.737  28.070  35.891  1.00  0.00     0.059 A 
ATOM     62  F   UNL A   1      45.940  29.777  34.493  1.00  0.00    -0.206 F 
ATOM     63  C   UNL A   1      46.472  27.013  36.759  1.00  0.00     0.060 A 
BRANCH  63  64
ATOM     64  S   UNL A   1      47.827  26.142  37.575  1.00  0.00     0.124 S 
ATOM     65  O   UNL A   1      48.710  25.858  36.448  1.00  0.00    -0.237 OA
ATOM     66  O   UNL A   1      48.314  27.136  38.526  1.00  0.00    -0.237 OA
ATOM     67  O   UNL A   1      47.174  24.979  38.170  1.00  0.00    -0.744 OA
ENDBRANCH  63  64
ENDBRANCH  42  56
BRANCH  43  68
ATOM     68  C   UNL A   1      36.791  32.919  30.810  1.00  0.00     0.058 A 
ATOM     69  C   UNL A   1      35.473  32.626  31.184  1.00  0.00     0.135 A 
ATOM     70  C   UNL A   1      36.987  33.865  29.790  1.00  0.00     0.135 A 
ATOM     71  F   UNL A   1      35.235  31.721  32.146  1.00  0.00    -0.206 F 
ATOM     72  C   UNL A   1      34.387  33.241  30.569  1.00  0.00     0.059 A 
ATOM     73  C   UNL A   1      35.919  34.511  29.177  1.00  0.00     0.059 A 
ATOM     74  F   UNL A   1      38.231  34.189  29.404  1.00  0.00    -0.206 F 
ATOM     75  C   UNL A   1      34.621  34.186  29.569  1.00  0.00     0.060 A 
BRANCH  75  76
ATOM     76  S   UNL A   1      33.209  35.030  28.822  1.00  0.00     0.124 S 
ATOM     77  O   UNL A   1      32.335  35.215  29.974  1.00  0.00    -0.237 OA
ATOM     78  O   UNL A   1      33.823  36.241  28.284  1.00  0.00    -0.237 OA
ATOM     79  O   UNL A   1      32.742  34.077  27.820  1.00  0.00    -0.744 OA
ENDBRANCH  75  76
ENDBRANCH  43  68
BRANCH  55  80
ATOM     80  C   UNL A   1      39.762  33.734  37.068  1.00  0.00     0.058 A 
ATOM     81  C   UNL A   1      38.909  33.384  38.125  1.00  0.00     0.135 A 
ATOM     82  C   UNL A   1      40.400  34.983  37.121  1.00  0.00     0.135 A 
ATOM     83  F   UNL A   1      38.270  32.204  38.116  1.00  0.00    -0.206 F 
ATOM     84  C   UNL A   1      38.683  34.251  39.191  1.00  0.00     0.059 A 
ATOM     85  C   UNL A   1      40.207  35.855  38.186  1.00  0.00     0.059 A 
ATOM     86  F   UNL A   1      41.232  35.359  36.137  1.00  0.00    -0.206 F 
ATOM     87  C   UNL A   1      39.336  35.484  39.212  1.00  0.00     0.060 A 
BRANCH  87  88
ATOM     88  S   UNL A   1      39.064  36.588  40.615  1.00  0.00     0.124 S 
ATOM     89  O   UNL A   1      38.640  37.814  39.944  1.00  0.00    -0.237 OA
ATOM     90  O   UNL A   1      38.029  35.889  41.370  1.00  0.00    -0.237 OA
ATOM     91  O   UNL A   1      40.372  36.645  41.260  1.00  0.00    -0.744 OA
ENDBRANCH  87  88
ENDBRANCH  55  80
ENDBRANCH  29  30
ENDBRANCH  22  24
ENDBRANCH  21  22
ENDBRANCH  20  21
ENDBRANCH   1  20
TORSDOF 18
ENDMDL
