MODEL 1
REMARK VINA RESULT:     -13.7      0.000      0.000
REMARK SMILES CCc1cccc(C)c1Nc1ccccc1CC(=O)OCCOC(=O)c1ccc(-c2c3nc(c(-c4c(F)cc(S(=O)(=O)[O-])cc4F)c4ccc([nH]4)c(-c4c(F)cc(S(=O)(=O)[O-])cc4F)c4nc(c(-c5c(F)cc(S(=O)(=O)[O-])cc5F)c5ccc2[nH]5)C=C4)C=C3)cc1
REMARK SMILES IDX 21 1 20 2 18 3 19 4 17 5 16 6 11 7 12 8 13 9 15 10 14 11
REMARK SMILES IDX 10 12 9 14 3 15 4 16 5 17 7 18 6 19 8 20 2 21 1 22 22 23
REMARK SMILES IDX 23 24 24 25 25 26 26 27 27 28 91 29 28 30 90 31 29 32 30 33
REMARK SMILES IDX 31 34 84 35 32 36 89 37 83 38 85 39 33 40 88 41 82 42 81 43
REMARK SMILES IDX 34 45 68 46 47 47 67 48 48 49 51 50 66 51 86 52 49 53 50 54
REMARK SMILES IDX 65 56 87 57 52 58 35 59 36 60 45 61 37 62 38 63 44 64 46 65
REMARK SMILES IDX 39 66 40 67 41 68 42 69 43 70 69 71 70 72 79 73 71 74 72 75
REMARK SMILES IDX 78 76 80 77 73 78 74 79 75 80 76 81 77 82 53 83 54 84 63 85
REMARK SMILES IDX 55 86 56 87 62 88 64 89 57 90 58 91 59 92 60 93 61 94
REMARK H PARENT 10 13 85 44 51 55
REMARK Flexibility Score: inf
ROOT
ATOM      1  C   UNL A   1      35.019  29.579  27.249  1.00  0.00     0.274 C 
ENDROOT
BRANCH   1   2
ATOM      2  O   UNL A   1      33.754  30.341  26.971  1.00  0.00    -0.462 OA
BRANCH   2   3
ATOM      3  C   UNL A   1      32.668  29.587  26.726  1.00  0.00     0.310 C 
ATOM      4  O   UNL A   1      32.401  28.833  27.655  1.00  0.00    -0.252 OA
BRANCH   3   5
ATOM      5  C   UNL A   1      31.768  29.706  25.377  1.00  0.00     0.160 C 
BRANCH   5   6
ATOM      6  C   UNL A   1      30.967  28.641  24.567  1.00  0.00    -0.013 A 
ATOM      7  C   UNL A   1      30.767  27.185  24.646  1.00  0.00     0.042 A 
ATOM      8  C   UNL A   1      29.571  26.741  24.028  1.00  0.00     0.026 A 
ATOM      9  C   UNL A   1      28.744  27.572  23.266  1.00  0.00     0.002 A 
ATOM     10  C   UNL A   1      30.274  29.357  23.555  1.00  0.00     0.006 A 
ATOM     11  C   UNL A   1      29.150  28.848  22.944  1.00  0.00     0.000 A 
BRANCH   7  12
ATOM     12  N   UNL A   1      31.369  26.087  25.424  1.00  0.00    -0.355 N 
ATOM     13  H   UNL A   1      31.233  26.152  26.396  1.00  0.00     0.167 HD
BRANCH  12  14
ATOM     14  C   UNL A   1      32.153  24.893  24.984  1.00  0.00     0.045 A 
ATOM     15  C   UNL A   1      33.410  24.684  23.509  1.00  0.00    -0.024 A 
ATOM     16  C   UNL A   1      34.798  23.324  23.176  1.00  0.00     0.006 A 
ATOM     17  C   UNL A   1      34.937  22.283  24.931  1.00  0.00     0.001 A 
ATOM     18  C   UNL A   1      32.404  23.940  26.647  1.00  0.00    -0.027 A 
ATOM     19  C   UNL A   1      34.029  22.747  26.603  1.00  0.00     0.005 A 
ATOM     20  C   UNL A   1      30.605  23.548  26.530  1.00  0.00     0.046 C 
BRANCH  15  21
ATOM     21  C   UNL A   1      33.503  25.741  22.414  1.00  0.00     0.034 C 
ATOM     22  C   UNL A   1      32.318  25.902  21.491  1.00  0.00     0.009 C 
ENDBRANCH  15  21
ENDBRANCH  12  14
ENDBRANCH   7  12
ENDBRANCH   5   6
ENDBRANCH   3   5
ENDBRANCH   2   3
ENDBRANCH   1   2
BRANCH   1  23
ATOM     23  C   UNL A   1      36.461  30.459  28.037  1.00  0.00     0.275 C 
BRANCH  23  24
ATOM     24  O   UNL A   1      38.400  29.986  27.628  1.00  0.00    -0.458 OA
BRANCH  24  25
ATOM     25  C   UNL A   1      39.833  29.170  28.506  1.00  0.00     0.338 C 
ATOM     26  O   UNL A   1      40.902  28.901  27.888  1.00  0.00    -0.246 OA
BRANCH  25  27
ATOM     27  C   UNL A   1      39.960  28.548  29.898  1.00  0.00     0.060 A 
ATOM     28  C   UNL A   1      39.302  27.412  30.379  1.00  0.00     0.016 A 
ATOM     29  C   UNL A   1      40.539  29.198  30.906  1.00  0.00     0.016 A 
ATOM     30  C   UNL A   1      39.059  27.389  31.820  1.00  0.00     0.010 A 
ATOM     31  C   UNL A   1      40.864  28.414  31.959  1.00  0.00     0.010 A 
ATOM     32  C   UNL A   1      39.767  28.248  32.663  1.00  0.00    -0.014 A 
BRANCH  32  33
ATOM     33  C   UNL A   1      39.807  29.605  33.491  1.00  0.00     0.031 A 
ATOM     34  C   UNL A   1      38.629  30.438  32.874  1.00  0.00     0.074 A 
ATOM     35  C   UNL A   1      40.450  29.854  34.709  1.00  0.00     0.049 A 
ATOM     36  N   UNL A   1      38.616  30.831  31.614  1.00  0.00    -0.248 NA
ATOM     37  C   UNL A   1      37.182  30.413  33.343  1.00  0.00     0.031 C 
ATOM     38  C   UNL A   1      40.912  31.102  35.376  1.00  0.00     0.029 A 
ATOM     39  N   UNL A   1      41.212  28.960  35.480  1.00  0.00    -0.354 N 
ATOM     40  C   UNL A   1      37.471  31.624  31.530  1.00  0.00     0.074 A 
ATOM     41  C   UNL A   1      36.522  30.881  32.278  1.00  0.00     0.031 C 
ATOM     42  C   UNL A   1      42.179  30.903  35.853  1.00  0.00     0.029 A 
ATOM     43  C   UNL A   1      42.484  29.478  35.793  1.00  0.00     0.049 A 
ATOM     44  H   UNL A   1      40.894  28.074  35.767  1.00  0.00     0.167 HD
ATOM     45  C   UNL A   1      37.568  32.977  31.768  1.00  0.00     0.037 A 
ATOM     46  C   UNL A   1      43.568  28.840  35.261  1.00  0.00     0.037 A 
ATOM     47  C   UNL A   1      38.926  33.287  32.264  1.00  0.00     0.049 A 
ATOM     48  C   UNL A   1      43.665  29.556  33.849  1.00  0.00     0.074 A 
ATOM     49  C   UNL A   1      39.449  33.730  33.464  1.00  0.00     0.029 A 
ATOM     50  N   UNL A   1      40.011  32.743  31.578  1.00  0.00    -0.354 N 
ATOM     51  N   UNL A   1      42.673  30.205  33.261  1.00  0.00    -0.248 NA
ATOM     52  C   UNL A   1      44.940  29.903  33.223  1.00  0.00     0.031 C 
ATOM     53  C   UNL A   1      40.858  33.425  33.459  1.00  0.00     0.029 A 
ATOM     54  C   UNL A   1      41.170  32.676  32.329  1.00  0.00     0.049 A 
ATOM     55  H   UNL A   1      39.956  32.435  30.644  1.00  0.00     0.167 HD
ATOM     56  C   UNL A   1      43.131  31.137  32.362  1.00  0.00     0.074 A 
ATOM     57  C   UNL A   1      44.569  30.890  32.383  1.00  0.00     0.031 C 
ATOM     58  C   UNL A   1      42.390  32.114  31.712  1.00  0.00     0.037 A 
BRANCH  45  59
ATOM     59  C   UNL A   1      36.363  33.924  31.846  1.00  0.00     0.058 A 
ATOM     60  C   UNL A   1      35.523  34.024  30.720  1.00  0.00     0.135 A 
ATOM     61  C   UNL A   1      35.906  34.666  32.973  1.00  0.00     0.135 A 
ATOM     62  F   UNL A   1      35.802  33.355  29.594  1.00  0.00    -0.206 F 
ATOM     63  C   UNL A   1      34.341  34.769  30.705  1.00  0.00     0.059 A 
ATOM     64  C   UNL A   1      34.730  35.437  32.974  1.00  0.00     0.059 A 
ATOM     65  F   UNL A   1      36.550  34.659  34.148  1.00  0.00    -0.206 F 
ATOM     66  C   UNL A   1      33.942  35.467  31.836  1.00  0.00     0.060 A 
BRANCH  66  67
ATOM     67  S   UNL A   1      32.364  36.344  31.792  1.00  0.00     0.124 S 
ATOM     68  O   UNL A   1      32.118  36.450  30.357  1.00  0.00    -0.237 OA
ATOM     69  O   UNL A   1      31.489  35.431  32.519  1.00  0.00    -0.237 OA
ATOM     70  O   UNL A   1      32.650  37.605  32.470  1.00  0.00    -0.744 OA
ENDBRANCH  66  67
ENDBRANCH  45  59
BRANCH  46  71
ATOM     71  C   UNL A   1      43.522  27.325  35.690  1.00  0.00     0.058 A 
ATOM     72  C   UNL A   1      43.555  26.229  34.825  1.00  0.00     0.135 A 
ATOM     73  C   UNL A   1      44.182  26.922  36.795  1.00  0.00     0.135 A 
ATOM     74  F   UNL A   1      42.967  26.312  33.620  1.00  0.00    -0.206 F 
ATOM     75  C   UNL A   1      44.432  25.025  35.075  1.00  0.00     0.059 A 
ATOM     76  C   UNL A   1      45.425  26.163  36.533  1.00  0.00     0.059 A 
ATOM     77  F   UNL A   1      44.141  27.786  37.810  1.00  0.00    -0.206 F 
ATOM     78  C   UNL A   1      45.727  24.812  36.150  1.00  0.00     0.060 A 
BRANCH  78  79
ATOM     79  S   UNL A   1      47.667  23.147  35.276  1.00  0.00     0.124 S 
ATOM     80  O   UNL A   1      48.429  23.788  34.100  1.00  0.00    -0.237 OA
ATOM     81  O   UNL A   1      48.786  22.982  36.264  1.00  0.00    -0.237 OA
ATOM     82  O   UNL A   1      47.277  21.897  34.568  1.00  0.00    -0.744 OA
ENDBRANCH  78  79
ENDBRANCH  46  71
BRANCH  58  83
ATOM     83  C   UNL A   1      42.820  32.714  30.364  1.00  0.00     0.058 A 
ATOM     84  C   UNL A   1      43.002  34.091  30.163  1.00  0.00     0.135 A 
ATOM     85  C   UNL A   1      43.196  31.916  29.243  1.00  0.00     0.135 A 
ATOM     86  F   UNL A   1      42.955  34.974  31.167  1.00  0.00    -0.206 F 
ATOM     87  C   UNL A   1      43.313  34.637  28.924  1.00  0.00     0.059 A 
ATOM     88  C   UNL A   1      43.656  32.438  28.039  1.00  0.00     0.059 A 
ATOM     89  F   UNL A   1      43.162  30.577  29.244  1.00  0.00    -0.206 F 
ATOM     90  C   UNL A   1      43.644  33.804  27.869  1.00  0.00     0.060 A 
BRANCH  90  91
ATOM     91  S   UNL A   1      44.094  34.547  26.304  1.00  0.00     0.124 S 
ATOM     92  O   UNL A   1      44.378  33.365  25.498  1.00  0.00    -0.237 OA
ATOM     93  O   UNL A   1      42.878  35.276  25.954  1.00  0.00    -0.237 OA
ATOM     94  O   UNL A   1      45.246  35.378  26.636  1.00  0.00    -0.744 OA
ENDBRANCH  90  91
ENDBRANCH  58  83
ENDBRANCH  32  33
ENDBRANCH  25  27
ENDBRANCH  24  25
ENDBRANCH  23  24
ENDBRANCH   1  23
TORSDOF 18
ENDMDL
MODEL 2
REMARK VINA RESULT:     -13.4      5.159     11.052
REMARK SMILES CCc1cccc(C)c1Nc1ccccc1CC(=O)OCCOC(=O)c1ccc(-c2c3nc(c(-c4c(F)cc(S(=O)(=O)[O-])cc4F)c4ccc([nH]4)c(-c4c(F)cc(S(=O)(=O)[O-])cc4F)c4nc(c(-c5c(F)cc(S(=O)(=O)[O-])cc5F)c5ccc2[nH]5)C=C4)C=C3)cc1
REMARK SMILES IDX 21 1 20 2 18 3 19 4 17 5 16 6 11 7 12 8 13 9 15 10 14 11
REMARK SMILES IDX 10 12 9 14 3 15 4 16 5 17 7 18 6 19 8 20 2 21 1 22 22 23
REMARK SMILES IDX 23 24 24 25 25 26 26 27 27 28 91 29 28 30 90 31 29 32 30 33
REMARK SMILES IDX 31 34 84 35 32 36 89 37 83 38 85 39 33 40 88 41 82 42 81 43
REMARK SMILES IDX 34 45 68 46 47 47 67 48 48 49 51 50 66 51 86 52 49 53 50 54
REMARK SMILES IDX 65 56 87 57 52 58 35 59 36 60 45 61 37 62 38 63 44 64 46 65
REMARK SMILES IDX 39 66 40 67 41 68 42 69 43 70 69 71 70 72 79 73 71 74 72 75
REMARK SMILES IDX 78 76 80 77 73 78 74 79 75 80 76 81 77 82 53 83 54 84 63 85
REMARK SMILES IDX 55 86 56 87 62 88 64 89 57 90 58 91 59 92 60 93 61 94
REMARK H PARENT 10 13 85 44 51 55
REMARK Flexibility Score: inf
ROOT
ATOM      1  C   UNL A   1      38.784  23.125  26.337  1.00  0.00     0.274 C 
ENDROOT
BRANCH   1   2
ATOM      2  O   UNL A   1      37.405  23.688  26.136  1.00  0.00    -0.462 OA
BRANCH   2   3
ATOM      3  C   UNL A   1      36.511  22.844  25.591  1.00  0.00     0.310 C 
ATOM      4  O   UNL A   1      36.822  21.668  25.745  1.00  0.00    -0.252 OA
BRANCH   3   5
ATOM      5  C   UNL A   1      35.137  23.324  24.866  1.00  0.00     0.160 C 
BRANCH   5   6
ATOM      6  C   UNL A   1      33.874  22.532  24.411  1.00  0.00    -0.013 A 
ATOM      7  C   UNL A   1      32.803  22.729  23.420  1.00  0.00     0.042 A 
ATOM      8  C   UNL A   1      32.178  21.524  23.012  1.00  0.00     0.026 A 
ATOM      9  C   UNL A   1      32.425  20.286  23.612  1.00  0.00     0.002 A 
ATOM     10  C   UNL A   1      33.866  21.334  25.175  1.00  0.00     0.006 A 
ATOM     11  C   UNL A   1      33.187  20.211  24.758  1.00  0.00     0.000 A 
BRANCH   7  12
ATOM     12  N   UNL A   1      32.376  23.837  22.548  1.00  0.00    -0.355 N 
ATOM     13  H   UNL A   1      32.295  23.602  21.596  1.00  0.00     0.167 HD
BRANCH  12  14
ATOM     14  C   UNL A   1      32.048  25.261  22.867  1.00  0.00     0.045 A 
ATOM     15  C   UNL A   1      31.259  26.043  24.467  1.00  0.00    -0.024 A 
ATOM     16  C   UNL A   1      31.244  27.902  25.125  1.00  0.00     0.006 A 
ATOM     17  C   UNL A   1      32.583  28.886  23.933  1.00  0.00     0.001 A 
ATOM     18  C   UNL A   1      33.376  26.220  21.842  1.00  0.00    -0.027 A 
ATOM     19  C   UNL A   1      33.756  28.046  22.608  1.00  0.00     0.005 A 
ATOM     20  C   UNL A   1      32.405  25.701  20.362  1.00  0.00     0.046 C 
BRANCH  15  21
ATOM     21  C   UNL A   1      30.597  25.159  25.518  1.00  0.00     0.034 C 
ATOM     22  C   UNL A   1      31.495  24.429  26.489  1.00  0.00     0.009 C 
ENDBRANCH  15  21
ENDBRANCH  12  14
ENDBRANCH   7  12
ENDBRANCH   5   6
ENDBRANCH   3   5
ENDBRANCH   2   3
ENDBRANCH   1   2
BRANCH   1  23
ATOM     23  C   UNL A   1      39.960  23.981  27.503  1.00  0.00     0.275 C 
BRANCH  23  24
ATOM     24  O   UNL A   1      39.401  25.545  28.683  1.00  0.00    -0.458 OA
BRANCH  24  25
ATOM     25  C   UNL A   1      40.009  27.270  29.061  1.00  0.00     0.338 C 
ATOM     26  O   UNL A   1      39.654  27.865  30.119  1.00  0.00    -0.246 OA
BRANCH  25  27
ATOM     27  C   UNL A   1      40.786  28.288  28.224  1.00  0.00     0.060 A 
ATOM     28  C   UNL A   1      40.365  28.911  27.046  1.00  0.00     0.016 A 
ATOM     29  C   UNL A   1      42.090  28.496  28.406  1.00  0.00     0.016 A 
ATOM     30  C   UNL A   1      41.429  29.291  26.118  1.00  0.00     0.010 A 
ATOM     31  C   UNL A   1      42.557  29.629  27.834  1.00  0.00     0.010 A 
ATOM     32  C   UNL A   1      42.751  29.361  26.562  1.00  0.00    -0.014 A 
BRANCH  32  33
ATOM     33  C   UNL A   1      44.180  28.673  26.677  1.00  0.00     0.031 A 
ATOM     34  C   UNL A   1      43.874  27.159  26.402  1.00  0.00     0.074 A 
ATOM     35  C   UNL A   1      45.439  29.285  26.640  1.00  0.00     0.049 A 
ATOM     36  N   UNL A   1      43.102  26.431  27.188  1.00  0.00    -0.248 NA
ATOM     37  C   UNL A   1      43.869  26.488  25.037  1.00  0.00     0.031 C 
ATOM     38  C   UNL A   1      46.783  28.870  27.123  1.00  0.00     0.029 A 
ATOM     39  N   UNL A   1      45.727  30.652  26.493  1.00  0.00    -0.354 N 
ATOM     40  C   UNL A   1      43.201  25.148  26.648  1.00  0.00     0.074 A 
ATOM     41  C   UNL A   1      43.133  25.393  25.253  1.00  0.00     0.031 C 
ATOM     42  C   UNL A   1      47.361  29.923  27.778  1.00  0.00     0.029 A 
ATOM     43  C   UNL A   1      46.582  31.127  27.507  1.00  0.00     0.049 A 
ATOM     44  H   UNL A   1      45.373  31.214  25.767  1.00  0.00     0.167 HD
ATOM     45  C   UNL A   1      44.178  24.295  27.110  1.00  0.00     0.037 A 
ATOM     46  C   UNL A   1      46.072  32.049  28.375  1.00  0.00     0.037 A 
ATOM     47  C   UNL A   1      45.081  25.036  28.018  1.00  0.00     0.049 A 
ATOM     48  C   UNL A   1      45.392  31.098  29.446  1.00  0.00     0.074 A 
ATOM     49  C   UNL A   1      46.404  25.429  27.970  1.00  0.00     0.029 A 
ATOM     50  N   UNL A   1      44.503  25.837  29.001  1.00  0.00    -0.354 N 
ATOM     51  N   UNL A   1      45.050  29.838  29.229  1.00  0.00    -0.248 NA
ATOM     52  C   UNL A   1      45.413  31.378  30.881  1.00  0.00     0.031 C 
ATOM     53  C   UNL A   1      46.578  26.478  28.943  1.00  0.00     0.029 A 
ATOM     54  C   UNL A   1      45.343  26.824  29.482  1.00  0.00     0.049 A 
ATOM     55  H   UNL A   1      43.581  25.711  29.324  1.00  0.00     0.167 HD
ATOM     56  C   UNL A   1      44.985  29.116  30.396  1.00  0.00     0.074 A 
ATOM     57  C   UNL A   1      45.219  30.149  31.399  1.00  0.00     0.031 C 
ATOM     58  C   UNL A   1      44.843  27.742  30.528  1.00  0.00     0.037 A 
BRANCH  45  59
ATOM     59  C   UNL A   1      44.475  22.919  26.499  1.00  0.00     0.058 A 
ATOM     60  C   UNL A   1      43.490  21.920  26.603  1.00  0.00     0.135 A 
ATOM     61  C   UNL A   1      45.610  22.532  25.729  1.00  0.00     0.135 A 
ATOM     62  F   UNL A   1      42.349  22.146  27.266  1.00  0.00    -0.206 F 
ATOM     63  C   UNL A   1      43.600  20.664  25.997  1.00  0.00     0.059 A 
ATOM     64  C   UNL A   1      45.750  21.269  25.128  1.00  0.00     0.059 A 
ATOM     65  F   UNL A   1      46.631  23.365  25.484  1.00  0.00    -0.206 F 
ATOM     66  C   UNL A   1      44.726  20.345  25.254  1.00  0.00     0.060 A 
BRANCH  66  67
ATOM     67  S   UNL A   1      44.781  18.743  24.422  1.00  0.00     0.124 S 
ATOM     68  O   UNL A   1      46.048  18.198  24.901  1.00  0.00    -0.237 OA
ATOM     69  O   UNL A   1      43.579  18.094  24.933  1.00  0.00    -0.237 OA
ATOM     70  O   UNL A   1      44.747  19.088  23.004  1.00  0.00    -0.744 OA
ENDBRANCH  66  67
ENDBRANCH  45  59
BRANCH  46  71
ATOM     71  C   UNL A   1      45.541  33.280  27.548  1.00  0.00     0.058 A 
ATOM     72  C   UNL A   1      44.253  33.816  27.617  1.00  0.00     0.135 A 
ATOM     73  C   UNL A   1      46.351  34.335  27.323  1.00  0.00     0.135 A 
ATOM     74  F   UNL A   1      43.203  33.006  27.830  1.00  0.00    -0.206 F 
ATOM     75  C   UNL A   1      43.997  35.302  27.705  1.00  0.00     0.059 A 
ATOM     76  C   UNL A   1      46.040  35.538  28.127  1.00  0.00     0.059 A 
ATOM     77  F   UNL A   1      47.622  34.016  27.083  1.00  0.00    -0.206 F 
ATOM     78  C   UNL A   1      45.056  36.581  28.054  1.00  0.00     0.060 A 
BRANCH  78  79
ATOM     79  S   UNL A   1      43.936  38.656  29.373  1.00  0.00     0.124 S 
ATOM     80  O   UNL A   1      44.854  39.891  29.300  1.00  0.00    -0.237 OA
ATOM     81  O   UNL A   1      42.711  39.192  28.689  1.00  0.00    -0.237 OA
ATOM     82  O   UNL A   1      43.841  38.599  30.857  1.00  0.00    -0.744 OA
ENDBRANCH  78  79
ENDBRANCH  46  71
BRANCH  58  83
ATOM     83  C   UNL A   1      44.230  27.093  31.778  1.00  0.00     0.058 A 
ATOM     84  C   UNL A   1      44.899  26.128  32.546  1.00  0.00     0.135 A 
ATOM     85  C   UNL A   1      42.986  27.510  32.340  1.00  0.00     0.135 A 
ATOM     86  F   UNL A   1      46.179  25.802  32.331  1.00  0.00    -0.206 F 
ATOM     87  C   UNL A   1      44.312  25.486  33.629  1.00  0.00     0.059 A 
ATOM     88  C   UNL A   1      42.449  26.985  33.510  1.00  0.00     0.059 A 
ATOM     89  F   UNL A   1      42.217  28.466  31.803  1.00  0.00    -0.206 F 
ATOM     90  C   UNL A   1      43.089  25.923  34.108  1.00  0.00     0.060 A 
BRANCH  90  91
ATOM     91  S   UNL A   1      42.392  25.107  35.540  1.00  0.00     0.124 S 
ATOM     92  O   UNL A   1      42.273  23.735  35.058  1.00  0.00    -0.237 OA
ATOM     93  O   UNL A   1      43.421  25.337  36.550  1.00  0.00    -0.237 OA
ATOM     94  O   UNL A   1      41.133  25.811  35.759  1.00  0.00    -0.744 OA
ENDBRANCH  90  91
ENDBRANCH  58  83
ENDBRANCH  32  33
ENDBRANCH  25  27
ENDBRANCH  24  25
ENDBRANCH  23  24
ENDBRANCH   1  23
TORSDOF 18
ENDMDL
MODEL 3
REMARK VINA RESULT:     -13.3      5.159     11.872
REMARK SMILES CCc1cccc(C)c1Nc1ccccc1CC(=O)OCCOC(=O)c1ccc(-c2c3nc(c(-c4c(F)cc(S(=O)(=O)[O-])cc4F)c4ccc([nH]4)c(-c4c(F)cc(S(=O)(=O)[O-])cc4F)c4nc(c(-c5c(F)cc(S(=O)(=O)[O-])cc5F)c5ccc2[nH]5)C=C4)C=C3)cc1
REMARK SMILES IDX 21 1 20 2 18 3 19 4 17 5 16 6 11 7 12 8 13 9 15 10 14 11
REMARK SMILES IDX 10 12 9 14 3 15 4 16 5 17 7 18 6 19 8 20 2 21 1 22 22 23
REMARK SMILES IDX 23 24 24 25 25 26 26 27 27 28 91 29 28 30 90 31 29 32 30 33
REMARK SMILES IDX 31 34 84 35 32 36 89 37 83 38 85 39 33 40 88 41 82 42 81 43
REMARK SMILES IDX 34 45 68 46 47 47 67 48 48 49 51 50 66 51 86 52 49 53 50 54
REMARK SMILES IDX 65 56 87 57 52 58 35 59 36 60 45 61 37 62 38 63 44 64 46 65
REMARK SMILES IDX 39 66 40 67 41 68 42 69 43 70 69 71 70 72 79 73 71 74 72 75
REMARK SMILES IDX 78 76 80 77 73 78 74 79 75 80 76 81 77 82 53 83 54 84 63 85
REMARK SMILES IDX 55 86 56 87 62 88 64 89 57 90 58 91 59 92 60 93 61 94
REMARK H PARENT 10 13 85 44 51 55
REMARK Flexibility Score: inf
ROOT
ATOM      1  C   UNL A   1      37.233  29.731  32.307  1.00  0.00     0.274 C 
ENDROOT
BRANCH   1   2
ATOM      2  O   UNL A   1      36.328  29.370  31.163  1.00  0.00    -0.462 OA
BRANCH   2   3
ATOM      3  C   UNL A   1      36.684  29.868  29.966  1.00  0.00     0.310 C 
ATOM      4  O   UNL A   1      35.803  29.738  29.124  1.00  0.00    -0.252 OA
BRANCH   3   5
ATOM      5  C   UNL A   1      38.097  30.620  29.681  1.00  0.00     0.160 C 
BRANCH   5   6
ATOM      6  C   UNL A   1      38.469  32.132  29.597  1.00  0.00    -0.013 A 
ATOM      7  C   UNL A   1      37.737  33.390  29.380  1.00  0.00     0.042 A 
ATOM      8  C   UNL A   1      38.403  34.531  29.892  1.00  0.00     0.026 A 
ATOM      9  C   UNL A   1      39.706  34.500  30.399  1.00  0.00     0.002 A 
ATOM     10  C   UNL A   1      39.868  32.205  29.832  1.00  0.00     0.006 A 
ATOM     11  C   UNL A   1      40.472  33.362  30.271  1.00  0.00     0.000 A 
BRANCH   7  12
ATOM     12  N   UNL A   1      36.362  33.744  28.986  1.00  0.00    -0.355 N 
ATOM     13  H   UNL A   1      36.217  33.804  28.014  1.00  0.00     0.167 HD
BRANCH  12  14
ATOM     14  C   UNL A   1      35.150  34.030  29.814  1.00  0.00     0.045 A 
ATOM     15  C   UNL A   1      34.931  34.081  31.749  1.00  0.00    -0.024 A 
ATOM     16  C   UNL A   1      33.529  34.897  32.871  1.00  0.00     0.006 A 
ATOM     17  C   UNL A   1      32.444  36.057  31.583  1.00  0.00     0.001 A 
ATOM     18  C   UNL A   1      34.151  35.223  28.668  1.00  0.00    -0.027 A 
ATOM     19  C   UNL A   1      32.901  36.412  29.712  1.00  0.00     0.005 A 
ATOM     20  C   UNL A   1      33.827  33.731  27.634  1.00  0.00     0.046 C 
BRANCH  15  21
ATOM     21  C   UNL A   1      36.009  33.515  32.667  1.00  0.00     0.034 C 
ATOM     22  C   UNL A   1      37.101  34.450  33.128  1.00  0.00     0.009 C 
ENDBRANCH  15  21
ENDBRANCH  12  14
ENDBRANCH   7  12
ENDBRANCH   5   6
ENDBRANCH   3   5
ENDBRANCH   2   3
ENDBRANCH   1   2
BRANCH   1  23
ATOM     23  C   UNL A   1      38.710  28.657  32.680  1.00  0.00     0.275 C 
BRANCH  23  24
ATOM     24  O   UNL A   1      39.579  27.452  31.286  1.00  0.00    -0.458 OA
BRANCH  24  25
ATOM     25  C   UNL A   1      39.818  27.442  29.433  1.00  0.00     0.338 C 
ATOM     26  O   UNL A   1      39.498  26.431  28.744  1.00  0.00    -0.246 OA
BRANCH  25  27
ATOM     27  C   UNL A   1      40.531  28.411  28.487  1.00  0.00     0.060 A 
ATOM     28  C   UNL A   1      40.034  28.947  27.296  1.00  0.00     0.016 A 
ATOM     29  C   UNL A   1      41.838  28.649  28.582  1.00  0.00     0.016 A 
ATOM     30  C   UNL A   1      41.039  29.277  26.287  1.00  0.00     0.010 A 
ATOM     31  C   UNL A   1      42.253  29.746  27.910  1.00  0.00     0.010 A 
ATOM     32  C   UNL A   1      42.382  29.396  26.650  1.00  0.00    -0.014 A 
BRANCH  32  33
ATOM     33  C   UNL A   1      43.827  28.738  26.731  1.00  0.00     0.031 A 
ATOM     34  C   UNL A   1      43.543  27.214  26.483  1.00  0.00     0.074 A 
ATOM     35  C   UNL A   1      45.071  29.373  26.650  1.00  0.00     0.049 A 
ATOM     36  N   UNL A   1      42.810  26.482  27.300  1.00  0.00    -0.248 NA
ATOM     37  C   UNL A   1      43.512  26.527  25.126  1.00  0.00     0.031 C 
ATOM     38  C   UNL A   1      46.438  28.991  27.097  1.00  0.00     0.029 A 
ATOM     39  N   UNL A   1      45.328  30.744  26.478  1.00  0.00    -0.354 N 
ATOM     40  C   UNL A   1      42.918  25.194  26.773  1.00  0.00     0.074 A 
ATOM     41  C   UNL A   1      42.804  25.420  25.377  1.00  0.00     0.031 C 
ATOM     42  C   UNL A   1      47.013  30.063  27.723  1.00  0.00     0.029 A 
ATOM     43  C   UNL A   1      46.203  31.248  27.461  1.00  0.00     0.049 A 
ATOM     44  H   UNL A   1      44.942  31.289  25.756  1.00  0.00     0.167 HD
ATOM     45  C   UNL A   1      43.925  24.366  27.216  1.00  0.00     0.037 A 
ATOM     46  C   UNL A   1      45.700  32.171  28.332  1.00  0.00     0.037 A 
ATOM     47  C   UNL A   1      44.839  25.135  28.088  1.00  0.00     0.049 A 
ATOM     48  C   UNL A   1      45.071  31.220  29.434  1.00  0.00     0.074 A 
ATOM     49  C   UNL A   1      46.152  25.553  27.996  1.00  0.00     0.029 A 
ATOM     50  N   UNL A   1      44.274  25.937  29.078  1.00  0.00    -0.354 N 
ATOM     51  N   UNL A   1      44.748  29.951  29.243  1.00  0.00    -0.248 NA
ATOM     52  C   UNL A   1      45.128  31.518  30.865  1.00  0.00     0.031 C 
ATOM     53  C   UNL A   1      46.333  26.618  28.951  1.00  0.00     0.029 A 
ATOM     54  C   UNL A   1      45.108  26.947  29.522  1.00  0.00     0.049 A 
ATOM     55  H   UNL A   1      43.364  25.798  29.429  1.00  0.00     0.167 HD
ATOM     56  C   UNL A   1      44.731  29.242  30.419  1.00  0.00     0.074 A 
ATOM     57  C   UNL A   1      44.974  30.292  31.403  1.00  0.00     0.031 C 
ATOM     58  C   UNL A   1      44.621  27.868  30.571  1.00  0.00     0.037 A 
BRANCH  45  59
ATOM     59  C   UNL A   1      44.232  22.989  26.612  1.00  0.00     0.058 A 
ATOM     60  C   UNL A   1      43.236  21.996  26.683  1.00  0.00     0.135 A 
ATOM     61  C   UNL A   1      45.388  22.594  25.879  1.00  0.00     0.135 A 
ATOM     62  F   UNL A   1      42.076  22.230  27.309  1.00  0.00    -0.206 F 
ATOM     63  C   UNL A   1      43.356  20.741  26.079  1.00  0.00     0.059 A 
ATOM     64  C   UNL A   1      45.538  21.331  25.281  1.00  0.00     0.059 A 
ATOM     65  F   UNL A   1      46.422  23.420  25.669  1.00  0.00    -0.206 F 
ATOM     66  C   UNL A   1      44.504  20.414  25.372  1.00  0.00     0.060 A 
BRANCH  66  67
ATOM     67  S   UNL A   1      44.573  18.813  24.540  1.00  0.00     0.124 S 
ATOM     68  O   UNL A   1      45.850  18.284  25.011  1.00  0.00    -0.237 OA
ATOM     69  O   UNL A   1      43.382  18.149  25.059  1.00  0.00    -0.237 OA
ATOM     70  O   UNL A   1      44.527  19.157  23.122  1.00  0.00    -0.744 OA
ENDBRANCH  66  67
ENDBRANCH  45  59
BRANCH  46  71
ATOM     71  C   UNL A   1      45.120  33.381  27.507  1.00  0.00     0.058 A 
ATOM     72  C   UNL A   1      43.970  34.108  27.821  1.00  0.00     0.135 A 
ATOM     73  C   UNL A   1      45.962  34.275  26.950  1.00  0.00     0.135 A 
ATOM     74  F   UNL A   1      42.925  33.489  28.394  1.00  0.00    -0.206 F 
ATOM     75  C   UNL A   1      43.926  35.617  27.772  1.00  0.00     0.059 A 
ATOM     76  C   UNL A   1      46.021  35.584  27.638  1.00  0.00     0.059 A 
ATOM     77  F   UNL A   1      47.078  33.747  26.447  1.00  0.00    -0.206 F 
ATOM     78  C   UNL A   1      45.185  36.751  27.673  1.00  0.00     0.060 A 
BRANCH  78  79
ATOM     79  S   UNL A   1      44.709  39.089  28.940  1.00  0.00     0.124 S 
ATOM     80  O   UNL A   1      43.405  38.997  29.755  1.00  0.00    -0.237 OA
ATOM     81  O   UNL A   1      45.694  39.370  30.039  1.00  0.00    -0.237 OA
ATOM     82  O   UNL A   1      44.325  40.280  28.133  1.00  0.00    -0.744 OA
ENDBRANCH  78  79
ENDBRANCH  46  71
BRANCH  58  83
ATOM     83  C   UNL A   1      44.057  27.222  31.847  1.00  0.00     0.058 A 
ATOM     84  C   UNL A   1      44.726  26.210  32.552  1.00  0.00     0.135 A 
ATOM     85  C   UNL A   1      42.874  27.686  32.496  1.00  0.00     0.135 A 
ATOM     86  F   UNL A   1      45.972  25.828  32.248  1.00  0.00    -0.206 F 
ATOM     87  C   UNL A   1      44.179  25.574  33.659  1.00  0.00     0.059 A 
ATOM     88  C   UNL A   1      42.387  27.163  33.689  1.00  0.00     0.059 A 
ATOM     89  F   UNL A   1      42.120  28.689  32.027  1.00  0.00    -0.206 F 
ATOM     90  C   UNL A   1      43.012  26.059  34.224  1.00  0.00     0.060 A 
BRANCH  90  91
ATOM     91  S   UNL A   1      42.368  25.248  35.683  1.00  0.00     0.124 S 
ATOM     92  O   UNL A   1      41.104  25.953  35.869  1.00  0.00    -0.237 OA
ATOM     93  O   UNL A   1      42.261  23.862  35.237  1.00  0.00    -0.237 OA
ATOM     94  O   UNL A   1      43.387  25.500  36.696  1.00  0.00    -0.744 OA
ENDBRANCH  90  91
ENDBRANCH  58  83
ENDBRANCH  32  33
ENDBRANCH  25  27
ENDBRANCH  24  25
ENDBRANCH  23  24
ENDBRANCH   1  23
TORSDOF 18
ENDMDL
