MODEL 1
REMARK VINA RESULT:     -10.6      0.000      0.000
REMARK SMILES O=C(OCCOC(=O)c1cn2ccccc2n1)c1ccc(-c2c3nc(c(-c4c(F)cc(S(=O)(=O)[O-])cc4F)c4ccc([nH]4)c(-c4c(F)cc(S(=O)(=O)[O-])cc4F)c4nc(c(-c5c(F)cc(S(=O)(=O)[O-])cc5F)c5ccc2[nH]5)C=C4)C=C3)cc1
REMARK SMILES IDX 3 1 2 2 1 3 18 4 19 5 83 6 20 7 82 8 21 9 22 10 23 11 76 12
REMARK SMILES IDX 24 13 81 14 75 15 77 16 25 17 80 18 74 19 73 20 26 22 60 23
REMARK SMILES IDX 39 24 59 25 40 26 43 27 58 28 78 29 41 30 42 31 57 33 79 34
REMARK SMILES IDX 44 35 27 36 28 37 37 38 29 39 30 40 36 41 38 42 31 43 32 44
REMARK SMILES IDX 33 45 34 46 35 47 61 48 62 49 71 50 63 51 64 52 70 53 72 54
REMARK SMILES IDX 65 55 66 56 67 57 68 58 69 59 45 60 46 61 55 62 47 63 48 64
REMARK SMILES IDX 54 65 56 66 49 67 50 68 51 69 52 70 53 71 4 72 5 73 6 74
REMARK SMILES IDX 7 75 8 76 9 77 10 78 17 79 11 80 16 81 12 82 15 83 13 84
REMARK SMILES IDX 14 85
REMARK H PARENT 77 21 43 32
REMARK Flexibility Score: inf
ROOT
ATOM      1  O   UNL A   1      42.976  24.086  26.332  1.00  0.00    -0.458 OA
ENDROOT
BRANCH   1   2
ATOM      2  C   UNL A   1      42.234  25.212  26.166  1.00  0.00     0.338 C 
ATOM      3  O   UNL A   1      41.982  25.645  25.047  1.00  0.00    -0.246 OA
BRANCH   2   4
ATOM      4  C   UNL A   1      41.965  26.066  27.354  1.00  0.00     0.060 A 
ATOM      5  C   UNL A   1      40.833  25.940  28.167  1.00  0.00     0.016 A 
ATOM      6  C   UNL A   1      42.860  27.114  27.601  1.00  0.00     0.016 A 
ATOM      7  C   UNL A   1      40.643  26.794  29.258  1.00  0.00     0.010 A 
ATOM      8  C   UNL A   1      42.665  27.978  28.684  1.00  0.00     0.010 A 
ATOM      9  C   UNL A   1      41.558  27.816  29.526  1.00  0.00    -0.014 A 
BRANCH   9  10
ATOM     10  C   UNL A   1      41.326  28.765  30.639  1.00  0.00     0.031 A 
ATOM     11  C   UNL A   1      42.030  28.553  31.947  1.00  0.00     0.074 A 
ATOM     12  C   UNL A   1      40.473  29.797  30.486  1.00  0.00     0.049 A 
ATOM     13  N   UNL A   1      41.941  29.250  33.049  1.00  0.00    -0.248 NA
ATOM     14  C   UNL A   1      42.975  27.426  32.017  1.00  0.00     0.031 C 
ATOM     15  C   UNL A   1      39.769  30.136  29.250  1.00  0.00     0.029 A 
ATOM     16  N   UNL A   1      40.019  30.723  31.390  1.00  0.00    -0.354 N 
ATOM     17  C   UNL A   1      42.857  28.683  33.924  1.00  0.00     0.074 A 
ATOM     18  C   UNL A   1      43.440  27.541  33.254  1.00  0.00     0.031 C 
ATOM     19  C   UNL A   1      38.895  31.127  29.499  1.00  0.00     0.029 A 
ATOM     20  C   UNL A   1      38.984  31.491  30.910  1.00  0.00     0.049 A 
ATOM     21  H   UNL A   1      40.396  30.829  32.293  1.00  0.00     0.167 HD
ATOM     22  C   UNL A   1      43.210  29.107  35.161  1.00  0.00     0.037 A 
ATOM     23  C   UNL A   1      38.174  32.357  31.550  1.00  0.00     0.037 A 
ATOM     24  C   UNL A   1      42.611  30.233  35.826  1.00  0.00     0.049 A 
ATOM     25  C   UNL A   1      38.450  32.686  32.991  1.00  0.00     0.074 A 
ATOM     26  C   UNL A   1      42.949  30.798  37.043  1.00  0.00     0.029 A 
ATOM     27  N   UNL A   1      41.526  30.945  35.340  1.00  0.00    -0.354 N 
ATOM     28  N   UNL A   1      39.395  32.217  33.770  1.00  0.00    -0.248 NA
ATOM     29  C   UNL A   1      37.577  33.679  33.631  1.00  0.00     0.031 C 
ATOM     30  C   UNL A   1      42.037  31.825  37.312  1.00  0.00     0.029 A 
ATOM     31  C   UNL A   1      41.151  31.916  36.251  1.00  0.00     0.049 A 
ATOM     32  H   UNL A   1      41.085  30.784  34.474  1.00  0.00     0.167 HD
ATOM     33  C   UNL A   1      39.263  32.896  34.975  1.00  0.00     0.074 A 
ATOM     34  C   UNL A   1      38.133  33.790  34.830  1.00  0.00     0.031 C 
ATOM     35  C   UNL A   1      40.027  32.804  36.090  1.00  0.00     0.037 A 
BRANCH  22  36
ATOM     36  C   UNL A   1      44.312  28.368  35.856  1.00  0.00     0.058 A 
ATOM     37  C   UNL A   1      44.029  27.307  36.731  1.00  0.00     0.135 A 
ATOM     38  C   UNL A   1      45.657  28.688  35.621  1.00  0.00     0.135 A 
ATOM     39  F   UNL A   1      42.757  26.973  37.000  1.00  0.00    -0.206 F 
ATOM     40  C   UNL A   1      45.044  26.596  37.362  1.00  0.00     0.059 A 
ATOM     41  C   UNL A   1      46.690  27.980  36.230  1.00  0.00     0.059 A 
ATOM     42  F   UNL A   1      45.977  29.698  34.799  1.00  0.00    -0.206 F 
ATOM     43  C   UNL A   1      46.372  26.942  37.106  1.00  0.00     0.060 A 
BRANCH  43  44
ATOM     44  S   UNL A   1      47.677  26.000  37.924  1.00  0.00     0.124 S 
ATOM     45  O   UNL A   1      47.541  26.452  39.305  1.00  0.00    -0.237 OA
ATOM     46  O   UNL A   1      47.277  24.621  37.667  1.00  0.00    -0.237 OA
ATOM     47  O   UNL A   1      48.890  26.435  37.238  1.00  0.00    -0.744 OA
ENDBRANCH  43  44
ENDBRANCH  22  36
BRANCH  23  48
ATOM     48  C   UNL A   1      36.992  32.933  30.859  1.00  0.00     0.058 A 
ATOM     49  C   UNL A   1      37.108  34.014  29.975  1.00  0.00     0.135 A 
ATOM     50  C   UNL A   1      35.707  32.430  31.119  1.00  0.00     0.135 A 
ATOM     51  F   UNL A   1      38.315  34.531  29.703  1.00  0.00    -0.206 F 
ATOM     52  C   UNL A   1      35.986  34.598  29.394  1.00  0.00     0.059 A 
ATOM     53  C   UNL A   1      34.573  32.987  30.539  1.00  0.00     0.059 A 
ATOM     54  F   UNL A   1      35.548  31.389  31.950  1.00  0.00    -0.206 F 
ATOM     55  C   UNL A   1      34.723  34.083  29.689  1.00  0.00     0.060 A 
BRANCH  55  56
ATOM     56  S   UNL A   1      33.271  34.848  28.932  1.00  0.00     0.124 S 
ATOM     57  O   UNL A   1      32.426  35.085  30.095  1.00  0.00    -0.237 OA
ATOM     58  O   UNL A   1      33.844  36.034  28.303  1.00  0.00    -0.237 OA
ATOM     59  O   UNL A   1      32.801  33.822  28.005  1.00  0.00    -0.744 OA
ENDBRANCH  55  56
ENDBRANCH  23  48
BRANCH  35  60
ATOM     60  C   UNL A   1      39.698  33.725  37.227  1.00  0.00     0.058 A 
ATOM     61  C   UNL A   1      38.852  33.328  38.270  1.00  0.00     0.135 A 
ATOM     62  C   UNL A   1      40.287  34.998  37.299  1.00  0.00     0.135 A 
ATOM     63  F   UNL A   1      38.255  32.125  38.237  1.00  0.00    -0.206 F 
ATOM     64  C   UNL A   1      38.592  34.166  39.349  1.00  0.00     0.059 A 
ATOM     65  C   UNL A   1      40.058  35.844  38.378  1.00  0.00     0.059 A 
ATOM     66  F   UNL A   1      41.109  35.419  36.324  1.00  0.00    -0.206 F 
ATOM     67  C   UNL A   1      39.203  35.421  39.395  1.00  0.00     0.060 A 
BRANCH  67  68
ATOM     68  S   UNL A   1      38.906  36.482  40.825  1.00  0.00     0.124 S 
ATOM     69  O   UNL A   1      37.895  35.720  41.551  1.00  0.00    -0.237 OA
ATOM     70  O   UNL A   1      40.223  36.545  41.451  1.00  0.00    -0.237 OA
ATOM     71  O   UNL A   1      38.444  37.731  40.227  1.00  0.00    -0.744 OA
ENDBRANCH  67  68
ENDBRANCH  35  60
ENDBRANCH   9  10
ENDBRANCH   2   4
ENDBRANCH   1   2
BRANCH   1  72
ATOM     72  C   UNL A   1      43.311  23.193  25.259  1.00  0.00     0.275 C 
BRANCH  72  73
ATOM     73  C   UNL A   1      43.259  21.714  25.656  1.00  0.00     0.275 C 
BRANCH  73  74
ATOM     74  O   UNL A   1      42.888  21.519  27.026  1.00  0.00    -0.457 OA
BRANCH  74  75
ATOM     75  C   UNL A   1      41.858  20.629  27.217  1.00  0.00     0.358 C 
ATOM     76  O   UNL A   1      41.984  19.530  27.736  1.00  0.00    -0.244 OA
BRANCH  75  77
ATOM     77  C   UNL A   1      40.578  21.190  26.797  1.00  0.00     0.167 A 
ATOM     78  C   UNL A   1      39.666  20.632  25.920  1.00  0.00     0.128 A 
ATOM     79  N   UNL A   1      40.150  22.446  27.196  1.00  0.00    -0.222 NA
ATOM     80  N   UNL A   1      38.702  21.589  25.723  1.00  0.00    -0.306 N 
ATOM     81  C   UNL A   1      39.061  22.686  26.497  1.00  0.00     0.137 A 
ATOM     82  C   UNL A   1      37.589  21.573  24.888  1.00  0.00     0.093 A 
ATOM     83  C   UNL A   1      38.269  23.862  26.365  1.00  0.00     0.048 A 
ATOM     84  C   UNL A   1      36.846  22.685  24.762  1.00  0.00     0.018 A 
ATOM     85  C   UNL A   1      37.219  23.869  25.520  1.00  0.00     0.005 A 
ENDBRANCH  75  77
ENDBRANCH  74  75
ENDBRANCH  73  74
ENDBRANCH  72  73
ENDBRANCH   1  72
TORSDOF 14
ENDMDL
MODEL 2
REMARK VINA RESULT:     -10.6      1.299      2.592
REMARK SMILES O=C(OCCOC(=O)c1cn2ccccc2n1)c1ccc(-c2c3nc(c(-c4c(F)cc(S(=O)(=O)[O-])cc4F)c4ccc([nH]4)c(-c4c(F)cc(S(=O)(=O)[O-])cc4F)c4nc(c(-c5c(F)cc(S(=O)(=O)[O-])cc5F)c5ccc2[nH]5)C=C4)C=C3)cc1
REMARK SMILES IDX 3 1 2 2 1 3 18 4 19 5 83 6 20 7 82 8 21 9 22 10 23 11 76 12
REMARK SMILES IDX 24 13 81 14 75 15 77 16 25 17 80 18 74 19 73 20 26 22 60 23
REMARK SMILES IDX 39 24 59 25 40 26 43 27 58 28 78 29 41 30 42 31 57 33 79 34
REMARK SMILES IDX 44 35 27 36 28 37 37 38 29 39 30 40 36 41 38 42 31 43 32 44
REMARK SMILES IDX 33 45 34 46 35 47 61 48 62 49 71 50 63 51 64 52 70 53 72 54
REMARK SMILES IDX 65 55 66 56 67 57 68 58 69 59 45 60 46 61 55 62 47 63 48 64
REMARK SMILES IDX 54 65 56 66 49 67 50 68 51 69 52 70 53 71 4 72 5 73 6 74
REMARK SMILES IDX 7 75 8 76 9 77 10 78 17 79 11 80 16 81 12 82 15 83 13 84
REMARK SMILES IDX 14 85
REMARK H PARENT 77 21 43 32
REMARK Flexibility Score: inf
ROOT
ATOM      1  O   UNL A   1      41.060  23.453  27.140  1.00  0.00    -0.458 OA
ENDROOT
BRANCH   1   2
ATOM      2  C   UNL A   1      41.602  24.655  26.813  1.00  0.00     0.338 C 
ATOM      3  O   UNL A   1      42.349  24.773  25.849  1.00  0.00    -0.246 OA
BRANCH   2   4
ATOM      4  C   UNL A   1      41.502  25.768  27.796  1.00  0.00     0.060 A 
ATOM      5  C   UNL A   1      42.549  26.646  28.092  1.00  0.00     0.016 A 
ATOM      6  C   UNL A   1      40.311  25.867  28.526  1.00  0.00     0.016 A 
ATOM      7  C   UNL A   1      42.382  27.659  29.042  1.00  0.00     0.010 A 
ATOM      8  C   UNL A   1      40.145  26.871  29.487  1.00  0.00     0.010 A 
ATOM      9  C   UNL A   1      41.179  27.780  29.743  1.00  0.00    -0.014 A 
BRANCH   9  10
ATOM     10  C   UNL A   1      41.020  28.808  30.799  1.00  0.00     0.031 A 
ATOM     11  C   UNL A   1      41.764  28.655  32.092  1.00  0.00     0.074 A 
ATOM     12  C   UNL A   1      40.199  29.858  30.606  1.00  0.00     0.049 A 
ATOM     13  N   UNL A   1      41.740  29.425  33.148  1.00  0.00    -0.248 NA
ATOM     14  C   UNL A   1      42.672  27.502  32.205  1.00  0.00     0.031 C 
ATOM     15  C   UNL A   1      39.461  30.142  29.376  1.00  0.00     0.029 A 
ATOM     16  N   UNL A   1      39.810  30.858  31.462  1.00  0.00    -0.354 N 
ATOM     17  C   UNL A   1      42.667  28.884  34.028  1.00  0.00     0.074 A 
ATOM     18  C   UNL A   1      43.185  27.680  33.415  1.00  0.00     0.031 C 
ATOM     19  C   UNL A   1      38.632  31.178  29.588  1.00  0.00     0.029 A 
ATOM     20  C   UNL A   1      38.785  31.630  30.967  1.00  0.00     0.049 A 
ATOM     21  H   UNL A   1      40.223  31.008  32.342  1.00  0.00     0.167 HD
ATOM     22  C   UNL A   1      43.079  29.374  35.220  1.00  0.00     0.037 A 
ATOM     23  C   UNL A   1      38.029  32.564  31.576  1.00  0.00     0.037 A 
ATOM     24  C   UNL A   1      42.543  30.562  35.830  1.00  0.00     0.049 A 
ATOM     25  C   UNL A   1      38.369  32.977  32.982  1.00  0.00     0.074 A 
ATOM     26  C   UNL A   1      42.945  31.192  36.993  1.00  0.00     0.029 A 
ATOM     27  N   UNL A   1      41.466  31.280  35.335  1.00  0.00    -0.354 N 
ATOM     28  N   UNL A   1      39.324  32.525  33.758  1.00  0.00    -0.248 NA
ATOM     29  C   UNL A   1      37.554  34.040  33.584  1.00  0.00     0.031 C 
ATOM     30  C   UNL A   1      42.080  32.268  37.225  1.00  0.00     0.029 A 
ATOM     31  C   UNL A   1      41.159  32.322  36.192  1.00  0.00     0.049 A 
ATOM     32  H   UNL A   1      40.990  31.079  34.497  1.00  0.00     0.167 HD
ATOM     33  C   UNL A   1      39.260  33.285  34.919  1.00  0.00     0.074 A 
ATOM     34  C   UNL A   1      38.157  34.209  34.753  1.00  0.00     0.031 C 
ATOM     35  C   UNL A   1      40.061  33.238  36.010  1.00  0.00     0.037 A 
BRANCH  22  36
ATOM     36  C   UNL A   1      44.180  28.642  35.925  1.00  0.00     0.058 A 
ATOM     37  C   UNL A   1      43.899  27.555  36.768  1.00  0.00     0.135 A 
ATOM     38  C   UNL A   1      45.522  28.995  35.731  1.00  0.00     0.135 A 
ATOM     39  F   UNL A   1      42.628  27.188  36.998  1.00  0.00    -0.206 F 
ATOM     40  C   UNL A   1      44.913  26.851  37.407  1.00  0.00     0.059 A 
ATOM     41  C   UNL A   1      46.555  28.295  36.348  1.00  0.00     0.059 A 
ATOM     42  F   UNL A   1      45.840  30.031  34.940  1.00  0.00    -0.206 F 
ATOM     43  C   UNL A   1      46.239  27.230  37.192  1.00  0.00     0.060 A 
BRANCH  43  44
ATOM     44  S   UNL A   1      47.544  26.296  38.019  1.00  0.00     0.124 S 
ATOM     45  O   UNL A   1      47.180  24.924  37.681  1.00  0.00    -0.237 OA
ATOM     46  O   UNL A   1      48.751  26.808  37.378  1.00  0.00    -0.237 OA
ATOM     47  O   UNL A   1      47.382  26.660  39.424  1.00  0.00    -0.744 OA
ENDBRANCH  43  44
ENDBRANCH  22  36
BRANCH  23  48
ATOM     48  C   UNL A   1      36.843  33.138  30.889  1.00  0.00     0.058 A 
ATOM     49  C   UNL A   1      36.970  34.081  29.861  1.00  0.00     0.135 A 
ATOM     50  C   UNL A   1      35.548  32.777  31.295  1.00  0.00     0.135 A 
ATOM     51  F   UNL A   1      38.187  34.460  29.445  1.00  0.00    -0.206 F 
ATOM     52  C   UNL A   1      35.853  34.671  29.278  1.00  0.00     0.059 A 
ATOM     53  C   UNL A   1      34.417  33.341  30.718  1.00  0.00     0.059 A 
ATOM     54  F   UNL A   1      35.378  31.870  32.269  1.00  0.00    -0.206 F 
ATOM     55  C   UNL A   1      34.581  34.301  29.720  1.00  0.00     0.060 A 
BRANCH  55  56
ATOM     56  S   UNL A   1      33.135  35.074  28.958  1.00  0.00     0.124 S 
ATOM     57  O   UNL A   1      32.264  35.263  30.111  1.00  0.00    -0.237 OA
ATOM     58  O   UNL A   1      33.706  36.287  28.380  1.00  0.00    -0.237 OA
ATOM     59  O   UNL A   1      32.696  34.073  27.989  1.00  0.00    -0.744 OA
ENDBRANCH  55  56
ENDBRANCH  23  48
BRANCH  35  60
ATOM     60  C   UNL A   1      39.806  34.242  37.094  1.00  0.00     0.058 A 
ATOM     61  C   UNL A   1      39.089  33.907  38.250  1.00  0.00     0.135 A 
ATOM     62  C   UNL A   1      40.337  35.539  36.997  1.00  0.00     0.135 A 
ATOM     63  F   UNL A   1      38.550  32.683  38.381  1.00  0.00    -0.206 F 
ATOM     64  C   UNL A   1      38.901  34.826  39.277  1.00  0.00     0.059 A 
ATOM     65  C   UNL A   1      40.179  36.468  38.019  1.00  0.00     0.059 A 
ATOM     66  F   UNL A   1      41.035  35.903  35.909  1.00  0.00    -0.206 F 
ATOM     67  C   UNL A   1      39.453  36.103  39.153  1.00  0.00     0.060 A 
BRANCH  67  68
ATOM     68  S   UNL A   1      39.252  37.274  40.512  1.00  0.00     0.124 S 
ATOM     69  O   UNL A   1      40.616  37.765  40.680  1.00  0.00    -0.237 OA
ATOM     70  O   UNL A   1      38.297  38.232  39.965  1.00  0.00    -0.237 OA
ATOM     71  O   UNL A   1      38.743  36.444  41.599  1.00  0.00    -0.744 OA
ENDBRANCH  67  68
ENDBRANCH  35  60
ENDBRANCH   9  10
ENDBRANCH   2   4
ENDBRANCH   1   2
BRANCH   1  72
ATOM     72  C   UNL A   1      39.674  23.131  26.943  1.00  0.00     0.275 C 
BRANCH  72  73
ATOM     73  C   UNL A   1      39.450  21.728  26.368  1.00  0.00     0.275 C 
BRANCH  73  74
ATOM     74  O   UNL A   1      40.308  20.743  26.955  1.00  0.00    -0.457 OA
BRANCH  74  75
ATOM     75  C   UNL A   1      40.626  19.695  26.123  1.00  0.00     0.358 C 
ATOM     76  O   UNL A   1      39.816  18.886  25.695  1.00  0.00    -0.244 OA
BRANCH  75  77
ATOM     77  C   UNL A   1      42.036  19.716  25.747  1.00  0.00     0.167 A 
ATOM     78  C   UNL A   1      42.921  18.653  25.758  1.00  0.00     0.128 A 
ATOM     79  N   UNL A   1      42.693  20.882  25.390  1.00  0.00    -0.222 NA
ATOM     80  N   UNL A   1      44.152  19.189  25.475  1.00  0.00    -0.306 N 
ATOM     81  C   UNL A   1      43.964  20.554  25.291  1.00  0.00     0.137 A 
ATOM     82  C   UNL A   1      45.400  18.575  25.421  1.00  0.00     0.093 A 
ATOM     83  C   UNL A   1      45.128  21.351  25.102  1.00  0.00     0.048 A 
ATOM     84  C   UNL A   1      46.497  19.330  25.247  1.00  0.00     0.018 A 
ATOM     85  C   UNL A   1      46.344  20.769  25.100  1.00  0.00     0.005 A 
ENDBRANCH  75  77
ENDBRANCH  74  75
ENDBRANCH  73  74
ENDBRANCH  72  73
ENDBRANCH   1  72
TORSDOF 14
ENDMDL
MODEL 3
REMARK VINA RESULT:     -10.5      6.701     13.768
REMARK SMILES O=C(OCCOC(=O)c1cn2ccccc2n1)c1ccc(-c2c3nc(c(-c4c(F)cc(S(=O)(=O)[O-])cc4F)c4ccc([nH]4)c(-c4c(F)cc(S(=O)(=O)[O-])cc4F)c4nc(c(-c5c(F)cc(S(=O)(=O)[O-])cc5F)c5ccc2[nH]5)C=C4)C=C3)cc1
REMARK SMILES IDX 3 1 2 2 1 3 18 4 19 5 83 6 20 7 82 8 21 9 22 10 23 11 76 12
REMARK SMILES IDX 24 13 81 14 75 15 77 16 25 17 80 18 74 19 73 20 26 22 60 23
REMARK SMILES IDX 39 24 59 25 40 26 43 27 58 28 78 29 41 30 42 31 57 33 79 34
REMARK SMILES IDX 44 35 27 36 28 37 37 38 29 39 30 40 36 41 38 42 31 43 32 44
REMARK SMILES IDX 33 45 34 46 35 47 61 48 62 49 71 50 63 51 64 52 70 53 72 54
REMARK SMILES IDX 65 55 66 56 67 57 68 58 69 59 45 60 46 61 55 62 47 63 48 64
REMARK SMILES IDX 54 65 56 66 49 67 50 68 51 69 52 70 53 71 4 72 5 73 6 74
REMARK SMILES IDX 7 75 8 76 9 77 10 78 17 79 11 80 16 81 12 82 15 83 13 84
REMARK SMILES IDX 14 85
REMARK H PARENT 77 21 43 32
REMARK Flexibility Score: inf
ROOT
ATOM      1  O   UNL A   1      35.493  30.907  29.327  1.00  0.00    -0.458 OA
ENDROOT
BRANCH   1   2
ATOM      2  C   UNL A   1      36.283  30.220  30.192  1.00  0.00     0.338 C 
ATOM      3  O   UNL A   1      35.958  30.069  31.365  1.00  0.00    -0.246 OA
BRANCH   2   4
ATOM      4  C   UNL A   1      37.673  29.891  29.776  1.00  0.00     0.060 A 
ATOM      5  C   UNL A   1      38.056  29.648  28.452  1.00  0.00     0.016 A 
ATOM      6  C   UNL A   1      38.620  29.725  30.794  1.00  0.00     0.016 A 
ATOM      7  C   UNL A   1      39.381  29.326  28.143  1.00  0.00     0.010 A 
ATOM      8  C   UNL A   1      39.943  29.390  30.489  1.00  0.00     0.010 A 
ATOM      9  C   UNL A   1      40.334  29.199  29.158  1.00  0.00    -0.014 A 
BRANCH   9  10
ATOM     10  C   UNL A   1      41.724  28.792  28.842  1.00  0.00     0.031 A 
ATOM     11  C   UNL A   1      42.781  29.845  28.687  1.00  0.00     0.074 A 
ATOM     12  C   UNL A   1      42.030  27.491  28.675  1.00  0.00     0.049 A 
ATOM     13  N   UNL A   1      44.045  29.700  28.385  1.00  0.00    -0.248 NA
ATOM     14  C   UNL A   1      42.372  31.239  28.927  1.00  0.00     0.031 C 
ATOM     15  C   UNL A   1      41.102  26.374  28.848  1.00  0.00     0.029 A 
ATOM     16  N   UNL A   1      43.197  26.891  28.275  1.00  0.00    -0.354 N 
ATOM     17  C   UNL A   1      44.594  30.973  28.452  1.00  0.00     0.074 A 
ATOM     18  C   UNL A   1      43.515  31.888  28.753  1.00  0.00     0.031 C 
ATOM     19  C   UNL A   1      41.703  25.237  28.457  1.00  0.00     0.029 A 
ATOM     20  C   UNL A   1      43.057  25.549  28.011  1.00  0.00     0.049 A 
ATOM     21  H   UNL A   1      44.051  27.373  28.187  1.00  0.00     0.167 HD
ATOM     22  C   UNL A   1      45.891  31.336  28.318  1.00  0.00     0.037 A 
ATOM     23  C   UNL A   1      43.912  24.683  27.434  1.00  0.00     0.037 A 
ATOM     24  C   UNL A   1      46.953  30.420  28.001  1.00  0.00     0.049 A 
ATOM     25  C   UNL A   1      45.307  25.143  27.105  1.00  0.00     0.074 A 
ATOM     26  C   UNL A   1      48.312  30.666  27.923  1.00  0.00     0.029 A 
ATOM     27  N   UNL A   1      46.768  29.085  27.677  1.00  0.00    -0.354 N 
ATOM     28  N   UNL A   1      45.839  26.327  27.281  1.00  0.00    -0.248 NA
ATOM     29  C   UNL A   1      46.222  24.148  26.531  1.00  0.00     0.031 C 
ATOM     30  C   UNL A   1      48.944  29.488  27.508  1.00  0.00     0.029 A 
ATOM     31  C   UNL A   1      47.981  28.504  27.356  1.00  0.00     0.049 A 
ATOM     32  H   UNL A   1      45.901  28.619  27.677  1.00  0.00     0.167 HD
ATOM     33  C   UNL A   1      47.166  26.208  26.889  1.00  0.00     0.074 A 
ATOM     34  C   UNL A   1      47.350  24.841  26.445  1.00  0.00     0.031 C 
ATOM     35  C   UNL A   1      48.149  27.140  26.921  1.00  0.00     0.037 A 
BRANCH  22  36
ATOM     36  C   UNL A   1      46.232  32.777  28.545  1.00  0.00     0.058 A 
ATOM     37  C   UNL A   1      46.344  33.670  27.468  1.00  0.00     0.135 A 
ATOM     38  C   UNL A   1      46.409  33.282  29.841  1.00  0.00     0.135 A 
ATOM     39  F   UNL A   1      46.198  33.231  26.207  1.00  0.00    -0.206 F 
ATOM     40  C   UNL A   1      46.634  35.015  27.666  1.00  0.00     0.059 A 
ATOM     41  C   UNL A   1      46.685  34.629  30.065  1.00  0.00     0.059 A 
ATOM     42  F   UNL A   1      46.319  32.466  30.902  1.00  0.00    -0.206 F 
ATOM     43  C   UNL A   1      46.804  35.485  28.970  1.00  0.00     0.060 A 
BRANCH  43  44
ATOM     44  S   UNL A   1      47.168  37.237  29.211  1.00  0.00     0.124 S 
ATOM     45  O   UNL A   1      45.872  37.745  29.648  1.00  0.00    -0.237 OA
ATOM     46  O   UNL A   1      48.211  37.203  30.230  1.00  0.00    -0.237 OA
ATOM     47  O   UNL A   1      47.602  37.678  27.888  1.00  0.00    -0.744 OA
ENDBRANCH  43  44
ENDBRANCH  22  36
BRANCH  23  48
ATOM     48  C   UNL A   1      43.468  23.312  27.076  1.00  0.00     0.058 A 
ATOM     49  C   UNL A   1      43.255  22.326  28.049  1.00  0.00     0.135 A 
ATOM     50  C   UNL A   1      43.296  22.953  25.729  1.00  0.00     0.135 A 
ATOM     51  F   UNL A   1      43.413  22.622  29.348  1.00  0.00    -0.206 F 
ATOM     52  C   UNL A   1      42.915  21.023  27.699  1.00  0.00     0.059 A 
ATOM     53  C   UNL A   1      42.943  21.662  25.355  1.00  0.00     0.059 A 
ATOM     54  F   UNL A   1      43.479  23.866  24.763  1.00  0.00    -0.206 F 
ATOM     55  C   UNL A   1      42.770  20.699  26.349  1.00  0.00     0.060 A 
BRANCH  55  56
ATOM     56  S   UNL A   1      42.331  19.004  25.902  1.00  0.00     0.124 S 
ATOM     57  O   UNL A   1      40.902  19.129  25.650  1.00  0.00    -0.237 OA
ATOM     58  O   UNL A   1      43.171  18.769  24.732  1.00  0.00    -0.237 OA
ATOM     59  O   UNL A   1      42.700  18.241  27.092  1.00  0.00    -0.744 OA
ENDBRANCH  55  56
ENDBRANCH  23  48
BRANCH  35  60
ATOM     60  C   UNL A   1      49.523  26.705  26.507  1.00  0.00     0.058 A 
ATOM     61  C   UNL A   1      50.413  26.120  27.418  1.00  0.00     0.135 A 
ATOM     62  C   UNL A   1      49.929  26.822  25.168  1.00  0.00     0.135 A 
ATOM     63  F   UNL A   1      50.074  26.000  28.712  1.00  0.00    -0.206 F 
ATOM     64  C   UNL A   1      51.666  25.670  27.017  1.00  0.00     0.059 A 
ATOM     65  C   UNL A   1      51.169  26.361  24.741  1.00  0.00     0.059 A 
ATOM     66  F   UNL A   1      49.107  27.372  24.259  1.00  0.00    -0.206 F 
ATOM     67  C   UNL A   1      52.033  25.792  25.675  1.00  0.00     0.060 A 
BRANCH  67  68
ATOM     68  S   UNL A   1      53.639  25.156  25.150  1.00  0.00     0.124 S 
ATOM     69  O   UNL A   1      53.693  25.607  23.763  1.00  0.00    -0.237 OA
ATOM     70  O   UNL A   1      54.558  25.819  26.069  1.00  0.00    -0.237 OA
ATOM     71  O   UNL A   1      53.508  23.714  25.339  1.00  0.00    -0.744 OA
ENDBRANCH  67  68
ENDBRANCH  35  60
ENDBRANCH   9  10
ENDBRANCH   2   4
ENDBRANCH   1   2
BRANCH   1  72
ATOM     72  C   UNL A   1      35.716  32.280  28.971  1.00  0.00     0.275 C 
BRANCH  72  73
ATOM     73  C   UNL A   1      34.991  32.704  27.690  1.00  0.00     0.275 C 
BRANCH  73  74
ATOM     74  O   UNL A   1      34.572  34.074  27.714  1.00  0.00    -0.457 OA
BRANCH  74  75
ATOM     75  C   UNL A   1      33.303  34.272  28.206  1.00  0.00     0.358 C 
ATOM     76  O   UNL A   1      32.284  33.864  27.667  1.00  0.00    -0.244 OA
BRANCH  75  77
ATOM     77  C   UNL A   1      33.326  34.960  29.492  1.00  0.00     0.167 A 
ATOM     78  C   UNL A   1      33.124  36.308  29.725  1.00  0.00     0.128 A 
ATOM     79  N   UNL A   1      33.644  34.313  30.676  1.00  0.00    -0.222 NA
ATOM     80  N   UNL A   1      33.393  36.503  31.057  1.00  0.00    -0.306 N 
ATOM     81  C   UNL A   1      33.737  35.263  31.582  1.00  0.00     0.137 A 
ATOM     82  C   UNL A   1      33.404  37.678  31.801  1.00  0.00     0.093 A 
ATOM     83  C   UNL A   1      34.178  35.229  32.936  1.00  0.00     0.048 A 
ATOM     84  C   UNL A   1      33.825  37.645  33.076  1.00  0.00     0.018 A 
ATOM     85  C   UNL A   1      34.239  36.373  33.647  1.00  0.00     0.005 A 
ENDBRANCH  75  77
ENDBRANCH  74  75
ENDBRANCH  73  74
ENDBRANCH  72  73
ENDBRANCH   1  72
TORSDOF 14
ENDMDL
