MODEL 1
REMARK VINA RESULT:     -10.1      0.000      0.000
REMARK SMILES O=C(OCCOC(=O)[C@@H]1CCC[N@@H+](Cc2ccc(F)cc2Cl)C1)c1ccc(-c2c3nc(c(-c4c(F)cc(S(=O)(=O)[O-])cc4F)c4ccc([nH]4)c(-c4c(F)cc(S(=O)(=O)[O-])cc4F)c4nc(c(-c5c(F)cc(S(=O)(=O)[O-])cc5F)c5ccc2[nH]5)C=C4)C=C3)cc1
REMARK SMILES IDX 4 1 3 2 2 3 1 4 24 5 25 6 89 7 26 8 88 9 27 10 28 11 29 12
REMARK SMILES IDX 82 13 30 14 87 15 81 16 83 17 31 18 86 19 80 20 79 21 32 23
REMARK SMILES IDX 66 24 45 25 65 26 46 27 49 28 64 29 84 30 47 31 48 32 63 34
REMARK SMILES IDX 85 35 50 36 33 37 34 38 43 39 35 40 36 41 42 42 44 43 37 44
REMARK SMILES IDX 38 45 39 46 40 47 41 48 67 49 68 50 77 51 69 52 70 53 76 54
REMARK SMILES IDX 78 55 71 56 72 57 73 58 74 59 75 60 51 61 52 62 61 63 53 64
REMARK SMILES IDX 54 65 60 66 62 67 55 68 56 69 57 70 58 71 59 72 5 73 6 74
REMARK SMILES IDX 7 75 8 76 9 77 10 78 23 79 11 80 13 81 12 82 14 84 15 85
REMARK SMILES IDX 16 86 21 87 17 88 20 89 22 90 18 91 19 92
REMARK H PARENT 83 22 49 33 13 83
REMARK Flexibility Score: inf
ROOT
ATOM      1  C   UNL A   1      34.652  33.027  28.395  1.00  0.00     0.275 C 
ENDROOT
BRANCH   1   2
ATOM      2  O   UNL A   1      34.405  31.996  27.421  1.00  0.00    -0.458 OA
BRANCH   2   3
ATOM      3  C   UNL A   1      34.780  30.695  27.406  1.00  0.00     0.338 C 
ATOM      4  O   UNL A   1      34.030  29.885  26.861  1.00  0.00    -0.246 OA
BRANCH   3   5
ATOM      5  C   UNL A   1      35.976  30.142  28.137  1.00  0.00     0.060 A 
ATOM      6  C   UNL A   1      35.981  29.557  29.405  1.00  0.00     0.016 A 
ATOM      7  C   UNL A   1      37.204  30.195  27.445  1.00  0.00     0.016 A 
ATOM      8  C   UNL A   1      37.146  28.993  29.949  1.00  0.00     0.010 A 
ATOM      9  C   UNL A   1      38.366  29.621  27.975  1.00  0.00     0.010 A 
ATOM     10  C   UNL A   1      38.347  29.018  29.242  1.00  0.00    -0.014 A 
BRANCH  10  11
ATOM     11  C   UNL A   1      39.620  28.613  29.886  1.00  0.00     0.031 A 
ATOM     12  C   UNL A   1      40.144  29.481  30.990  1.00  0.00     0.074 A 
ATOM     13  C   UNL A   1      40.294  27.495  29.548  1.00  0.00     0.049 A 
ATOM     14  N   UNL A   1      41.268  29.380  31.643  1.00  0.00    -0.248 NA
ATOM     15  C   UNL A   1      39.262  30.563  31.461  1.00  0.00     0.031 C 
ATOM     16  C   UNL A   1      39.812  26.446  28.657  1.00  0.00     0.029 A 
ATOM     17  N   UNL A   1      41.566  27.077  29.871  1.00  0.00    -0.354 N 
ATOM     18  C   UNL A   1      41.191  30.323  32.656  1.00  0.00     0.074 A 
ATOM     19  C   UNL A   1      39.962  31.060  32.470  1.00  0.00     0.031 C 
ATOM     20  C   UNL A   1      40.824  25.605  28.370  1.00  0.00     0.029 A 
ATOM     21  C   UNL A   1      42.019  26.051  29.066  1.00  0.00     0.049 A 
ATOM     22  H   UNL A   1      42.097  27.471  30.601  1.00  0.00     0.167 HD
ATOM     23  C   UNL A   1      42.046  30.506  33.684  1.00  0.00     0.037 A 
ATOM     24  C   UNL A   1      43.270  25.587  28.875  1.00  0.00     0.037 A 
ATOM     25  C   UNL A   1      43.272  29.775  33.837  1.00  0.00     0.049 A 
ATOM     26  C   UNL A   1      44.347  26.062  29.800  1.00  0.00     0.074 A 
ATOM     27  C   UNL A   1      44.184  29.829  34.875  1.00  0.00     0.029 A 
ATOM     28  N   UNL A   1      43.775  28.884  32.903  1.00  0.00    -0.354 N 
ATOM     29  N   UNL A   1      44.256  26.933  30.773  1.00  0.00    -0.248 NA
ATOM     30  C   UNL A   1      45.668  25.438  29.656  1.00  0.00     0.031 C 
ATOM     31  C   UNL A   1      45.279  29.030  34.528  1.00  0.00     0.029 A 
ATOM     32  C   UNL A   1      45.020  28.434  33.304  1.00  0.00     0.049 A 
ATOM     33  H   UNL A   1      43.316  28.611  32.077  1.00  0.00     0.167 HD
ATOM     34  C   UNL A   1      45.484  26.903  31.411  1.00  0.00     0.074 A 
ATOM     35  C   UNL A   1      46.323  25.977  30.675  1.00  0.00     0.031 C 
ATOM     36  C   UNL A   1      45.854  27.537  32.547  1.00  0.00     0.037 A 
BRANCH  23  37
ATOM     37  C   UNL A   1      41.677  31.526  34.713  1.00  0.00     0.058 A 
ATOM     38  C   UNL A   1      42.163  32.842  34.651  1.00  0.00     0.135 A 
ATOM     39  C   UNL A   1      40.802  31.193  35.756  1.00  0.00     0.135 A 
ATOM     40  F   UNL A   1      43.028  33.201  33.688  1.00  0.00    -0.206 F 
ATOM     41  C   UNL A   1      41.796  33.793  35.594  1.00  0.00     0.059 A 
ATOM     42  C   UNL A   1      40.405  32.134  36.698  1.00  0.00     0.059 A 
ATOM     43  F   UNL A   1      40.328  29.942  35.866  1.00  0.00    -0.206 F 
ATOM     44  C   UNL A   1      40.911  33.430  36.612  1.00  0.00     0.060 A 
BRANCH  44  45
ATOM     45  S   UNL A   1      40.419  34.687  37.809  1.00  0.00     0.124 S 
ATOM     46  O   UNL A   1      38.968  34.529  37.818  1.00  0.00    -0.237 OA
ATOM     47  O   UNL A   1      41.111  34.250  39.017  1.00  0.00    -0.237 OA
ATOM     48  O   UNL A   1      40.913  35.928  37.220  1.00  0.00    -0.744 OA
ENDBRANCH  44  45
ENDBRANCH  23  37
BRANCH  24  49
ATOM     49  C   UNL A   1      43.636  24.717  27.727  1.00  0.00     0.058 A 
ATOM     50  C   UNL A   1      43.991  25.204  26.465  1.00  0.00     0.135 A 
ATOM     51  C   UNL A   1      43.519  23.326  27.878  1.00  0.00     0.135 A 
ATOM     52  F   UNL A   1      44.051  26.527  26.250  1.00  0.00    -0.206 F 
ATOM     53  C   UNL A   1      44.259  24.340  25.400  1.00  0.00     0.059 A 
ATOM     54  C   UNL A   1      43.781  22.445  26.834  1.00  0.00     0.059 A 
ATOM     55  F   UNL A   1      43.112  22.817  29.050  1.00  0.00    -0.206 F 
ATOM     56  C   UNL A   1      44.163  22.960  25.599  1.00  0.00     0.060 A 
BRANCH  56  57
ATOM     57  S   UNL A   1      44.608  21.812  24.275  1.00  0.00     0.124 S 
ATOM     58  O   UNL A   1      44.148  22.531  23.094  1.00  0.00    -0.237 OA
ATOM     59  O   UNL A   1      46.055  21.690  24.423  1.00  0.00    -0.237 OA
ATOM     60  O   UNL A   1      43.847  20.616  24.628  1.00  0.00    -0.744 OA
ENDBRANCH  56  57
ENDBRANCH  24  49
BRANCH  36  61
ATOM     61  C   UNL A   1      47.206  27.211  33.095  1.00  0.00     0.058 A 
ATOM     62  C   UNL A   1      47.434  26.068  33.870  1.00  0.00     0.135 A 
ATOM     63  C   UNL A   1      48.298  28.040  32.791  1.00  0.00     0.135 A 
ATOM     64  F   UNL A   1      46.413  25.264  34.208  1.00  0.00    -0.206 F 
ATOM     65  C   UNL A   1      48.706  25.752  34.327  1.00  0.00     0.059 A 
ATOM     66  C   UNL A   1      49.583  27.729  33.212  1.00  0.00     0.059 A 
ATOM     67  F   UNL A   1      48.122  29.152  32.058  1.00  0.00    -0.206 F 
ATOM     68  C   UNL A   1      49.776  26.583  33.982  1.00  0.00     0.060 A 
BRANCH  68  69
ATOM     69  S   UNL A   1      51.434  26.119  34.516  1.00  0.00     0.124 S 
ATOM     70  O   UNL A   1      51.572  24.792  33.925  1.00  0.00    -0.237 OA
ATOM     71  O   UNL A   1      52.256  27.167  33.920  1.00  0.00    -0.237 OA
ATOM     72  O   UNL A   1      51.344  26.152  35.972  1.00  0.00    -0.744 OA
ENDBRANCH  68  69
ENDBRANCH  36  61
ENDBRANCH  10  11
ENDBRANCH   3   5
ENDBRANCH   2   3
ENDBRANCH   1   2
BRANCH   1  73
ATOM     73  C   UNL A   1      34.185  34.420  27.967  1.00  0.00     0.274 C 
BRANCH  73  74
ATOM     74  O   UNL A   1      34.280  35.363  29.040  1.00  0.00    -0.462 OA
BRANCH  74  75
ATOM     75  C   UNL A   1      33.097  35.818  29.545  1.00  0.00     0.314 C 
ATOM     76  O   UNL A   1      32.259  36.438  28.892  1.00  0.00    -0.252 OA
BRANCH  75  77
ATOM     77  C   UNL A   1      32.872  35.285  30.947  1.00  0.00     0.154 C 
ATOM     78  C   UNL A   1      32.465  36.362  31.947  1.00  0.00     0.027 C 
ATOM     79  C   UNL A   1      34.034  34.450  31.485  1.00  0.00     0.277 C 
ATOM     80  C   UNL A   1      33.666  37.203  32.340  1.00  0.00     0.062 C 
ATOM     81  N   UNL A   1      35.162  35.234  31.994  1.00  0.00    -0.330 N 
ATOM     82  C   UNL A   1      34.778  36.324  32.898  1.00  0.00     0.262 C 
ATOM     83  H   UNL A   1      35.551  35.681  31.163  1.00  0.00     0.348 HD
BRANCH  81  84
ATOM     84  C   UNL A   1      36.230  34.391  32.589  1.00  0.00     0.300 C 
BRANCH  84  85
ATOM     85  C   UNL A   1      37.578  34.426  31.876  1.00  0.00     0.025 A 
ATOM     86  C   UNL A   1      37.653  34.199  30.486  1.00  0.00     0.014 A 
ATOM     87  C   UNL A   1      38.788  34.578  32.578  1.00  0.00     0.052 A 
ATOM     88  C   UNL A   1      38.874  34.021  29.842  1.00  0.00     0.040 A 
ATOM     89  C   UNL A   1      40.014  34.403  31.933  1.00  0.00     0.060 A 
ATOM     90  Cl  UNL A   1      38.834  34.954  34.264  1.00  0.00    -0.084 Cl
ATOM     91  C   UNL A   1      40.044  34.097  30.579  1.00  0.00     0.124 A 
ATOM     92  F   UNL A   1      41.218  33.904  29.965  1.00  0.00    -0.207 F 
ENDBRANCH  84  85
ENDBRANCH  81  84
ENDBRANCH  75  77
ENDBRANCH  74  75
ENDBRANCH  73  74
ENDBRANCH   1  73
TORSDOF 16
ENDMDL
MODEL 2
REMARK VINA RESULT:      -9.9      3.507     11.114
REMARK SMILES O=C(OCCOC(=O)[C@@H]1CCC[N@@H+](Cc2ccc(F)cc2Cl)C1)c1ccc(-c2c3nc(c(-c4c(F)cc(S(=O)(=O)[O-])cc4F)c4ccc([nH]4)c(-c4c(F)cc(S(=O)(=O)[O-])cc4F)c4nc(c(-c5c(F)cc(S(=O)(=O)[O-])cc5F)c5ccc2[nH]5)C=C4)C=C3)cc1
REMARK SMILES IDX 4 1 3 2 2 3 1 4 24 5 25 6 89 7 26 8 88 9 27 10 28 11 29 12
REMARK SMILES IDX 82 13 30 14 87 15 81 16 83 17 31 18 86 19 80 20 79 21 32 23
REMARK SMILES IDX 66 24 45 25 65 26 46 27 49 28 64 29 84 30 47 31 48 32 63 34
REMARK SMILES IDX 85 35 50 36 33 37 34 38 43 39 35 40 36 41 42 42 44 43 37 44
REMARK SMILES IDX 38 45 39 46 40 47 41 48 67 49 68 50 77 51 69 52 70 53 76 54
REMARK SMILES IDX 78 55 71 56 72 57 73 58 74 59 75 60 51 61 52 62 61 63 53 64
REMARK SMILES IDX 54 65 60 66 62 67 55 68 56 69 57 70 58 71 59 72 5 73 6 74
REMARK SMILES IDX 7 75 8 76 9 77 10 78 23 79 11 80 13 81 12 82 14 84 15 85
REMARK SMILES IDX 16 86 21 87 17 88 20 89 22 90 18 91 19 92
REMARK H PARENT 83 22 49 33 13 83
REMARK Flexibility Score: inf
ROOT
ATOM      1  C   UNL A   1      44.936  25.960  25.436  1.00  0.00     0.275 C 
ENDROOT
BRANCH   1   2
ATOM      2  O   UNL A   1      43.695  26.627  25.140  1.00  0.00    -0.458 OA
BRANCH   2   3
ATOM      3  C   UNL A   1      42.472  26.498  25.709  1.00  0.00     0.338 C 
ATOM      4  O   UNL A   1      41.570  26.003  25.030  1.00  0.00    -0.246 OA
BRANCH   3   5
ATOM      5  C   UNL A   1      42.095  27.050  27.058  1.00  0.00     0.060 A 
ATOM      6  C   UNL A   1      41.090  26.574  27.904  1.00  0.00     0.016 A 
ATOM      7  C   UNL A   1      42.867  28.136  27.521  1.00  0.00     0.016 A 
ATOM      8  C   UNL A   1      40.890  27.114  29.183  1.00  0.00     0.010 A 
ATOM      9  C   UNL A   1      42.682  28.670  28.802  1.00  0.00     0.010 A 
ATOM     10  C   UNL A   1      41.681  28.164  29.645  1.00  0.00    -0.014 A 
BRANCH  10  11
ATOM     11  C   UNL A   1      41.348  28.875  30.904  1.00  0.00     0.031 A 
ATOM     12  C   UNL A   1      40.336  29.978  30.829  1.00  0.00     0.074 A 
ATOM     13  C   UNL A   1      41.884  28.550  32.098  1.00  0.00     0.049 A 
ATOM     14  N   UNL A   1      39.945  30.792  31.769  1.00  0.00    -0.248 NA
ATOM     15  C   UNL A   1      39.627  30.145  29.548  1.00  0.00     0.031 C 
ATOM     16  C   UNL A   1      42.708  27.378  32.372  1.00  0.00     0.029 A 
ATOM     17  N   UNL A   1      41.863  29.213  33.305  1.00  0.00    -0.354 N 
ATOM     18  C   UNL A   1      38.889  31.504  31.224  1.00  0.00     0.074 A 
ATOM     19  C   UNL A   1      38.766  31.108  29.840  1.00  0.00     0.031 C 
ATOM     20  C   UNL A   1      43.250  27.492  33.600  1.00  0.00     0.029 A 
ATOM     21  C   UNL A   1      42.803  28.738  34.199  1.00  0.00     0.049 A 
ATOM     22  H   UNL A   1      41.244  29.950  33.509  1.00  0.00     0.167 HD
ATOM     23  C   UNL A   1      38.059  32.364  31.851  1.00  0.00     0.037 A 
ATOM     24  C   UNL A   1      43.282  29.293  35.330  1.00  0.00     0.037 A 
ATOM     25  C   UNL A   1      38.212  32.759  33.223  1.00  0.00     0.049 A 
ATOM     26  C   UNL A   1      42.585  30.501  35.872  1.00  0.00     0.074 A 
ATOM     27  C   UNL A   1      37.392  33.573  33.982  1.00  0.00     0.029 A 
ATOM     28  N   UNL A   1      39.280  32.397  34.028  1.00  0.00    -0.354 N 
ATOM     29  N   UNL A   1      41.568  31.149  35.363  1.00  0.00    -0.248 NA
ATOM     30  C   UNL A   1      43.042  31.002  37.175  1.00  0.00     0.031 C 
ATOM     31  C   UNL A   1      38.009  33.768  35.223  1.00  0.00     0.029 A 
ATOM     32  C   UNL A   1      39.180  33.028  35.255  1.00  0.00     0.049 A 
ATOM     33  H   UNL A   1      40.003  31.782  33.767  1.00  0.00     0.167 HD
ATOM     34  C   UNL A   1      41.210  32.085  36.318  1.00  0.00     0.074 A 
ATOM     35  C   UNL A   1      42.159  31.962  37.408  1.00  0.00     0.031 C 
ATOM     36  C   UNL A   1      40.146  32.920  36.316  1.00  0.00     0.037 A 
BRANCH  23  37
ATOM     37  C   UNL A   1      36.920  32.923  31.059  1.00  0.00     0.058 A 
ATOM     38  C   UNL A   1      35.612  32.430  31.204  1.00  0.00     0.135 A 
ATOM     39  C   UNL A   1      37.132  33.985  30.169  1.00  0.00     0.135 A 
ATOM     40  F   UNL A   1      35.365  31.394  32.020  1.00  0.00    -0.206 F 
ATOM     41  C   UNL A   1      34.554  32.971  30.485  1.00  0.00     0.059 A 
ATOM     42  C   UNL A   1      36.084  34.555  29.457  1.00  0.00     0.059 A 
ATOM     43  F   UNL A   1      38.368  34.475  29.986  1.00  0.00    -0.206 F 
ATOM     44  C   UNL A   1      34.799  34.038  29.618  1.00  0.00     0.060 A 
BRANCH  44  45
ATOM     45  S   UNL A   1      33.407  34.749  28.718  1.00  0.00     0.124 S 
ATOM     46  O   UNL A   1      34.035  35.897  28.070  1.00  0.00    -0.237 OA
ATOM     47  O   UNL A   1      33.020  33.656  27.832  1.00  0.00    -0.237 OA
ATOM     48  O   UNL A   1      32.449  35.068  29.773  1.00  0.00    -0.744 OA
ENDBRANCH  44  45
ENDBRANCH  23  37
BRANCH  24  49
ATOM     49  C   UNL A   1      44.528  28.822  35.989  1.00  0.00     0.058 A 
ATOM     50  C   UNL A   1      45.808  29.268  35.642  1.00  0.00     0.135 A 
ATOM     51  C   UNL A   1      44.435  27.793  36.939  1.00  0.00     0.135 A 
ATOM     52  F   UNL A   1      45.956  30.202  34.691  1.00  0.00    -0.206 F 
ATOM     53  C   UNL A   1      46.952  28.741  36.247  1.00  0.00     0.059 A 
ATOM     54  C   UNL A   1      45.557  27.251  37.555  1.00  0.00     0.059 A 
ATOM     55  F   UNL A   1      43.233  27.283  37.249  1.00  0.00    -0.206 F 
ATOM     56  C   UNL A   1      46.815  27.741  37.212  1.00  0.00     0.060 A 
BRANCH  56  57
ATOM     57  S   UNL A   1      48.264  27.112  38.092  1.00  0.00     0.124 S 
ATOM     58  O   UNL A   1      48.507  25.854  37.398  1.00  0.00    -0.237 OA
ATOM     59  O   UNL A   1      49.256  28.160  37.875  1.00  0.00    -0.237 OA
ATOM     60  O   UNL A   1      47.774  26.998  39.463  1.00  0.00    -0.744 OA
ENDBRANCH  56  57
ENDBRANCH  24  49
BRANCH  36  61
ATOM     61  C   UNL A   1      39.920  33.731  37.552  1.00  0.00     0.058 A 
ATOM     62  C   UNL A   1      40.594  34.936  37.779  1.00  0.00     0.135 A 
ATOM     63  C   UNL A   1      38.972  33.307  38.498  1.00  0.00     0.135 A 
ATOM     64  F   UNL A   1      41.529  35.362  36.915  1.00  0.00    -0.206 F 
ATOM     65  C   UNL A   1      40.334  35.702  38.908  1.00  0.00     0.059 A 
ATOM     66  C   UNL A   1      38.674  34.071  39.616  1.00  0.00     0.059 A 
ATOM     67  F   UNL A   1      38.309  32.152  38.322  1.00  0.00    -0.206 F 
ATOM     68  C   UNL A   1      39.363  35.267  39.814  1.00  0.00     0.060 A 
BRANCH  68  69
ATOM     69  S   UNL A   1      38.979  36.311  41.233  1.00  0.00     0.124 S 
ATOM     70  O   UNL A   1      38.599  37.561  40.583  1.00  0.00    -0.237 OA
ATOM     71  O   UNL A   1      37.896  35.574  41.875  1.00  0.00    -0.237 OA
ATOM     72  O   UNL A   1      40.233  36.345  41.978  1.00  0.00    -0.744 OA
ENDBRANCH  68  69
ENDBRANCH  36  61
ENDBRANCH  10  11
ENDBRANCH   3   5
ENDBRANCH   2   3
ENDBRANCH   1   2
BRANCH   1  73
ATOM     73  C   UNL A   1      44.974  24.490  25.013  1.00  0.00     0.274 C 
BRANCH  73  74
ATOM     74  O   UNL A   1      44.074  23.693  25.792  1.00  0.00    -0.462 OA
BRANCH  74  75
ATOM     75  C   UNL A   1      43.366  22.748  25.109  1.00  0.00     0.314 C 
ATOM     76  O   UNL A   1      43.393  22.614  23.887  1.00  0.00    -0.252 OA
BRANCH  75  77
ATOM     77  C   UNL A   1      42.711  21.773  26.067  1.00  0.00     0.154 C 
ATOM     78  C   UNL A   1      41.187  21.807  26.019  1.00  0.00     0.027 C 
ATOM     79  C   UNL A   1      43.215  21.885  27.506  1.00  0.00     0.277 C 
ATOM     80  C   UNL A   1      40.660  23.037  26.737  1.00  0.00     0.062 C 
ATOM     81  N   UNL A   1      42.629  22.988  28.271  1.00  0.00    -0.330 N 
ATOM     82  C   UNL A   1      41.168  23.080  28.172  1.00  0.00     0.262 C 
ATOM     83  H   UNL A   1      42.996  23.827  27.821  1.00  0.00     0.348 HD
BRANCH  81  84
ATOM     84  C   UNL A   1      43.076  23.009  29.687  1.00  0.00     0.300 C 
BRANCH  84  85
ATOM     85  C   UNL A   1      43.979  24.173  30.081  1.00  0.00     0.025 A 
ATOM     86  C   UNL A   1      44.395  25.110  29.113  1.00  0.00     0.014 A 
ATOM     87  C   UNL A   1      44.510  24.299  31.379  1.00  0.00     0.052 A 
ATOM     88  C   UNL A   1      45.375  26.059  29.390  1.00  0.00     0.040 A 
ATOM     89  C   UNL A   1      45.491  25.253  31.660  1.00  0.00     0.060 A 
ATOM     90  Cl  UNL A   1      44.012  23.277  32.681  1.00  0.00    -0.084 Cl
ATOM     91  C   UNL A   1      45.934  26.102  30.656  1.00  0.00     0.124 A 
ATOM     92  F   UNL A   1      46.893  27.000  30.917  1.00  0.00    -0.207 F 
ENDBRANCH  84  85
ENDBRANCH  81  84
ENDBRANCH  75  77
ENDBRANCH  74  75
ENDBRANCH  73  74
ENDBRANCH   1  73
TORSDOF 16
ENDMDL
MODEL 3
REMARK VINA RESULT:      -9.9      5.147      9.474
REMARK SMILES O=C(OCCOC(=O)[C@@H]1CCC[N@@H+](Cc2ccc(F)cc2Cl)C1)c1ccc(-c2c3nc(c(-c4c(F)cc(S(=O)(=O)[O-])cc4F)c4ccc([nH]4)c(-c4c(F)cc(S(=O)(=O)[O-])cc4F)c4nc(c(-c5c(F)cc(S(=O)(=O)[O-])cc5F)c5ccc2[nH]5)C=C4)C=C3)cc1
REMARK SMILES IDX 4 1 3 2 2 3 1 4 24 5 25 6 89 7 26 8 88 9 27 10 28 11 29 12
REMARK SMILES IDX 82 13 30 14 87 15 81 16 83 17 31 18 86 19 80 20 79 21 32 23
REMARK SMILES IDX 66 24 45 25 65 26 46 27 49 28 64 29 84 30 47 31 48 32 63 34
REMARK SMILES IDX 85 35 50 36 33 37 34 38 43 39 35 40 36 41 42 42 44 43 37 44
REMARK SMILES IDX 38 45 39 46 40 47 41 48 67 49 68 50 77 51 69 52 70 53 76 54
REMARK SMILES IDX 78 55 71 56 72 57 73 58 74 59 75 60 51 61 52 62 61 63 53 64
REMARK SMILES IDX 54 65 60 66 62 67 55 68 56 69 57 70 58 71 59 72 5 73 6 74
REMARK SMILES IDX 7 75 8 76 9 77 10 78 23 79 11 80 13 81 12 82 14 84 15 85
REMARK SMILES IDX 16 86 21 87 17 88 20 89 22 90 18 91 19 92
REMARK H PARENT 83 22 49 33 13 83
REMARK Flexibility Score: inf
ROOT
ATOM      1  C   UNL A   1      37.592  31.781  34.119  1.00  0.00     0.275 C 
ENDROOT
BRANCH   1   2
ATOM      2  O   UNL A   1      37.320  30.578  33.375  1.00  0.00    -0.458 OA
BRANCH   2   3
ATOM      3  C   UNL A   1      37.310  30.357  32.039  1.00  0.00     0.338 C 
ATOM      4  O   UNL A   1      36.219  30.204  31.488  1.00  0.00    -0.246 OA
BRANCH   3   5
ATOM      5  C   UNL A   1      38.541  30.134  31.201  1.00  0.00     0.060 A 
ATOM      6  C   UNL A   1      38.620  30.170  29.807  1.00  0.00     0.016 A 
ATOM      7  C   UNL A   1      39.739  29.903  31.909  1.00  0.00     0.016 A 
ATOM      8  C   UNL A   1      39.846  30.038  29.137  1.00  0.00     0.010 A 
ATOM      9  C   UNL A   1      40.968  29.785  31.248  1.00  0.00     0.010 A 
ATOM     10  C   UNL A   1      41.030  29.845  29.847  1.00  0.00    -0.014 A 
BRANCH  10  11
ATOM     11  C   UNL A   1      42.292  29.501  29.149  1.00  0.00     0.031 A 
ATOM     12  C   UNL A   1      42.529  28.058  28.818  1.00  0.00     0.074 A 
ATOM     13  C   UNL A   1      43.203  30.422  28.776  1.00  0.00     0.049 A 
ATOM     14  N   UNL A   1      43.584  27.505  28.289  1.00  0.00    -0.248 NA
ATOM     15  C   UNL A   1      41.409  27.129  29.054  1.00  0.00     0.031 C 
ATOM     16  C   UNL A   1      43.024  31.869  28.830  1.00  0.00     0.029 A 
ATOM     17  N   UNL A   1      44.496  30.279  28.325  1.00  0.00    -0.354 N 
ATOM     18  C   UNL A   1      43.228  26.188  28.047  1.00  0.00     0.074 A 
ATOM     19  C   UNL A   1      41.899  25.992  28.582  1.00  0.00     0.031 C 
ATOM     20  C   UNL A   1      44.205  32.473  28.598  1.00  0.00     0.029 A 
ATOM     21  C   UNL A   1      45.218  31.457  28.369  1.00  0.00     0.049 A 
ATOM     22  H   UNL A   1      44.869  29.426  28.005  1.00  0.00     0.167 HD
ATOM     23  C   UNL A   1      43.929  25.249  27.378  1.00  0.00     0.037 A 
ATOM     24  C   UNL A   1      46.548  31.662  28.298  1.00  0.00     0.037 A 
ATOM     25  C   UNL A   1      45.256  25.460  26.871  1.00  0.00     0.049 A 
ATOM     26  C   UNL A   1      47.418  30.511  27.899  1.00  0.00     0.074 A 
ATOM     27  C   UNL A   1      46.038  24.603  26.120  1.00  0.00     0.029 A 
ATOM     28  N   UNL A   1      46.011  26.599  27.102  1.00  0.00    -0.354 N 
ATOM     29  N   UNL A   1      47.065  29.276  27.644  1.00  0.00    -0.248 NA
ATOM     30  C   UNL A   1      48.844  30.797  27.697  1.00  0.00     0.031 C 
ATOM     31  C   UNL A   1      47.298  25.193  25.966  1.00  0.00     0.029 A 
ATOM     32  C   UNL A   1      47.278  26.440  26.569  1.00  0.00     0.049 A 
ATOM     33  H   UNL A   1      45.694  27.402  27.574  1.00  0.00     0.167 HD
ATOM     34  C   UNL A   1      48.210  28.655  27.175  1.00  0.00     0.074 A 
ATOM     35  C   UNL A   1      49.281  29.631  27.242  1.00  0.00     0.031 C 
ATOM     36  C   UNL A   1      48.339  27.407  26.669  1.00  0.00     0.037 A 
BRANCH  23  37
ATOM     37  C   UNL A   1      43.271  23.925  27.156  1.00  0.00     0.058 A 
ATOM     38  C   UNL A   1      42.686  23.592  25.924  1.00  0.00     0.135 A 
ATOM     39  C   UNL A   1      43.254  22.965  28.178  1.00  0.00     0.135 A 
ATOM     40  F   UNL A   1      42.650  24.488  24.926  1.00  0.00    -0.206 F 
ATOM     41  C   UNL A   1      42.099  22.350  25.715  1.00  0.00     0.059 A 
ATOM     42  C   UNL A   1      42.692  21.709  27.984  1.00  0.00     0.059 A 
ATOM     43  F   UNL A   1      43.785  23.247  29.378  1.00  0.00    -0.206 F 
ATOM     44  C   UNL A   1      42.113  21.413  26.751  1.00  0.00     0.060 A 
BRANCH  44  45
ATOM     45  S   UNL A   1      41.376  19.794  26.451  1.00  0.00     0.124 S 
ATOM     46  O   UNL A   1      39.988  20.152  26.175  1.00  0.00    -0.237 OA
ATOM     47  O   UNL A   1      42.145  19.311  25.308  1.00  0.00    -0.237 OA
ATOM     48  O   UNL A   1      41.604  19.080  27.705  1.00  0.00    -0.744 OA
ENDBRANCH  44  45
ENDBRANCH  23  37
BRANCH  24  49
ATOM     49  C   UNL A   1      47.185  32.941  28.705  1.00  0.00     0.058 A 
ATOM     50  C   UNL A   1      47.513  33.260  30.027  1.00  0.00     0.135 A 
ATOM     51  C   UNL A   1      47.373  33.934  27.731  1.00  0.00     0.135 A 
ATOM     52  F   UNL A   1      47.290  32.371  31.006  1.00  0.00    -0.206 F 
ATOM     53  C   UNL A   1      48.048  34.507  30.364  1.00  0.00     0.059 A 
ATOM     54  C   UNL A   1      47.903  35.182  28.040  1.00  0.00     0.059 A 
ATOM     55  F   UNL A   1      47.005  33.698  26.462  1.00  0.00    -0.206 F 
ATOM     56  C   UNL A   1      48.251  35.457  29.360  1.00  0.00     0.060 A 
BRANCH  56  57
ATOM     57  S   UNL A   1      49.040  37.038  29.741  1.00  0.00     0.124 S 
ATOM     58  O   UNL A   1      48.914  37.744  28.472  1.00  0.00    -0.237 OA
ATOM     59  O   UNL A   1      48.225  37.552  30.838  1.00  0.00    -0.237 OA
ATOM     60  O   UNL A   1      50.393  36.633  30.113  1.00  0.00    -0.744 OA
ENDBRANCH  56  57
ENDBRANCH  24  49
BRANCH  36  61
ATOM     61  C   UNL A   1      49.672  27.042  26.099  1.00  0.00     0.058 A 
ATOM     62  C   UNL A   1      50.672  26.448  26.879  1.00  0.00     0.135 A 
ATOM     63  C   UNL A   1      49.926  27.251  24.734  1.00  0.00     0.135 A 
ATOM     64  F   UNL A   1      50.482  26.257  28.194  1.00  0.00    -0.206 F 
ATOM     65  C   UNL A   1      51.886  26.068  26.322  1.00  0.00     0.059 A 
ATOM     66  C   UNL A   1      51.119  26.852  24.150  1.00  0.00     0.059 A 
ATOM     67  F   UNL A   1      48.997  27.826  23.953  1.00  0.00    -0.206 F 
ATOM     68  C   UNL A   1      52.094  26.264  24.954  1.00  0.00     0.060 A 
BRANCH  68  69
ATOM     69  S   UNL A   1      53.643  25.693  24.228  1.00  0.00     0.124 S 
ATOM     70  O   UNL A   1      53.657  24.291  24.631  1.00  0.00    -0.237 OA
ATOM     71  O   UNL A   1      53.430  25.943  22.806  1.00  0.00    -0.237 OA
ATOM     72  O   UNL A   1      54.647  26.540  24.863  1.00  0.00    -0.744 OA
ENDBRANCH  68  69
ENDBRANCH  36  61
ENDBRANCH  10  11
ENDBRANCH   3   5
ENDBRANCH   2   3
ENDBRANCH   1   2
BRANCH   1  73
ATOM     73  C   UNL A   1      36.961  33.042  33.524  1.00  0.00     0.274 C 
BRANCH  73  74
ATOM     74  O   UNL A   1      35.563  33.125  33.821  1.00  0.00    -0.462 OA
BRANCH  74  75
ATOM     75  C   UNL A   1      34.728  33.242  32.748  1.00  0.00     0.314 C 
ATOM     76  O   UNL A   1      33.634  32.688  32.660  1.00  0.00    -0.252 OA
BRANCH  75  77
ATOM     77  C   UNL A   1      35.241  34.294  31.784  1.00  0.00     0.154 C 
ATOM     78  C   UNL A   1      34.438  35.590  31.817  1.00  0.00     0.027 C 
ATOM     79  C   UNL A   1      35.406  33.790  30.350  1.00  0.00     0.277 C 
ATOM     80  C   UNL A   1      33.114  35.414  31.095  1.00  0.00     0.062 C 
ATOM     81  N   UNL A   1      34.162  33.729  29.579  1.00  0.00    -0.330 N 
ATOM     82  C   UNL A   1      33.341  34.942  29.665  1.00  0.00     0.262 C 
ATOM     83  H   UNL A   1      33.623  32.992  30.033  1.00  0.00     0.348 HD
BRANCH  81  84
ATOM     84  C   UNL A   1      34.377  33.322  28.167  1.00  0.00     0.300 C 
BRANCH  84  85
ATOM     85  C   UNL A   1      34.298  31.824  27.889  1.00  0.00     0.025 A 
ATOM     86  C   UNL A   1      35.404  30.991  28.159  1.00  0.00     0.014 A 
ATOM     87  C   UNL A   1      33.179  31.239  27.266  1.00  0.00     0.052 A 
ATOM     88  C   UNL A   1      35.441  29.668  27.731  1.00  0.00     0.040 A 
ATOM     89  C   UNL A   1      33.214  29.910  26.839  1.00  0.00     0.060 A 
ATOM     90  Cl  UNL A   1      31.725  32.124  26.966  1.00  0.00    -0.084 Cl
ATOM     91  C   UNL A   1      34.354  29.147  27.049  1.00  0.00     0.124 A 
ATOM     92  F   UNL A   1      34.398  27.881  26.617  1.00  0.00    -0.207 F 
ENDBRANCH  84  85
ENDBRANCH  81  84
ENDBRANCH  75  77
ENDBRANCH  74  75
ENDBRANCH  73  74
ENDBRANCH   1  73
TORSDOF 16
ENDMDL
