MODEL 1
REMARK VINA RESULT:     -11.5      0.000      0.000
REMARK SMILES C[C@@H](Oc1ccc(-c2ccccc2)cc1)C(=O)N1CCC[C@H](C(=O)OCCOC(=O)c2ccc(-c3c4nc(c(-c5c(F)cc(S(=O)(=O)[O-])cc5F)c5ccc([nH]5)c(-c5c(F)cc(S(=O)(=O)[O-])cc5F)c5nc(c(-c6c(F)cc(S(=O)(=O)[O-])cc6F)c6ccc3[nH]6)C=C5)C=C4)cc2)C1
REMARK SMILES IDX 26 1 25 2 23 3 24 4 22 5 18 6 19 7 97 8 20 9 21 10 16 11
REMARK SMILES IDX 17 12 2 13 1 14 3 15 4 16 5 17 15 18 6 19 14 20 7 21 8 22
REMARK SMILES IDX 9 23 13 24 10 25 12 26 11 27 27 28 28 29 29 30 30 31 31 32
REMARK SMILES IDX 32 33 96 34 33 35 95 36 34 37 35 38 36 39 89 40 37 41 94 42
REMARK SMILES IDX 88 43 90 44 38 45 93 46 87 47 86 48 39 50 73 51 52 52 72 53
REMARK SMILES IDX 53 54 56 55 71 56 91 57 54 58 55 59 70 61 92 62 57 63 40 64
REMARK SMILES IDX 41 65 50 66 42 67 43 68 49 69 51 70 44 71 45 72 46 73 47 74
REMARK SMILES IDX 48 75 74 76 75 77 84 78 76 79 77 80 83 81 85 82 78 83 79 84
REMARK SMILES IDX 80 85 81 86 82 87 58 88 59 89 68 90 60 91 61 92 67 93 69 94
REMARK SMILES IDX 62 95 63 96 64 97 65 98 66 99
REMARK H PARENT 90 49 56 60
REMARK Flexibility Score: inf
ROOT
ATOM      1  C   UNL A   1      33.795  30.087  26.863  1.00  0.00     0.274 C 
ENDROOT
BRANCH   1   2
ATOM      2  O   UNL A   1      32.901  29.134  26.258  1.00  0.00    -0.462 OA
BRANCH   2   3
ATOM      3  C   UNL A   1      33.367  28.413  25.209  1.00  0.00     0.310 C 
ATOM      4  O   UNL A   1      34.044  27.397  25.311  1.00  0.00    -0.252 OA
BRANCH   3   5
ATOM      5  C   UNL A   1      33.017  29.024  23.860  1.00  0.00     0.119 C 
ATOM      6  N   UNL A   1      31.274  27.422  23.229  1.00  0.00    -0.339 N 
ATOM      7  C   UNL A   1      31.991  26.959  22.044  1.00  0.00     0.119 C 
ATOM      8  C   UNL A   1      31.531  28.815  23.585  1.00  0.00     0.134 C 
ATOM      9  C   UNL A   1      33.498  27.160  22.165  1.00  0.00     0.022 C 
ATOM     10  C   UNL A   1      33.868  28.557  22.672  1.00  0.00     0.019 C 
BRANCH   6  11
ATOM     11  C   UNL A   1      30.438  26.549  23.917  1.00  0.00     0.263 C 
ATOM     12  O   UNL A   1      29.251  26.416  23.599  1.00  0.00    -0.271 OA
BRANCH  11  13
ATOM     13  C   UNL A   1      30.984  25.746  25.118  1.00  0.00     0.259 C 
ATOM     14  C   UNL A   1      29.943  25.540  26.217  1.00  0.00     0.064 C 
BRANCH  13  15
ATOM     15  O   UNL A   1      31.492  24.504  24.616  1.00  0.00    -0.481 OA
BRANCH  15  16
ATOM     16  C   UNL A   1      32.814  24.312  24.885  1.00  0.00     0.120 A 
ATOM     17  C   UNL A   1      33.734  24.280  23.842  1.00  0.00     0.047 A 
ATOM     18  C   UNL A   1      33.194  23.984  26.179  1.00  0.00     0.047 A 
ATOM     19  C   UNL A   1      35.059  23.915  24.104  1.00  0.00     0.012 A 
ATOM     20  C   UNL A   1      34.516  23.628  26.437  1.00  0.00     0.012 A 
ATOM     21  C   UNL A   1      35.468  23.565  25.404  1.00  0.00    -0.018 A 
BRANCH  21  22
ATOM     22  C   UNL A   1      36.834  23.091  25.679  1.00  0.00    -0.018 A 
ATOM     23  C   UNL A   1      37.789  23.912  26.298  1.00  0.00     0.009 A 
ATOM     24  C   UNL A   1      37.217  21.784  25.328  1.00  0.00     0.009 A 
ATOM     25  C   UNL A   1      39.076  23.438  26.568  1.00  0.00     0.001 A 
ATOM     26  C   UNL A   1      38.501  21.308  25.598  1.00  0.00     0.001 A 
ATOM     27  C   UNL A   1      39.430  22.135  26.220  1.00  0.00     0.000 A 
ENDBRANCH  21  22
ENDBRANCH  15  16
ENDBRANCH  13  15
ENDBRANCH  11  13
ENDBRANCH   6  11
ENDBRANCH   3   5
ENDBRANCH   2   3
ENDBRANCH   1   2
BRANCH   1  28
ATOM     28  C   UNL A   1      34.635  29.435  27.962  1.00  0.00     0.275 C 
BRANCH  28  29
ATOM     29  O   UNL A   1      35.727  30.286  28.352  1.00  0.00    -0.458 OA
BRANCH  29  30
ATOM     30  C   UNL A   1      36.358  29.910  29.488  1.00  0.00     0.338 C 
ATOM     31  O   UNL A   1      35.847  29.596  30.549  1.00  0.00    -0.246 OA
BRANCH  30  32
ATOM     32  C   UNL A   1      37.797  29.764  29.227  1.00  0.00     0.060 A 
ATOM     33  C   UNL A   1      38.203  29.686  27.893  1.00  0.00     0.016 A 
ATOM     34  C   UNL A   1      38.719  29.608  30.262  1.00  0.00     0.016 A 
ATOM     35  C   UNL A   1      39.533  29.435  27.582  1.00  0.00     0.010 A 
ATOM     36  C   UNL A   1      40.057  29.347  29.949  1.00  0.00     0.010 A 
ATOM     37  C   UNL A   1      40.464  29.236  28.607  1.00  0.00    -0.014 A 
BRANCH  37  38
ATOM     38  C   UNL A   1      41.835  28.806  28.249  1.00  0.00     0.031 A 
ATOM     39  C   UNL A   1      42.957  29.807  28.293  1.00  0.00     0.074 A 
ATOM     40  C   UNL A   1      42.083  27.515  27.963  1.00  0.00     0.049 A 
ATOM     41  N   UNL A   1      44.223  29.643  28.013  1.00  0.00    -0.248 NA
ATOM     42  C   UNL A   1      42.604  31.173  28.710  1.00  0.00     0.031 C 
ATOM     43  C   UNL A   1      41.081  26.448  27.940  1.00  0.00     0.029 A 
ATOM     44  N   UNL A   1      43.257  26.880  27.650  1.00  0.00    -0.354 N 
ATOM     45  C   UNL A   1      44.817  30.885  28.202  1.00  0.00     0.074 A 
ATOM     46  C   UNL A   1      43.768  31.798  28.605  1.00  0.00     0.031 C 
ATOM     47  C   UNL A   1      41.686  25.287  27.637  1.00  0.00     0.029 A 
ATOM     48  C   UNL A   1      43.109  25.535  27.414  1.00  0.00     0.049 A 
ATOM     49  H   UNL A   1      44.124  27.344  27.601  1.00  0.00     0.167 HD
ATOM     50  C   UNL A   1      46.118  31.230  28.057  1.00  0.00     0.037 A 
ATOM     51  C   UNL A   1      44.017  24.611  27.044  1.00  0.00     0.037 A 
ATOM     52  C   UNL A   1      47.159  30.314  27.673  1.00  0.00     0.049 A 
ATOM     53  C   UNL A   1      45.451  25.027  26.861  1.00  0.00     0.074 A 
ATOM     54  C   UNL A   1      48.507  30.563  27.494  1.00  0.00     0.029 A 
ATOM     55  N   UNL A   1      46.965  28.964  27.412  1.00  0.00    -0.354 N 
ATOM     56  N   UNL A   1      45.994  26.211  27.023  1.00  0.00    -0.248 NA
ATOM     57  C   UNL A   1      46.396  23.982  26.446  1.00  0.00     0.031 C 
ATOM     58  C   UNL A   1      49.125  29.371  27.098  1.00  0.00     0.029 A 
ATOM     59  C   UNL A   1      48.168  28.371  27.065  1.00  0.00     0.049 A 
ATOM     60  H   UNL A   1      46.100  28.497  27.466  1.00  0.00     0.167 HD
ATOM     61  C   UNL A   1      47.346  26.050  26.739  1.00  0.00     0.074 A 
ATOM     62  C   UNL A   1      47.541  24.651  26.417  1.00  0.00     0.031 C 
ATOM     63  C   UNL A   1      48.337  26.976  26.743  1.00  0.00     0.037 A 
BRANCH  50  64
ATOM     64  C   UNL A   1      46.477  32.672  28.286  1.00  0.00     0.058 A 
ATOM     65  C   UNL A   1      46.903  33.138  29.539  1.00  0.00     0.135 A 
ATOM     66  C   UNL A   1      46.402  33.597  27.233  1.00  0.00     0.135 A 
ATOM     67  F   UNL A   1      46.970  32.298  30.585  1.00  0.00    -0.206 F 
ATOM     68  C   UNL A   1      47.215  34.477  29.748  1.00  0.00     0.059 A 
ATOM     69  C   UNL A   1      46.730  34.937  27.413  1.00  0.00     0.059 A 
ATOM     70  F   UNL A   1      45.997  33.203  26.015  1.00  0.00    -0.206 F 
ATOM     71  C   UNL A   1      47.121  35.371  28.680  1.00  0.00     0.060 A 
BRANCH  71  72
ATOM     72  S   UNL A   1      47.519  37.109  28.964  1.00  0.00     0.124 S 
ATOM     73  O   UNL A   1      47.955  37.083  30.356  1.00  0.00    -0.237 OA
ATOM     74  O   UNL A   1      48.567  37.357  27.977  1.00  0.00    -0.237 OA
ATOM     75  O   UNL A   1      46.254  37.792  28.715  1.00  0.00    -0.744 OA
ENDBRANCH  71  72
ENDBRANCH  50  64
BRANCH  51  76
ATOM     76  C   UNL A   1      43.592  23.206  26.809  1.00  0.00     0.058 A 
ATOM     77  C   UNL A   1      43.547  22.669  25.516  1.00  0.00     0.135 A 
ATOM     78  C   UNL A   1      43.234  22.371  27.879  1.00  0.00     0.135 A 
ATOM     79  F   UNL A   1      43.871  23.432  24.461  1.00  0.00    -0.206 F 
ATOM     80  C   UNL A   1      43.151  21.355  25.287  1.00  0.00     0.059 A 
ATOM     81  C   UNL A   1      42.857  21.048  27.679  1.00  0.00     0.059 A 
ATOM     82  F   UNL A   1      43.273  22.838  29.138  1.00  0.00    -0.206 F 
ATOM     83  C   UNL A   1      42.810  20.551  26.377  1.00  0.00     0.060 A 
BRANCH  83  84
ATOM     84  S   UNL A   1      42.351  18.829  26.080  1.00  0.00     0.124 S 
ATOM     85  O   UNL A   1      43.267  18.464  25.007  1.00  0.00    -0.237 OA
ATOM     86  O   UNL A   1      42.608  18.212  27.378  1.00  0.00    -0.237 OA
ATOM     87  O   UNL A   1      40.943  18.920  25.708  1.00  0.00    -0.744 OA
ENDBRANCH  83  84
ENDBRANCH  51  76
BRANCH  63  88
ATOM     88  C   UNL A   1      49.719  26.494  26.404  1.00  0.00     0.058 A 
ATOM     89  C   UNL A   1      50.593  26.017  27.393  1.00  0.00     0.135 A 
ATOM     90  C   UNL A   1      50.169  26.498  25.075  1.00  0.00     0.135 A 
ATOM     91  F   UNL A   1      50.210  25.998  28.680  1.00  0.00    -0.206 F 
ATOM     92  C   UNL A   1      51.879  25.591  27.081  1.00  0.00     0.059 A 
ATOM     93  C   UNL A   1      51.443  26.055  24.736  1.00  0.00     0.059 A 
ATOM     94  F   UNL A   1      49.367  26.934  24.091  1.00  0.00    -0.206 F 
ATOM     95  C   UNL A   1      52.298  25.620  25.749  1.00  0.00     0.060 A 
BRANCH  95  96
ATOM     96  S   UNL A   1      53.969  25.066  25.348  1.00  0.00     0.124 S 
ATOM     97  O   UNL A   1      54.328  25.980  24.269  1.00  0.00    -0.237 OA
ATOM     98  O   UNL A   1      54.679  25.263  26.609  1.00  0.00    -0.237 OA
ATOM     99  O   UNL A   1      53.777  23.674  24.957  1.00  0.00    -0.744 OA
ENDBRANCH  95  96
ENDBRANCH  63  88
ENDBRANCH  37  38
ENDBRANCH  30  32
ENDBRANCH  29  30
ENDBRANCH  28  29
ENDBRANCH   1  28
TORSDOF 19
ENDMDL
MODEL 2
REMARK VINA RESULT:     -11.2      1.871      2.518
REMARK SMILES C[C@@H](Oc1ccc(-c2ccccc2)cc1)C(=O)N1CCC[C@H](C(=O)OCCOC(=O)c2ccc(-c3c4nc(c(-c5c(F)cc(S(=O)(=O)[O-])cc5F)c5ccc([nH]5)c(-c5c(F)cc(S(=O)(=O)[O-])cc5F)c5nc(c(-c6c(F)cc(S(=O)(=O)[O-])cc6F)c6ccc3[nH]6)C=C5)C=C4)cc2)C1
REMARK SMILES IDX 26 1 25 2 23 3 24 4 22 5 18 6 19 7 97 8 20 9 21 10 16 11
REMARK SMILES IDX 17 12 2 13 1 14 3 15 4 16 5 17 15 18 6 19 14 20 7 21 8 22
REMARK SMILES IDX 9 23 13 24 10 25 12 26 11 27 27 28 28 29 29 30 30 31 31 32
REMARK SMILES IDX 32 33 96 34 33 35 95 36 34 37 35 38 36 39 89 40 37 41 94 42
REMARK SMILES IDX 88 43 90 44 38 45 93 46 87 47 86 48 39 50 73 51 52 52 72 53
REMARK SMILES IDX 53 54 56 55 71 56 91 57 54 58 55 59 70 61 92 62 57 63 40 64
REMARK SMILES IDX 41 65 50 66 42 67 43 68 49 69 51 70 44 71 45 72 46 73 47 74
REMARK SMILES IDX 48 75 74 76 75 77 84 78 76 79 77 80 83 81 85 82 78 83 79 84
REMARK SMILES IDX 80 85 81 86 82 87 58 88 59 89 68 90 60 91 61 92 67 93 69 94
REMARK SMILES IDX 62 95 63 96 64 97 65 98 66 99
REMARK H PARENT 90 49 56 60
REMARK Flexibility Score: inf
ROOT
ATOM      1  C   UNL A   1      33.905  29.229  26.960  1.00  0.00     0.274 C 
ENDROOT
BRANCH   1   2
ATOM      2  O   UNL A   1      33.003  29.993  26.137  1.00  0.00    -0.462 OA
BRANCH   2   3
ATOM      3  C   UNL A   1      32.625  29.453  24.953  1.00  0.00     0.310 C 
ATOM      4  O   UNL A   1      33.363  29.324  23.982  1.00  0.00    -0.252 OA
BRANCH   3   5
ATOM      5  C   UNL A   1      31.154  29.066  24.912  1.00  0.00     0.119 C 
ATOM      6  N   UNL A   1      31.408  26.991  23.634  1.00  0.00    -0.339 N 
ATOM      7  C   UNL A   1      30.591  27.462  22.519  1.00  0.00     0.119 C 
ATOM      8  C   UNL A   1      31.036  27.545  24.933  1.00  0.00     0.134 C 
ATOM      9  C   UNL A   1      30.579  28.983  22.414  1.00  0.00     0.022 C 
ATOM     10  C   UNL A   1      30.335  29.666  23.763  1.00  0.00     0.019 C 
BRANCH   6  11
ATOM     11  C   UNL A   1      32.445  26.094  23.400  1.00  0.00     0.263 C 
ATOM     12  O   UNL A   1      33.361  26.367  22.615  1.00  0.00    -0.271 OA
BRANCH  11  13
ATOM     13  C   UNL A   1      32.450  24.720  24.106  1.00  0.00     0.259 C 
ATOM     14  C   UNL A   1      31.058  24.275  24.548  1.00  0.00     0.064 C 
BRANCH  13  15
ATOM     15  O   UNL A   1      33.061  23.778  23.216  1.00  0.00    -0.481 OA
BRANCH  15  16
ATOM     16  C   UNL A   1      33.056  22.501  23.693  1.00  0.00     0.120 A 
ATOM     17  C   UNL A   1      33.908  22.149  24.735  1.00  0.00     0.047 A 
ATOM     18  C   UNL A   1      32.320  21.537  23.018  1.00  0.00     0.047 A 
ATOM     19  C   UNL A   1      34.021  20.805  25.106  1.00  0.00     0.012 A 
ATOM     20  C   UNL A   1      32.432  20.199  23.396  1.00  0.00     0.012 A 
ATOM     21  C   UNL A   1      33.298  19.805  24.431  1.00  0.00    -0.018 A 
BRANCH  21  22
ATOM     22  C   UNL A   1      33.476  18.379  24.748  1.00  0.00    -0.018 A 
ATOM     23  C   UNL A   1      32.537  17.671  25.513  1.00  0.00     0.009 A 
ATOM     24  C   UNL A   1      34.605  17.682  24.280  1.00  0.00     0.009 A 
ATOM     25  C   UNL A   1      32.714  16.312  25.789  1.00  0.00     0.001 A 
ATOM     26  C   UNL A   1      34.783  16.325  24.553  1.00  0.00     0.001 A 
ATOM     27  C   UNL A   1      33.836  15.639  25.306  1.00  0.00     0.000 A 
ENDBRANCH  21  22
ENDBRANCH  15  16
ENDBRANCH  13  15
ENDBRANCH  11  13
ENDBRANCH   6  11
ENDBRANCH   3   5
ENDBRANCH   2   3
ENDBRANCH   1   2
BRANCH   1  28
ATOM     28  C   UNL A   1      34.817  30.147  27.776  1.00  0.00     0.275 C 
BRANCH  28  29
ATOM     29  O   UNL A   1      35.681  29.383  28.637  1.00  0.00    -0.458 OA
BRANCH  29  30
ATOM     30  C   UNL A   1      36.397  30.122  29.515  1.00  0.00     0.338 C 
ATOM     31  O   UNL A   1      35.977  30.742  30.477  1.00  0.00    -0.246 OA
BRANCH  30  32
ATOM     32  C   UNL A   1      37.832  29.949  29.250  1.00  0.00     0.060 A 
ATOM     33  C   UNL A   1      38.224  29.791  27.918  1.00  0.00     0.016 A 
ATOM     34  C   UNL A   1      38.763  29.844  30.283  1.00  0.00     0.016 A 
ATOM     35  C   UNL A   1      39.548  29.511  27.609  1.00  0.00     0.010 A 
ATOM     36  C   UNL A   1      40.096  29.554  29.972  1.00  0.00     0.010 A 
ATOM     37  C   UNL A   1      40.489  29.363  28.635  1.00  0.00    -0.014 A 
BRANCH  37  38
ATOM     38  C   UNL A   1      41.852  28.901  28.288  1.00  0.00     0.031 A 
ATOM     39  C   UNL A   1      42.995  29.877  28.335  1.00  0.00     0.074 A 
ATOM     40  C   UNL A   1      42.074  27.604  28.011  1.00  0.00     0.049 A 
ATOM     41  N   UNL A   1      44.259  29.684  28.065  1.00  0.00    -0.248 NA
ATOM     42  C   UNL A   1      42.669  31.253  28.742  1.00  0.00     0.031 C 
ATOM     43  C   UNL A   1      41.050  26.559  27.987  1.00  0.00     0.029 A 
ATOM     44  N   UNL A   1      43.236  26.941  27.710  1.00  0.00    -0.354 N 
ATOM     45  C   UNL A   1      44.879  30.915  28.250  1.00  0.00     0.074 A 
ATOM     46  C   UNL A   1      43.847  31.853  28.641  1.00  0.00     0.031 C 
ATOM     47  C   UNL A   1      41.631  25.383  27.696  1.00  0.00     0.029 A 
ATOM     48  C   UNL A   1      43.060  25.599  27.481  1.00  0.00     0.049 A 
ATOM     49  H   UNL A   1      44.113  27.386  27.665  1.00  0.00     0.167 HD
ATOM     50  C   UNL A   1      46.188  31.231  28.112  1.00  0.00     0.037 A 
ATOM     51  C   UNL A   1      43.950  24.653  27.122  1.00  0.00     0.037 A 
ATOM     52  C   UNL A   1      47.211  30.289  27.741  1.00  0.00     0.049 A 
ATOM     53  C   UNL A   1      45.395  25.036  26.947  1.00  0.00     0.074 A 
ATOM     54  C   UNL A   1      48.566  30.509  27.570  1.00  0.00     0.029 A 
ATOM     55  N   UNL A   1      46.990  28.943  27.487  1.00  0.00    -0.354 N 
ATOM     56  N   UNL A   1      45.962  26.209  27.106  1.00  0.00    -0.248 NA
ATOM     57  C   UNL A   1      46.319  23.968  26.544  1.00  0.00     0.031 C 
ATOM     58  C   UNL A   1      49.161  29.301  27.185  1.00  0.00     0.029 A 
ATOM     59  C   UNL A   1      48.182  28.321  27.151  1.00  0.00     0.049 A 
ATOM     60  H   UNL A   1      46.115  28.495  27.537  1.00  0.00     0.167 HD
ATOM     61  C   UNL A   1      47.312  26.018  26.833  1.00  0.00     0.074 A 
ATOM     62  C   UNL A   1      47.478  24.612  26.520  1.00  0.00     0.031 C 
ATOM     63  C   UNL A   1      48.323  26.922  26.838  1.00  0.00     0.037 A 
BRANCH  50  64
ATOM     64  C   UNL A   1      46.577  32.665  28.336  1.00  0.00     0.058 A 
ATOM     65  C   UNL A   1      46.482  33.625  27.316  1.00  0.00     0.135 A 
ATOM     66  C   UNL A   1      47.041  33.086  29.592  1.00  0.00     0.135 A 
ATOM     67  F   UNL A   1      46.064  33.270  26.090  1.00  0.00    -0.206 F 
ATOM     68  C   UNL A   1      46.863  34.946  27.526  1.00  0.00     0.059 A 
ATOM     69  C   UNL A   1      47.407  34.407  29.830  1.00  0.00     0.059 A 
ATOM     70  F   UNL A   1      47.154  32.207  30.600  1.00  0.00    -0.206 F 
ATOM     71  C   UNL A   1      47.328  35.327  28.785  1.00  0.00     0.060 A 
BRANCH  71  72
ATOM     72  S   UNL A   1      47.828  37.043  29.044  1.00  0.00     0.124 S 
ATOM     73  O   UNL A   1      47.016  37.736  28.049  1.00  0.00    -0.237 OA
ATOM     74  O   UNL A   1      47.454  37.273  30.437  1.00  0.00    -0.237 OA
ATOM     75  O   UNL A   1      49.263  37.022  28.779  1.00  0.00    -0.744 OA
ENDBRANCH  71  72
ENDBRANCH  50  64
BRANCH  51  76
ATOM     76  C   UNL A   1      43.497  23.257  26.893  1.00  0.00     0.058 A 
ATOM     77  C   UNL A   1      43.452  22.712  25.602  1.00  0.00     0.135 A 
ATOM     78  C   UNL A   1      43.110  22.437  27.965  1.00  0.00     0.135 A 
ATOM     79  F   UNL A   1      43.803  23.460  24.545  1.00  0.00    -0.206 F 
ATOM     80  C   UNL A   1      43.029  21.405  25.378  1.00  0.00     0.059 A 
ATOM     81  C   UNL A   1      42.705  21.121  27.769  1.00  0.00     0.059 A 
ATOM     82  F   UNL A   1      43.146  22.910  29.220  1.00  0.00    -0.206 F 
ATOM     83  C   UNL A   1      42.659  20.616  26.470  1.00  0.00     0.060 A 
BRANCH  83  84
ATOM     84  S   UNL A   1      42.166  18.903  26.180  1.00  0.00     0.124 S 
ATOM     85  O   UNL A   1      42.436  18.297  27.477  1.00  0.00    -0.237 OA
ATOM     86  O   UNL A   1      40.758  19.043  25.820  1.00  0.00    -0.237 OA
ATOM     87  O   UNL A   1      43.043  18.485  25.090  1.00  0.00    -0.744 OA
ENDBRANCH  83  84
ENDBRANCH  51  76
BRANCH  63  88
ATOM     88  C   UNL A   1      49.696  26.408  26.512  1.00  0.00     0.058 A 
ATOM     89  C   UNL A   1      50.524  25.848  27.497  1.00  0.00     0.135 A 
ATOM     90  C   UNL A   1      50.184  26.464  25.197  1.00  0.00     0.135 A 
ATOM     91  F   UNL A   1      50.104  25.778  28.771  1.00  0.00    -0.206 F 
ATOM     92  C   UNL A   1      51.803  25.392  27.197  1.00  0.00     0.059 A 
ATOM     93  C   UNL A   1      51.451  25.993  24.870  1.00  0.00     0.059 A 
ATOM     94  F   UNL A   1      49.426  26.979  24.216  1.00  0.00    -0.206 F 
ATOM     95  C   UNL A   1      52.261  25.476  25.881  1.00  0.00     0.060 A 
BRANCH  95  96
ATOM     96  S   UNL A   1      53.922  24.882  25.496  1.00  0.00     0.124 S 
ATOM     97  O   UNL A   1      54.256  25.687  24.326  1.00  0.00    -0.237 OA
ATOM     98  O   UNL A   1      54.661  25.198  26.715  1.00  0.00    -0.237 OA
ATOM     99  O   UNL A   1      53.722  23.459  25.245  1.00  0.00    -0.744 OA
ENDBRANCH  95  96
ENDBRANCH  63  88
ENDBRANCH  37  38
ENDBRANCH  30  32
ENDBRANCH  29  30
ENDBRANCH  28  29
ENDBRANCH   1  28
TORSDOF 19
ENDMDL
MODEL 3
REMARK VINA RESULT:     -10.9      6.919     11.543
REMARK SMILES C[C@@H](Oc1ccc(-c2ccccc2)cc1)C(=O)N1CCC[C@H](C(=O)OCCOC(=O)c2ccc(-c3c4nc(c(-c5c(F)cc(S(=O)(=O)[O-])cc5F)c5ccc([nH]5)c(-c5c(F)cc(S(=O)(=O)[O-])cc5F)c5nc(c(-c6c(F)cc(S(=O)(=O)[O-])cc6F)c6ccc3[nH]6)C=C5)C=C4)cc2)C1
REMARK SMILES IDX 26 1 25 2 23 3 24 4 22 5 18 6 19 7 97 8 20 9 21 10 16 11
REMARK SMILES IDX 17 12 2 13 1 14 3 15 4 16 5 17 15 18 6 19 14 20 7 21 8 22
REMARK SMILES IDX 9 23 13 24 10 25 12 26 11 27 27 28 28 29 29 30 30 31 31 32
REMARK SMILES IDX 32 33 96 34 33 35 95 36 34 37 35 38 36 39 89 40 37 41 94 42
REMARK SMILES IDX 88 43 90 44 38 45 93 46 87 47 86 48 39 50 73 51 52 52 72 53
REMARK SMILES IDX 53 54 56 55 71 56 91 57 54 58 55 59 70 61 92 62 57 63 40 64
REMARK SMILES IDX 41 65 50 66 42 67 43 68 49 69 51 70 44 71 45 72 46 73 47 74
REMARK SMILES IDX 48 75 74 76 75 77 84 78 76 79 77 80 83 81 85 82 78 83 79 84
REMARK SMILES IDX 80 85 81 86 82 87 58 88 59 89 68 90 60 91 61 92 67 93 69 94
REMARK SMILES IDX 62 95 63 96 64 97 65 98 66 99
REMARK H PARENT 90 49 56 60
REMARK Flexibility Score: inf
ROOT
ATOM      1  C   UNL A   1      36.553  23.715  25.497  1.00  0.00     0.274 C 
ENDROOT
BRANCH   1   2
ATOM      2  O   UNL A   1      35.873  22.636  26.165  1.00  0.00    -0.462 OA
BRANCH   2   3
ATOM      3  C   UNL A   1      35.381  21.633  25.397  1.00  0.00     0.310 C 
ATOM      4  O   UNL A   1      35.726  21.410  24.242  1.00  0.00    -0.252 OA
BRANCH   3   5
ATOM      5  C   UNL A   1      34.294  20.825  26.091  1.00  0.00     0.119 C 
ATOM      6  N   UNL A   1      32.421  21.540  24.682  1.00  0.00    -0.339 N 
ATOM      7  C   UNL A   1      31.693  22.152  25.791  1.00  0.00     0.119 C 
ATOM      8  C   UNL A   1      33.252  20.400  25.060  1.00  0.00     0.134 C 
ATOM      9  C   UNL A   1      32.619  22.579  26.924  1.00  0.00     0.022 C 
ATOM     10  C   UNL A   1      33.631  21.493  27.301  1.00  0.00     0.019 C 
BRANCH   6  11
ATOM     11  C   UNL A   1      32.291  22.060  23.399  1.00  0.00     0.263 C 
ATOM     12  O   UNL A   1      31.649  21.462  22.528  1.00  0.00    -0.271 OA
BRANCH  11  13
ATOM     13  C   UNL A   1      32.980  23.394  23.036  1.00  0.00     0.259 C 
ATOM     14  C   UNL A   1      33.557  23.398  21.622  1.00  0.00     0.064 C 
BRANCH  13  15
ATOM     15  O   UNL A   1      32.024  24.444  23.232  1.00  0.00    -0.481 OA
BRANCH  15  16
ATOM     16  C   UNL A   1      32.536  25.527  23.881  1.00  0.00     0.120 A 
ATOM     17  C   UNL A   1      33.323  25.346  25.014  1.00  0.00     0.047 A 
ATOM     18  C   UNL A   1      32.122  26.795  23.498  1.00  0.00     0.047 A 
ATOM     19  C   UNL A   1      33.704  26.458  25.772  1.00  0.00     0.012 A 
ATOM     20  C   UNL A   1      32.510  27.901  24.253  1.00  0.00     0.012 A 
ATOM     21  C   UNL A   1      33.288  27.753  25.414  1.00  0.00    -0.018 A 
BRANCH  21  22
ATOM     22  C   UNL A   1      33.603  28.922  26.252  1.00  0.00    -0.018 A 
ATOM     23  C   UNL A   1      32.684  29.965  26.438  1.00  0.00     0.009 A 
ATOM     24  C   UNL A   1      34.849  29.018  26.898  1.00  0.00     0.009 A 
ATOM     25  C   UNL A   1      32.994  31.059  27.251  1.00  0.00     0.001 A 
ATOM     26  C   UNL A   1      35.160  30.108  27.712  1.00  0.00     0.001 A 
ATOM     27  C   UNL A   1      34.231  31.128  27.890  1.00  0.00     0.000 A 
ENDBRANCH  21  22
ENDBRANCH  15  16
ENDBRANCH  13  15
ENDBRANCH  11  13
ENDBRANCH   6  11
ENDBRANCH   3   5
ENDBRANCH   2   3
ENDBRANCH   1   2
BRANCH   1  28
ATOM     28  C   UNL A   1      38.050  23.701  25.809  1.00  0.00     0.275 C 
BRANCH  28  29
ATOM     29  O   UNL A   1      38.391  24.735  26.749  1.00  0.00    -0.458 OA
BRANCH  29  30
ATOM     30  C   UNL A   1      39.685  25.130  26.707  1.00  0.00     0.338 C 
ATOM     31  O   UNL A   1      40.485  24.949  25.806  1.00  0.00    -0.246 OA
BRANCH  30  32
ATOM     32  C   UNL A   1      39.977  25.983  27.868  1.00  0.00     0.060 A 
ATOM     33  C   UNL A   1      39.144  25.859  28.982  1.00  0.00     0.016 A 
ATOM     34  C   UNL A   1      40.982  26.951  27.834  1.00  0.00     0.016 A 
ATOM     35  C   UNL A   1      39.296  26.713  30.066  1.00  0.00     0.010 A 
ATOM     36  C   UNL A   1      41.130  27.816  28.923  1.00  0.00     0.010 A 
ATOM     37  C   UNL A   1      40.272  27.716  30.033  1.00  0.00    -0.014 A 
BRANCH  37  38
ATOM     38  C   UNL A   1      40.302  28.715  31.126  1.00  0.00     0.031 A 
ATOM     39  C   UNL A   1      39.317  29.851  31.113  1.00  0.00     0.074 A 
ATOM     40  C   UNL A   1      41.151  28.560  32.158  1.00  0.00     0.049 A 
ATOM     41  N   UNL A   1      39.176  30.833  31.963  1.00  0.00    -0.248 NA
ATOM     42  C   UNL A   1      38.364  29.883  29.992  1.00  0.00     0.031 C 
ATOM     43  C   UNL A   1      42.114  27.467  32.301  1.00  0.00     0.029 A 
ATOM     44  N   UNL A   1      41.329  29.315  33.288  1.00  0.00    -0.354 N 
ATOM     45  C   UNL A   1      38.132  31.611  31.475  1.00  0.00     0.074 A 
ATOM     46  C   UNL A   1      37.687  30.994  30.243  1.00  0.00     0.031 C 
ATOM     47  C   UNL A   1      42.778  27.619  33.459  1.00  0.00     0.029 A 
ATOM     48  C   UNL A   1      42.310  28.835  34.121  1.00  0.00     0.049 A 
ATOM     49  H   UNL A   1      40.803  30.124  33.484  1.00  0.00     0.167 HD
ATOM     50  C   UNL A   1      37.593  32.732  32.008  1.00  0.00     0.037 A 
ATOM     51  C   UNL A   1      42.786  29.329  35.280  1.00  0.00     0.037 A 
ATOM     52  C   UNL A   1      38.029  33.329  33.243  1.00  0.00     0.049 A 
ATOM     53  C   UNL A   1      42.189  30.593  35.837  1.00  0.00     0.074 A 
ATOM     54  C   UNL A   1      37.551  34.467  33.868  1.00  0.00     0.029 A 
ATOM     55  N   UNL A   1      39.046  32.831  34.045  1.00  0.00    -0.354 N 
ATOM     56  N   UNL A   1      41.216  31.329  35.353  1.00  0.00    -0.248 NA
ATOM     57  C   UNL A   1      42.754  31.093  37.097  1.00  0.00     0.031 C 
ATOM     58  C   UNL A   1      38.298  34.673  35.034  1.00  0.00     0.029 A 
ATOM     59  C   UNL A   1      39.217  33.644  35.154  1.00  0.00     0.049 A 
ATOM     60  H   UNL A   1      39.569  32.019  33.854  1.00  0.00     0.167 HD
ATOM     61  C   UNL A   1      41.045  32.374  36.254  1.00  0.00     0.074 A 
ATOM     62  C   UNL A   1      42.001  32.162  37.323  1.00  0.00     0.031 C 
ATOM     63  C   UNL A   1      40.178  33.416  36.203  1.00  0.00     0.037 A 
BRANCH  50  64
ATOM     64  C   UNL A   1      36.490  33.400  31.236  1.00  0.00     0.058 A 
ATOM     65  C   UNL A   1      35.151  33.337  31.653  1.00  0.00     0.135 A 
ATOM     66  C   UNL A   1      36.779  34.120  30.066  1.00  0.00     0.135 A 
ATOM     67  F   UNL A   1      34.818  32.642  32.753  1.00  0.00    -0.206 F 
ATOM     68  C   UNL A   1      34.134  33.941  30.922  1.00  0.00     0.059 A 
ATOM     69  C   UNL A   1      35.781  34.751  29.331  1.00  0.00     0.059 A 
ATOM     70  F   UNL A   1      38.043  34.207  29.621  1.00  0.00    -0.206 F 
ATOM     71  C   UNL A   1      34.458  34.643  29.759  1.00  0.00     0.060 A 
BRANCH  71  72
ATOM     72  S   UNL A   1      33.129  35.415  28.812  1.00  0.00     0.124 S 
ATOM     73  O   UNL A   1      32.584  34.271  28.089  1.00  0.00    -0.237 OA
ATOM     74  O   UNL A   1      32.275  35.966  29.861  1.00  0.00    -0.237 OA
ATOM     75  O   UNL A   1      33.825  36.403  27.993  1.00  0.00    -0.744 OA
ENDBRANCH  71  72
ENDBRANCH  50  64
BRANCH  51  76
ATOM     76  C   UNL A   1      43.895  28.634  35.984  1.00  0.00     0.058 A 
ATOM     77  C   UNL A   1      45.224  29.055  35.836  1.00  0.00     0.135 A 
ATOM     78  C   UNL A   1      43.643  27.539  36.826  1.00  0.00     0.135 A 
ATOM     79  F   UNL A   1      45.514  30.090  35.034  1.00  0.00    -0.206 F 
ATOM     80  C   UNL A   1      46.268  28.409  36.491  1.00  0.00     0.059 A 
ATOM     81  C   UNL A   1      44.667  26.893  37.509  1.00  0.00     0.059 A 
ATOM     82  F   UNL A   1      42.386  27.106  37.008  1.00  0.00    -0.206 F 
ATOM     83  C   UNL A   1      45.979  27.329  37.328  1.00  0.00     0.060 A 
BRANCH  83  84
ATOM     84  S   UNL A   1      47.331  26.531  38.220  1.00  0.00     0.124 S 
ATOM     85  O   UNL A   1      47.247  25.166  37.718  1.00  0.00    -0.237 OA
ATOM     86  O   UNL A   1      48.490  27.304  37.782  1.00  0.00    -0.237 OA
ATOM     87  O   UNL A   1      46.960  26.715  39.620  1.00  0.00    -0.744 OA
ENDBRANCH  83  84
ENDBRANCH  51  76
BRANCH  63  88
ATOM     88  C   UNL A   1      40.218  34.390  37.345  1.00  0.00     0.058 A 
ATOM     89  C   UNL A   1      39.400  34.231  38.474  1.00  0.00     0.135 A 
ATOM     90  C   UNL A   1      41.094  35.487  37.316  1.00  0.00     0.135 A 
ATOM     91  F   UNL A   1      38.542  33.201  38.547  1.00  0.00    -0.206 F 
ATOM     92  C   UNL A   1      39.423  35.146  39.522  1.00  0.00     0.059 A 
ATOM     93  C   UNL A   1      41.150  36.401  38.362  1.00  0.00     0.059 A 
ATOM     94  F   UNL A   1      41.905  35.676  36.264  1.00  0.00    -0.206 F 
ATOM     95  C   UNL A   1      40.297  36.233  39.453  1.00  0.00     0.060 A 
BRANCH  95  96
ATOM     96  S   UNL A   1      40.324  37.417  40.815  1.00  0.00     0.124 S 
ATOM     97  O   UNL A   1      40.984  38.561  40.195  1.00  0.00    -0.237 OA
ATOM     98  O   UNL A   1      38.905  37.589  41.113  1.00  0.00    -0.237 OA
ATOM     99  O   UNL A   1      41.094  36.729  41.846  1.00  0.00    -0.744 OA
ENDBRANCH  95  96
ENDBRANCH  63  88
ENDBRANCH  37  38
ENDBRANCH  30  32
ENDBRANCH  29  30
ENDBRANCH  28  29
ENDBRANCH   1  28
TORSDOF 19
ENDMDL
