MODEL 1
REMARK VINA RESULT:     -11.5      0.000      0.000
REMARK SMILES CC[C@@H]1[NH2+][C@@H](C(=O)OCCOC(=O)c2ccc(-c3c4nc(c(-c5c(F)cc(S(=O)(=O)[O-])cc5F)c5ccc([nH]5)c(-c5c(F)cc(S(=O)(=O)[O-])cc5F)c5nc(c(-c6c(F)cc(S(=O)(=O)[O-])cc6F)c6ccc3[nH]6)C=C5)C=C4)cc2)Cc2c1[nH]c1ccccc21
REMARK SMILES IDX 10 1 9 2 8 3 6 4 7 5 5 6 3 7 4 8 82 9 81 12 83 13 80 14
REMARK SMILES IDX 89 15 84 16 88 18 85 19 87 20 86 21 2 22 1 23 11 24 12 25
REMARK SMILES IDX 13 26 14 27 15 28 79 29 16 30 78 31 17 32 18 33 19 34 72 35
REMARK SMILES IDX 20 36 77 37 71 38 73 39 21 40 76 41 70 42 69 43 22 45 56 46
REMARK SMILES IDX 35 47 55 48 36 49 39 50 54 51 74 52 37 53 38 54 53 56 75 57
REMARK SMILES IDX 40 58 23 59 24 60 33 61 25 62 26 63 32 64 34 65 27 66 28 67
REMARK SMILES IDX 29 68 30 69 31 70 57 71 58 72 67 73 59 74 60 75 66 76 68 77
REMARK SMILES IDX 61 78 62 79 63 80 64 81 65 82 41 83 42 84 51 85 43 86 44 87
REMARK SMILES IDX 50 88 52 89 45 90 46 91 47 92 48 93 49 94
REMARK H PARENT 4 10 4 11 83 17 73 44 39 55
REMARK Flexibility Score: inf
ROOT
ATOM      1  C   UNL A   1      32.896  29.950  26.471  1.00  0.00     0.275 C 
ENDROOT
BRANCH   1   2
ATOM      2  C   UNL A   1      31.895  28.863  26.081  1.00  0.00     0.274 C 
BRANCH   2   3
ATOM      3  O   UNL A   1      32.568  27.670  25.633  1.00  0.00    -0.458 OA
BRANCH   3   4
ATOM      4  C   UNL A   1      31.914  26.493  25.849  1.00  0.00     0.365 C 
ATOM      5  O   UNL A   1      30.907  26.384  26.542  1.00  0.00    -0.245 OA
BRANCH   4   6
ATOM      6  C   UNL A   1      32.619  25.292  25.207  1.00  0.00     0.298 C 
ATOM      7  C   UNL A   1      32.369  22.890  24.555  1.00  0.00     0.230 C 
ATOM      8  N   UNL A   1      31.760  24.070  25.192  1.00  0.00    -0.327 N 
ATOM      9  C   UNL A   1      33.842  22.840  24.815  1.00  0.00     0.078 A 
ATOM     10  H   UNL A   1      31.536  23.829  26.158  1.00  0.00     0.347 HD
ATOM     11  H   UNL A   1      30.940  24.306  24.633  1.00  0.00     0.347 HD
ATOM     12  C   UNL A   1      34.595  23.809  25.443  1.00  0.00    -0.007 A 
ATOM     13  N   UNL A   1      34.674  21.787  24.542  1.00  0.00    -0.353 N 
ATOM     14  C   UNL A   1      33.956  25.052  25.943  1.00  0.00     0.115 C 
ATOM     15  C   UNL A   1      35.930  23.343  25.548  1.00  0.00     0.003 A 
ATOM     16  C   UNL A   1      35.955  22.070  24.972  1.00  0.00     0.046 A 
ATOM     17  H   UNL A   1      34.398  20.949  24.104  1.00  0.00     0.166 HD
ATOM     18  C   UNL A   1      37.116  23.862  26.102  1.00  0.00     0.010 A 
ATOM     19  C   UNL A   1      37.118  21.294  24.916  1.00  0.00     0.026 A 
ATOM     20  C   UNL A   1      38.287  23.095  26.056  1.00  0.00     0.001 A 
ATOM     21  C   UNL A   1      38.285  21.831  25.471  1.00  0.00     0.002 A 
BRANCH   7  22
ATOM     22  C   UNL A   1      32.003  22.738  23.067  1.00  0.00     0.068 C 
ATOM     23  C   UNL A   1      32.023  21.322  22.508  1.00  0.00     0.011 C 
ENDBRANCH   7  22
ENDBRANCH   4   6
ENDBRANCH   3   4
ENDBRANCH   2   3
ENDBRANCH   1   2
BRANCH   1  24
ATOM     24  O   UNL A   1      33.647  29.565  27.637  1.00  0.00    -0.458 OA
BRANCH  24  25
ATOM     25  C   UNL A   1      34.448  30.524  28.151  1.00  0.00     0.338 C 
ATOM     26  O   UNL A   1      34.141  31.660  28.462  1.00  0.00    -0.246 OA
BRANCH  25  27
ATOM     27  C   UNL A   1      35.807  29.989  28.307  1.00  0.00     0.060 A 
ATOM     28  C   UNL A   1      36.227  29.548  29.562  1.00  0.00     0.016 A 
ATOM     29  C   UNL A   1      36.697  30.034  27.236  1.00  0.00     0.016 A 
ATOM     30  C   UNL A   1      37.561  29.217  29.774  1.00  0.00     0.010 A 
ATOM     31  C   UNL A   1      38.021  29.638  27.433  1.00  0.00     0.010 A 
ATOM     32  C   UNL A   1      38.472  29.253  28.709  1.00  0.00    -0.014 A 
BRANCH  32  33
ATOM     33  C   UNL A   1      39.901  28.920  28.927  1.00  0.00     0.031 A 
ATOM     34  C   UNL A   1      40.841  29.974  29.439  1.00  0.00     0.074 A 
ATOM     35  C   UNL A   1      40.355  27.683  28.648  1.00  0.00     0.049 A 
ATOM     36  N   UNL A   1      42.147  29.958  29.497  1.00  0.00    -0.248 NA
ATOM     37  C   UNL A   1      40.231  31.215  29.943  1.00  0.00     0.031 C 
ATOM     38  C   UNL A   1      39.534  26.561  28.193  1.00  0.00     0.029 A 
ATOM     39  N   UNL A   1      41.626  27.168  28.698  1.00  0.00    -0.354 N 
ATOM     40  C   UNL A   1      42.520  31.203  29.993  1.00  0.00     0.074 A 
ATOM     41  C   UNL A   1      41.299  31.946  30.227  1.00  0.00     0.031 C 
ATOM     42  C   UNL A   1      40.319  25.488  28.009  1.00  0.00     0.029 A 
ATOM     43  C   UNL A   1      41.704  25.865  28.267  1.00  0.00     0.049 A 
ATOM     44  H   UNL A   1      42.405  27.682  29.010  1.00  0.00     0.167 HD
ATOM     45  C   UNL A   1      43.767  31.678  30.223  1.00  0.00     0.037 A 
ATOM     46  C   UNL A   1      42.777  25.077  28.060  1.00  0.00     0.037 A 
ATOM     47  C   UNL A   1      44.971  30.914  30.026  1.00  0.00     0.049 A 
ATOM     48  C   UNL A   1      44.151  25.629  28.310  1.00  0.00     0.074 A 
ATOM     49  C   UNL A   1      46.283  31.303  30.225  1.00  0.00     0.029 A 
ATOM     50  N   UNL A   1      45.005  29.594  29.598  1.00  0.00    -0.354 N 
ATOM     51  N   UNL A   1      44.494  26.827  28.719  1.00  0.00    -0.248 NA
ATOM     52  C   UNL A   1      45.285  24.730  28.057  1.00  0.00     0.031 C 
ATOM     53  C   UNL A   1      47.113  30.222  29.902  1.00  0.00     0.029 A 
ATOM     54  C   UNL A   1      46.315  29.153  29.528  1.00  0.00     0.049 A 
ATOM     55  H   UNL A   1      44.214  29.051  29.378  1.00  0.00     0.167 HD
ATOM     56  C   UNL A   1      45.881  26.824  28.783  1.00  0.00     0.074 A 
ATOM     57  C   UNL A   1      46.314  25.501  28.381  1.00  0.00     0.031 C 
ATOM     58  C   UNL A   1      46.721  27.827  29.136  1.00  0.00     0.037 A 
BRANCH  45  59
ATOM     59  C   UNL A   1      43.890  33.105  30.678  1.00  0.00     0.058 A 
ATOM     60  C   UNL A   1      43.949  33.446  32.038  1.00  0.00     0.135 A 
ATOM     61  C   UNL A   1      43.970  34.142  29.736  1.00  0.00     0.135 A 
ATOM     62  F   UNL A   1      43.859  32.493  32.979  1.00  0.00    -0.206 F 
ATOM     63  C   UNL A   1      44.058  34.771  32.448  1.00  0.00     0.059 A 
ATOM     64  C   UNL A   1      44.100  35.473  30.124  1.00  0.00     0.059 A 
ATOM     65  F   UNL A   1      43.917  33.869  28.423  1.00  0.00    -0.206 F 
ATOM     66  C   UNL A   1      44.128  35.779  31.483  1.00  0.00     0.060 A 
BRANCH  66  67
ATOM     67  S   UNL A   1      44.267  37.497  32.024  1.00  0.00     0.124 S 
ATOM     68  O   UNL A   1      43.350  37.519  33.160  1.00  0.00    -0.237 OA
ATOM     69  O   UNL A   1      45.684  37.612  32.353  1.00  0.00    -0.237 OA
ATOM     70  O   UNL A   1      43.836  38.255  30.854  1.00  0.00    -0.744 OA
ENDBRANCH  66  67
ENDBRANCH  45  59
BRANCH  46  71
ATOM     71  C   UNL A   1      42.585  23.693  27.556  1.00  0.00     0.058 A 
ATOM     72  C   UNL A   1      42.606  23.416  26.182  1.00  0.00     0.135 A 
ATOM     73  C   UNL A   1      42.412  22.616  28.440  1.00  0.00     0.135 A 
ATOM     74  F   UNL A   1      42.760  24.414  25.300  1.00  0.00    -0.206 F 
ATOM     75  C   UNL A   1      42.459  22.120  25.700  1.00  0.00     0.059 A 
ATOM     76  C   UNL A   1      42.285  21.309  27.984  1.00  0.00     0.059 A 
ATOM     77  F   UNL A   1      42.399  22.829  29.766  1.00  0.00    -0.206 F 
ATOM     78  C   UNL A   1      42.302  21.072  26.609  1.00  0.00     0.060 A 
BRANCH  78  79
ATOM     79  S   UNL A   1      42.182  19.382  25.983  1.00  0.00     0.124 S 
ATOM     80  O   UNL A   1      43.048  19.443  24.810  1.00  0.00    -0.237 OA
ATOM     81  O   UNL A   1      42.684  18.596  27.105  1.00  0.00    -0.237 OA
ATOM     82  O   UNL A   1      40.756  19.229  25.709  1.00  0.00    -0.744 OA
ENDBRANCH  78  79
ENDBRANCH  46  71
BRANCH  58  83
ATOM     83  C   UNL A   1      48.189  27.521  29.137  1.00  0.00     0.058 A 
ATOM     84  C   UNL A   1      48.991  27.778  28.015  1.00  0.00     0.135 A 
ATOM     85  C   UNL A   1      48.807  27.011  30.289  1.00  0.00     0.135 A 
ATOM     86  F   UNL A   1      48.443  28.258  26.889  1.00  0.00    -0.206 F 
ATOM     87  C   UNL A   1      50.359  27.527  28.031  1.00  0.00     0.059 A 
ATOM     88  C   UNL A   1      50.176  26.769  30.333  1.00  0.00     0.059 A 
ATOM     89  F   UNL A   1      48.081  26.756  31.389  1.00  0.00    -0.206 F 
ATOM     90  C   UNL A   1      50.943  27.022  29.195  1.00  0.00     0.060 A 
BRANCH  90  91
ATOM     91  S   UNL A   1      52.725  26.733  29.223  1.00  0.00     0.124 S 
ATOM     92  O   UNL A   1      52.922  25.994  27.981  1.00  0.00    -0.237 OA
ATOM     93  O   UNL A   1      53.265  28.089  29.245  1.00  0.00    -0.237 OA
ATOM     94  O   UNL A   1      52.924  25.968  30.450  1.00  0.00    -0.744 OA
ENDBRANCH  90  91
ENDBRANCH  58  83
ENDBRANCH  32  33
ENDBRANCH  25  27
ENDBRANCH  24  25
ENDBRANCH   1  24
TORSDOF 15
ENDMDL
MODEL 2
REMARK VINA RESULT:     -11.3      0.877      1.625
REMARK SMILES CC[C@@H]1[NH2+][C@@H](C(=O)OCCOC(=O)c2ccc(-c3c4nc(c(-c5c(F)cc(S(=O)(=O)[O-])cc5F)c5ccc([nH]5)c(-c5c(F)cc(S(=O)(=O)[O-])cc5F)c5nc(c(-c6c(F)cc(S(=O)(=O)[O-])cc6F)c6ccc3[nH]6)C=C5)C=C4)cc2)Cc2c1[nH]c1ccccc21
REMARK SMILES IDX 10 1 9 2 8 3 6 4 7 5 5 6 3 7 4 8 82 9 81 12 83 13 80 14
REMARK SMILES IDX 89 15 84 16 88 18 85 19 87 20 86 21 2 22 1 23 11 24 12 25
REMARK SMILES IDX 13 26 14 27 15 28 79 29 16 30 78 31 17 32 18 33 19 34 72 35
REMARK SMILES IDX 20 36 77 37 71 38 73 39 21 40 76 41 70 42 69 43 22 45 56 46
REMARK SMILES IDX 35 47 55 48 36 49 39 50 54 51 74 52 37 53 38 54 53 56 75 57
REMARK SMILES IDX 40 58 23 59 24 60 33 61 25 62 26 63 32 64 34 65 27 66 28 67
REMARK SMILES IDX 29 68 30 69 31 70 57 71 58 72 67 73 59 74 60 75 66 76 68 77
REMARK SMILES IDX 61 78 62 79 63 80 64 81 65 82 41 83 42 84 51 85 43 86 44 87
REMARK SMILES IDX 50 88 52 89 45 90 46 91 47 92 48 93 49 94
REMARK H PARENT 4 10 4 11 83 17 73 44 39 55
REMARK Flexibility Score: inf
ROOT
ATOM      1  C   UNL A   1      33.115  30.055  26.373  1.00  0.00     0.275 C 
ENDROOT
BRANCH   1   2
ATOM      2  C   UNL A   1      31.790  29.329  26.142  1.00  0.00     0.274 C 
BRANCH   2   3
ATOM      3  O   UNL A   1      31.637  28.220  27.048  1.00  0.00    -0.458 OA
BRANCH   3   4
ATOM      4  C   UNL A   1      31.296  27.025  26.485  1.00  0.00     0.365 C 
ATOM      5  O   UNL A   1      30.329  26.354  26.831  1.00  0.00    -0.245 OA
BRANCH   4   6
ATOM      6  C   UNL A   1      32.302  26.556  25.426  1.00  0.00     0.298 C 
ATOM      7  C   UNL A   1      32.572  25.844  23.044  1.00  0.00     0.230 C 
ATOM      8  N   UNL A   1      31.652  26.266  24.113  1.00  0.00    -0.327 N 
ATOM      9  C   UNL A   1      33.691  25.016  23.594  1.00  0.00     0.078 A 
ATOM     10  H   UNL A   1      30.970  25.521  24.257  1.00  0.00     0.347 HD
ATOM     11  H   UNL A   1      31.234  27.143  23.803  1.00  0.00     0.347 HD
ATOM     12  C   UNL A   1      33.945  24.765  24.925  1.00  0.00    -0.007 A 
ATOM     13  N   UNL A   1      34.603  24.303  22.860  1.00  0.00    -0.353 N 
ATOM     14  C   UNL A   1      33.068  25.333  25.978  1.00  0.00     0.115 C 
ATOM     15  C   UNL A   1      35.052  23.883  25.012  1.00  0.00     0.003 A 
ATOM     16  C   UNL A   1      35.450  23.610  23.701  1.00  0.00     0.046 A 
ATOM     17  H   UNL A   1      34.647  24.288  21.876  1.00  0.00     0.166 HD
ATOM     18  C   UNL A   1      35.740  23.265  26.074  1.00  0.00     0.010 A 
ATOM     19  C   UNL A   1      36.513  22.750  23.403  1.00  0.00     0.026 A 
ATOM     20  C   UNL A   1      36.804  22.400  25.791  1.00  0.00     0.001 A 
ATOM     21  C   UNL A   1      37.183  22.149  24.474  1.00  0.00     0.002 A 
BRANCH   7  22
ATOM     22  C   UNL A   1      33.049  27.006  22.152  1.00  0.00     0.068 C 
ATOM     23  C   UNL A   1      33.719  28.173  22.864  1.00  0.00     0.011 C 
ENDBRANCH   7  22
ENDBRANCH   4   6
ENDBRANCH   3   4
ENDBRANCH   2   3
ENDBRANCH   1   2
BRANCH   1  24
ATOM     24  O   UNL A   1      33.713  29.653  27.618  1.00  0.00    -0.458 OA
BRANCH  24  25
ATOM     25  C   UNL A   1      34.500  30.580  28.208  1.00  0.00     0.338 C 
ATOM     26  O   UNL A   1      34.181  31.694  28.584  1.00  0.00    -0.246 OA
BRANCH  25  27
ATOM     27  C   UNL A   1      35.857  30.041  28.357  1.00  0.00     0.060 A 
ATOM     28  C   UNL A   1      36.290  29.619  29.615  1.00  0.00     0.016 A 
ATOM     29  C   UNL A   1      36.734  30.063  27.275  1.00  0.00     0.016 A 
ATOM     30  C   UNL A   1      37.625  29.285  29.816  1.00  0.00     0.010 A 
ATOM     31  C   UNL A   1      38.059  29.664  27.463  1.00  0.00     0.010 A 
ATOM     32  C   UNL A   1      38.523  29.299  28.740  1.00  0.00    -0.014 A 
BRANCH  32  33
ATOM     33  C   UNL A   1      39.953  28.962  28.947  1.00  0.00     0.031 A 
ATOM     34  C   UNL A   1      40.901  30.015  29.447  1.00  0.00     0.074 A 
ATOM     35  C   UNL A   1      40.401  27.723  28.668  1.00  0.00     0.049 A 
ATOM     36  N   UNL A   1      42.207  29.995  29.493  1.00  0.00    -0.248 NA
ATOM     37  C   UNL A   1      40.298  31.259  29.952  1.00  0.00     0.031 C 
ATOM     38  C   UNL A   1      39.573  26.601  28.224  1.00  0.00     0.029 A 
ATOM     39  N   UNL A   1      41.671  27.204  28.708  1.00  0.00    -0.354 N 
ATOM     40  C   UNL A   1      42.588  31.240  29.982  1.00  0.00     0.074 A 
ATOM     41  C   UNL A   1      41.372  31.988  30.225  1.00  0.00     0.031 C 
ATOM     42  C   UNL A   1      40.353  25.526  28.036  1.00  0.00     0.029 A 
ATOM     43  C   UNL A   1      41.742  25.900  28.281  1.00  0.00     0.049 A 
ATOM     44  H   UNL A   1      42.454  27.716  29.013  1.00  0.00     0.167 HD
ATOM     45  C   UNL A   1      43.838  31.713  30.200  1.00  0.00     0.037 A 
ATOM     46  C   UNL A   1      42.810  25.107  28.067  1.00  0.00     0.037 A 
ATOM     47  C   UNL A   1      45.038  30.944  29.995  1.00  0.00     0.049 A 
ATOM     48  C   UNL A   1      44.187  25.656  28.304  1.00  0.00     0.074 A 
ATOM     49  C   UNL A   1      46.353  31.330  30.182  1.00  0.00     0.029 A 
ATOM     50  N   UNL A   1      45.065  29.623  29.572  1.00  0.00    -0.354 N 
ATOM     51  N   UNL A   1      44.538  26.855  28.705  1.00  0.00    -0.248 NA
ATOM     52  C   UNL A   1      45.317  24.753  28.044  1.00  0.00     0.031 C 
ATOM     53  C   UNL A   1      47.177  30.246  29.855  1.00  0.00     0.029 A 
ATOM     54  C   UNL A   1      46.373  29.178  29.492  1.00  0.00     0.049 A 
ATOM     55  H   UNL A   1      44.270  29.081  29.360  1.00  0.00     0.167 HD
ATOM     56  C   UNL A   1      45.926  26.848  28.758  1.00  0.00     0.074 A 
ATOM     57  C   UNL A   1      46.352  25.522  28.357  1.00  0.00     0.031 C 
ATOM     58  C   UNL A   1      46.771  27.850  29.101  1.00  0.00     0.037 A 
BRANCH  45  59
ATOM     59  C   UNL A   1      43.970  33.140  30.650  1.00  0.00     0.058 A 
ATOM     60  C   UNL A   1      44.050  34.201  29.735  1.00  0.00     0.135 A 
ATOM     61  C   UNL A   1      43.997  33.450  32.019  1.00  0.00     0.135 A 
ATOM     62  F   UNL A   1      44.047  33.957  28.415  1.00  0.00    -0.206 F 
ATOM     63  C   UNL A   1      44.177  35.519  30.163  1.00  0.00     0.059 A 
ATOM     64  C   UNL A   1      44.103  34.763  32.470  1.00  0.00     0.059 A 
ATOM     65  F   UNL A   1      43.924  32.471  32.935  1.00  0.00    -0.206 F 
ATOM     66  C   UNL A   1      44.208  35.790  31.533  1.00  0.00     0.060 A 
BRANCH  66  67
ATOM     67  S   UNL A   1      44.375  37.503  32.081  1.00  0.00     0.124 S 
ATOM     68  O   UNL A   1      43.469  37.532  33.225  1.00  0.00    -0.237 OA
ATOM     69  O   UNL A   1      45.796  37.598  32.398  1.00  0.00    -0.237 OA
ATOM     70  O   UNL A   1      43.944  38.272  30.919  1.00  0.00    -0.744 OA
ENDBRANCH  66  67
ENDBRANCH  45  59
BRANCH  46  71
ATOM     71  C   UNL A   1      42.610  23.722  27.570  1.00  0.00     0.058 A 
ATOM     72  C   UNL A   1      42.534  23.454  26.196  1.00  0.00     0.135 A 
ATOM     73  C   UNL A   1      42.525  22.638  28.456  1.00  0.00     0.135 A 
ATOM     74  F   UNL A   1      42.601  24.459  25.312  1.00  0.00    -0.206 F 
ATOM     75  C   UNL A   1      42.378  22.157  25.717  1.00  0.00     0.059 A 
ATOM     76  C   UNL A   1      42.391  21.331  28.002  1.00  0.00     0.059 A 
ATOM     77  F   UNL A   1      42.606  22.844  29.781  1.00  0.00    -0.206 F 
ATOM     78  C   UNL A   1      42.311  21.101  26.629  1.00  0.00     0.060 A 
BRANCH  78  79
ATOM     79  S   UNL A   1      42.180  19.413  26.001  1.00  0.00     0.124 S 
ATOM     80  O   UNL A   1      40.746  19.302  25.758  1.00  0.00    -0.237 OA
ATOM     81  O   UNL A   1      43.027  19.453  24.813  1.00  0.00    -0.237 OA
ATOM     82  O   UNL A   1      42.699  18.607  27.103  1.00  0.00    -0.744 OA
ENDBRANCH  78  79
ENDBRANCH  46  71
BRANCH  58  83
ATOM     83  C   UNL A   1      48.239  27.539  29.089  1.00  0.00     0.058 A 
ATOM     84  C   UNL A   1      49.024  27.757  27.948  1.00  0.00     0.135 A 
ATOM     85  C   UNL A   1      48.873  27.065  30.249  1.00  0.00     0.135 A 
ATOM     86  F   UNL A   1      48.461  28.201  26.815  1.00  0.00    -0.206 F 
ATOM     87  C   UNL A   1      50.391  27.502  27.952  1.00  0.00     0.059 A 
ATOM     88  C   UNL A   1      50.242  26.821  30.280  1.00  0.00     0.059 A 
ATOM     89  F   UNL A   1      48.162  26.848  31.367  1.00  0.00    -0.206 F 
ATOM     90  C   UNL A   1      50.991  27.033  29.123  1.00  0.00     0.060 A 
BRANCH  90  91
ATOM     91  S   UNL A   1      52.773  26.740  29.134  1.00  0.00     0.124 S 
ATOM     92  O   UNL A   1      53.294  28.102  29.099  1.00  0.00    -0.237 OA
ATOM     93  O   UNL A   1      52.968  26.020  30.389  1.00  0.00    -0.237 OA
ATOM     94  O   UNL A   1      52.993  25.950  27.927  1.00  0.00    -0.744 OA
ENDBRANCH  90  91
ENDBRANCH  58  83
ENDBRANCH  32  33
ENDBRANCH  25  27
ENDBRANCH  24  25
ENDBRANCH   1  24
TORSDOF 15
ENDMDL
MODEL 3
REMARK VINA RESULT:     -11.2      2.165      3.115
REMARK SMILES CC[C@@H]1[NH2+][C@@H](C(=O)OCCOC(=O)c2ccc(-c3c4nc(c(-c5c(F)cc(S(=O)(=O)[O-])cc5F)c5ccc([nH]5)c(-c5c(F)cc(S(=O)(=O)[O-])cc5F)c5nc(c(-c6c(F)cc(S(=O)(=O)[O-])cc6F)c6ccc3[nH]6)C=C5)C=C4)cc2)Cc2c1[nH]c1ccccc21
REMARK SMILES IDX 10 1 9 2 8 3 6 4 7 5 5 6 3 7 4 8 82 9 81 12 83 13 80 14
REMARK SMILES IDX 89 15 84 16 88 18 85 19 87 20 86 21 2 22 1 23 11 24 12 25
REMARK SMILES IDX 13 26 14 27 15 28 79 29 16 30 78 31 17 32 18 33 19 34 72 35
REMARK SMILES IDX 20 36 77 37 71 38 73 39 21 40 76 41 70 42 69 43 22 45 56 46
REMARK SMILES IDX 35 47 55 48 36 49 39 50 54 51 74 52 37 53 38 54 53 56 75 57
REMARK SMILES IDX 40 58 23 59 24 60 33 61 25 62 26 63 32 64 34 65 27 66 28 67
REMARK SMILES IDX 29 68 30 69 31 70 57 71 58 72 67 73 59 74 60 75 66 76 68 77
REMARK SMILES IDX 61 78 62 79 63 80 64 81 65 82 41 83 42 84 51 85 43 86 44 87
REMARK SMILES IDX 50 88 52 89 45 90 46 91 47 92 48 93 49 94
REMARK H PARENT 4 10 4 11 83 17 73 44 39 55
REMARK Flexibility Score: inf
ROOT
ATOM      1  C   UNL A   1      34.123  30.871  28.039  1.00  0.00     0.275 C 
ENDROOT
BRANCH   1   2
ATOM      2  C   UNL A   1      33.531  30.213  26.794  1.00  0.00     0.274 C 
BRANCH   2   3
ATOM      3  O   UNL A   1      32.176  29.781  27.023  1.00  0.00    -0.458 OA
BRANCH   3   4
ATOM      4  C   UNL A   1      31.966  28.433  27.026  1.00  0.00     0.365 C 
ATOM      5  O   UNL A   1      31.416  27.826  27.939  1.00  0.00    -0.245 OA
BRANCH   4   6
ATOM      6  C   UNL A   1      32.571  27.733  25.803  1.00  0.00     0.298 C 
ATOM      7  C   UNL A   1      32.067  26.759  23.555  1.00  0.00     0.230 C 
ATOM      8  N   UNL A   1      31.542  27.403  24.771  1.00  0.00    -0.327 N 
ATOM      9  C   UNL A   1      33.210  25.848  23.879  1.00  0.00     0.078 A 
ATOM     10  H   UNL A   1      30.861  26.772  25.194  1.00  0.00     0.347 HD
ATOM     11  H   UNL A   1      31.141  28.292  24.474  1.00  0.00     0.347 HD
ATOM     12  C   UNL A   1      33.812  25.700  25.110  1.00  0.00    -0.007 A 
ATOM     13  N   UNL A   1      33.795  24.952  23.024  1.00  0.00    -0.353 N 
ATOM     14  C   UNL A   1      33.338  26.480  26.279  1.00  0.00     0.115 C 
ATOM     15  C   UNL A   1      34.805  24.691  25.005  1.00  0.00     0.003 A 
ATOM     16  C   UNL A   1      34.777  24.240  23.683  1.00  0.00     0.046 A 
ATOM     17  H   UNL A   1      33.551  24.834  22.078  1.00  0.00     0.166 HD
ATOM     18  C   UNL A   1      35.706  24.096  25.908  1.00  0.00     0.010 A 
ATOM     19  C   UNL A   1      35.618  23.221  23.219  1.00  0.00     0.026 A 
ATOM     20  C   UNL A   1      36.552  23.074  25.459  1.00  0.00     0.001 A 
ATOM     21  C   UNL A   1      36.507  22.646  24.134  1.00  0.00     0.002 A 
BRANCH   7  22
ATOM     22  C   UNL A   1      32.378  27.753  22.420  1.00  0.00     0.068 C 
ATOM     23  C   UNL A   1      33.713  28.481  22.506  1.00  0.00     0.011 C 
ENDBRANCH   7  22
ENDBRANCH   4   6
ENDBRANCH   3   4
ENDBRANCH   2   3
ENDBRANCH   1   2
BRANCH   1  24
ATOM     24  O   UNL A   1      35.553  30.984  27.933  1.00  0.00    -0.458 OA
BRANCH  24  25
ATOM     25  C   UNL A   1      36.217  31.056  29.108  1.00  0.00     0.338 C 
ATOM     26  O   UNL A   1      35.834  31.563  30.146  1.00  0.00    -0.246 OA
BRANCH  25  27
ATOM     27  C   UNL A   1      37.522  30.396  28.970  1.00  0.00     0.060 A 
ATOM     28  C   UNL A   1      38.347  30.276  30.088  1.00  0.00     0.016 A 
ATOM     29  C   UNL A   1      37.970  30.005  27.710  1.00  0.00     0.016 A 
ATOM     30  C   UNL A   1      39.657  29.829  29.942  1.00  0.00     0.010 A 
ATOM     31  C   UNL A   1      39.263  29.494  27.575  1.00  0.00     0.010 A 
ATOM     32  C   UNL A   1      40.127  29.428  28.684  1.00  0.00    -0.014 A 
BRANCH  32  33
ATOM     33  C   UNL A   1      41.527  28.968  28.513  1.00  0.00     0.031 A 
ATOM     34  C   UNL A   1      42.653  29.956  28.618  1.00  0.00     0.074 A 
ATOM     35  C   UNL A   1      41.783  27.673  28.247  1.00  0.00     0.049 A 
ATOM     36  N   UNL A   1      43.912  29.811  28.297  1.00  0.00    -0.248 NA
ATOM     37  C   UNL A   1      42.316  31.289  29.144  1.00  0.00     0.031 C 
ATOM     38  C   UNL A   1      40.781  26.609  28.169  1.00  0.00     0.029 A 
ATOM     39  N   UNL A   1      42.968  27.035  27.981  1.00  0.00    -0.354 N 
ATOM     40  C   UNL A   1      44.508  31.045  28.531  1.00  0.00     0.074 A 
ATOM     41  C   UNL A   1      43.472  31.926  29.028  1.00  0.00     0.031 C 
ATOM     42  C   UNL A   1      41.393  25.450  27.879  1.00  0.00     0.029 A 
ATOM     43  C   UNL A   1      42.817  25.702  27.685  1.00  0.00     0.049 A 
ATOM     44  H   UNL A   1      43.841  27.489  27.999  1.00  0.00     0.167 HD
ATOM     45  C   UNL A   1      45.799  31.407  28.339  1.00  0.00     0.037 A 
ATOM     46  C   UNL A   1      43.717  24.793  27.261  1.00  0.00     0.037 A 
ATOM     47  C   UNL A   1      46.829  30.509  27.884  1.00  0.00     0.049 A 
ATOM     48  C   UNL A   1      45.140  25.219  27.044  1.00  0.00     0.074 A 
ATOM     49  C   UNL A   1      48.166  30.775  27.654  1.00  0.00     0.029 A 
ATOM     50  N   UNL A   1      46.635  29.163  27.606  1.00  0.00    -0.354 N 
ATOM     51  N   UNL A   1      45.678  26.404  27.208  1.00  0.00    -0.248 NA
ATOM     52  C   UNL A   1      46.076  24.191  26.570  1.00  0.00     0.031 C 
ATOM     53  C   UNL A   1      48.779  29.593  27.220  1.00  0.00     0.029 A 
ATOM     54  C   UNL A   1      47.828  28.586  27.207  1.00  0.00     0.049 A 
ATOM     55  H   UNL A   1      45.775  28.689  27.683  1.00  0.00     0.167 HD
ATOM     56  C   UNL A   1      47.018  26.263  26.868  1.00  0.00     0.074 A 
ATOM     57  C   UNL A   1      47.211  24.874  26.500  1.00  0.00     0.031 C 
ATOM     58  C   UNL A   1      47.997  27.199  26.856  1.00  0.00     0.037 A 
BRANCH  45  59
ATOM     59  C   UNL A   1      46.160  32.844  28.587  1.00  0.00     0.058 A 
ATOM     60  C   UNL A   1      46.073  33.814  27.578  1.00  0.00     0.135 A 
ATOM     61  C   UNL A   1      46.580  33.257  29.861  1.00  0.00     0.135 A 
ATOM     62  F   UNL A   1      45.695  33.468  26.337  1.00  0.00    -0.206 F 
ATOM     63  C   UNL A   1      46.415  35.142  27.817  1.00  0.00     0.059 A 
ATOM     64  C   UNL A   1      46.907  34.583  30.129  1.00  0.00     0.059 A 
ATOM     65  F   UNL A   1      46.680  32.367  30.862  1.00  0.00    -0.206 F 
ATOM     66  C   UNL A   1      46.836  35.516  29.095  1.00  0.00     0.060 A 
BRANCH  66  67
ATOM     67  S   UNL A   1      47.280  37.240  29.398  1.00  0.00     0.124 S 
ATOM     68  O   UNL A   1      48.608  37.309  28.795  1.00  0.00    -0.237 OA
ATOM     69  O   UNL A   1      46.228  37.967  28.696  1.00  0.00    -0.237 OA
ATOM     70  O   UNL A   1      47.246  37.347  30.853  1.00  0.00    -0.744 OA
ENDBRANCH  66  67
ENDBRANCH  45  59
BRANCH  46  71
ATOM     71  C   UNL A   1      43.280  23.401  26.983  1.00  0.00     0.058 A 
ATOM     72  C   UNL A   1      43.083  22.956  25.668  1.00  0.00     0.135 A 
ATOM     73  C   UNL A   1      43.085  22.480  28.023  1.00  0.00     0.135 A 
ATOM     74  F   UNL A   1      43.249  23.803  24.642  1.00  0.00    -0.206 F 
ATOM     75  C   UNL A   1      42.704  21.646  25.393  1.00  0.00     0.059 A 
ATOM     76  C   UNL A   1      42.727  21.160  27.773  1.00  0.00     0.059 A 
ATOM     77  F   UNL A   1      43.274  22.855  29.299  1.00  0.00    -0.206 F 
ATOM     78  C   UNL A   1      42.532  20.754  26.453  1.00  0.00     0.060 A 
BRANCH  78  79
ATOM     79  S   UNL A   1      42.110  19.036  26.089  1.00  0.00     0.124 S 
ATOM     80  O   UNL A   1      42.487  18.373  27.332  1.00  0.00    -0.237 OA
ATOM     81  O   UNL A   1      40.679  19.116  25.817  1.00  0.00    -0.237 OA
ATOM     82  O   UNL A   1      42.942  18.728  24.930  1.00  0.00    -0.744 OA
ENDBRANCH  78  79
ENDBRANCH  46  71
BRANCH  58  83
ATOM     83  C   UNL A   1      49.372  26.744  26.464  1.00  0.00     0.058 A 
ATOM     84  C   UNL A   1      50.248  26.171  27.398  1.00  0.00     0.135 A 
ATOM     85  C   UNL A   1      49.796  26.837  25.130  1.00  0.00     0.135 A 
ATOM     86  F   UNL A   1      49.888  26.069  28.687  1.00  0.00    -0.206 F 
ATOM     87  C   UNL A   1      51.508  25.717  27.024  1.00  0.00     0.059 A 
ATOM     88  C   UNL A   1      51.046  26.373  24.730  1.00  0.00     0.059 A 
ATOM     89  F   UNL A   1      48.990  27.371  24.199  1.00  0.00    -0.206 F 
ATOM     90  C   UNL A   1      51.898  25.823  25.688  1.00  0.00     0.060 A 
BRANCH  90  91
ATOM     91  S   UNL A   1      53.520  25.197  25.200  1.00  0.00     0.124 S 
ATOM     92  O   UNL A   1      53.629  25.696  23.834  1.00  0.00    -0.237 OA
ATOM     93  O   UNL A   1      54.408  25.824  26.175  1.00  0.00    -0.237 OA
ATOM     94  O   UNL A   1      53.378  23.751  25.333  1.00  0.00    -0.744 OA
ENDBRANCH  90  91
ENDBRANCH  58  83
ENDBRANCH  32  33
ENDBRANCH  25  27
ENDBRANCH  24  25
ENDBRANCH   1  24
TORSDOF 15
ENDMDL
