MODEL 1
REMARK VINA RESULT:     -11.3      0.000      0.000
REMARK SMILES COc1cccc(NC(=O)NC2(C(=O)OCCOC(=O)c3ccc(-c4c5nc(c(-c6c(F)cc(S(=O)(=O)[O-])cc6F)c6ccc([nH]6)c(-c6c(F)cc(S(=O)(=O)[O-])cc6F)c6nc(c(-c7c(F)cc(S(=O)(=O)[O-])cc7F)c7ccc4[nH]7)C=C6)C=C5)cc3)CCCCC2)c1
REMARK SMILES IDX 16 1 15 2 13 3 14 4 12 5 87 6 91 7 88 8 90 9 89 10 11 11
REMARK SMILES IDX 8 12 9 13 10 15 7 17 3 18 4 19 92 20 5 21 6 22 2 23 1 24
REMARK SMILES IDX 17 25 18 26 19 27 20 28 21 29 22 30 86 31 23 32 85 33 24 34
REMARK SMILES IDX 25 35 26 36 79 37 27 38 84 39 78 40 80 41 28 42 83 43 77 44
REMARK SMILES IDX 76 45 29 47 63 48 42 49 62 50 43 51 46 52 61 53 81 54 44 55
REMARK SMILES IDX 45 56 60 58 82 59 47 60 30 61 31 62 40 63 32 64 33 65 39 66
REMARK SMILES IDX 41 67 34 68 35 69 36 70 37 71 38 72 64 73 65 74 74 75 66 76
REMARK SMILES IDX 67 77 73 78 75 79 68 80 69 81 70 82 71 83 72 84 48 85 49 86
REMARK SMILES IDX 58 87 50 88 51 89 57 90 59 91 52 92 53 93 54 94 55 95 56 96
REMARK H PARENT 8 14 11 16 80 46 46 57
REMARK Flexibility Score: inf
ROOT
ATOM      1  C   UNL A   1      32.037  29.485  25.807  1.00  0.00     0.274 C 
ENDROOT
BRANCH   1   2
ATOM      2  O   UNL A   1      31.566  28.131  25.926  1.00  0.00    -0.460 OA
BRANCH   2   3
ATOM      3  C   UNL A   1      31.190  27.469  24.799  1.00  0.00     0.332 C 
ATOM      4  O   UNL A   1      30.246  27.798  24.089  1.00  0.00    -0.249 OA
BRANCH   3   5
ATOM      5  C   UNL A   1      31.997  26.139  24.591  1.00  0.00     0.139 C 
ATOM      6  C   UNL A   1      33.443  26.625  24.366  1.00  0.00     0.040 C 
ATOM      7  C   UNL A   1      31.391  25.343  23.415  1.00  0.00     0.040 C 
ATOM      8  C   UNL A   1      33.694  27.179  22.970  1.00  0.00     0.003 C 
ATOM      9  C   UNL A   1      31.789  25.816  22.013  1.00  0.00     0.003 C 
ATOM     10  C   UNL A   1      33.258  26.199  21.893  1.00  0.00     0.000 C 
BRANCH   5  11
ATOM     11  N   UNL A   1      31.913  25.440  25.925  1.00  0.00    -0.322 N 
ATOM     12  N   UNL A   1      32.857  23.254  25.827  1.00  0.00    -0.308 N 
ATOM     13  C   UNL A   1      32.067  24.186  26.398  1.00  0.00     0.320 C 
ATOM     14  H   UNL A   1      32.491  22.340  25.838  1.00  0.00     0.171 HD
ATOM     15  O   UNL A   1      31.382  23.861  27.371  1.00  0.00    -0.248 OA
ATOM     16  H   UNL A   1      31.684  26.071  26.646  1.00  0.00     0.166 HD
BRANCH  12  17
ATOM     17  C   UNL A   1      34.116  23.378  25.220  1.00  0.00     0.046 A 
ATOM     18  C   UNL A   1      36.500  23.698  25.487  1.00  0.00     0.120 A 
ATOM     19  C   UNL A   1      36.690  23.253  24.177  1.00  0.00     0.046 A 
ATOM     20  C   UNL A   1      35.205  23.779  26.006  1.00  0.00     0.072 A 
ATOM     21  C   UNL A   1      35.598  22.973  23.361  1.00  0.00     0.006 A 
ATOM     22  C   UNL A   1      34.309  23.068  23.879  1.00  0.00     0.026 A 
BRANCH  18  23
ATOM     23  O   UNL A   1      37.657  23.973  26.162  1.00  0.00    -0.497 OA
ATOM     24  C   UNL A   1      38.653  22.960  26.162  1.00  0.00     0.278 C 
ENDBRANCH  18  23
ENDBRANCH  12  17
ENDBRANCH   5  11
ENDBRANCH   3   5
ENDBRANCH   2   3
ENDBRANCH   1   2
BRANCH   1  25
ATOM     25  C   UNL A   1      32.481  30.030  27.163  1.00  0.00     0.275 C 
BRANCH  25  26
ATOM     26  O   UNL A   1      33.874  29.753  27.381  1.00  0.00    -0.458 OA
BRANCH  26  27
ATOM     27  C   UNL A   1      34.528  30.658  28.149  1.00  0.00     0.338 C 
ATOM     28  O   UNL A   1      34.048  31.590  28.767  1.00  0.00    -0.246 OA
BRANCH  27  29
ATOM     29  C   UNL A   1      35.922  30.213  28.284  1.00  0.00     0.060 A 
ATOM     30  C   UNL A   1      36.364  29.883  29.565  1.00  0.00     0.016 A 
ATOM     31  C   UNL A   1      36.783  30.139  27.193  1.00  0.00     0.016 A 
ATOM     32  C   UNL A   1      37.668  29.454  29.770  1.00  0.00     0.010 A 
ATOM     33  C   UNL A   1      38.101  29.717  27.399  1.00  0.00     0.010 A 
ATOM     34  C   UNL A   1      38.548  29.372  28.690  1.00  0.00    -0.014 A 
BRANCH  34  35
ATOM     35  C   UNL A   1      39.963  29.011  28.926  1.00  0.00     0.031 A 
ATOM     36  C   UNL A   1      40.895  30.047  29.477  1.00  0.00     0.074 A 
ATOM     37  C   UNL A   1      40.398  27.763  28.671  1.00  0.00     0.049 A 
ATOM     38  N   UNL A   1      42.195  30.016  29.588  1.00  0.00    -0.248 NA
ATOM     39  C   UNL A   1      40.275  31.292  29.960  1.00  0.00     0.031 C 
ATOM     40  C   UNL A   1      39.562  26.652  28.215  1.00  0.00     0.029 A 
ATOM     41  N   UNL A   1      41.656  27.223  28.755  1.00  0.00    -0.354 N 
ATOM     42  C   UNL A   1      42.556  31.249  30.116  1.00  0.00     0.074 A 
ATOM     43  C   UNL A   1      41.337  32.007  30.299  1.00  0.00     0.031 C 
ATOM     44  C   UNL A   1      40.332  25.564  28.052  1.00  0.00     0.029 A 
ATOM     45  C   UNL A   1      41.720  25.916  28.334  1.00  0.00     0.049 A 
ATOM     46  H   UNL A   1      42.437  27.723  29.085  1.00  0.00     0.167 HD
ATOM     47  C   UNL A   1      43.797  31.704  30.411  1.00  0.00     0.037 A 
ATOM     48  C   UNL A   1      42.787  25.112  28.153  1.00  0.00     0.037 A 
ATOM     49  C   UNL A   1      44.995  30.921  30.250  1.00  0.00     0.049 A 
ATOM     50  C   UNL A   1      44.161  25.653  28.444  1.00  0.00     0.074 A 
ATOM     51  C   UNL A   1      46.305  31.285  30.502  1.00  0.00     0.029 A 
ATOM     52  N   UNL A   1      45.023  29.607  29.803  1.00  0.00    -0.354 N 
ATOM     53  N   UNL A   1      44.503  26.844  28.876  1.00  0.00    -0.248 NA
ATOM     54  C   UNL A   1      45.294  24.749  28.211  1.00  0.00     0.031 C 
ATOM     55  C   UNL A   1      47.128  30.200  30.180  1.00  0.00     0.029 A 
ATOM     56  C   UNL A   1      46.328  29.147  29.765  1.00  0.00     0.049 A 
ATOM     57  H   UNL A   1      44.231  29.078  29.551  1.00  0.00     0.167 HD
ATOM     58  C   UNL A   1      45.889  26.829  28.978  1.00  0.00     0.074 A 
ATOM     59  C   UNL A   1      46.321  25.505  28.578  1.00  0.00     0.031 C 
ATOM     60  C   UNL A   1      46.730  27.820  29.365  1.00  0.00     0.037 A 
BRANCH  47  61
ATOM     61  C   UNL A   1      43.917  33.121  30.893  1.00  0.00     0.058 A 
ATOM     62  C   UNL A   1      43.732  33.468  32.240  1.00  0.00     0.135 A 
ATOM     63  C   UNL A   1      44.227  34.150  29.989  1.00  0.00     0.135 A 
ATOM     64  F   UNL A   1      43.412  32.527  33.144  1.00  0.00    -0.206 F 
ATOM     65  C   UNL A   1      43.822  34.789  32.670  1.00  0.00     0.059 A 
ATOM     66  C   UNL A   1      44.345  35.475  30.401  1.00  0.00     0.059 A 
ATOM     67  F   UNL A   1      44.408  33.875  28.688  1.00  0.00    -0.206 F 
ATOM     68  C   UNL A   1      44.125  35.786  31.740  1.00  0.00     0.060 A 
BRANCH  68  69
ATOM     69  S   UNL A   1      44.229  37.497  32.308  1.00  0.00     0.124 S 
ATOM     70  O   UNL A   1      43.415  37.452  33.519  1.00  0.00    -0.237 OA
ATOM     71  O   UNL A   1      45.662  37.674  32.516  1.00  0.00    -0.237 OA
ATOM     72  O   UNL A   1      43.661  38.258  31.199  1.00  0.00    -0.744 OA
ENDBRANCH  68  69
ENDBRANCH  47  61
BRANCH  48  73
ATOM     73  C   UNL A   1      42.595  23.734  27.630  1.00  0.00     0.058 A 
ATOM     74  C   UNL A   1      42.571  23.476  26.251  1.00  0.00     0.135 A 
ATOM     75  C   UNL A   1      42.450  22.642  28.501  1.00  0.00     0.135 A 
ATOM     76  F   UNL A   1      42.691  24.487  25.379  1.00  0.00    -0.206 F 
ATOM     77  C   UNL A   1      42.406  22.187  25.754  1.00  0.00     0.059 A 
ATOM     78  C   UNL A   1      42.310  21.341  28.029  1.00  0.00     0.059 A 
ATOM     79  F   UNL A   1      42.473  22.833  29.829  1.00  0.00    -0.206 F 
ATOM     80  C   UNL A   1      42.280  21.124  26.652  1.00  0.00     0.060 A 
BRANCH  80  81
ATOM     81  S   UNL A   1      42.126  19.446  26.000  1.00  0.00     0.124 S 
ATOM     82  O   UNL A   1      42.622  18.651  27.118  1.00  0.00    -0.237 OA
ATOM     83  O   UNL A   1      40.694  19.348  25.733  1.00  0.00    -0.237 OA
ATOM     84  O   UNL A   1      42.976  19.468  24.813  1.00  0.00    -0.744 OA
ENDBRANCH  80  81
ENDBRANCH  48  73
BRANCH  60  85
ATOM     85  C   UNL A   1      48.197  27.500  29.399  1.00  0.00     0.058 A 
ATOM     86  C   UNL A   1      49.033  27.766  28.304  1.00  0.00     0.135 A 
ATOM     87  C   UNL A   1      48.781  26.970  30.561  1.00  0.00     0.135 A 
ATOM     88  F   UNL A   1      48.522  28.267  27.169  1.00  0.00    -0.206 F 
ATOM     89  C   UNL A   1      50.397  27.497  28.353  1.00  0.00     0.059 A 
ATOM     90  C   UNL A   1      50.146  26.715  30.639  1.00  0.00     0.059 A 
ATOM     91  F   UNL A   1      48.025  26.708  31.640  1.00  0.00    -0.206 F 
ATOM     92  C   UNL A   1      50.944  26.971  29.525  1.00  0.00     0.060 A 
BRANCH  92  93
ATOM     93  S   UNL A   1      52.721  26.659  29.589  1.00  0.00     0.124 S 
ATOM     94  O   UNL A   1      53.255  28.015  29.661  1.00  0.00    -0.237 OA
ATOM     95  O   UNL A   1      52.857  25.859  30.802  1.00  0.00    -0.237 OA
ATOM     96  O   UNL A   1      52.984  25.945  28.343  1.00  0.00    -0.744 OA
ENDBRANCH  92  93
ENDBRANCH  60  85
ENDBRANCH  34  35
ENDBRANCH  27  29
ENDBRANCH  26  27
ENDBRANCH  25  26
ENDBRANCH   1  25
TORSDOF 17
ENDMDL
MODEL 2
REMARK VINA RESULT:     -10.9      1.254      2.261
REMARK SMILES COc1cccc(NC(=O)NC2(C(=O)OCCOC(=O)c3ccc(-c4c5nc(c(-c6c(F)cc(S(=O)(=O)[O-])cc6F)c6ccc([nH]6)c(-c6c(F)cc(S(=O)(=O)[O-])cc6F)c6nc(c(-c7c(F)cc(S(=O)(=O)[O-])cc7F)c7ccc4[nH]7)C=C6)C=C5)cc3)CCCCC2)c1
REMARK SMILES IDX 16 1 15 2 13 3 14 4 12 5 87 6 91 7 88 8 90 9 89 10 11 11
REMARK SMILES IDX 8 12 9 13 10 15 7 17 3 18 4 19 92 20 5 21 6 22 2 23 1 24
REMARK SMILES IDX 17 25 18 26 19 27 20 28 21 29 22 30 86 31 23 32 85 33 24 34
REMARK SMILES IDX 25 35 26 36 79 37 27 38 84 39 78 40 80 41 28 42 83 43 77 44
REMARK SMILES IDX 76 45 29 47 63 48 42 49 62 50 43 51 46 52 61 53 81 54 44 55
REMARK SMILES IDX 45 56 60 58 82 59 47 60 30 61 31 62 40 63 32 64 33 65 39 66
REMARK SMILES IDX 41 67 34 68 35 69 36 70 37 71 38 72 64 73 65 74 74 75 66 76
REMARK SMILES IDX 67 77 73 78 75 79 68 80 69 81 70 82 71 83 72 84 48 85 49 86
REMARK SMILES IDX 58 87 50 88 51 89 57 90 59 91 52 92 53 93 54 94 55 95 56 96
REMARK H PARENT 8 14 11 16 80 46 46 57
REMARK Flexibility Score: inf
ROOT
ATOM      1  C   UNL A   1      31.952  30.197  26.910  1.00  0.00     0.274 C 
ENDROOT
BRANCH   1   2
ATOM      2  O   UNL A   1      31.459  29.022  26.243  1.00  0.00    -0.460 OA
BRANCH   2   3
ATOM      3  C   UNL A   1      31.521  27.828  26.891  1.00  0.00     0.332 C 
ATOM      4  O   UNL A   1      31.571  27.708  28.111  1.00  0.00    -0.249 OA
BRANCH   3   5
ATOM      5  C   UNL A   1      31.685  26.620  25.904  1.00  0.00     0.139 C 
ATOM      6  C   UNL A   1      33.214  26.457  25.782  1.00  0.00     0.040 C 
ATOM      7  C   UNL A   1      30.960  26.932  24.577  1.00  0.00     0.040 C 
ATOM      8  C   UNL A   1      33.871  27.489  24.876  1.00  0.00     0.003 C 
ATOM      9  C   UNL A   1      31.713  27.844  23.602  1.00  0.00     0.003 C 
ATOM     10  C   UNL A   1      33.202  27.541  23.511  1.00  0.00     0.000 C 
BRANCH   5  11
ATOM     11  N   UNL A   1      31.122  25.442  26.659  1.00  0.00    -0.322 N 
ATOM     12  N   UNL A   1      30.710  23.593  25.214  1.00  0.00    -0.308 N 
ATOM     13  C   UNL A   1      30.521  24.271  26.365  1.00  0.00     0.320 C 
ATOM     14  H   UNL A   1      29.901  23.165  24.850  1.00  0.00     0.171 HD
ATOM     15  O   UNL A   1      29.694  23.841  27.171  1.00  0.00    -0.248 OA
ATOM     16  H   UNL A   1      31.221  25.561  27.633  1.00  0.00     0.166 HD
BRANCH  12  17
ATOM     17  C   UNL A   1      31.872  23.399  24.454  1.00  0.00     0.046 A 
ATOM     18  C   UNL A   1      33.132  23.937  22.457  1.00  0.00     0.120 A 
ATOM     19  C   UNL A   1      34.274  23.398  23.054  1.00  0.00     0.046 A 
ATOM     20  C   UNL A   1      31.920  23.921  23.153  1.00  0.00     0.072 A 
ATOM     21  C   UNL A   1      34.195  22.772  24.294  1.00  0.00     0.006 A 
ATOM     22  C   UNL A   1      32.982  22.748  24.977  1.00  0.00     0.026 A 
BRANCH  18  23
ATOM     23  O   UNL A   1      33.346  24.486  21.223  1.00  0.00    -0.497 OA
ATOM     24  C   UNL A   1      32.405  25.456  20.784  1.00  0.00     0.278 C 
ENDBRANCH  18  23
ENDBRANCH  12  17
ENDBRANCH   5  11
ENDBRANCH   3   5
ENDBRANCH   2   3
ENDBRANCH   1   2
BRANCH   1  25
ATOM     25  C   UNL A   1      33.460  30.343  26.717  1.00  0.00     0.275 C 
BRANCH  25  26
ATOM     26  O   UNL A   1      34.164  29.782  27.835  1.00  0.00    -0.458 OA
BRANCH  26  27
ATOM     27  C   UNL A   1      34.879  30.668  28.571  1.00  0.00     0.338 C 
ATOM     28  O   UNL A   1      34.450  31.579  29.255  1.00  0.00    -0.246 OA
BRANCH  27  29
ATOM     29  C   UNL A   1      36.280  30.230  28.574  1.00  0.00     0.060 A 
ATOM     30  C   UNL A   1      36.842  29.897  29.805  1.00  0.00     0.016 A 
ATOM     31  C   UNL A   1      37.036  30.163  27.406  1.00  0.00     0.016 A 
ATOM     32  C   UNL A   1      38.161  29.472  29.887  1.00  0.00     0.010 A 
ATOM     33  C   UNL A   1      38.369  29.746  27.487  1.00  0.00     0.010 A 
ATOM     34  C   UNL A   1      38.936  29.398  28.728  1.00  0.00    -0.014 A 
BRANCH  34  35
ATOM     35  C   UNL A   1      40.369  29.042  28.829  1.00  0.00     0.031 A 
ATOM     36  C   UNL A   1      41.350  30.091  29.257  1.00  0.00     0.074 A 
ATOM     37  C   UNL A   1      40.778  27.787  28.564  1.00  0.00     0.049 A 
ATOM     38  N   UNL A   1      42.654  30.062  29.237  1.00  0.00    -0.248 NA
ATOM     39  C   UNL A   1      40.779  31.349  29.768  1.00  0.00     0.031 C 
ATOM     40  C   UNL A   1      39.902  26.666  28.223  1.00  0.00     0.029 A 
ATOM     41  N   UNL A   1      42.039  27.249  28.534  1.00  0.00    -0.354 N 
ATOM     42  C   UNL A   1      43.065  31.308  29.694  1.00  0.00     0.074 A 
ATOM     43  C   UNL A   1      41.869  32.071  29.980  1.00  0.00     0.031 C 
ATOM     44  C   UNL A   1      40.654  25.573  28.011  1.00  0.00     0.029 A 
ATOM     45  C   UNL A   1      42.063  25.932  28.142  1.00  0.00     0.049 A 
ATOM     46  H   UNL A   1      42.848  27.757  28.771  1.00  0.00     0.167 HD
ATOM     47  C   UNL A   1      44.328  31.769  29.852  1.00  0.00     0.037 A 
ATOM     48  C   UNL A   1      43.107  25.123  27.876  1.00  0.00     0.037 A 
ATOM     49  C   UNL A   1      45.505  30.982  29.590  1.00  0.00     0.049 A 
ATOM     50  C   UNL A   1      44.503  25.670  28.012  1.00  0.00     0.074 A 
ATOM     51  C   UNL A   1      46.833  31.351  29.699  1.00  0.00     0.029 A 
ATOM     52  N   UNL A   1      45.490  29.657  29.176  1.00  0.00    -0.354 N 
ATOM     53  N   UNL A   1      44.884  26.872  28.377  1.00  0.00    -0.248 NA
ATOM     54  C   UNL A   1      45.608  24.760  27.689  1.00  0.00     0.031 C 
ATOM     55  C   UNL A   1      47.621  30.258  29.323  1.00  0.00     0.029 A 
ATOM     56  C   UNL A   1      46.786  29.195  29.019  1.00  0.00     0.049 A 
ATOM     57  H   UNL A   1      44.678  29.122  29.019  1.00  0.00     0.167 HD
ATOM     58  C   UNL A   1      46.274  26.858  28.340  1.00  0.00     0.074 A 
ATOM     59  C   UNL A   1      46.666  25.524  27.931  1.00  0.00     0.031 C 
ATOM     60  C   UNL A   1      47.148  27.858  28.614  1.00  0.00     0.037 A 
BRANCH  47  61
ATOM     61  C   UNL A   1      44.493  33.198  30.282  1.00  0.00     0.058 A 
ATOM     62  C   UNL A   1      44.492  34.259  29.363  1.00  0.00     0.135 A 
ATOM     63  C   UNL A   1      44.652  33.512  31.642  1.00  0.00     0.135 A 
ATOM     64  F   UNL A   1      44.366  34.014  28.049  1.00  0.00    -0.206 F 
ATOM     65  C   UNL A   1      44.671  35.576  29.773  1.00  0.00     0.059 A 
ATOM     66  C   UNL A   1      44.809  34.825  32.077  1.00  0.00     0.059 A 
ATOM     67  F   UNL A   1      44.667  32.536  32.564  1.00  0.00    -0.206 F 
ATOM     68  C   UNL A   1      44.834  35.849  31.133  1.00  0.00     0.060 A 
BRANCH  68  69
ATOM     69  S   UNL A   1      45.076  37.561  31.651  1.00  0.00     0.124 S 
ATOM     70  O   UNL A   1      46.493  37.755  31.362  1.00  0.00    -0.237 OA
ATOM     71  O   UNL A   1      44.149  38.286  30.788  1.00  0.00    -0.237 OA
ATOM     72  O   UNL A   1      44.722  37.541  33.068  1.00  0.00    -0.744 OA
ENDBRANCH  68  69
ENDBRANCH  47  61
BRANCH  48  73
ATOM     73  C   UNL A   1      42.867  23.732  27.409  1.00  0.00     0.058 A 
ATOM     74  C   UNL A   1      42.919  23.402  26.047  1.00  0.00     0.135 A 
ATOM     75  C   UNL A   1      42.596  22.699  28.322  1.00  0.00     0.135 A 
ATOM     76  F   UNL A   1      43.160  24.355  25.136  1.00  0.00    -0.206 F 
ATOM     77  C   UNL A   1      42.708  22.099  25.605  1.00  0.00     0.059 A 
ATOM     78  C   UNL A   1      42.408  21.385  27.906  1.00  0.00     0.059 A 
ATOM     79  F   UNL A   1      42.542  22.960  29.637  1.00  0.00    -0.206 F 
ATOM     80  C   UNL A   1      42.457  21.096  26.543  1.00  0.00     0.060 A 
BRANCH  80  81
ATOM     81  S   UNL A   1      42.244  19.397  25.967  1.00  0.00     0.124 S 
ATOM     82  O   UNL A   1      43.072  19.388  24.767  1.00  0.00    -0.237 OA
ATOM     83  O   UNL A   1      42.747  18.621  27.096  1.00  0.00    -0.237 OA
ATOM     84  O   UNL A   1      40.804  19.298  25.742  1.00  0.00    -0.744 OA
ENDBRANCH  80  81
ENDBRANCH  48  73
BRANCH  60  85
ATOM     85  C   UNL A   1      48.612  27.538  28.508  1.00  0.00     0.058 A 
ATOM     86  C   UNL A   1      49.319  26.971  29.579  1.00  0.00     0.135 A 
ATOM     87  C   UNL A   1      49.299  27.753  27.303  1.00  0.00     0.135 A 
ATOM     88  F   UNL A   1      48.708  26.752  30.753  1.00  0.00    -0.206 F 
ATOM     89  C   UNL A   1      50.666  26.646  29.464  1.00  0.00     0.059 A 
ATOM     90  C   UNL A   1      50.641  27.415  27.160  1.00  0.00     0.059 A 
ATOM     91  F   UNL A   1      48.663  28.283  26.246  1.00  0.00    -0.206 F 
ATOM     92  C   UNL A   1      51.319  26.872  28.250  1.00  0.00     0.060 A 
BRANCH  92  93
ATOM     93  S   UNL A   1      53.059  26.414  28.102  1.00  0.00     0.124 S 
ATOM     94  O   UNL A   1      53.390  26.067  29.481  1.00  0.00    -0.237 OA
ATOM     95  O   UNL A   1      53.013  25.299  27.161  1.00  0.00    -0.237 OA
ATOM     96  O   UNL A   1      53.687  27.630  27.592  1.00  0.00    -0.744 OA
ENDBRANCH  92  93
ENDBRANCH  60  85
ENDBRANCH  34  35
ENDBRANCH  27  29
ENDBRANCH  26  27
ENDBRANCH  25  26
ENDBRANCH   1  25
TORSDOF 17
ENDMDL
MODEL 3
REMARK VINA RESULT:     -10.7      2.341      3.105
REMARK SMILES COc1cccc(NC(=O)NC2(C(=O)OCCOC(=O)c3ccc(-c4c5nc(c(-c6c(F)cc(S(=O)(=O)[O-])cc6F)c6ccc([nH]6)c(-c6c(F)cc(S(=O)(=O)[O-])cc6F)c6nc(c(-c7c(F)cc(S(=O)(=O)[O-])cc7F)c7ccc4[nH]7)C=C6)C=C5)cc3)CCCCC2)c1
REMARK SMILES IDX 16 1 15 2 13 3 14 4 12 5 87 6 91 7 88 8 90 9 89 10 11 11
REMARK SMILES IDX 8 12 9 13 10 15 7 17 3 18 4 19 92 20 5 21 6 22 2 23 1 24
REMARK SMILES IDX 17 25 18 26 19 27 20 28 21 29 22 30 86 31 23 32 85 33 24 34
REMARK SMILES IDX 25 35 26 36 79 37 27 38 84 39 78 40 80 41 28 42 83 43 77 44
REMARK SMILES IDX 76 45 29 47 63 48 42 49 62 50 43 51 46 52 61 53 81 54 44 55
REMARK SMILES IDX 45 56 60 58 82 59 47 60 30 61 31 62 40 63 32 64 33 65 39 66
REMARK SMILES IDX 41 67 34 68 35 69 36 70 37 71 38 72 64 73 65 74 74 75 66 76
REMARK SMILES IDX 67 77 73 78 75 79 68 80 69 81 70 82 71 83 72 84 48 85 49 86
REMARK SMILES IDX 58 87 50 88 51 89 57 90 59 91 52 92 53 93 54 94 55 95 56 96
REMARK H PARENT 8 14 11 16 80 46 46 57
REMARK Flexibility Score: inf
ROOT
ATOM      1  C   UNL A   1      33.691  29.585  26.544  1.00  0.00     0.274 C 
ENDROOT
BRANCH   1   2
ATOM      2  O   UNL A   1      32.783  28.471  26.490  1.00  0.00    -0.460 OA
BRANCH   2   3
ATOM      3  C   UNL A   1      31.876  28.416  25.477  1.00  0.00     0.332 C 
ATOM      4  O   UNL A   1      31.187  29.365  25.116  1.00  0.00    -0.249 OA
BRANCH   3   5
ATOM      5  C   UNL A   1      31.689  26.961  24.921  1.00  0.00     0.139 C 
ATOM      6  C   UNL A   1      33.121  26.389  24.917  1.00  0.00     0.040 C 
ATOM      7  C   UNL A   1      31.010  27.017  23.536  1.00  0.00     0.040 C 
ATOM      8  C   UNL A   1      33.977  26.888  23.761  1.00  0.00     0.003 C 
ATOM      9  C   UNL A   1      31.926  27.361  22.356  1.00  0.00     0.003 C 
ATOM     10  C   UNL A   1      33.287  26.679  22.423  1.00  0.00     0.000 C 
BRANCH   5  11
ATOM     11  N   UNL A   1      30.880  26.258  25.983  1.00  0.00    -0.322 N 
ATOM     12  N   UNL A   1      30.231  24.075  25.284  1.00  0.00    -0.308 N 
ATOM     13  C   UNL A   1      30.098  25.163  26.070  1.00  0.00     0.320 C 
ATOM     14  H   UNL A   1      29.382  23.659  25.008  1.00  0.00     0.171 HD
ATOM     15  O   UNL A   1      29.160  25.199  26.870  1.00  0.00    -0.248 OA
ATOM     16  H   UNL A   1      30.940  26.727  26.848  1.00  0.00     0.166 HD
BRANCH  12  17
ATOM     17  C   UNL A   1      31.384  23.439  24.799  1.00  0.00     0.046 A 
ATOM     18  C   UNL A   1      33.304  22.040  25.261  1.00  0.00     0.120 A 
ATOM     19  C   UNL A   1      33.460  21.831  23.888  1.00  0.00     0.046 A 
ATOM     20  C   UNL A   1      32.272  22.864  25.718  1.00  0.00     0.072 A 
ATOM     21  C   UNL A   1      32.653  22.502  22.975  1.00  0.00     0.006 A 
ATOM     22  C   UNL A   1      31.634  23.331  23.436  1.00  0.00     0.026 A 
BRANCH  18  23
ATOM     23  O   UNL A   1      34.189  21.348  26.041  1.00  0.00    -0.497 OA
ATOM     24  C   UNL A   1      34.034  21.474  27.447  1.00  0.00     0.278 C 
ENDBRANCH  18  23
ENDBRANCH  12  17
ENDBRANCH   5  11
ENDBRANCH   3   5
ENDBRANCH   2   3
ENDBRANCH   1   2
BRANCH   1  25
ATOM     25  C   UNL A   1      34.677  29.429  27.701  1.00  0.00     0.275 C 
BRANCH  25  26
ATOM     26  O   UNL A   1      35.514  30.592  27.804  1.00  0.00    -0.458 OA
BRANCH  26  27
ATOM     27  C   UNL A   1      36.212  30.699  28.960  1.00  0.00     0.338 C 
ATOM     28  O   UNL A   1      35.788  31.024  30.054  1.00  0.00    -0.246 OA
BRANCH  27  29
ATOM     29  C   UNL A   1      37.558  30.159  28.728  1.00  0.00     0.060 A 
ATOM     30  C   UNL A   1      38.373  29.977  29.845  1.00  0.00     0.016 A 
ATOM     31  C   UNL A   1      38.023  29.857  27.451  1.00  0.00     0.016 A 
ATOM     32  C   UNL A   1      39.657  29.469  29.705  1.00  0.00     0.010 A 
ATOM     33  C   UNL A   1      39.322  29.356  27.306  1.00  0.00     0.010 A 
ATOM     34  C   UNL A   1      40.143  29.159  28.433  1.00  0.00    -0.014 A 
BRANCH  34  35
ATOM     35  C   UNL A   1      41.545  28.713  28.276  1.00  0.00     0.031 A 
ATOM     36  C   UNL A   1      42.646  29.725  28.383  1.00  0.00     0.074 A 
ATOM     37  C   UNL A   1      41.826  27.414  28.064  1.00  0.00     0.049 A 
ATOM     38  N   UNL A   1      43.914  29.602  28.101  1.00  0.00    -0.248 NA
ATOM     39  C   UNL A   1      42.259  31.061  28.868  1.00  0.00     0.031 C 
ATOM     40  C   UNL A   1      40.843  26.331  28.026  1.00  0.00     0.029 A 
ATOM     41  N   UNL A   1      43.024  26.788  27.832  1.00  0.00    -0.354 N 
ATOM     42  C   UNL A   1      44.473  30.852  28.333  1.00  0.00     0.074 A 
ATOM     43  C   UNL A   1      43.404  31.721  28.777  1.00  0.00     0.031 C 
ATOM     44  C   UNL A   1      41.477  25.174  27.779  1.00  0.00     0.029 A 
ATOM     45  C   UNL A   1      42.899  25.442  27.581  1.00  0.00     0.049 A 
ATOM     46  H   UNL A   1      43.889  27.257  27.845  1.00  0.00     0.167 HD
ATOM     47  C   UNL A   1      45.762  31.236  28.181  1.00  0.00     0.037 A 
ATOM     48  C   UNL A   1      43.822  24.541  27.192  1.00  0.00     0.037 A 
ATOM     49  C   UNL A   1      46.817  30.347  27.766  1.00  0.00     0.049 A 
ATOM     50  C   UNL A   1      45.240  24.998  26.984  1.00  0.00     0.074 A 
ATOM     51  C   UNL A   1      48.155  30.630  27.563  1.00  0.00     0.029 A 
ATOM     52  N   UNL A   1      46.649  28.994  27.504  1.00  0.00    -0.354 N 
ATOM     53  N   UNL A   1      45.750  26.198  27.137  1.00  0.00    -0.248 NA
ATOM     54  C   UNL A   1      46.206  23.987  26.537  1.00  0.00     0.031 C 
ATOM     55  C   UNL A   1      48.791  29.454  27.149  1.00  0.00     0.029 A 
ATOM     56  C   UNL A   1      47.858  28.430  27.133  1.00  0.00     0.049 A 
ATOM     57  H   UNL A   1      45.796  28.506  27.571  1.00  0.00     0.167 HD
ATOM     58  C   UNL A   1      47.098  26.083  26.817  1.00  0.00     0.074 A 
ATOM     59  C   UNL A   1      47.328  24.693  26.477  1.00  0.00     0.031 C 
ATOM     60  C   UNL A   1      48.060  27.040  26.803  1.00  0.00     0.037 A 
BRANCH  47  61
ATOM     61  C   UNL A   1      46.087  32.683  28.419  1.00  0.00     0.058 A 
ATOM     62  C   UNL A   1      46.013  33.641  27.396  1.00  0.00     0.135 A 
ATOM     63  C   UNL A   1      46.474  33.118  29.697  1.00  0.00     0.135 A 
ATOM     64  F   UNL A   1      45.669  33.275  26.150  1.00  0.00    -0.206 F 
ATOM     65  C   UNL A   1      46.340  34.974  27.624  1.00  0.00     0.059 A 
ATOM     66  C   UNL A   1      46.783  34.451  29.953  1.00  0.00     0.059 A 
ATOM     67  F   UNL A   1      46.566  32.243  30.710  1.00  0.00    -0.206 F 
ATOM     68  C   UNL A   1      46.728  35.368  28.906  1.00  0.00     0.060 A 
BRANCH  68  69
ATOM     69  S   UNL A   1      47.160  37.099  29.187  1.00  0.00     0.124 S 
ATOM     70  O   UNL A   1      45.841  37.723  29.241  1.00  0.00    -0.237 OA
ATOM     71  O   UNL A   1      47.884  37.042  30.452  1.00  0.00    -0.237 OA
ATOM     72  O   UNL A   1      47.968  37.442  28.020  1.00  0.00    -0.744 OA
ENDBRANCH  68  69
ENDBRANCH  47  61
BRANCH  48  73
ATOM     73  C   UNL A   1      43.419  23.133  26.931  1.00  0.00     0.058 A 
ATOM     74  C   UNL A   1      43.359  22.624  25.625  1.00  0.00     0.135 A 
ATOM     75  C   UNL A   1      43.101  22.263  27.986  1.00  0.00     0.135 A 
ATOM     76  F   UNL A   1      43.639  23.420  24.583  1.00  0.00    -0.206 F 
ATOM     77  C   UNL A   1      42.996  21.304  25.375  1.00  0.00     0.059 A 
ATOM     78  C   UNL A   1      42.761  20.934  27.762  1.00  0.00     0.059 A 
ATOM     79  F   UNL A   1      43.150  22.698  29.255  1.00  0.00    -0.206 F 
ATOM     80  C   UNL A   1      42.702  20.465  26.451  1.00  0.00     0.060 A 
BRANCH  80  81
ATOM     81  S   UNL A   1      42.290  18.737  26.122  1.00  0.00     0.124 S 
ATOM     82  O   UNL A   1      43.208  18.418  25.035  1.00  0.00    -0.237 OA
ATOM     83  O   UNL A   1      42.573  18.101  27.404  1.00  0.00    -0.237 OA
ATOM     84  O   UNL A   1      40.877  18.793  25.758  1.00  0.00    -0.744 OA
ENDBRANCH  80  81
ENDBRANCH  48  73
BRANCH  60  85
ATOM     85  C   UNL A   1      49.450  26.608  26.434  1.00  0.00     0.058 A 
ATOM     86  C   UNL A   1      50.311  26.021  27.373  1.00  0.00     0.135 A 
ATOM     87  C   UNL A   1      49.905  26.737  25.111  1.00  0.00     0.135 A 
ATOM     88  F   UNL A   1      49.924  25.882  28.651  1.00  0.00    -0.206 F 
ATOM     89  C   UNL A   1      51.586  25.594  27.018  1.00  0.00     0.059 A 
ATOM     90  C   UNL A   1      51.168  26.296  24.731  1.00  0.00     0.059 A 
ATOM     91  F   UNL A   1      49.114  27.283  24.173  1.00  0.00    -0.206 F 
ATOM     92  C   UNL A   1      52.006  25.736  25.693  1.00  0.00     0.060 A 
BRANCH  92  93
ATOM     93  S   UNL A   1      53.649  25.146  25.236  1.00  0.00     0.124 S 
ATOM     94  O   UNL A   1      53.489  23.702  25.362  1.00  0.00    -0.237 OA
ATOM     95  O   UNL A   1      53.798  25.652  23.874  1.00  0.00    -0.237 OA
ATOM     96  O   UNL A   1      54.521  25.771  26.227  1.00  0.00    -0.744 OA
ENDBRANCH  92  93
ENDBRANCH  60  85
ENDBRANCH  34  35
ENDBRANCH  27  29
ENDBRANCH  26  27
ENDBRANCH  25  26
ENDBRANCH   1  25
TORSDOF 17
ENDMDL
