MODEL 1
REMARK VINA RESULT:     -11.6      0.000      0.000
REMARK SMILES C[C@H]1[C@H](C(=O)OCCOC(=O)c2ccc(-c3c4nc(c(-c5c(F)cc(S(=O)(=O)[O-])cc5F)c5ccc([nH]5)c(-c5c(F)cc(S(=O)(=O)[O-])cc5F)c5nc(c(-c6c(F)cc(S(=O)(=O)[O-])cc6F)c6ccc3[nH]6)C=C5)C=C4)cc2)CCN1C(=O)NCc1ccncc1
REMARK SMILES IDX 7 1 6 2 4 3 5 4 3 5 1 6 2 7 80 8 78 9 79 10 81 11 82 12
REMARK SMILES IDX 83 13 84 15 85 16 86 17 90 18 87 19 89 20 88 21 8 22 9 23
REMARK SMILES IDX 10 24 11 25 12 26 13 27 77 28 14 29 76 30 15 31 16 32 17 33
REMARK SMILES IDX 70 34 18 35 75 36 69 37 71 38 19 39 74 40 68 41 67 42 20 44
REMARK SMILES IDX 54 45 33 46 53 47 34 48 37 49 52 50 72 51 35 52 36 53 51 55
REMARK SMILES IDX 73 56 38 57 21 58 22 59 31 60 23 61 24 62 30 63 32 64 25 65
REMARK SMILES IDX 26 66 27 67 28 68 29 69 55 70 56 71 65 72 57 73 58 74 64 75
REMARK SMILES IDX 66 76 59 77 60 78 61 79 62 80 63 81 39 82 40 83 49 84 41 85
REMARK SMILES IDX 42 86 48 87 50 88 43 89 44 90 45 91 46 92 47 93
REMARK H PARENT 83 14 71 43 37 54
REMARK Flexibility Score: inf
ROOT
ATOM      1  C   UNL A   1      32.948  30.249  27.180  1.00  0.00     0.274 C 
ENDROOT
BRANCH   1   2
ATOM      2  O   UNL A   1      33.210  28.835  27.075  1.00  0.00    -0.462 OA
BRANCH   2   3
ATOM      3  C   UNL A   1      32.132  28.017  27.176  1.00  0.00     0.311 C 
ATOM      4  O   UNL A   1      31.308  28.063  28.083  1.00  0.00    -0.252 OA
BRANCH   3   5
ATOM      5  C   UNL A   1      32.054  26.978  26.081  1.00  0.00     0.123 C 
ATOM      6  C   UNL A   1      33.776  25.160  25.746  1.00  0.00     0.032 C 
ATOM      7  C   UNL A   1      32.479  25.544  26.475  1.00  0.00     0.098 C 
ATOM      8  N   UNL A   1      31.378  24.687  26.030  1.00  0.00    -0.321 N 
ATOM      9  C   UNL A   1      30.622  26.852  25.568  1.00  0.00     0.039 C 
ATOM     10  C   UNL A   1      30.547  25.418  25.089  1.00  0.00     0.122 C 
BRANCH   8  11
ATOM     11  C   UNL A   1      31.034  23.419  26.366  1.00  0.00     0.317 C 
ATOM     12  O   UNL A   1      30.440  23.176  27.423  1.00  0.00    -0.249 OA
ATOM     13  N   UNL A   1      31.307  22.344  25.614  1.00  0.00    -0.334 N 
ATOM     14  H   UNL A   1      31.011  21.516  26.058  1.00  0.00     0.165 HD
BRANCH  13  15
ATOM     15  C   UNL A   1      31.914  22.060  24.330  1.00  0.00     0.153 C 
BRANCH  15  16
ATOM     16  C   UNL A   1      32.887  20.912  24.403  1.00  0.00    -0.026 A 
ATOM     17  C   UNL A   1      34.207  21.103  24.826  1.00  0.00     0.025 A 
ATOM     18  C   UNL A   1      32.479  19.612  24.091  1.00  0.00     0.025 A 
ATOM     19  C   UNL A   1      35.047  20.003  24.907  1.00  0.00     0.111 A 
ATOM     20  C   UNL A   1      33.392  18.576  24.209  1.00  0.00     0.111 A 
ATOM     21  N   UNL A   1      34.671  18.742  24.607  1.00  0.00    -0.265 NA
ENDBRANCH  15  16
ENDBRANCH  13  15
ENDBRANCH   8  11
ENDBRANCH   3   5
ENDBRANCH   2   3
ENDBRANCH   1   2
BRANCH   1  22
ATOM     22  C   UNL A   1      34.163  31.012  27.715  1.00  0.00     0.275 C 
BRANCH  22  23
ATOM     23  O   UNL A   1      35.249  30.129  28.047  1.00  0.00    -0.458 OA
BRANCH  23  24
ATOM     24  C   UNL A   1      36.047  30.554  29.054  1.00  0.00     0.338 C 
ATOM     25  O   UNL A   1      35.726  31.235  30.013  1.00  0.00    -0.246 OA
BRANCH  24  26
ATOM     26  C   UNL A   1      37.386  29.976  28.904  1.00  0.00     0.060 A 
ATOM     27  C   UNL A   1      38.140  29.734  30.056  1.00  0.00     0.016 A 
ATOM     28  C   UNL A   1      37.933  29.772  27.638  1.00  0.00     0.016 A 
ATOM     29  C   UNL A   1      39.461  29.316  29.951  1.00  0.00     0.010 A 
ATOM     30  C   UNL A   1      39.253  29.330  27.534  1.00  0.00     0.010 A 
ATOM     31  C   UNL A   1      40.028  29.114  28.689  1.00  0.00    -0.014 A 
BRANCH  31  32
ATOM     32  C   UNL A   1      41.442  28.703  28.560  1.00  0.00     0.031 A 
ATOM     33  C   UNL A   1      42.526  29.736  28.662  1.00  0.00     0.074 A 
ATOM     34  C   UNL A   1      41.744  27.413  28.324  1.00  0.00     0.049 A 
ATOM     35  N   UNL A   1      43.795  29.629  28.379  1.00  0.00    -0.248 NA
ATOM     36  C   UNL A   1      42.120  31.067  29.142  1.00  0.00     0.031 C 
ATOM     37  C   UNL A   1      40.777  26.316  28.268  1.00  0.00     0.029 A 
ATOM     38  N   UNL A   1      42.949  26.811  28.066  1.00  0.00    -0.354 N 
ATOM     39  C   UNL A   1      44.340  30.887  28.611  1.00  0.00     0.074 A 
ATOM     40  C   UNL A   1      43.261  31.740  29.062  1.00  0.00     0.031 C 
ATOM     41  C   UNL A   1      41.424  25.176  27.974  1.00  0.00     0.029 A 
ATOM     42  C   UNL A   1      42.837  25.475  27.762  1.00  0.00     0.049 A 
ATOM     43  H   UNL A   1      43.809  27.288  28.096  1.00  0.00     0.167 HD
ATOM     44  C   UNL A   1      45.623  31.288  28.450  1.00  0.00     0.037 A 
ATOM     45  C   UNL A   1      43.761  24.604  27.314  1.00  0.00     0.037 A 
ATOM     46  C   UNL A   1      46.685  30.420  28.016  1.00  0.00     0.049 A 
ATOM     47  C   UNL A   1      45.168  25.083  27.090  1.00  0.00     0.074 A 
ATOM     48  C   UNL A   1      48.020  30.725  27.815  1.00  0.00     0.029 A 
ATOM     49  N   UNL A   1      46.533  29.073  27.720  1.00  0.00    -0.354 N 
ATOM     50  N   UNL A   1      45.666  26.283  27.276  1.00  0.00    -0.248 NA
ATOM     51  C   UNL A   1      46.136  24.100  26.585  1.00  0.00     0.031 C 
ATOM     52  C   UNL A   1      48.669  29.569  27.369  1.00  0.00     0.029 A 
ATOM     53  C   UNL A   1      47.745  28.534  27.328  1.00  0.00     0.049 A 
ATOM     54  H   UNL A   1      45.686  28.574  27.779  1.00  0.00     0.167 HD
ATOM     55  C   UNL A   1      47.010  26.194  26.932  1.00  0.00     0.074 A 
ATOM     56  C   UNL A   1      47.248  24.823  26.528  1.00  0.00     0.031 C 
ATOM     57  C   UNL A   1      47.960  27.159  26.952  1.00  0.00     0.037 A 
BRANCH  44  58
ATOM     58  C   UNL A   1      45.937  32.733  28.707  1.00  0.00     0.058 A 
ATOM     59  C   UNL A   1      46.358  33.186  29.967  1.00  0.00     0.135 A 
ATOM     60  C   UNL A   1      45.837  33.674  27.669  1.00  0.00     0.135 A 
ATOM     61  F   UNL A   1      46.452  32.331  30.996  1.00  0.00    -0.206 F 
ATOM     62  C   UNL A   1      46.647  34.528  30.195  1.00  0.00     0.059 A 
ATOM     63  C   UNL A   1      46.140  35.018  27.869  1.00  0.00     0.059 A 
ATOM     64  F   UNL A   1      45.435  33.292  26.447  1.00  0.00    -0.206 F 
ATOM     65  C   UNL A   1      46.530  35.437  29.141  1.00  0.00     0.060 A 
BRANCH  65  66
ATOM     66  S   UNL A   1      46.897  37.177  29.451  1.00  0.00     0.124 S 
ATOM     67  O   UNL A   1      45.719  37.827  28.884  1.00  0.00    -0.237 OA
ATOM     68  O   UNL A   1      47.006  37.223  30.905  1.00  0.00    -0.237 OA
ATOM     69  O   UNL A   1      48.144  37.396  28.725  1.00  0.00    -0.744 OA
ENDBRANCH  65  66
ENDBRANCH  44  58
BRANCH  45  70
ATOM     70  C   UNL A   1      43.367  23.205  27.012  1.00  0.00     0.058 A 
ATOM     71  C   UNL A   1      43.287  22.748  25.689  1.00  0.00     0.135 A 
ATOM     72  C   UNL A   1      43.095  22.288  28.040  1.00  0.00     0.135 A 
ATOM     73  F   UNL A   1      43.530  23.590  24.672  1.00  0.00    -0.206 F 
ATOM     74  C   UNL A   1      42.946  21.432  25.393  1.00  0.00     0.059 A 
ATOM     75  C   UNL A   1      42.774  20.961  27.770  1.00  0.00     0.059 A 
ATOM     76  F   UNL A   1      43.172  22.673  29.323  1.00  0.00    -0.206 F 
ATOM     77  C   UNL A   1      42.695  20.544  26.443  1.00  0.00     0.060 A 
BRANCH  77  78
ATOM     78  S   UNL A   1      42.314  18.823  26.053  1.00  0.00     0.124 S 
ATOM     79  O   UNL A   1      42.585  18.168  27.327  1.00  0.00    -0.237 OA
ATOM     80  O   UNL A   1      40.910  18.897  25.659  1.00  0.00    -0.237 OA
ATOM     81  O   UNL A   1      43.244  18.513  24.971  1.00  0.00    -0.744 OA
ENDBRANCH  77  78
ENDBRANCH  45  70
BRANCH  57  82
ATOM     82  C   UNL A   1      49.357  26.766  26.570  1.00  0.00     0.058 A 
ATOM     83  C   UNL A   1      50.248  26.221  27.506  1.00  0.00     0.135 A 
ATOM     84  C   UNL A   1      49.770  26.846  25.230  1.00  0.00     0.135 A 
ATOM     85  F   UNL A   1      49.900  26.134  28.799  1.00  0.00    -0.206 F 
ATOM     86  C   UNL A   1      51.504  25.763  27.125  1.00  0.00     0.059 A 
ATOM     87  C   UNL A   1      51.014  26.377  24.824  1.00  0.00     0.059 A 
ATOM     88  F   UNL A   1      48.948  27.354  24.299  1.00  0.00    -0.206 F 
ATOM     89  C   UNL A   1      51.875  25.838  25.779  1.00  0.00     0.060 A 
BRANCH  89  90
ATOM     90  S   UNL A   1      53.477  25.166  25.282  1.00  0.00     0.124 S 
ATOM     91  O   UNL A   1      53.235  23.730  25.378  1.00  0.00    -0.237 OA
ATOM     92  O   UNL A   1      53.634  25.694  23.931  1.00  0.00    -0.237 OA
ATOM     93  O   UNL A   1      54.396  25.716  26.274  1.00  0.00    -0.744 OA
ENDBRANCH  89  90
ENDBRANCH  57  82
ENDBRANCH  31  32
ENDBRANCH  24  26
ENDBRANCH  23  24
ENDBRANCH  22  23
ENDBRANCH   1  22
TORSDOF 17
ENDMDL
MODEL 2
REMARK VINA RESULT:     -11.5      1.403      2.020
REMARK SMILES C[C@H]1[C@H](C(=O)OCCOC(=O)c2ccc(-c3c4nc(c(-c5c(F)cc(S(=O)(=O)[O-])cc5F)c5ccc([nH]5)c(-c5c(F)cc(S(=O)(=O)[O-])cc5F)c5nc(c(-c6c(F)cc(S(=O)(=O)[O-])cc6F)c6ccc3[nH]6)C=C5)C=C4)cc2)CCN1C(=O)NCc1ccncc1
REMARK SMILES IDX 7 1 6 2 4 3 5 4 3 5 1 6 2 7 80 8 78 9 79 10 81 11 82 12
REMARK SMILES IDX 83 13 84 15 85 16 86 17 90 18 87 19 89 20 88 21 8 22 9 23
REMARK SMILES IDX 10 24 11 25 12 26 13 27 77 28 14 29 76 30 15 31 16 32 17 33
REMARK SMILES IDX 70 34 18 35 75 36 69 37 71 38 19 39 74 40 68 41 67 42 20 44
REMARK SMILES IDX 54 45 33 46 53 47 34 48 37 49 52 50 72 51 35 52 36 53 51 55
REMARK SMILES IDX 73 56 38 57 21 58 22 59 31 60 23 61 24 62 30 63 32 64 25 65
REMARK SMILES IDX 26 66 27 67 28 68 29 69 55 70 56 71 65 72 57 73 58 74 64 75
REMARK SMILES IDX 66 76 59 77 60 78 61 79 62 80 63 81 39 82 40 83 49 84 41 85
REMARK SMILES IDX 42 86 48 87 50 88 43 89 44 90 45 91 46 92 47 93
REMARK H PARENT 83 14 71 43 37 54
REMARK Flexibility Score: inf
ROOT
ATOM      1  C   UNL A   1      32.929  30.506  27.200  1.00  0.00     0.274 C 
ENDROOT
BRANCH   1   2
ATOM      2  O   UNL A   1      32.984  30.080  25.824  1.00  0.00    -0.462 OA
BRANCH   2   3
ATOM      3  C   UNL A   1      32.161  29.057  25.480  1.00  0.00     0.311 C 
ATOM      4  O   UNL A   1      31.596  28.321  26.282  1.00  0.00    -0.252 OA
BRANCH   3   5
ATOM      5  C   UNL A   1      32.035  28.855  23.988  1.00  0.00     0.123 C 
ATOM      6  C   UNL A   1      34.010  28.630  22.430  1.00  0.00     0.032 C 
ATOM      7  C   UNL A   1      33.041  27.870  23.349  1.00  0.00     0.098 C 
ATOM      8  N   UNL A   1      32.221  26.946  22.564  1.00  0.00    -0.321 N 
ATOM      9  C   UNL A   1      30.653  28.308  23.639  1.00  0.00     0.039 C 
ATOM     10  C   UNL A   1      30.899  27.517  22.373  1.00  0.00     0.122 C 
BRANCH   8  11
ATOM     11  C   UNL A   1      32.489  25.718  22.053  1.00  0.00     0.317 C 
ATOM     12  O   UNL A   1      33.430  25.543  21.270  1.00  0.00    -0.249 OA
ATOM     13  N   UNL A   1      31.774  24.619  22.331  1.00  0.00    -0.334 N 
ATOM     14  H   UNL A   1      32.107  23.843  21.824  1.00  0.00     0.165 HD
BRANCH  13  15
ATOM     15  C   UNL A   1      30.651  24.253  23.169  1.00  0.00     0.153 C 
BRANCH  15  16
ATOM     16  C   UNL A   1      31.067  23.990  24.593  1.00  0.00    -0.026 A 
ATOM     17  C   UNL A   1      30.983  24.986  25.572  1.00  0.00     0.025 A 
ATOM     18  C   UNL A   1      31.509  22.723  24.983  1.00  0.00     0.025 A 
ATOM     19  C   UNL A   1      31.347  24.676  26.873  1.00  0.00     0.111 A 
ATOM     20  C   UNL A   1      31.845  22.508  26.310  1.00  0.00     0.111 A 
ATOM     21  N   UNL A   1      31.777  23.459  27.266  1.00  0.00    -0.265 NA
ENDBRANCH  15  16
ENDBRANCH  13  15
ENDBRANCH   8  11
ENDBRANCH   3   5
ENDBRANCH   2   3
ENDBRANCH   1   2
BRANCH   1  22
ATOM     22  C   UNL A   1      34.231  31.182  27.636  1.00  0.00     0.275 C 
BRANCH  22  23
ATOM     23  O   UNL A   1      35.247  30.222  27.979  1.00  0.00    -0.458 OA
BRANCH  23  24
ATOM     24  C   UNL A   1      36.013  30.552  29.044  1.00  0.00     0.338 C 
ATOM     25  O   UNL A   1      35.665  31.152  30.047  1.00  0.00    -0.246 OA
BRANCH  24  26
ATOM     26  C   UNL A   1      37.353  29.977  28.889  1.00  0.00     0.060 A 
ATOM     27  C   UNL A   1      38.135  29.793  30.033  1.00  0.00     0.016 A 
ATOM     28  C   UNL A   1      37.872  29.720  27.621  1.00  0.00     0.016 A 
ATOM     29  C   UNL A   1      39.457  29.379  29.916  1.00  0.00     0.010 A 
ATOM     30  C   UNL A   1      39.193  29.282  27.506  1.00  0.00     0.010 A 
ATOM     31  C   UNL A   1      39.996  29.124  28.651  1.00  0.00    -0.014 A 
BRANCH  31  32
ATOM     32  C   UNL A   1      41.410  28.716  28.508  1.00  0.00     0.031 A 
ATOM     33  C   UNL A   1      42.491  29.754  28.585  1.00  0.00     0.074 A 
ATOM     34  C   UNL A   1      41.714  27.426  28.282  1.00  0.00     0.049 A 
ATOM     35  N   UNL A   1      43.757  29.650  28.286  1.00  0.00    -0.248 NA
ATOM     36  C   UNL A   1      42.087  31.089  29.057  1.00  0.00     0.031 C 
ATOM     37  C   UNL A   1      40.750  26.324  28.249  1.00  0.00     0.029 A 
ATOM     38  N   UNL A   1      42.917  26.825  28.014  1.00  0.00    -0.354 N 
ATOM     39  C   UNL A   1      44.300  30.912  28.498  1.00  0.00     0.074 A 
ATOM     40  C   UNL A   1      43.223  31.765  28.955  1.00  0.00     0.031 C 
ATOM     41  C   UNL A   1      41.398  25.184  27.958  1.00  0.00     0.029 A 
ATOM     42  C   UNL A   1      42.806  25.486  27.725  1.00  0.00     0.049 A 
ATOM     43  H   UNL A   1      43.776  27.306  28.028  1.00  0.00     0.167 HD
ATOM     44  C   UNL A   1      45.579  31.315  28.317  1.00  0.00     0.037 A 
ATOM     45  C   UNL A   1      43.728  24.613  27.274  1.00  0.00     0.037 A 
ATOM     46  C   UNL A   1      46.639  30.448  27.877  1.00  0.00     0.049 A 
ATOM     47  C   UNL A   1      45.130  25.096  27.026  1.00  0.00     0.074 A 
ATOM     48  C   UNL A   1      47.970  30.755  27.655  1.00  0.00     0.029 A 
ATOM     49  N   UNL A   1      46.488  29.097  27.597  1.00  0.00    -0.354 N 
ATOM     50  N   UNL A   1      45.626  26.299  27.193  1.00  0.00    -0.248 NA
ATOM     51  C   UNL A   1      46.095  24.111  26.519  1.00  0.00     0.031 C 
ATOM     52  C   UNL A   1      48.617  29.597  27.213  1.00  0.00     0.029 A 
ATOM     53  C   UNL A   1      47.697  28.559  27.195  1.00  0.00     0.049 A 
ATOM     54  H   UNL A   1      45.644  28.596  27.672  1.00  0.00     0.167 HD
ATOM     55  C   UNL A   1      46.965  26.212  26.833  1.00  0.00     0.074 A 
ATOM     56  C   UNL A   1      47.203  24.838  26.439  1.00  0.00     0.031 C 
ATOM     57  C   UNL A   1      47.912  27.181  26.830  1.00  0.00     0.037 A 
BRANCH  44  58
ATOM     58  C   UNL A   1      45.891  32.764  28.555  1.00  0.00     0.058 A 
ATOM     59  C   UNL A   1      46.326  33.233  29.804  1.00  0.00     0.135 A 
ATOM     60  C   UNL A   1      45.774  33.694  27.508  1.00  0.00     0.135 A 
ATOM     61  F   UNL A   1      46.436  32.389  30.841  1.00  0.00    -0.206 F 
ATOM     62  C   UNL A   1      46.613  34.578  30.014  1.00  0.00     0.059 A 
ATOM     63  C   UNL A   1      46.075  35.041  27.691  1.00  0.00     0.059 A 
ATOM     64  F   UNL A   1      45.358  33.298  26.295  1.00  0.00    -0.206 F 
ATOM     65  C   UNL A   1      46.479  35.475  28.953  1.00  0.00     0.060 A 
BRANCH  65  66
ATOM     66  S   UNL A   1      46.843  37.220  29.240  1.00  0.00     0.124 S 
ATOM     67  O   UNL A   1      45.563  37.702  29.749  1.00  0.00    -0.237 OA
ATOM     68  O   UNL A   1      47.929  37.160  30.214  1.00  0.00    -0.237 OA
ATOM     69  O   UNL A   1      47.219  37.710  27.918  1.00  0.00    -0.744 OA
ENDBRANCH  65  66
ENDBRANCH  44  58
BRANCH  45  70
ATOM     70  C   UNL A   1      43.335  23.210  26.991  1.00  0.00     0.058 A 
ATOM     71  C   UNL A   1      43.201  22.750  25.674  1.00  0.00     0.135 A 
ATOM     72  C   UNL A   1      43.118  22.292  28.031  1.00  0.00     0.135 A 
ATOM     73  F   UNL A   1      43.390  23.593  24.646  1.00  0.00    -0.206 F 
ATOM     74  C   UNL A   1      42.861  21.430  25.394  1.00  0.00     0.059 A 
ATOM     75  C   UNL A   1      42.800  20.962  27.777  1.00  0.00     0.059 A 
ATOM     76  F   UNL A   1      43.249  22.680  29.309  1.00  0.00    -0.206 F 
ATOM     77  C   UNL A   1      42.666  20.542  26.455  1.00  0.00     0.060 A 
BRANCH  77  78
ATOM     78  S   UNL A   1      42.286  18.816  26.086  1.00  0.00     0.124 S 
ATOM     79  O   UNL A   1      40.869  18.893  25.754  1.00  0.00    -0.237 OA
ATOM     80  O   UNL A   1      43.189  18.531  24.974  1.00  0.00    -0.237 OA
ATOM     81  O   UNL A   1      42.609  18.129  27.334  1.00  0.00    -0.744 OA
ENDBRANCH  77  78
ENDBRANCH  45  70
BRANCH  57  82
ATOM     82  C   UNL A   1      49.306  26.789  26.434  1.00  0.00     0.058 A 
ATOM     83  C   UNL A   1      50.200  26.228  27.356  1.00  0.00     0.135 A 
ATOM     84  C   UNL A   1      49.710  26.886  25.093  1.00  0.00     0.135 A 
ATOM     85  F   UNL A   1      49.860  26.123  28.650  1.00  0.00    -0.206 F 
ATOM     86  C   UNL A   1      51.453  25.771  26.961  1.00  0.00     0.059 A 
ATOM     87  C   UNL A   1      50.951  26.420  24.672  1.00  0.00     0.059 A 
ATOM     88  F   UNL A   1      48.884  27.411  24.174  1.00  0.00    -0.206 F 
ATOM     89  C   UNL A   1      51.816  25.864  25.614  1.00  0.00     0.060 A 
BRANCH  89  90
ATOM     90  S   UNL A   1      53.412  25.195  25.098  1.00  0.00     0.124 S 
ATOM     91  O   UNL A   1      53.238  23.773  25.375  1.00  0.00    -0.237 OA
ATOM     92  O   UNL A   1      53.466  25.564  23.687  1.00  0.00    -0.237 OA
ATOM     93  O   UNL A   1      54.364  25.891  25.957  1.00  0.00    -0.744 OA
ENDBRANCH  89  90
ENDBRANCH  57  82
ENDBRANCH  31  32
ENDBRANCH  24  26
ENDBRANCH  23  24
ENDBRANCH  22  23
ENDBRANCH   1  22
TORSDOF 17
ENDMDL
MODEL 3
REMARK VINA RESULT:     -11.2      2.010      3.712
REMARK SMILES C[C@H]1[C@H](C(=O)OCCOC(=O)c2ccc(-c3c4nc(c(-c5c(F)cc(S(=O)(=O)[O-])cc5F)c5ccc([nH]5)c(-c5c(F)cc(S(=O)(=O)[O-])cc5F)c5nc(c(-c6c(F)cc(S(=O)(=O)[O-])cc6F)c6ccc3[nH]6)C=C5)C=C4)cc2)CCN1C(=O)NCc1ccncc1
REMARK SMILES IDX 7 1 6 2 4 3 5 4 3 5 1 6 2 7 80 8 78 9 79 10 81 11 82 12
REMARK SMILES IDX 83 13 84 15 85 16 86 17 90 18 87 19 89 20 88 21 8 22 9 23
REMARK SMILES IDX 10 24 11 25 12 26 13 27 77 28 14 29 76 30 15 31 16 32 17 33
REMARK SMILES IDX 70 34 18 35 75 36 69 37 71 38 19 39 74 40 68 41 67 42 20 44
REMARK SMILES IDX 54 45 33 46 53 47 34 48 37 49 52 50 72 51 35 52 36 53 51 55
REMARK SMILES IDX 73 56 38 57 21 58 22 59 31 60 23 61 24 62 30 63 32 64 25 65
REMARK SMILES IDX 26 66 27 67 28 68 29 69 55 70 56 71 65 72 57 73 58 74 64 75
REMARK SMILES IDX 66 76 59 77 60 78 61 79 62 80 63 81 39 82 40 83 49 84 41 85
REMARK SMILES IDX 42 86 48 87 50 88 43 89 44 90 45 91 46 92 47 93
REMARK H PARENT 83 14 71 43 37 54
REMARK Flexibility Score: inf
ROOT
ATOM      1  C   UNL A   1      33.080  29.967  27.280  1.00  0.00     0.274 C 
ENDROOT
BRANCH   1   2
ATOM      2  O   UNL A   1      32.124  29.141  26.587  1.00  0.00    -0.462 OA
BRANCH   2   3
ATOM      3  C   UNL A   1      31.825  27.952  27.170  1.00  0.00     0.311 C 
ATOM      4  O   UNL A   1      31.555  27.810  28.358  1.00  0.00    -0.252 OA
BRANCH   3   5
ATOM      5  C   UNL A   1      31.906  26.775  26.225  1.00  0.00     0.123 C 
ATOM      6  C   UNL A   1      29.886  25.635  25.227  1.00  0.00     0.032 C 
ATOM      7  C   UNL A   1      30.899  26.776  25.052  1.00  0.00     0.098 C 
ATOM      8  N   UNL A   1      31.712  26.551  23.855  1.00  0.00    -0.321 N 
ATOM      9  C   UNL A   1      33.286  26.708  25.577  1.00  0.00     0.039 C 
ATOM     10  C   UNL A   1      33.015  26.042  24.246  1.00  0.00     0.122 C 
BRANCH   8  11
ATOM     11  C   UNL A   1      31.453  26.759  22.540  1.00  0.00     0.317 C 
ATOM     12  O   UNL A   1      31.455  25.822  21.732  1.00  0.00    -0.249 OA
ATOM     13  N   UNL A   1      31.190  27.960  22.008  1.00  0.00    -0.334 N 
ATOM     14  H   UNL A   1      31.074  27.899  21.032  1.00  0.00     0.165 HD
BRANCH  13  15
ATOM     15  C   UNL A   1      31.028  29.325  22.468  1.00  0.00     0.153 C 
BRANCH  15  16
ATOM     16  C   UNL A   1      29.601  29.632  22.842  1.00  0.00    -0.026 A 
ATOM     17  C   UNL A   1      29.213  30.915  23.240  1.00  0.00     0.025 A 
ATOM     18  C   UNL A   1      28.615  28.644  22.756  1.00  0.00     0.025 A 
ATOM     19  C   UNL A   1      27.879  31.147  23.538  1.00  0.00     0.111 A 
ATOM     20  C   UNL A   1      27.306  28.975  23.069  1.00  0.00     0.111 A 
ATOM     21  N   UNL A   1      26.915  30.205  23.463  1.00  0.00    -0.265 NA
ENDBRANCH  15  16
ENDBRANCH  13  15
ENDBRANCH   8  11
ENDBRANCH   3   5
ENDBRANCH   2   3
ENDBRANCH   1   2
BRANCH   1  22
ATOM     22  C   UNL A   1      34.520  29.582  26.931  1.00  0.00     0.275 C 
BRANCH  22  23
ATOM     23  O   UNL A   1      35.284  29.240  28.100  1.00  0.00    -0.458 OA
BRANCH  23  24
ATOM     24  C   UNL A   1      35.973  30.263  28.656  1.00  0.00     0.338 C 
ATOM     25  O   UNL A   1      35.514  31.246  29.212  1.00  0.00    -0.246 OA
BRANCH  24  26
ATOM     26  C   UNL A   1      37.411  29.979  28.607  1.00  0.00     0.060 A 
ATOM     27  C   UNL A   1      38.034  29.909  27.357  1.00  0.00     0.016 A 
ATOM     28  C   UNL A   1      38.116  29.681  29.772  1.00  0.00     0.016 A 
ATOM     29  C   UNL A   1      39.361  29.510  27.259  1.00  0.00     0.010 A 
ATOM     30  C   UNL A   1      39.456  29.302  29.674  1.00  0.00     0.010 A 
ATOM     31  C   UNL A   1      40.080  29.200  28.418  1.00  0.00    -0.014 A 
BRANCH  31  32
ATOM     32  C   UNL A   1      41.483  28.740  28.327  1.00  0.00     0.031 A 
ATOM     33  C   UNL A   1      42.597  29.742  28.414  1.00  0.00     0.074 A 
ATOM     34  C   UNL A   1      41.747  27.435  28.140  1.00  0.00     0.049 A 
ATOM     35  N   UNL A   1      43.867  29.586  28.157  1.00  0.00    -0.248 NA
ATOM     36  C   UNL A   1      42.227  31.101  28.843  1.00  0.00     0.031 C 
ATOM     37  C   UNL A   1      40.746  26.367  28.103  1.00  0.00     0.029 A 
ATOM     38  N   UNL A   1      42.936  26.787  27.923  1.00  0.00    -0.354 N 
ATOM     39  C   UNL A   1      44.448  30.834  28.357  1.00  0.00     0.074 A 
ATOM     40  C   UNL A   1      43.389  31.734  28.760  1.00  0.00     0.031 C 
ATOM     41  C   UNL A   1      41.362  25.198  27.858  1.00  0.00     0.029 A 
ATOM     42  C   UNL A   1      42.786  25.446  27.662  1.00  0.00     0.049 A 
ATOM     43  H   UNL A   1      43.811  27.238  27.953  1.00  0.00     0.167 HD
ATOM     44  C   UNL A   1      45.745  31.188  28.205  1.00  0.00     0.037 A 
ATOM     45  C   UNL A   1      43.690  24.531  27.260  1.00  0.00     0.037 A 
ATOM     46  C   UNL A   1      46.787  30.274  27.819  1.00  0.00     0.049 A 
ATOM     47  C   UNL A   1      45.115  24.959  27.045  1.00  0.00     0.074 A 
ATOM     48  C   UNL A   1      48.134  30.529  27.631  1.00  0.00     0.029 A 
ATOM     49  N   UNL A   1      46.596  28.922  27.566  1.00  0.00    -0.354 N 
ATOM     50  N   UNL A   1      45.648  26.148  27.199  1.00  0.00    -0.248 NA
ATOM     51  C   UNL A   1      46.060  23.929  26.589  1.00  0.00     0.031 C 
ATOM     52  C   UNL A   1      48.752  29.339  27.236  1.00  0.00     0.029 A 
ATOM     53  C   UNL A   1      47.797  28.333  27.213  1.00  0.00     0.049 A 
ATOM     54  H   UNL A   1      45.733  28.453  27.626  1.00  0.00     0.167 HD
ATOM     55  C   UNL A   1      46.994  26.005  26.882  1.00  0.00     0.074 A 
ATOM     56  C   UNL A   1      47.194  24.614  26.528  1.00  0.00     0.031 C 
ATOM     57  C   UNL A   1      47.974  26.940  26.887  1.00  0.00     0.037 A 
BRANCH  44  58
ATOM     58  C   UNL A   1      46.101  32.630  28.420  1.00  0.00     0.058 A 
ATOM     59  C   UNL A   1      46.066  33.566  27.375  1.00  0.00     0.135 A 
ATOM     60  C   UNL A   1      46.462  33.087  29.699  1.00  0.00     0.135 A 
ATOM     61  F   UNL A   1      45.746  33.177  26.131  1.00  0.00    -0.206 F 
ATOM     62  C   UNL A   1      46.398  34.900  27.584  1.00  0.00     0.059 A 
ATOM     63  C   UNL A   1      46.779  34.421  29.935  1.00  0.00     0.059 A 
ATOM     64  F   UNL A   1      46.516  32.232  30.732  1.00  0.00    -0.206 F 
ATOM     65  C   UNL A   1      46.758  35.317  28.867  1.00  0.00     0.060 A 
BRANCH  65  66
ATOM     66  S   UNL A   1      47.198  37.049  29.125  1.00  0.00     0.124 S 
ATOM     67  O   UNL A   1      46.069  37.519  29.923  1.00  0.00    -0.237 OA
ATOM     68  O   UNL A   1      48.473  36.950  29.829  1.00  0.00    -0.237 OA
ATOM     69  O   UNL A   1      47.275  37.585  27.770  1.00  0.00    -0.744 OA
ENDBRANCH  65  66
ENDBRANCH  44  58
BRANCH  45  70
ATOM     70  C   UNL A   1      43.256  23.136  26.997  1.00  0.00     0.058 A 
ATOM     71  C   UNL A   1      43.054  22.677  25.687  1.00  0.00     0.135 A 
ATOM     72  C   UNL A   1      43.067  22.224  28.047  1.00  0.00     0.135 A 
ATOM     73  F   UNL A   1      43.215  23.515  24.651  1.00  0.00    -0.206 F 
ATOM     74  C   UNL A   1      42.676  21.364  25.426  1.00  0.00     0.059 A 
ATOM     75  C   UNL A   1      42.711  20.900  27.810  1.00  0.00     0.059 A 
ATOM     76  F   UNL A   1      43.262  22.610  29.318  1.00  0.00    -0.206 F 
ATOM     77  C   UNL A   1      42.510  20.481  26.496  1.00  0.00     0.060 A 
BRANCH  77  78
ATOM     78  S   UNL A   1      42.078  18.763  26.147  1.00  0.00     0.124 S 
ATOM     79  O   UNL A   1      43.026  18.432  25.091  1.00  0.00    -0.237 OA
ATOM     80  O   UNL A   1      42.307  18.118  27.436  1.00  0.00    -0.237 OA
ATOM     81  O   UNL A   1      40.678  18.848  25.739  1.00  0.00    -0.744 OA
ENDBRANCH  77  78
ENDBRANCH  45  70
BRANCH  57  82
ATOM     82  C   UNL A   1      49.364  26.491  26.543  1.00  0.00     0.058 A 
ATOM     83  C   UNL A   1      49.848  26.542  25.228  1.00  0.00     0.135 A 
ATOM     84  C   UNL A   1      50.249  26.100  27.561  1.00  0.00     0.135 A 
ATOM     85  F   UNL A   1      49.035  26.901  24.222  1.00  0.00    -0.206 F 
ATOM     86  C   UNL A   1      51.168  26.222  24.932  1.00  0.00     0.059 A 
ATOM     87  C   UNL A   1      51.578  25.794  27.289  1.00  0.00     0.059 A 
ATOM     88  F   UNL A   1      49.832  26.043  28.835  1.00  0.00    -0.206 F 
ATOM     89  C   UNL A   1      52.029  25.857  25.971  1.00  0.00     0.060 A 
BRANCH  89  90
ATOM     90  S   UNL A   1      53.761  25.523  25.586  1.00  0.00     0.124 S 
ATOM     91  O   UNL A   1      53.652  24.334  24.748  1.00  0.00    -0.237 OA
ATOM     92  O   UNL A   1      54.173  26.745  24.903  1.00  0.00    -0.237 OA
ATOM     93  O   UNL A   1      54.364  25.313  26.899  1.00  0.00    -0.744 OA
ENDBRANCH  89  90
ENDBRANCH  57  82
ENDBRANCH  31  32
ENDBRANCH  24  26
ENDBRANCH  23  24
ENDBRANCH  22  23
ENDBRANCH   1  22
TORSDOF 17
ENDMDL
