MODEL 1
REMARK VINA RESULT:      -9.6      0.000      0.000
REMARK SMILES CC[C@H]1CCCC[C@@H]1C1(C(=O)OCCOC(=O)c2ccc(-c3c4nc(c(-c5c(F)cc(S(=O)(=O)[O-])cc5F)c5ccc([nH]5)c(-c5c(F)cc(S(=O)(=O)[O-])cc5F)c5nc(c(-c6c(F)cc(S(=O)(=O)[O-])cc6F)c6ccc3[nH]6)C=C5)C=C4)cc2)CC1
REMARK SMILES IDX 14 1 13 2 12 3 10 4 11 5 9 6 84 7 85 8 8 9 3 10 4 11 5 12
REMARK SMILES IDX 7 13 6 14 2 15 1 16 15 17 16 18 17 19 18 20 19 21 83 22
REMARK SMILES IDX 20 23 82 24 21 25 22 26 23 27 76 28 24 29 81 30 75 31 77 32
REMARK SMILES IDX 25 33 80 34 74 35 73 36 26 38 60 39 39 40 59 41 40 42 43 43
REMARK SMILES IDX 58 44 78 45 41 46 42 47 57 49 79 50 44 51 27 52 28 53 37 54
REMARK SMILES IDX 29 55 30 56 36 57 38 58 31 59 32 60 33 61 34 62 35 63 61 64
REMARK SMILES IDX 62 65 71 66 63 67 64 68 70 69 72 70 65 71 66 72 67 73 68 74
REMARK SMILES IDX 69 75 45 76 46 77 55 78 47 79 48 80 54 81 56 82 49 83 50 84
REMARK SMILES IDX 51 85 52 86 53 87
REMARK H PARENT 77 37 43 48
REMARK Flexibility Score: inf
ROOT
ATOM      1  C   UNL A   1      33.606  32.622  28.022  1.00  0.00     0.275 C 
ENDROOT
BRANCH   1   2
ATOM      2  C   UNL A   1      33.671  34.106  28.412  1.00  0.00     0.274 C 
BRANCH   2   3
ATOM      3  O   UNL A   1      34.665  34.275  29.438  1.00  0.00    -0.462 OA
BRANCH   3   4
ATOM      4  C   UNL A   1      34.189  34.566  30.676  1.00  0.00     0.312 C 
ATOM      5  O   UNL A   1      33.178  35.210  30.924  1.00  0.00    -0.252 OA
BRANCH   4   6
ATOM      6  C   UNL A   1      35.016  33.914  31.773  1.00  0.00     0.071 C 
ATOM      7  C   UNL A   1      34.360  32.680  32.407  1.00  0.00     0.020 C 
ATOM      8  C   UNL A   1      34.483  33.942  33.198  1.00  0.00     0.020 C 
BRANCH   6   9
ATOM      9  C   UNL A   1      36.550  34.061  31.587  1.00  0.00     0.009 C 
ATOM     10  C   UNL A   1      37.342  32.849  30.973  1.00  0.00    -0.007 C 
ATOM     11  C   UNL A   1      38.378  32.202  31.913  1.00  0.00     0.004 C 
ATOM     12  C   UNL A   1      39.098  33.170  32.832  1.00  0.00     0.000 C 
ATOM     13  C   UNL A   1      37.180  34.732  32.838  1.00  0.00     0.005 C 
ATOM     14  C   UNL A   1      38.073  33.867  33.698  1.00  0.00     0.000 C 
BRANCH  10  15
ATOM     15  C   UNL A   1      37.848  33.186  29.534  1.00  0.00     0.000 C 
ATOM     16  C   UNL A   1      38.740  34.407  29.352  1.00  0.00     0.004 C 
ENDBRANCH  10  15
ENDBRANCH   6   9
ENDBRANCH   4   6
ENDBRANCH   3   4
ENDBRANCH   2   3
ENDBRANCH   1   2
BRANCH   1  17
ATOM     17  O   UNL A   1      34.724  31.859  28.525  1.00  0.00    -0.458 OA
BRANCH  17  18
ATOM     18  C   UNL A   1      34.785  30.568  28.122  1.00  0.00     0.338 C 
ATOM     19  O   UNL A   1      33.852  29.876  27.754  1.00  0.00    -0.246 OA
BRANCH  18  20
ATOM     20  C   UNL A   1      36.142  30.056  28.394  1.00  0.00     0.060 A 
ATOM     21  C   UNL A   1      37.063  30.159  27.361  1.00  0.00     0.016 A 
ATOM     22  C   UNL A   1      36.526  29.476  29.607  1.00  0.00     0.016 A 
ATOM     23  C   UNL A   1      38.333  29.613  27.516  1.00  0.00     0.010 A 
ATOM     24  C   UNL A   1      37.860  29.049  29.794  1.00  0.00     0.010 A 
ATOM     25  C   UNL A   1      38.794  29.125  28.749  1.00  0.00    -0.014 A 
BRANCH  25  26
ATOM     26  C   UNL A   1      40.261  28.819  28.886  1.00  0.00     0.031 A 
ATOM     27  C   UNL A   1      40.875  27.519  28.430  1.00  0.00     0.074 A 
ATOM     28  C   UNL A   1      41.091  29.782  29.354  1.00  0.00     0.049 A 
ATOM     29  N   UNL A   1      42.112  27.104  28.565  1.00  0.00    -0.248 NA
ATOM     30  C   UNL A   1      40.001  26.568  27.732  1.00  0.00     0.031 C 
ATOM     31  C   UNL A   1      40.673  31.119  29.786  1.00  0.00     0.029 A 
ATOM     32  N   UNL A   1      42.461  29.819  29.493  1.00  0.00    -0.354 N 
ATOM     33  C   UNL A   1      42.154  25.821  28.031  1.00  0.00     0.074 A 
ATOM     34  C   UNL A   1      40.819  25.540  27.538  1.00  0.00     0.031 C 
ATOM     35  C   UNL A   1      41.752  31.878  30.002  1.00  0.00     0.029 A 
ATOM     36  C   UNL A   1      42.941  31.043  29.904  1.00  0.00     0.049 A 
ATOM     37  H   UNL A   1      43.042  29.045  29.314  1.00  0.00     0.167 HD
ATOM     38  C   UNL A   1      43.198  24.952  27.981  1.00  0.00     0.037 A 
ATOM     39  C   UNL A   1      44.181  31.456  30.233  1.00  0.00     0.037 A 
ATOM     40  C   UNL A   1      44.535  25.243  28.444  1.00  0.00     0.049 A 
ATOM     41  C   UNL A   1      45.307  30.467  30.218  1.00  0.00     0.074 A 
ATOM     42  C   UNL A   1      45.638  24.403  28.476  1.00  0.00     0.029 A 
ATOM     43  N   UNL A   1      44.960  26.465  28.946  1.00  0.00    -0.354 N 
ATOM     44  N   UNL A   1      45.298  29.219  29.823  1.00  0.00    -0.248 NA
ATOM     45  C   UNL A   1      46.601  30.927  30.742  1.00  0.00     0.031 C 
ATOM     46  C   UNL A   1      46.712  25.101  29.043  1.00  0.00     0.029 A 
ATOM     47  C   UNL A   1      46.298  26.395  29.311  1.00  0.00     0.049 A 
ATOM     48  H   UNL A   1      44.395  27.267  29.032  1.00  0.00     0.167 HD
ATOM     49  C   UNL A   1      46.579  28.738  30.060  1.00  0.00     0.074 A 
ATOM     50  C   UNL A   1      47.348  29.841  30.601  1.00  0.00     0.031 C 
ATOM     51  C   UNL A   1      47.064  27.488  29.860  1.00  0.00     0.037 A 
BRANCH  38  52
ATOM     52  C   UNL A   1      42.910  23.555  27.495  1.00  0.00     0.058 A 
ATOM     53  C   UNL A   1      42.463  22.532  28.344  1.00  0.00     0.135 A 
ATOM     54  C   UNL A   1      43.082  23.245  26.135  1.00  0.00     0.135 A 
ATOM     55  F   UNL A   1      42.288  22.770  29.654  1.00  0.00    -0.206 F 
ATOM     56  C   UNL A   1      42.247  21.240  27.872  1.00  0.00     0.059 A 
ATOM     57  C   UNL A   1      42.846  21.968  25.636  1.00  0.00     0.059 A 
ATOM     58  F   UNL A   1      43.496  24.188  25.273  1.00  0.00    -0.206 F 
ATOM     59  C   UNL A   1      42.454  20.964  26.519  1.00  0.00     0.060 A 
BRANCH  59  60
ATOM     60  S   UNL A   1      42.233  19.272  25.928  1.00  0.00     0.124 S 
ATOM     61  O   UNL A   1      42.715  18.503  27.072  1.00  0.00    -0.237 OA
ATOM     62  O   UNL A   1      40.796  19.208  25.683  1.00  0.00    -0.237 OA
ATOM     63  O   UNL A   1      43.074  19.213  24.736  1.00  0.00    -0.744 OA
ENDBRANCH  59  60
ENDBRANCH  38  52
BRANCH  39  64
ATOM     64  C   UNL A   1      44.394  32.857  30.694  1.00  0.00     0.058 A 
ATOM     65  C   UNL A   1      44.734  33.877  29.795  1.00  0.00     0.135 A 
ATOM     66  C   UNL A   1      44.218  33.211  32.043  1.00  0.00     0.135 A 
ATOM     67  F   UNL A   1      44.936  33.591  28.499  1.00  0.00    -0.206 F 
ATOM     68  C   UNL A   1      44.878  35.198  30.213  1.00  0.00     0.059 A 
ATOM     69  C   UNL A   1      44.316  34.527  32.476  1.00  0.00     0.059 A 
ATOM     70  F   UNL A   1      43.889  32.273  32.946  1.00  0.00    -0.206 F 
ATOM     71  C   UNL A   1      44.654  35.514  31.554  1.00  0.00     0.060 A 
BRANCH  71  72
ATOM     72  S   UNL A   1      44.755  37.239  32.077  1.00  0.00     0.124 S 
ATOM     73  O   UNL A   1      43.878  37.890  31.109  1.00  0.00    -0.237 OA
ATOM     74  O   UNL A   1      44.258  37.177  33.448  1.00  0.00    -0.237 OA
ATOM     75  O   UNL A   1      46.176  37.544  31.948  1.00  0.00    -0.744 OA
ENDBRANCH  71  72
ENDBRANCH  39  64
BRANCH  51  76
ATOM     76  C   UNL A   1      48.506  27.245  30.216  1.00  0.00     0.058 A 
ATOM     77  C   UNL A   1      48.884  26.784  31.488  1.00  0.00     0.135 A 
ATOM     78  C   UNL A   1      49.520  27.453  29.268  1.00  0.00     0.135 A 
ATOM     79  F   UNL A   1      47.956  26.580  32.437  1.00  0.00    -0.206 F 
ATOM     80  C   UNL A   1      50.219  26.558  31.814  1.00  0.00     0.059 A 
ATOM     81  C   UNL A   1      50.858  27.209  29.564  1.00  0.00     0.059 A 
ATOM     82  F   UNL A   1      49.214  27.890  28.036  1.00  0.00    -0.206 F 
ATOM     83  C   UNL A   1      51.199  26.774  30.844  1.00  0.00     0.060 A 
BRANCH  83  84
ATOM     84  S   UNL A   1      52.925  26.453  31.268  1.00  0.00     0.124 S 
ATOM     85  O   UNL A   1      53.268  27.648  32.032  1.00  0.00    -0.237 OA
ATOM     86  O   UNL A   1      52.833  25.214  32.037  1.00  0.00    -0.237 OA
ATOM     87  O   UNL A   1      53.577  26.329  29.968  1.00  0.00    -0.744 OA
ENDBRANCH  83  84
ENDBRANCH  51  76
ENDBRANCH  25  26
ENDBRANCH  18  20
ENDBRANCH  17  18
ENDBRANCH   1  17
TORSDOF 16
ENDMDL
MODEL 2
REMARK VINA RESULT:      -9.5      1.341      8.716
REMARK SMILES CC[C@H]1CCCC[C@@H]1C1(C(=O)OCCOC(=O)c2ccc(-c3c4nc(c(-c5c(F)cc(S(=O)(=O)[O-])cc5F)c5ccc([nH]5)c(-c5c(F)cc(S(=O)(=O)[O-])cc5F)c5nc(c(-c6c(F)cc(S(=O)(=O)[O-])cc6F)c6ccc3[nH]6)C=C5)C=C4)cc2)CC1
REMARK SMILES IDX 14 1 13 2 12 3 10 4 11 5 9 6 84 7 85 8 8 9 3 10 4 11 5 12
REMARK SMILES IDX 7 13 6 14 2 15 1 16 15 17 16 18 17 19 18 20 19 21 83 22
REMARK SMILES IDX 20 23 82 24 21 25 22 26 23 27 76 28 24 29 81 30 75 31 77 32
REMARK SMILES IDX 25 33 80 34 74 35 73 36 26 38 60 39 39 40 59 41 40 42 43 43
REMARK SMILES IDX 58 44 78 45 41 46 42 47 57 49 79 50 44 51 27 52 28 53 37 54
REMARK SMILES IDX 29 55 30 56 36 57 38 58 31 59 32 60 33 61 34 62 35 63 61 64
REMARK SMILES IDX 62 65 71 66 63 67 64 68 70 69 72 70 65 71 66 72 67 73 68 74
REMARK SMILES IDX 69 75 45 76 46 77 55 78 47 79 48 80 54 81 56 82 49 83 50 84
REMARK SMILES IDX 51 85 52 86 53 87
REMARK H PARENT 77 37 43 48
REMARK Flexibility Score: inf
ROOT
ATOM      1  C   UNL A   1      34.422  32.728  28.576  1.00  0.00     0.275 C 
ENDROOT
BRANCH   1   2
ATOM      2  C   UNL A   1      34.429  33.862  29.612  1.00  0.00     0.274 C 
BRANCH   2   3
ATOM      3  O   UNL A   1      34.568  33.293  30.925  1.00  0.00    -0.462 OA
BRANCH   3   4
ATOM      4  C   UNL A   1      35.583  33.790  31.678  1.00  0.00     0.312 C 
ATOM      5  O   UNL A   1      35.706  34.952  32.040  1.00  0.00    -0.252 OA
BRANCH   4   6
ATOM      6  C   UNL A   1      36.549  32.703  32.122  1.00  0.00     0.071 C 
ATOM      7  C   UNL A   1      35.876  31.377  32.498  1.00  0.00     0.020 C 
ATOM      8  C   UNL A   1      36.491  32.225  33.565  1.00  0.00     0.020 C 
BRANCH   6   9
ATOM      9  C   UNL A   1      37.951  32.787  31.460  1.00  0.00     0.009 C 
ATOM     10  C   UNL A   1      38.957  33.873  31.989  1.00  0.00    -0.007 C 
ATOM     11  C   UNL A   1      39.350  34.954  30.963  1.00  0.00     0.004 C 
ATOM     12  C   UNL A   1      39.473  34.462  29.534  1.00  0.00     0.000 C 
ATOM     13  C   UNL A   1      37.825  32.658  29.917  1.00  0.00     0.005 C 
ATOM     14  C   UNL A   1      38.140  33.892  29.103  1.00  0.00     0.000 C 
BRANCH  10  15
ATOM     15  C   UNL A   1      40.141  33.208  32.762  1.00  0.00     0.000 C 
ATOM     16  C   UNL A   1      40.063  31.715  33.052  1.00  0.00     0.004 C 
ENDBRANCH  10  15
ENDBRANCH   6   9
ENDBRANCH   4   6
ENDBRANCH   3   4
ENDBRANCH   2   3
ENDBRANCH   1   2
BRANCH   1  17
ATOM     17  O   UNL A   1      34.626  31.426  29.167  1.00  0.00    -0.458 OA
BRANCH  17  18
ATOM     18  C   UNL A   1      34.815  30.407  28.296  1.00  0.00     0.338 C 
ATOM     19  O   UNL A   1      33.960  29.852  27.629  1.00  0.00    -0.246 OA
BRANCH  18  20
ATOM     20  C   UNL A   1      36.205  29.927  28.431  1.00  0.00     0.060 A 
ATOM     21  C   UNL A   1      37.024  30.080  27.323  1.00  0.00     0.016 A 
ATOM     22  C   UNL A   1      36.712  29.330  29.590  1.00  0.00     0.016 A 
ATOM     23  C   UNL A   1      38.317  29.566  27.348  1.00  0.00     0.010 A 
ATOM     24  C   UNL A   1      38.068  28.936  29.645  1.00  0.00     0.010 A 
ATOM     25  C   UNL A   1      38.901  29.063  28.522  1.00  0.00    -0.014 A 
BRANCH  25  26
ATOM     26  C   UNL A   1      40.382  28.796  28.519  1.00  0.00     0.031 A 
ATOM     27  C   UNL A   1      41.397  29.797  29.013  1.00  0.00     0.074 A 
ATOM     28  C   UNL A   1      40.828  27.573  28.144  1.00  0.00     0.049 A 
ATOM     29  N   UNL A   1      42.706  29.717  28.989  1.00  0.00    -0.248 NA
ATOM     30  C   UNL A   1      40.886  31.036  29.612  1.00  0.00     0.031 C 
ATOM     31  C   UNL A   1      39.978  26.467  27.693  1.00  0.00     0.029 A 
ATOM     32  N   UNL A   1      42.091  27.025  28.135  1.00  0.00    -0.354 N 
ATOM     33  C   UNL A   1      43.180  30.917  29.507  1.00  0.00     0.074 A 
ATOM     34  C   UNL A   1      42.011  31.696  29.868  1.00  0.00     0.031 C 
ATOM     35  C   UNL A   1      40.710  25.353  27.590  1.00  0.00     0.029 A 
ATOM     36  C   UNL A   1      42.112  25.692  27.788  1.00  0.00     0.049 A 
ATOM     37  H   UNL A   1      42.902  27.536  28.357  1.00  0.00     0.167 HD
ATOM     38  C   UNL A   1      44.465  31.338  29.643  1.00  0.00     0.037 A 
ATOM     39  C   UNL A   1      43.131  24.834  27.582  1.00  0.00     0.037 A 
ATOM     40  C   UNL A   1      45.630  30.551  29.311  1.00  0.00     0.049 A 
ATOM     41  C   UNL A   1      44.539  25.334  27.689  1.00  0.00     0.074 A 
ATOM     42  C   UNL A   1      46.965  30.920  29.371  1.00  0.00     0.029 A 
ATOM     43  N   UNL A   1      45.608  29.236  28.868  1.00  0.00    -0.354 N 
ATOM     44  N   UNL A   1      44.964  26.515  28.065  1.00  0.00    -0.248 NA
ATOM     45  C   UNL A   1      45.606  24.403  27.296  1.00  0.00     0.031 C 
ATOM     46  C   UNL A   1      47.744  29.848  28.918  1.00  0.00     0.029 A 
ATOM     47  C   UNL A   1      46.900  28.788  28.630  1.00  0.00     0.049 A 
ATOM     48  H   UNL A   1      44.793  28.698  28.741  1.00  0.00     0.167 HD
ATOM     49  C   UNL A   1      46.347  26.475  27.942  1.00  0.00     0.074 A 
ATOM     50  C   UNL A   1      46.690  25.141  27.492  1.00  0.00     0.031 C 
ATOM     51  C   UNL A   1      47.245  27.464  28.170  1.00  0.00     0.037 A 
BRANCH  38  52
ATOM     52  C   UNL A   1      44.680  32.764  30.080  1.00  0.00     0.058 A 
ATOM     53  C   UNL A   1      44.738  33.836  29.177  1.00  0.00     0.135 A 
ATOM     54  C   UNL A   1      44.823  33.056  31.448  1.00  0.00     0.135 A 
ATOM     55  F   UNL A   1      44.614  33.616  27.859  1.00  0.00    -0.206 F 
ATOM     56  C   UNL A   1      44.981  35.138  29.610  1.00  0.00     0.059 A 
ATOM     57  C   UNL A   1      45.040  34.351  31.905  1.00  0.00     0.059 A 
ATOM     58  F   UNL A   1      44.764  32.071  32.359  1.00  0.00    -0.206 F 
ATOM     59  C   UNL A   1      45.144  35.383  30.975  1.00  0.00     0.060 A 
BRANCH  59  60
ATOM     60  S   UNL A   1      45.523  37.063  31.521  1.00  0.00     0.124 S 
ATOM     61  O   UNL A   1      44.855  37.101  32.818  1.00  0.00    -0.237 OA
ATOM     62  O   UNL A   1      46.982  37.061  31.560  1.00  0.00    -0.237 OA
ATOM     63  O   UNL A   1      44.927  37.901  30.485  1.00  0.00    -0.744 OA
ENDBRANCH  59  60
ENDBRANCH  38  52
BRANCH  39  64
ATOM     64  C   UNL A   1      42.842  23.433  27.162  1.00  0.00     0.058 A 
ATOM     65  C   UNL A   1      42.965  23.033  25.824  1.00  0.00     0.135 A 
ATOM     66  C   UNL A   1      42.479  22.455  28.104  1.00  0.00     0.135 A 
ATOM     67  F   UNL A   1      43.287  23.932  24.881  1.00  0.00    -0.206 F 
ATOM     68  C   UNL A   1      42.752  21.712  25.437  1.00  0.00     0.059 A 
ATOM     69  C   UNL A   1      42.301  21.124  27.748  1.00  0.00     0.059 A 
ATOM     70  F   UNL A   1      42.349  22.783  29.399  1.00  0.00    -0.206 F 
ATOM     71  C   UNL A   1      42.433  20.762  26.409  1.00  0.00     0.060 A 
BRANCH  71  72
ATOM     72  S   UNL A   1      42.243  19.035  25.919  1.00  0.00     0.124 S 
ATOM     73  O   UNL A   1      43.030  18.992  24.692  1.00  0.00    -0.237 OA
ATOM     74  O   UNL A   1      42.804  18.325  27.064  1.00  0.00    -0.237 OA
ATOM     75  O   UNL A   1      40.800  18.893  25.751  1.00  0.00    -0.744 OA
ENDBRANCH  71  72
ENDBRANCH  39  64
BRANCH  51  76
ATOM     76  C   UNL A   1      48.698  27.139  27.948  1.00  0.00     0.058 A 
ATOM     77  C   UNL A   1      49.501  26.613  28.973  1.00  0.00     0.135 A 
ATOM     78  C   UNL A   1      49.287  27.331  26.689  1.00  0.00     0.135 A 
ATOM     79  F   UNL A   1      48.991  26.420  30.200  1.00  0.00    -0.206 F 
ATOM     80  C   UNL A   1      50.844  26.311  28.763  1.00  0.00     0.059 A 
ATOM     81  C   UNL A   1      50.621  27.012  26.450  1.00  0.00     0.059 A 
ATOM     82  F   UNL A   1      48.564  27.827  25.672  1.00  0.00    -0.206 F 
ATOM     83  C   UNL A   1      51.395  26.515  27.497  1.00  0.00     0.060 A 
BRANCH  83  84
ATOM     84  S   UNL A   1      53.131  26.095  27.229  1.00  0.00     0.124 S 
ATOM     85  O   UNL A   1      53.601  27.250  26.472  1.00  0.00    -0.237 OA
ATOM     86  O   UNL A   1      53.640  25.981  28.593  1.00  0.00    -0.237 OA
ATOM     87  O   UNL A   1      53.065  24.841  26.485  1.00  0.00    -0.744 OA
ENDBRANCH  83  84
ENDBRANCH  51  76
ENDBRANCH  25  26
ENDBRANCH  18  20
ENDBRANCH  17  18
ENDBRANCH   1  17
TORSDOF 16
ENDMDL
MODEL 3
REMARK VINA RESULT:      -9.4      2.846      9.769
REMARK SMILES CC[C@H]1CCCC[C@@H]1C1(C(=O)OCCOC(=O)c2ccc(-c3c4nc(c(-c5c(F)cc(S(=O)(=O)[O-])cc5F)c5ccc([nH]5)c(-c5c(F)cc(S(=O)(=O)[O-])cc5F)c5nc(c(-c6c(F)cc(S(=O)(=O)[O-])cc6F)c6ccc3[nH]6)C=C5)C=C4)cc2)CC1
REMARK SMILES IDX 14 1 13 2 12 3 10 4 11 5 9 6 84 7 85 8 8 9 3 10 4 11 5 12
REMARK SMILES IDX 7 13 6 14 2 15 1 16 15 17 16 18 17 19 18 20 19 21 83 22
REMARK SMILES IDX 20 23 82 24 21 25 22 26 23 27 76 28 24 29 81 30 75 31 77 32
REMARK SMILES IDX 25 33 80 34 74 35 73 36 26 38 60 39 39 40 59 41 40 42 43 43
REMARK SMILES IDX 58 44 78 45 41 46 42 47 57 49 79 50 44 51 27 52 28 53 37 54
REMARK SMILES IDX 29 55 30 56 36 57 38 58 31 59 32 60 33 61 34 62 35 63 61 64
REMARK SMILES IDX 62 65 71 66 63 67 64 68 70 69 72 70 65 71 66 72 67 73 68 74
REMARK SMILES IDX 69 75 45 76 46 77 55 78 47 79 48 80 54 81 56 82 49 83 50 84
REMARK SMILES IDX 51 85 52 86 53 87
REMARK H PARENT 77 37 43 48
REMARK Flexibility Score: inf
ROOT
ATOM      1  C   UNL A   1      33.295  30.681  27.023  1.00  0.00     0.275 C 
ENDROOT
BRANCH   1   2
ATOM      2  C   UNL A   1      32.161  29.754  26.562  1.00  0.00     0.274 C 
BRANCH   2   3
ATOM      3  O   UNL A   1      32.715  28.469  26.229  1.00  0.00    -0.462 OA
BRANCH   3   4
ATOM      4  C   UNL A   1      31.968  27.394  26.592  1.00  0.00     0.312 C 
ATOM      5  O   UNL A   1      31.151  27.362  27.502  1.00  0.00    -0.252 OA
BRANCH   4   6
ATOM      6  C   UNL A   1      32.186  26.210  25.664  1.00  0.00     0.071 C 
ATOM      7  C   UNL A   1      32.033  24.842  26.342  1.00  0.00     0.020 C 
ATOM      8  C   UNL A   1      33.386  25.307  25.910  1.00  0.00     0.020 C 
BRANCH   6   9
ATOM      9  C   UNL A   1      31.791  26.475  24.186  1.00  0.00     0.009 C 
ATOM     10  C   UNL A   1      32.829  27.210  23.262  1.00  0.00    -0.007 C 
ATOM     11  C   UNL A   1      32.376  28.587  22.737  1.00  0.00     0.004 C 
ATOM     12  C   UNL A   1      30.897  28.694  22.423  1.00  0.00     0.000 C 
ATOM     13  C   UNL A   1      30.322  26.973  24.105  1.00  0.00     0.005 C 
ATOM     14  C   UNL A   1      30.113  28.410  23.685  1.00  0.00     0.000 C 
BRANCH  10  15
ATOM     15  C   UNL A   1      33.412  26.234  22.191  1.00  0.00     0.000 C 
ATOM     16  C   UNL A   1      32.903  24.799  22.172  1.00  0.00     0.004 C 
ENDBRANCH  10  15
ENDBRANCH   6   9
ENDBRANCH   4   6
ENDBRANCH   3   4
ENDBRANCH   2   3
ENDBRANCH   1   2
BRANCH   1  17
ATOM     17  O   UNL A   1      34.295  29.996  27.809  1.00  0.00    -0.458 OA
BRANCH  17  18
ATOM     18  C   UNL A   1      34.960  30.759  28.708  1.00  0.00     0.338 C 
ATOM     19  O   UNL A   1      34.560  31.783  29.232  1.00  0.00    -0.246 OA
BRANCH  18  20
ATOM     20  C   UNL A   1      36.347  30.263  28.808  1.00  0.00     0.060 A 
ATOM     21  C   UNL A   1      37.107  30.310  27.648  1.00  0.00     0.016 A 
ATOM     22  C   UNL A   1      36.908  29.751  29.982  1.00  0.00     0.016 A 
ATOM     23  C   UNL A   1      38.391  29.773  27.647  1.00  0.00     0.010 A 
ATOM     24  C   UNL A   1      38.258  29.335  29.996  1.00  0.00     0.010 A 
ATOM     25  C   UNL A   1      39.030  29.353  28.824  1.00  0.00    -0.014 A 
BRANCH  25  26
ATOM     26  C   UNL A   1      40.504  29.057  28.764  1.00  0.00     0.031 A 
ATOM     27  C   UNL A   1      41.558  30.036  29.219  1.00  0.00     0.074 A 
ATOM     28  C   UNL A   1      40.911  27.826  28.372  1.00  0.00     0.049 A 
ATOM     29  N   UNL A   1      42.863  29.930  29.145  1.00  0.00    -0.248 NA
ATOM     30  C   UNL A   1      41.096  31.285  29.838  1.00  0.00     0.031 C 
ATOM     31  C   UNL A   1      40.022  26.738  27.953  1.00  0.00     0.029 A 
ATOM     32  N   UNL A   1      42.161  27.252  28.314  1.00  0.00    -0.354 N 
ATOM     33  C   UNL A   1      43.381  31.120  29.644  1.00  0.00     0.074 A 
ATOM     34  C   UNL A   1      42.242  31.921  30.051  1.00  0.00     0.031 C 
ATOM     35  C   UNL A   1      40.726  25.610  27.821  1.00  0.00     0.029 A 
ATOM     36  C   UNL A   1      42.142  25.919  27.965  1.00  0.00     0.049 A 
ATOM     37  H   UNL A   1      42.991  27.747  28.504  1.00  0.00     0.167 HD
ATOM     38  C   UNL A   1      44.678  31.515  29.731  1.00  0.00     0.037 A 
ATOM     39  C   UNL A   1      43.134  25.041  27.720  1.00  0.00     0.037 A 
ATOM     40  C   UNL A   1      45.813  30.705  29.355  1.00  0.00     0.049 A 
ATOM     41  C   UNL A   1      44.556  25.513  27.773  1.00  0.00     0.074 A 
ATOM     42  C   UNL A   1      47.157  31.047  29.363  1.00  0.00     0.029 A 
ATOM     43  N   UNL A   1      45.748  29.391  28.911  1.00  0.00    -0.354 N 
ATOM     44  N   UNL A   1      45.018  26.685  28.133  1.00  0.00    -0.248 NA
ATOM     45  C   UNL A   1      45.588  24.562  27.338  1.00  0.00     0.031 C 
ATOM     46  C   UNL A   1      47.896  29.960  28.880  1.00  0.00     0.029 A 
ATOM     47  C   UNL A   1      47.021  28.918  28.623  1.00  0.00     0.049 A 
ATOM     48  H   UNL A   1      44.917  28.870  28.816  1.00  0.00     0.167 HD
ATOM     49  C   UNL A   1      46.395  26.617  27.957  1.00  0.00     0.074 A 
ATOM     50  C   UNL A   1      46.693  25.277  27.492  1.00  0.00     0.031 C 
ATOM     51  C   UNL A   1      47.321  27.588  28.150  1.00  0.00     0.037 A 
BRANCH  38  52
ATOM     52  C   UNL A   1      44.938  32.936  30.161  1.00  0.00     0.058 A 
ATOM     53  C   UNL A   1      45.201  33.292  31.492  1.00  0.00     0.135 A 
ATOM     54  C   UNL A   1      44.930  33.963  29.201  1.00  0.00     0.135 A 
ATOM     55  F   UNL A   1      45.215  32.354  32.452  1.00  0.00    -0.206 F 
ATOM     56  C   UNL A   1      45.395  34.620  31.863  1.00  0.00     0.059 A 
ATOM     57  C   UNL A   1      45.147  35.293  29.544  1.00  0.00     0.059 A 
ATOM     58  F   UNL A   1      44.696  33.679  27.909  1.00  0.00    -0.206 F 
ATOM     59  C   UNL A   1      45.353  35.616  30.884  1.00  0.00     0.060 A 
BRANCH  59  60
ATOM     60  S   UNL A   1      45.541  37.341  31.384  1.00  0.00     0.124 S 
ATOM     61  O   UNL A   1      44.207  37.640  31.895  1.00  0.00    -0.237 OA
ATOM     62  O   UNL A   1      46.600  37.266  32.385  1.00  0.00    -0.237 OA
ATOM     63  O   UNL A   1      45.902  38.018  30.142  1.00  0.00    -0.744 OA
ENDBRANCH  59  60
ENDBRANCH  38  52
BRANCH  39  64
ATOM     64  C   UNL A   1      42.802  23.647  27.311  1.00  0.00     0.058 A 
ATOM     65  C   UNL A   1      42.744  23.278  25.960  1.00  0.00     0.135 A 
ATOM     66  C   UNL A   1      42.577  22.645  28.270  1.00  0.00     0.135 A 
ATOM     67  F   UNL A   1      42.929  24.201  25.003  1.00  0.00    -0.206 F 
ATOM     68  C   UNL A   1      42.490  21.964  25.574  1.00  0.00     0.059 A 
ATOM     69  C   UNL A   1      42.362  21.320  27.911  1.00  0.00     0.059 A 
ATOM     70  F   UNL A   1      42.623  22.943  29.578  1.00  0.00    -0.206 F 
ATOM     71  C   UNL A   1      42.313  20.990  26.559  1.00  0.00     0.060 A 
BRANCH  71  72
ATOM     72  S   UNL A   1      42.071  19.272  26.059  1.00  0.00     0.124 S 
ATOM     73  O   UNL A   1      42.531  18.556  27.244  1.00  0.00    -0.237 OA
ATOM     74  O   UNL A   1      40.635  19.224  25.800  1.00  0.00    -0.237 OA
ATOM     75  O   UNL A   1      42.916  19.147  24.875  1.00  0.00    -0.744 OA
ENDBRANCH  71  72
ENDBRANCH  39  64
BRANCH  51  76
ATOM     76  C   UNL A   1      48.757  27.233  27.872  1.00  0.00     0.058 A 
ATOM     77  C   UNL A   1      49.562  26.605  28.836  1.00  0.00     0.135 A 
ATOM     78  C   UNL A   1      49.328  27.503  26.618  1.00  0.00     0.135 A 
ATOM     79  F   UNL A   1      49.069  26.335  30.056  1.00  0.00    -0.206 F 
ATOM     80  C   UNL A   1      50.889  26.276  28.575  1.00  0.00     0.059 A 
ATOM     81  C   UNL A   1      50.646  27.160  26.327  1.00  0.00     0.059 A 
ATOM     82  F   UNL A   1      48.603  28.098  25.659  1.00  0.00    -0.206 F 
ATOM     83  C   UNL A   1      51.422  26.559  27.316  1.00  0.00     0.060 A 
BRANCH  83  84
ATOM     84  S   UNL A   1      53.137  26.104  26.979  1.00  0.00     0.124 S 
ATOM     85  O   UNL A   1      52.979  24.784  26.376  1.00  0.00    -0.237 OA
ATOM     86  O   UNL A   1      53.571  27.166  26.074  1.00  0.00    -0.237 OA
ATOM     87  O   UNL A   1      53.759  26.122  28.299  1.00  0.00    -0.744 OA
ENDBRANCH  83  84
ENDBRANCH  51  76
ENDBRANCH  25  26
ENDBRANCH  18  20
ENDBRANCH  17  18
ENDBRANCH   1  17
TORSDOF 16
ENDMDL
