MODEL 1
REMARK VINA RESULT:     -11.6      0.000      0.000
REMARK SMILES COc1ccc(-c2ccc3n(c2=O)C[C@H]2C[C@@H]3CN(C(=O)CCCC(=O)OCCOC(=O)c3ccc(-c4c5nc(c(-c6c(F)cc(S(=O)(=O)[O-])cc6F)c6ccc([nH]6)c(-c6c(F)cc(S(=O)(=O)[O-])cc6F)c6nc(c(-c7c(F)cc(S(=O)(=O)[O-])cc7F)c7ccc4[nH]7)C=C6)C=C5)cc3)C2)cc1
REMARK SMILES IDX 27 1 25 2 26 3 24 4 23 5 22 6 20 7 21 8 19 9 7 10 8 11 12 12
REMARK SMILES IDX 9 13 11 14 13 15 10 16 14 17 17 18 15 19 16 20 18 21 99 22
REMARK SMILES IDX 6 23 3 24 4 25 101 26 5 27 100 28 2 29 1 30 28 31 29 32
REMARK SMILES IDX 30 33 31 34 32 35 33 36 34 37 98 38 35 39 97 40 36 41 37 42
REMARK SMILES IDX 38 43 91 44 39 45 96 46 90 47 92 48 40 49 95 50 89 51 88 52
REMARK SMILES IDX 41 54 75 55 54 56 74 57 55 58 58 59 73 60 93 61 56 62 57 63
REMARK SMILES IDX 72 65 94 66 59 67 42 68 43 69 52 70 44 71 45 72 51 73 53 74
REMARK SMILES IDX 46 75 47 76 48 77 49 78 50 79 76 80 77 81 86 82 78 83 79 84
REMARK SMILES IDX 85 85 87 86 80 87 81 88 82 89 83 90 84 91 60 92 61 93 70 94
REMARK SMILES IDX 62 95 63 96 69 97 71 98 64 99 65 100 66 101 67 102 68 103
REMARK H PARENT 92 53 58 64
REMARK Flexibility Score: inf
ROOT
ATOM      1  O   UNL A   1      41.311  22.331  26.696  1.00  0.00    -0.462 OA
ENDROOT
BRANCH   1   2
ATOM      2  C   UNL A   1      40.309  21.415  26.681  1.00  0.00     0.305 C 
ATOM      3  O   UNL A   1      40.445  20.254  27.046  1.00  0.00    -0.252 OA
BRANCH   2   4
ATOM      4  C   UNL A   1      38.997  21.946  26.133  1.00  0.00     0.123 C 
BRANCH   4   5
ATOM      5  C   UNL A   1      38.789  23.452  26.185  1.00  0.00     0.022 C 
BRANCH   5   6
ATOM      6  C   UNL A   1      37.335  23.910  26.116  1.00  0.00     0.101 C 
BRANCH   6   7
ATOM      7  C   UNL A   1      36.526  23.223  25.027  1.00  0.00     0.222 C 
ATOM      8  O   UNL A   1      36.860  23.384  23.850  1.00  0.00    -0.275 OA
BRANCH   7   9
ATOM      9  N   UNL A   1      35.469  22.393  25.384  1.00  0.00    -0.342 N 
ATOM     10  C   UNL A   1      31.255  25.131  23.822  1.00  0.00     0.047 A 
ATOM     11  C   UNL A   1      31.552  24.293  22.814  1.00  0.00     0.016 A 
ATOM     12  C   UNL A   1      31.723  24.777  25.209  1.00  0.00     0.258 A 
ATOM     13  C   UNL A   1      32.249  23.059  23.041  1.00  0.00     0.023 A 
ATOM     14  N   UNL A   1      32.369  23.534  25.356  1.00  0.00    -0.311 N 
ATOM     15  O   UNL A   1      31.526  25.540  26.154  1.00  0.00    -0.269 OA
ATOM     16  C   UNL A   1      32.626  22.694  24.276  1.00  0.00     0.026 A 
ATOM     17  C   UNL A   1      32.680  23.131  26.728  1.00  0.00     0.131 C 
ATOM     18  C   UNL A   1      33.346  21.380  24.506  1.00  0.00     0.056 C 
ATOM     19  C   UNL A   1      33.526  21.859  26.904  1.00  0.00     0.029 C 
ATOM     20  C   UNL A   1      33.053  20.821  25.898  1.00  0.00     0.019 C 
ATOM     21  C   UNL A   1      34.862  21.577  24.330  1.00  0.00     0.129 C 
ATOM     22  C   UNL A   1      35.041  22.083  26.747  1.00  0.00     0.125 C 
BRANCH  10  23
ATOM     23  C   UNL A   1      30.457  26.340  23.547  1.00  0.00    -0.013 A 
ATOM     24  C   UNL A   1      28.903  28.624  23.044  1.00  0.00     0.118 A 
ATOM     25  C   UNL A   1      30.267  28.630  22.762  1.00  0.00     0.047 A 
ATOM     26  C   UNL A   1      28.300  27.476  23.550  1.00  0.00     0.047 A 
ATOM     27  C   UNL A   1      31.046  27.498  23.025  1.00  0.00     0.013 A 
ATOM     28  C   UNL A   1      29.076  26.343  23.807  1.00  0.00     0.013 A 
BRANCH  24  29
ATOM     29  O   UNL A   1      28.202  29.761  22.746  1.00  0.00    -0.497 OA
ATOM     30  C   UNL A   1      28.722  30.445  21.605  1.00  0.00     0.278 C 
ENDBRANCH  24  29
ENDBRANCH  10  23
ENDBRANCH   7   9
ENDBRANCH   6   7
ENDBRANCH   5   6
ENDBRANCH   4   5
ENDBRANCH   2   4
ENDBRANCH   1   2
BRANCH   1  31
ATOM     31  C   UNL A   1      42.418  22.048  25.817  1.00  0.00     0.274 C 
BRANCH  31  32
ATOM     32  C   UNL A   1      43.372  23.236  25.679  1.00  0.00     0.275 C 
BRANCH  32  33
ATOM     33  O   UNL A   1      43.054  24.292  26.601  1.00  0.00    -0.458 OA
BRANCH  33  34
ATOM     34  C   UNL A   1      42.470  25.371  26.038  1.00  0.00     0.338 C 
ATOM     35  O   UNL A   1      42.286  25.572  24.841  1.00  0.00    -0.246 OA
BRANCH  34  36
ATOM     36  C   UNL A   1      41.933  26.256  27.074  1.00  0.00     0.060 A 
ATOM     37  C   UNL A   1      42.397  27.571  27.113  1.00  0.00     0.016 A 
ATOM     38  C   UNL A   1      41.092  25.773  28.077  1.00  0.00     0.016 A 
ATOM     39  C   UNL A   1      42.069  28.404  28.166  1.00  0.00     0.010 A 
ATOM     40  C   UNL A   1      40.741  26.619  29.134  1.00  0.00     0.010 A 
ATOM     41  C   UNL A   1      41.252  27.927  29.194  1.00  0.00    -0.014 A 
BRANCH  41  42
ATOM     42  C   UNL A   1      41.037  28.796  30.372  1.00  0.00     0.031 A 
ATOM     43  C   UNL A   1      41.995  28.716  31.524  1.00  0.00     0.074 A 
ATOM     44  C   UNL A   1      40.051  29.711  30.350  1.00  0.00     0.049 A 
ATOM     45  N   UNL A   1      41.960  29.338  32.672  1.00  0.00    -0.248 NA
ATOM     46  C   UNL A   1      43.148  27.814  31.362  1.00  0.00     0.031 C 
ATOM     47  C   UNL A   1      39.125  29.926  29.235  1.00  0.00     0.029 A 
ATOM     48  N   UNL A   1      39.679  30.645  31.279  1.00  0.00    -0.354 N 
ATOM     49  C   UNL A   1      43.060  28.877  33.385  1.00  0.00     0.074 A 
ATOM     50  C   UNL A   1      43.743  27.921  32.541  1.00  0.00     0.031 C 
ATOM     51  C   UNL A   1      38.303  30.941  29.539  1.00  0.00     0.029 A 
ATOM     52  C   UNL A   1      38.608  31.411  30.886  1.00  0.00     0.049 A 
ATOM     53  H   UNL A   1      40.135  30.757  32.144  1.00  0.00     0.167 HD
ATOM     54  C   UNL A   1      43.454  29.221  34.633  1.00  0.00     0.037 A 
ATOM     55  C   UNL A   1      37.937  32.367  31.554  1.00  0.00     0.037 A 
ATOM     56  C   UNL A   1      42.775  30.200  35.441  1.00  0.00     0.049 A 
ATOM     57  C   UNL A   1      38.383  32.720  32.945  1.00  0.00     0.074 A 
ATOM     58  C   UNL A   1      43.062  30.608  36.731  1.00  0.00     0.029 A 
ATOM     59  N   UNL A   1      41.675  30.939  35.023  1.00  0.00    -0.354 N 
ATOM     60  N   UNL A   1      39.378  32.221  33.640  1.00  0.00    -0.248 NA
ATOM     61  C   UNL A   1      37.614  33.755  33.645  1.00  0.00     0.031 C 
ATOM     62  C   UNL A   1      42.122  31.578  37.101  1.00  0.00     0.029 A 
ATOM     63  C   UNL A   1      41.271  31.798  36.029  1.00  0.00     0.049 A 
ATOM     64  H   UNL A   1      41.246  30.861  34.140  1.00  0.00     0.167 HD
ATOM     65  C   UNL A   1      39.365  32.891  34.857  1.00  0.00     0.074 A 
ATOM     66  C   UNL A   1      38.271  33.842  34.794  1.00  0.00     0.031 C 
ATOM     67  C   UNL A   1      40.177  32.734  35.932  1.00  0.00     0.037 A 
BRANCH  54  68
ATOM     68  C   UNL A   1      44.637  28.494  35.208  1.00  0.00     0.058 A 
ATOM     69  C   UNL A   1      45.930  29.040  35.189  1.00  0.00     0.135 A 
ATOM     70  C   UNL A   1      44.472  27.221  35.779  1.00  0.00     0.135 A 
ATOM     71  F   UNL A   1      46.148  30.242  34.634  1.00  0.00    -0.206 F 
ATOM     72  C   UNL A   1      47.023  28.339  35.693  1.00  0.00     0.059 A 
ATOM     73  C   UNL A   1      45.546  26.512  36.308  1.00  0.00     0.059 A 
ATOM     74  F   UNL A   1      43.258  26.650  35.815  1.00  0.00    -0.206 F 
ATOM     75  C   UNL A   1      46.821  27.072  36.245  1.00  0.00     0.060 A 
BRANCH  75  76
ATOM     76  S   UNL A   1      48.245  26.163  36.883  1.00  0.00     0.124 S 
ATOM     77  O   UNL A   1      49.308  27.154  36.744  1.00  0.00    -0.237 OA
ATOM     78  O   UNL A   1      47.838  25.857  38.250  1.00  0.00    -0.237 OA
ATOM     79  O   UNL A   1      48.340  25.013  35.989  1.00  0.00    -0.744 OA
ENDBRANCH  75  76
ENDBRANCH  54  68
BRANCH  55  80
ATOM     80  C   UNL A   1      36.765  33.026  30.921  1.00  0.00     0.058 A 
ATOM     81  C   UNL A   1      35.456  32.750  31.342  1.00  0.00     0.135 A 
ATOM     82  C   UNL A   1      36.936  33.972  29.897  1.00  0.00     0.135 A 
ATOM     83  F   UNL A   1      35.237  31.848  32.311  1.00  0.00    -0.206 F 
ATOM     84  C   UNL A   1      34.357  33.384  30.767  1.00  0.00     0.059 A 
ATOM     85  C   UNL A   1      35.856  34.637  29.325  1.00  0.00     0.059 A 
ATOM     86  F   UNL A   1      38.169  34.281  29.465  1.00  0.00    -0.206 F 
ATOM     87  C   UNL A   1      34.569  34.329  29.761  1.00  0.00     0.060 A 
BRANCH  87  88
ATOM     88  S   UNL A   1      33.145  35.192  29.061  1.00  0.00     0.124 S 
ATOM     89  O   UNL A   1      32.663  34.221  28.087  1.00  0.00    -0.237 OA
ATOM     90  O   UNL A   1      32.296  35.397  30.231  1.00  0.00    -0.237 OA
ATOM     91  O   UNL A   1      33.732  36.408  28.505  1.00  0.00    -0.744 OA
ENDBRANCH  87  88
ENDBRANCH  55  80
BRANCH  67  92
ATOM     92  C   UNL A   1      39.922  33.632  37.106  1.00  0.00     0.058 A 
ATOM     93  C   UNL A   1      40.667  34.803  37.311  1.00  0.00     0.135 A 
ATOM     94  C   UNL A   1      38.907  33.325  38.026  1.00  0.00     0.135 A 
ATOM     95  F   UNL A   1      41.650  35.136  36.459  1.00  0.00    -0.206 F 
ATOM     96  C   UNL A   1      40.437  35.624  38.408  1.00  0.00     0.059 A 
ATOM     97  C   UNL A   1      38.647  34.143  39.119  1.00  0.00     0.059 A 
ATOM     98  F   UNL A   1      38.160  32.221  37.866  1.00  0.00    -0.206 F 
ATOM     99  C   UNL A   1      39.429  35.281  39.312  1.00  0.00     0.060 A 
BRANCH  99 100
ATOM    100  S   UNL A   1      39.134  36.351  40.735  1.00  0.00     0.124 S 
ATOM    101  O   UNL A   1      40.497  36.665  41.151  1.00  0.00    -0.237 OA
ATOM    102  O   UNL A   1      38.380  37.456  40.150  1.00  0.00    -0.237 OA
ATOM    103  O   UNL A   1      38.377  35.499  41.647  1.00  0.00    -0.744 OA
ENDBRANCH  99 100
ENDBRANCH  67  92
ENDBRANCH  41  42
ENDBRANCH  34  36
ENDBRANCH  33  34
ENDBRANCH  32  33
ENDBRANCH  31  32
ENDBRANCH   1  31
TORSDOF 20
ENDMDL
MODEL 2
REMARK VINA RESULT:     -11.6      6.000     11.725
REMARK SMILES COc1ccc(-c2ccc3n(c2=O)C[C@H]2C[C@@H]3CN(C(=O)CCCC(=O)OCCOC(=O)c3ccc(-c4c5nc(c(-c6c(F)cc(S(=O)(=O)[O-])cc6F)c6ccc([nH]6)c(-c6c(F)cc(S(=O)(=O)[O-])cc6F)c6nc(c(-c7c(F)cc(S(=O)(=O)[O-])cc7F)c7ccc4[nH]7)C=C6)C=C5)cc3)C2)cc1
REMARK SMILES IDX 27 1 25 2 26 3 24 4 23 5 22 6 20 7 21 8 19 9 7 10 8 11 12 12
REMARK SMILES IDX 9 13 11 14 13 15 10 16 14 17 17 18 15 19 16 20 18 21 99 22
REMARK SMILES IDX 6 23 3 24 4 25 101 26 5 27 100 28 2 29 1 30 28 31 29 32
REMARK SMILES IDX 30 33 31 34 32 35 33 36 34 37 98 38 35 39 97 40 36 41 37 42
REMARK SMILES IDX 38 43 91 44 39 45 96 46 90 47 92 48 40 49 95 50 89 51 88 52
REMARK SMILES IDX 41 54 75 55 54 56 74 57 55 58 58 59 73 60 93 61 56 62 57 63
REMARK SMILES IDX 72 65 94 66 59 67 42 68 43 69 52 70 44 71 45 72 51 73 53 74
REMARK SMILES IDX 46 75 47 76 48 77 49 78 50 79 76 80 77 81 86 82 78 83 79 84
REMARK SMILES IDX 85 85 87 86 80 87 81 88 82 89 83 90 84 91 60 92 61 93 70 94
REMARK SMILES IDX 62 95 63 96 69 97 71 98 64 99 65 100 66 101 67 102 68 103
REMARK H PARENT 92 53 58 64
REMARK Flexibility Score: inf
ROOT
ATOM      1  O   UNL A   1      34.530  32.199  29.282  1.00  0.00    -0.462 OA
ENDROOT
BRANCH   1   2
ATOM      2  C   UNL A   1      35.254  32.319  28.140  1.00  0.00     0.305 C 
ATOM      3  O   UNL A   1      35.475  33.389  27.585  1.00  0.00    -0.252 OA
BRANCH   2   4
ATOM      4  C   UNL A   1      35.743  30.997  27.579  1.00  0.00     0.123 C 
BRANCH   4   5
ATOM      5  C   UNL A   1      34.968  29.750  27.978  1.00  0.00     0.022 C 
BRANCH   5   6
ATOM      6  C   UNL A   1      34.649  28.790  26.836  1.00  0.00     0.101 C 
BRANCH   6   7
ATOM      7  C   UNL A   1      33.164  28.507  26.668  1.00  0.00     0.222 C 
ATOM      8  O   UNL A   1      32.477  28.333  27.679  1.00  0.00    -0.275 OA
BRANCH   7   9
ATOM      9  N   UNL A   1      32.610  28.501  25.393  1.00  0.00    -0.342 N 
ATOM     10  C   UNL A   1      32.331  23.370  24.261  1.00  0.00     0.047 A 
ATOM     11  C   UNL A   1      31.131  23.708  24.764  1.00  0.00     0.016 A 
ATOM     12  C   UNL A   1      33.185  24.452  23.655  1.00  0.00     0.258 A 
ATOM     13  C   UNL A   1      30.635  25.052  24.686  1.00  0.00     0.023 A 
ATOM     14  N   UNL A   1      32.613  25.738  23.584  1.00  0.00    -0.311 N 
ATOM     15  O   UNL A   1      34.313  24.203  23.235  1.00  0.00    -0.269 OA
ATOM     16  C   UNL A   1      31.352  26.023  24.099  1.00  0.00     0.026 A 
ATOM     17  C   UNL A   1      33.386  26.745  22.856  1.00  0.00     0.131 C 
ATOM     18  C   UNL A   1      30.809  27.435  24.007  1.00  0.00     0.056 C 
ATOM     19  C   UNL A   1      32.863  28.189  22.901  1.00  0.00     0.029 C 
ATOM     20  C   UNL A   1      31.348  28.159  22.774  1.00  0.00     0.019 C 
ATOM     21  C   UNL A   1      31.177  28.221  25.277  1.00  0.00     0.129 C 
ATOM     22  C   UNL A   1      33.263  28.965  24.170  1.00  0.00     0.125 C 
BRANCH  10  23
ATOM     23  C   UNL A   1      32.754  21.957  24.286  1.00  0.00    -0.013 A 
ATOM     24  C   UNL A   1      33.584  19.276  24.373  1.00  0.00     0.118 A 
ATOM     25  C   UNL A   1      32.626  19.683  23.446  1.00  0.00     0.047 A 
ATOM     26  C   UNL A   1      34.154  20.204  25.240  1.00  0.00     0.047 A 
ATOM     27  C   UNL A   1      32.201  21.015  23.411  1.00  0.00     0.013 A 
ATOM     28  C   UNL A   1      33.735  21.536  25.201  1.00  0.00     0.013 A 
BRANCH  24  29
ATOM     29  O   UNL A   1      33.963  17.961  24.337  1.00  0.00    -0.497 OA
ATOM     30  C   UNL A   1      33.160  17.180  23.452  1.00  0.00     0.278 C 
ENDBRANCH  24  29
ENDBRANCH  10  23
ENDBRANCH   7   9
ENDBRANCH   6   7
ENDBRANCH   5   6
ENDBRANCH   4   5
ENDBRANCH   2   4
ENDBRANCH   1   2
BRANCH   1  31
ATOM     31  C   UNL A   1      34.832  33.166  30.307  1.00  0.00     0.274 C 
BRANCH  31  32
ATOM     32  C   UNL A   1      35.615  32.556  31.471  1.00  0.00     0.275 C 
BRANCH  32  33
ATOM     33  O   UNL A   1      36.438  31.455  31.049  1.00  0.00    -0.458 OA
BRANCH  33  34
ATOM     34  C   UNL A   1      37.458  31.165  31.884  1.00  0.00     0.338 C 
ATOM     35  O   UNL A   1      37.464  31.265  33.107  1.00  0.00    -0.246 OA
BRANCH  34  36
ATOM     36  C   UNL A   1      38.566  30.562  31.140  1.00  0.00     0.060 A 
ATOM     37  C   UNL A   1      39.566  29.919  31.868  1.00  0.00     0.016 A 
ATOM     38  C   UNL A   1      38.696  30.738  29.762  1.00  0.00     0.016 A 
ATOM     39  C   UNL A   1      40.723  29.485  31.247  1.00  0.00     0.010 A 
ATOM     40  C   UNL A   1      39.855  30.282  29.127  1.00  0.00     0.010 A 
ATOM     41  C   UNL A   1      40.883  29.680  29.874  1.00  0.00    -0.014 A 
BRANCH  41  42
ATOM     42  C   UNL A   1      42.187  29.333  29.269  1.00  0.00     0.031 A 
ATOM     43  C   UNL A   1      42.382  27.963  28.687  1.00  0.00     0.074 A 
ATOM     44  C   UNL A   1      43.140  30.277  29.158  1.00  0.00     0.049 A 
ATOM     45  N   UNL A   1      43.455  27.432  28.165  1.00  0.00    -0.248 NA
ATOM     46  C   UNL A   1      41.210  27.071  28.692  1.00  0.00     0.031 C 
ATOM     47  C   UNL A   1      43.009  31.663  29.612  1.00  0.00     0.029 A 
ATOM     48  N   UNL A   1      44.392  30.220  28.610  1.00  0.00    -0.354 N 
ATOM     49  C   UNL A   1      43.102  26.134  27.817  1.00  0.00     0.074 A 
ATOM     50  C   UNL A   1      41.715  25.957  28.186  1.00  0.00     0.031 C 
ATOM     51  C   UNL A   1      44.132  32.331  29.307  1.00  0.00     0.029 A 
ATOM     52  C   UNL A   1      45.077  31.409  28.687  1.00  0.00     0.049 A 
ATOM     53  H   UNL A   1      44.767  29.407  28.200  1.00  0.00     0.167 HD
ATOM     54  C   UNL A   1      43.874  25.181  27.244  1.00  0.00     0.037 A 
ATOM     55  C   UNL A   1      46.337  31.708  28.318  1.00  0.00     0.037 A 
ATOM     56  C   UNL A   1      45.244  25.393  26.855  1.00  0.00     0.049 A 
ATOM     57  C   UNL A   1      47.180  30.629  27.700  1.00  0.00     0.074 A 
ATOM     58  C   UNL A   1      46.135  24.494  26.297  1.00  0.00     0.029 A 
ATOM     59  N   UNL A   1      45.917  26.603  26.973  1.00  0.00    -0.354 N 
ATOM     60  N   UNL A   1      46.861  29.381  27.445  1.00  0.00    -0.248 NA
ATOM     61  C   UNL A   1      48.552  30.991  27.327  1.00  0.00     0.031 C 
ATOM     62  C   UNL A   1      47.354  25.156  26.098  1.00  0.00     0.029 A 
ATOM     63  C   UNL A   1      47.211  26.475  26.499  1.00  0.00     0.049 A 
ATOM     64  H   UNL A   1      45.530  27.430  27.339  1.00  0.00     0.167 HD
ATOM     65  C   UNL A   1      47.989  28.810  26.871  1.00  0.00     0.074 A 
ATOM     66  C   UNL A   1      48.992  29.856  26.800  1.00  0.00     0.031 C 
ATOM     67  C   UNL A   1      48.183  27.538  26.443  1.00  0.00     0.037 A 
BRANCH  54  68
ATOM     68  C   UNL A   1      43.266  23.820  27.059  1.00  0.00     0.058 A 
ATOM     69  C   UNL A   1      43.160  22.900  28.113  1.00  0.00     0.135 A 
ATOM     70  C   UNL A   1      42.789  23.427  25.797  1.00  0.00     0.135 A 
ATOM     71  F   UNL A   1      43.623  23.214  29.334  1.00  0.00    -0.206 F 
ATOM     72  C   UNL A   1      42.627  21.628  27.918  1.00  0.00     0.059 A 
ATOM     73  C   UNL A   1      42.233  22.169  25.584  1.00  0.00     0.059 A 
ATOM     74  F   UNL A   1      42.873  24.265  24.752  1.00  0.00    -0.206 F 
ATOM     75  C   UNL A   1      42.172  21.270  26.648  1.00  0.00     0.060 A 
BRANCH  75  76
ATOM     76  S   UNL A   1      41.496  19.614  26.400  1.00  0.00     0.124 S 
ATOM     77  O   UNL A   1      42.319  19.126  25.297  1.00  0.00    -0.237 OA
ATOM     78  O   UNL A   1      41.729  18.980  27.693  1.00  0.00    -0.237 OA
ATOM     79  O   UNL A   1      40.096  19.865  26.073  1.00  0.00    -0.744 OA
ENDBRANCH  75  76
ENDBRANCH  54  68
BRANCH  55  80
ATOM     80  C   UNL A   1      46.870  33.076  28.552  1.00  0.00     0.058 A 
ATOM     81  C   UNL A   1      47.499  33.418  29.758  1.00  0.00     0.135 A 
ATOM     82  C   UNL A   1      46.787  34.063  27.556  1.00  0.00     0.135 A 
ATOM     83  F   UNL A   1      47.597  32.513  30.745  1.00  0.00    -0.206 F 
ATOM     84  C   UNL A   1      48.021  34.690  29.972  1.00  0.00     0.059 A 
ATOM     85  C   UNL A   1      47.324  35.333  27.736  1.00  0.00     0.059 A 
ATOM     86  F   UNL A   1      46.204  33.783  26.379  1.00  0.00    -0.206 F 
ATOM     87  C   UNL A   1      47.931  35.641  28.952  1.00  0.00     0.060 A 
BRANCH  87  88
ATOM     88  S   UNL A   1      48.664  37.271  29.211  1.00  0.00     0.124 S 
ATOM     89  O   UNL A   1      48.666  37.364  30.666  1.00  0.00    -0.237 OA
ATOM     90  O   UNL A   1      49.973  37.130  28.580  1.00  0.00    -0.237 OA
ATOM     91  O   UNL A   1      47.739  38.166  28.521  1.00  0.00    -0.744 OA
ENDBRANCH  87  88
ENDBRANCH  55  80
BRANCH  67  92
ATOM     92  C   UNL A   1      49.521  27.228  25.839  1.00  0.00     0.058 A 
ATOM     93  C   UNL A   1      50.602  26.802  26.627  1.00  0.00     0.135 A 
ATOM     94  C   UNL A   1      49.718  27.341  24.455  1.00  0.00     0.135 A 
ATOM     95  F   UNL A   1      50.462  26.682  27.958  1.00  0.00    -0.206 F 
ATOM     96  C   UNL A   1      51.844  26.531  26.066  1.00  0.00     0.059 A 
ATOM     97  C   UNL A   1      50.946  27.055  23.870  1.00  0.00     0.059 A 
ATOM     98  F   UNL A   1      48.711  27.734  23.658  1.00  0.00    -0.206 F 
ATOM     99  C   UNL A   1      52.009  26.668  24.687  1.00  0.00     0.060 A 
BRANCH  99 100
ATOM    100  S   UNL A   1      53.623  26.313  23.962  1.00  0.00     0.124 S 
ATOM    101  O   UNL A   1      54.335  27.562  24.213  1.00  0.00    -0.237 OA
ATOM    102  O   UNL A   1      54.074  25.162  24.739  1.00  0.00    -0.237 OA
ATOM    103  O   UNL A   1      53.312  26.035  22.564  1.00  0.00    -0.744 OA
ENDBRANCH  99 100
ENDBRANCH  67  92
ENDBRANCH  41  42
ENDBRANCH  34  36
ENDBRANCH  33  34
ENDBRANCH  32  33
ENDBRANCH  31  32
ENDBRANCH   1  31
TORSDOF 20
ENDMDL
MODEL 3
REMARK VINA RESULT:     -11.6      1.781      8.830
REMARK SMILES COc1ccc(-c2ccc3n(c2=O)C[C@H]2C[C@@H]3CN(C(=O)CCCC(=O)OCCOC(=O)c3ccc(-c4c5nc(c(-c6c(F)cc(S(=O)(=O)[O-])cc6F)c6ccc([nH]6)c(-c6c(F)cc(S(=O)(=O)[O-])cc6F)c6nc(c(-c7c(F)cc(S(=O)(=O)[O-])cc7F)c7ccc4[nH]7)C=C6)C=C5)cc3)C2)cc1
REMARK SMILES IDX 27 1 25 2 26 3 24 4 23 5 22 6 20 7 21 8 19 9 7 10 8 11 12 12
REMARK SMILES IDX 9 13 11 14 13 15 10 16 14 17 17 18 15 19 16 20 18 21 99 22
REMARK SMILES IDX 6 23 3 24 4 25 101 26 5 27 100 28 2 29 1 30 28 31 29 32
REMARK SMILES IDX 30 33 31 34 32 35 33 36 34 37 98 38 35 39 97 40 36 41 37 42
REMARK SMILES IDX 38 43 91 44 39 45 96 46 90 47 92 48 40 49 95 50 89 51 88 52
REMARK SMILES IDX 41 54 75 55 54 56 74 57 55 58 58 59 73 60 93 61 56 62 57 63
REMARK SMILES IDX 72 65 94 66 59 67 42 68 43 69 52 70 44 71 45 72 51 73 53 74
REMARK SMILES IDX 46 75 47 76 48 77 49 78 50 79 76 80 77 81 86 82 78 83 79 84
REMARK SMILES IDX 85 85 87 86 80 87 81 88 82 89 83 90 84 91 60 92 61 93 70 94
REMARK SMILES IDX 62 95 63 96 69 97 71 98 64 99 65 100 66 101 67 102 68 103
REMARK H PARENT 92 53 58 64
REMARK Flexibility Score: inf
ROOT
ATOM      1  O   UNL A   1      37.481  22.729  25.241  1.00  0.00    -0.462 OA
ENDROOT
BRANCH   1   2
ATOM      2  C   UNL A   1      36.227  22.730  25.762  1.00  0.00     0.305 C 
ATOM      3  O   UNL A   1      35.533  21.726  25.861  1.00  0.00    -0.252 OA
BRANCH   2   4
ATOM      4  C   UNL A   1      35.736  24.102  26.185  1.00  0.00     0.123 C 
BRANCH   4   5
ATOM      5  C   UNL A   1      34.490  24.631  25.492  1.00  0.00     0.022 C 
BRANCH   5   6
ATOM      6  C   UNL A   1      34.618  26.032  24.901  1.00  0.00     0.101 C 
BRANCH   6   7
ATOM      7  C   UNL A   1      33.592  27.019  25.434  1.00  0.00     0.222 C 
ATOM      8  O   UNL A   1      33.986  27.989  26.086  1.00  0.00    -0.275 OA
BRANCH   7   9
ATOM      9  N   UNL A   1      32.247  26.834  25.131  1.00  0.00    -0.342 N 
ATOM     10  C   UNL A   1      31.823  21.596  24.845  1.00  0.00     0.047 A 
ATOM     11  C   UNL A   1      31.479  21.932  26.101  1.00  0.00     0.016 A 
ATOM     12  C   UNL A   1      31.703  22.640  23.766  1.00  0.00     0.258 A 
ATOM     13  C   UNL A   1      30.955  23.231  26.416  1.00  0.00     0.023 A 
ATOM     14  N   UNL A   1      31.149  23.878  24.148  1.00  0.00    -0.311 N 
ATOM     15  O   UNL A   1      32.061  22.399  22.615  1.00  0.00    -0.269 OA
ATOM     16  C   UNL A   1      30.785  24.159  25.462  1.00  0.00     0.026 A 
ATOM     17  C   UNL A   1      30.894  24.828  23.065  1.00  0.00     0.131 C 
ATOM     18  C   UNL A   1      30.215  25.521  25.804  1.00  0.00     0.056 C 
ATOM     19  C   UNL A   1      30.441  26.240  23.470  1.00  0.00     0.029 C 
ATOM     20  C   UNL A   1      29.455  26.119  24.621  1.00  0.00     0.019 C 
ATOM     21  C   UNL A   1      31.349  26.471  26.230  1.00  0.00     0.129 C 
ATOM     22  C   UNL A   1      31.594  27.180  23.870  1.00  0.00     0.125 C 
BRANCH  10  23
ATOM     23  C   UNL A   1      32.269  20.220  24.561  1.00  0.00    -0.013 A 
ATOM     24  C   UNL A   1      33.112  17.606  23.973  1.00  0.00     0.118 A 
ATOM     25  C   UNL A   1      33.214  18.100  25.273  1.00  0.00     0.047 A 
ATOM     26  C   UNL A   1      32.566  18.399  22.968  1.00  0.00     0.047 A 
ATOM     27  C   UNL A   1      32.808  19.407  25.564  1.00  0.00     0.013 A 
ATOM     28  C   UNL A   1      32.153  19.701  23.259  1.00  0.00     0.013 A 
BRANCH  24  29
ATOM     29  O   UNL A   1      33.514  16.315  23.767  1.00  0.00    -0.497 OA
ATOM     30  C   UNL A   1      33.367  15.499  24.930  1.00  0.00     0.278 C 
ENDBRANCH  24  29
ENDBRANCH  10  23
ENDBRANCH   7   9
ENDBRANCH   6   7
ENDBRANCH   5   6
ENDBRANCH   4   5
ENDBRANCH   2   4
ENDBRANCH   1   2
BRANCH   1  31
ATOM     31  C   UNL A   1      38.420  21.854  25.895  1.00  0.00     0.274 C 
BRANCH  31  32
ATOM     32  C   UNL A   1      39.748  22.547  26.202  1.00  0.00     0.275 C 
BRANCH  32  33
ATOM     33  O   UNL A   1      39.560  23.778  26.921  1.00  0.00    -0.458 OA
BRANCH  33  34
ATOM     34  C   UNL A   1      40.661  24.556  26.998  1.00  0.00     0.338 C 
ATOM     35  O   UNL A   1      41.688  24.451  26.335  1.00  0.00    -0.246 OA
BRANCH  34  36
ATOM     36  C   UNL A   1      40.427  25.676  27.912  1.00  0.00     0.060 A 
ATOM     37  C   UNL A   1      41.433  26.632  28.041  1.00  0.00     0.016 A 
ATOM     38  C   UNL A   1      39.299  25.720  28.732  1.00  0.00     0.016 A 
ATOM     39  C   UNL A   1      41.353  27.613  29.013  1.00  0.00     0.010 A 
ATOM     40  C   UNL A   1      39.205  26.723  29.702  1.00  0.00     0.010 A 
ATOM     41  C   UNL A   1      40.246  27.655  29.863  1.00  0.00    -0.014 A 
BRANCH  41  42
ATOM     42  C   UNL A   1      40.259  28.626  30.977  1.00  0.00     0.031 A 
ATOM     43  C   UNL A   1      39.261  29.747  30.982  1.00  0.00     0.074 A 
ATOM     44  C   UNL A   1      41.094  28.433  32.015  1.00  0.00     0.049 A 
ATOM     45  N   UNL A   1      39.136  30.737  31.825  1.00  0.00    -0.248 NA
ATOM     46  C   UNL A   1      38.270  29.753  29.893  1.00  0.00     0.031 C 
ATOM     47  C   UNL A   1      42.037  27.320  32.142  1.00  0.00     0.029 A 
ATOM     48  N   UNL A   1      41.266  29.152  33.167  1.00  0.00    -0.354 N 
ATOM     49  C   UNL A   1      38.081  31.506  31.349  1.00  0.00     0.074 A 
ATOM     50  C   UNL A   1      37.601  30.868  30.143  1.00  0.00     0.031 C 
ATOM     51  C   UNL A   1      42.677  27.422  33.317  1.00  0.00     0.029 A 
ATOM     52  C   UNL A   1      42.228  28.631  33.998  1.00  0.00     0.049 A 
ATOM     53  H   UNL A   1      40.751  29.963  33.380  1.00  0.00     0.167 HD
ATOM     54  C   UNL A   1      37.569  32.643  31.874  1.00  0.00     0.037 A 
ATOM     55  C   UNL A   1      42.707  29.097  35.167  1.00  0.00     0.037 A 
ATOM     56  C   UNL A   1      38.044  33.241  33.095  1.00  0.00     0.049 A 
ATOM     57  C   UNL A   1      42.135  30.370  35.721  1.00  0.00     0.074 A 
ATOM     58  C   UNL A   1      37.626  34.408  33.707  1.00  0.00     0.029 A 
ATOM     59  N   UNL A   1      39.040  32.702  33.899  1.00  0.00    -0.354 N 
ATOM     60  N   UNL A   1      41.189  31.132  35.223  1.00  0.00    -0.248 NA
ATOM     61  C   UNL A   1      42.695  30.853  36.988  1.00  0.00     0.031 C 
ATOM     62  C   UNL A   1      38.385  34.586  34.871  1.00  0.00     0.029 A 
ATOM     63  C   UNL A   1      39.251  33.512  35.001  1.00  0.00     0.049 A 
ATOM     64  H   UNL A   1      39.525  31.866  33.712  1.00  0.00     0.167 HD
ATOM     65  C   UNL A   1      41.031  32.180  36.121  1.00  0.00     0.074 A 
ATOM     66  C   UNL A   1      41.969  31.942  37.202  1.00  0.00     0.031 C 
ATOM     67  C   UNL A   1      40.193  33.244  36.059  1.00  0.00     0.037 A 
BRANCH  54  68
ATOM     68  C   UNL A   1      36.480  33.331  31.100  1.00  0.00     0.058 A 
ATOM     69  C   UNL A   1      36.741  34.051  29.924  1.00  0.00     0.135 A 
ATOM     70  C   UNL A   1      35.151  33.277  31.553  1.00  0.00     0.135 A 
ATOM     71  F   UNL A   1      37.996  34.157  29.460  1.00  0.00    -0.206 F 
ATOM     72  C   UNL A   1      35.727  34.715  29.237  1.00  0.00     0.059 A 
ATOM     73  C   UNL A   1      34.119  33.914  30.871  1.00  0.00     0.059 A 
ATOM     74  F   UNL A   1      34.848  32.609  32.677  1.00  0.00    -0.206 F 
ATOM     75  C   UNL A   1      34.420  34.645  29.723  1.00  0.00     0.060 A 
BRANCH  75  76
ATOM     76  S   UNL A   1      33.113  35.520  28.835  1.00  0.00     0.124 S 
ATOM     77  O   UNL A   1      32.476  34.429  28.105  1.00  0.00    -0.237 OA
ATOM     78  O   UNL A   1      32.328  36.101  29.920  1.00  0.00    -0.237 OA
ATOM     79  O   UNL A   1      33.846  36.480  28.015  1.00  0.00    -0.744 OA
ENDBRANCH  75  76
ENDBRANCH  54  68
BRANCH  55  80
ATOM     80  C   UNL A   1      43.798  28.366  35.861  1.00  0.00     0.058 A 
ATOM     81  C   UNL A   1      43.523  27.343  36.781  1.00  0.00     0.135 A 
ATOM     82  C   UNL A   1      45.146  28.657  35.592  1.00  0.00     0.135 A 
ATOM     83  F   UNL A   1      42.252  27.031  37.079  1.00  0.00    -0.206 F 
ATOM     84  C   UNL A   1      44.544  26.640  37.415  1.00  0.00     0.059 A 
ATOM     85  C   UNL A   1      46.183  27.950  36.193  1.00  0.00     0.059 A 
ATOM     86  F   UNL A   1      45.464  29.618  34.710  1.00  0.00    -0.206 F 
ATOM     87  C   UNL A   1      45.872  26.949  37.111  1.00  0.00     0.060 A 
BRANCH  87  88
ATOM     88  S   UNL A   1      47.192  25.993  37.890  1.00  0.00     0.124 S 
ATOM     89  O   UNL A   1      48.316  26.271  37.005  1.00  0.00    -0.237 OA
ATOM     90  O   UNL A   1      47.266  26.589  39.221  1.00  0.00    -0.237 OA
ATOM     91  O   UNL A   1      46.679  24.626  37.853  1.00  0.00    -0.744 OA
ENDBRANCH  87  88
ENDBRANCH  55  80
BRANCH  67  92
ATOM     92  C   UNL A   1      40.242  34.207  37.209  1.00  0.00     0.058 A 
ATOM     93  C   UNL A   1      39.332  34.127  38.274  1.00  0.00     0.135 A 
ATOM     94  C   UNL A   1      41.222  35.210  37.253  1.00  0.00     0.135 A 
ATOM     95  F   UNL A   1      38.373  33.186  38.274  1.00  0.00    -0.206 F 
ATOM     96  C   UNL A   1      39.371  35.031  39.328  1.00  0.00     0.059 A 
ATOM     97  C   UNL A   1      41.293  36.112  38.308  1.00  0.00     0.059 A 
ATOM     98  F   UNL A   1      42.122  35.320  36.262  1.00  0.00    -0.206 F 
ATOM     99  C   UNL A   1      40.351  36.025  39.333  1.00  0.00     0.060 A 
BRANCH  99 100
ATOM    100  S   UNL A   1      40.398  37.195  40.706  1.00  0.00     0.124 S 
ATOM    101  O   UNL A   1      39.113  36.942  41.349  1.00  0.00    -0.237 OA
ATOM    102  O   UNL A   1      41.576  36.762  41.452  1.00  0.00    -0.237 OA
ATOM    103  O   UNL A   1      40.527  38.489  40.042  1.00  0.00    -0.744 OA
ENDBRANCH  99 100
ENDBRANCH  67  92
ENDBRANCH  41  42
ENDBRANCH  34  36
ENDBRANCH  33  34
ENDBRANCH  32  33
ENDBRANCH  31  32
ENDBRANCH   1  31
TORSDOF 20
ENDMDL
