MODEL 1
REMARK VINA RESULT:     -11.1      0.000      0.000
REMARK SMILES C[C@H]([C@@H](C)C(=O)OCCOC(=O)c1ccc(-c2c3nc(c(-c4c(F)cc(S(=O)(=O)[O-])cc4F)c4ccc([nH]4)c(-c4c(F)cc(S(=O)(=O)[O-])cc4F)c4nc(c(-c5c(F)cc(S(=O)(=O)[O-])cc5F)c5ccc2[nH]5)C=C4)C=C3)cc1)[NH+]1CCN(c2nccs2)CC1
REMARK SMILES IDX 8 1 7 2 5 3 6 4 3 5 4 6 2 7 1 8 79 9 80 10 89 11 81 13 88 14
REMARK SMILES IDX 82 15 83 16 84 17 87 18 85 19 86 20 9 21 10 22 11 23 12 24
REMARK SMILES IDX 13 25 14 26 78 27 15 28 77 29 16 30 17 31 18 32 71 33 19 34
REMARK SMILES IDX 76 35 70 36 72 37 20 38 75 39 69 40 68 41 21 43 55 44 34 45
REMARK SMILES IDX 54 46 35 47 38 48 53 49 73 50 36 51 37 52 52 54 74 55 39 56
REMARK SMILES IDX 22 57 23 58 32 59 24 60 25 61 31 62 33 63 26 64 27 65 28 66
REMARK SMILES IDX 29 67 30 68 56 69 57 70 66 71 58 72 59 73 65 74 67 75 60 76
REMARK SMILES IDX 61 77 62 78 63 79 64 80 40 81 41 82 50 83 42 84 43 85 49 86
REMARK SMILES IDX 51 87 44 88 45 89 46 90 47 91 48 92
REMARK H PARENT 79 12 72 42 38 53
REMARK Flexibility Score: inf
ROOT
ATOM      1  C   UNL A   1      33.299  30.840  27.304  1.00  0.00     0.274 C 
ENDROOT
BRANCH   1   2
ATOM      2  O   UNL A   1      32.875  29.460  27.373  1.00  0.00    -0.462 OA
BRANCH   2   3
ATOM      3  C   UNL A   1      32.276  28.972  26.259  1.00  0.00     0.314 C 
ATOM      4  O   UNL A   1      31.359  29.552  25.679  1.00  0.00    -0.252 OA
BRANCH   3   5
ATOM      5  C   UNL A   1      32.779  27.607  25.773  1.00  0.00     0.154 C 
ATOM      6  C   UNL A   1      34.020  27.881  24.909  1.00  0.00     0.026 C 
BRANCH   5   7
ATOM      7  C   UNL A   1      31.754  26.681  25.058  1.00  0.00     0.195 C 
ATOM      8  C   UNL A   1      30.949  25.827  26.050  1.00  0.00     0.076 C 
BRANCH   7   9
ATOM      9  N   UNL A   1      30.889  27.454  24.164  1.00  0.00    -0.329 N 
ATOM     10  C   UNL A   1      29.481  27.063  24.020  1.00  0.00     0.284 C 
ATOM     11  C   UNL A   1      31.423  27.681  22.822  1.00  0.00     0.284 C 
ATOM     12  H   UNL A   1      30.894  28.315  24.712  1.00  0.00     0.348 HD
ATOM     13  C   UNL A   1      28.608  28.107  23.266  1.00  0.00     0.180 C 
ATOM     14  C   UNL A   1      30.787  28.949  22.242  1.00  0.00     0.180 C 
ATOM     15  N   UNL A   1      29.317  29.004  22.328  1.00  0.00    -0.337 N 
BRANCH  15  16
ATOM     16  C   UNL A   1      28.792  30.234  22.010  1.00  0.00     0.185 A 
ATOM     17  N   UNL A   1      28.342  30.523  20.799  1.00  0.00    -0.229 NA
ATOM     18  S   UNL A   1      28.696  31.585  23.103  1.00  0.00    -0.106 S 
ATOM     19  C   UNL A   1      28.023  31.859  20.688  1.00  0.00     0.125 A 
ATOM     20  C   UNL A   1      28.197  32.606  21.826  1.00  0.00     0.088 A 
ENDBRANCH  15  16
ENDBRANCH   7   9
ENDBRANCH   5   7
ENDBRANCH   3   5
ENDBRANCH   2   3
ENDBRANCH   1   2
BRANCH   1  21
ATOM     21  C   UNL A   1      34.627  31.144  28.016  1.00  0.00     0.275 C 
BRANCH  21  22
ATOM     22  O   UNL A   1      35.303  29.966  28.503  1.00  0.00    -0.458 OA
BRANCH  22  23
ATOM     23  C   UNL A   1      36.233  30.253  29.440  1.00  0.00     0.338 C 
ATOM     24  O   UNL A   1      36.023  30.808  30.500  1.00  0.00    -0.246 OA
BRANCH  23  25
ATOM     25  C   UNL A   1      37.577  29.768  29.113  1.00  0.00     0.060 A 
ATOM     26  C   UNL A   1      38.486  29.618  30.164  1.00  0.00     0.016 A 
ATOM     27  C   UNL A   1      38.005  29.673  27.788  1.00  0.00     0.016 A 
ATOM     28  C   UNL A   1      39.827  29.362  29.898  1.00  0.00     0.010 A 
ATOM     29  C   UNL A   1      39.351  29.394  27.522  1.00  0.00     0.010 A 
ATOM     30  C   UNL A   1      40.269  29.237  28.575  1.00  0.00    -0.014 A 
BRANCH  30  31
ATOM     31  C   UNL A   1      41.675  28.852  28.316  1.00  0.00     0.031 A 
ATOM     32  C   UNL A   1      42.790  29.854  28.379  1.00  0.00     0.074 A 
ATOM     33  C   UNL A   1      41.939  27.559  28.046  1.00  0.00     0.049 A 
ATOM     34  N   UNL A   1      44.064  29.679  28.142  1.00  0.00    -0.248 NA
ATOM     35  C   UNL A   1      42.430  31.227  28.762  1.00  0.00     0.031 C 
ATOM     36  C   UNL A   1      40.936  26.492  27.994  1.00  0.00     0.029 A 
ATOM     37  N   UNL A   1      43.120  26.923  27.767  1.00  0.00    -0.354 N 
ATOM     38  C   UNL A   1      44.662  30.918  28.332  1.00  0.00     0.074 A 
ATOM     39  C   UNL A   1      43.606  31.840  28.701  1.00  0.00     0.031 C 
ATOM     40  C   UNL A   1      41.546  25.332  27.707  1.00  0.00     0.029 A 
ATOM     41  C   UNL A   1      42.971  25.582  27.510  1.00  0.00     0.049 A 
ATOM     42  H   UNL A   1      43.991  27.382  27.752  1.00  0.00     0.167 HD
ATOM     43  C   UNL A   1      45.970  31.250  28.207  1.00  0.00     0.037 A 
ATOM     44  C   UNL A   1      43.873  24.659  27.130  1.00  0.00     0.037 A 
ATOM     45  C   UNL A   1      47.015  30.325  27.844  1.00  0.00     0.049 A 
ATOM     46  C   UNL A   1      45.305  25.064  26.947  1.00  0.00     0.074 A 
ATOM     47  C   UNL A   1      48.373  30.564  27.714  1.00  0.00     0.029 A 
ATOM     48  N   UNL A   1      46.819  28.983  27.549  1.00  0.00    -0.354 N 
ATOM     49  N   UNL A   1      45.853  26.241  27.127  1.00  0.00    -0.248 NA
ATOM     50  C   UNL A   1      46.238  24.023  26.500  1.00  0.00     0.031 C 
ATOM     51  C   UNL A   1      48.993  29.376  27.305  1.00  0.00     0.029 A 
ATOM     52  C   UNL A   1      48.027  28.388  27.214  1.00  0.00     0.049 A 
ATOM     53  H   UNL A   1      45.951  28.521  27.573  1.00  0.00     0.167 HD
ATOM     54  C   UNL A   1      47.198  26.082  26.823  1.00  0.00     0.074 A 
ATOM     55  C   UNL A   1      47.383  24.690  26.460  1.00  0.00     0.031 C 
ATOM     56  C   UNL A   1      48.190  27.005  26.842  1.00  0.00     0.037 A 
BRANCH  43  57
ATOM     57  C   UNL A   1      46.350  32.686  28.436  1.00  0.00     0.058 A 
ATOM     58  C   UNL A   1      46.757  33.149  29.696  1.00  0.00     0.135 A 
ATOM     59  C   UNL A   1      46.354  33.597  27.368  1.00  0.00     0.135 A 
ATOM     60  F   UNL A   1      46.760  32.320  30.752  1.00  0.00    -0.206 F 
ATOM     61  C   UNL A   1      47.139  34.473  29.895  1.00  0.00     0.059 A 
ATOM     62  C   UNL A   1      46.746  34.921  27.540  1.00  0.00     0.059 A 
ATOM     63  F   UNL A   1      45.973  33.204  26.143  1.00  0.00    -0.206 F 
ATOM     64  C   UNL A   1      47.126  35.353  28.810  1.00  0.00     0.060 A 
BRANCH  64  65
ATOM     65  S   UNL A   1      47.627  37.069  29.075  1.00  0.00     0.124 S 
ATOM     66  O   UNL A   1      46.634  37.513  30.049  1.00  0.00    -0.237 OA
ATOM     67  O   UNL A   1      48.989  36.926  29.582  1.00  0.00    -0.237 OA
ATOM     68  O   UNL A   1      47.516  37.663  27.747  1.00  0.00    -0.744 OA
ENDBRANCH  64  65
ENDBRANCH  43  57
BRANCH  44  69
ATOM     69  C   UNL A   1      43.426  23.267  26.874  1.00  0.00     0.058 A 
ATOM     70  C   UNL A   1      43.353  22.760  25.571  1.00  0.00     0.135 A 
ATOM     71  C   UNL A   1      43.118  22.404  27.937  1.00  0.00     0.135 A 
ATOM     72  F   UNL A   1      43.635  23.553  24.526  1.00  0.00    -0.206 F 
ATOM     73  C   UNL A   1      42.993  21.440  25.327  1.00  0.00     0.059 A 
ATOM     74  C   UNL A   1      42.775  21.075  27.719  1.00  0.00     0.059 A 
ATOM     75  F   UNL A   1      43.189  22.843  29.204  1.00  0.00    -0.206 F 
ATOM     76  C   UNL A   1      42.711  20.603  26.409  1.00  0.00     0.060 A 
BRANCH  76  77
ATOM     77  S   UNL A   1      42.320  18.869  26.094  1.00  0.00     0.124 S 
ATOM     78  O   UNL A   1      42.564  18.271  27.401  1.00  0.00    -0.237 OA
ATOM     79  O   UNL A   1      40.923  18.934  25.674  1.00  0.00    -0.237 OA
ATOM     80  O   UNL A   1      43.264  18.502  25.042  1.00  0.00    -0.744 OA
ENDBRANCH  76  77
ENDBRANCH  44  69
BRANCH  56  81
ATOM     81  C   UNL A   1      49.564  26.532  26.465  1.00  0.00     0.058 A 
ATOM     82  C   UNL A   1      50.381  25.854  27.383  1.00  0.00     0.135 A 
ATOM     83  C   UNL A   1      50.063  26.744  25.170  1.00  0.00     0.135 A 
ATOM     84  F   UNL A   1      49.952  25.636  28.637  1.00  0.00    -0.206 F 
ATOM     85  C   UNL A   1      51.655  25.418  27.036  1.00  0.00     0.059 A 
ATOM     86  C   UNL A   1      51.328  26.302  24.797  1.00  0.00     0.059 A 
ATOM     87  F   UNL A   1      49.318  27.385  24.257  1.00  0.00    -0.206 F 
ATOM     88  C   UNL A   1      52.122  25.651  25.740  1.00  0.00     0.060 A 
BRANCH  88  89
ATOM     89  S   UNL A   1      53.770  25.068  25.291  1.00  0.00     0.124 S 
ATOM     90  O   UNL A   1      54.595  25.702  26.313  1.00  0.00    -0.237 OA
ATOM     91  O   UNL A   1      53.634  23.619  25.393  1.00  0.00    -0.237 OA
ATOM     92  O   UNL A   1      53.948  25.578  23.934  1.00  0.00    -0.744 OA
ENDBRANCH  88  89
ENDBRANCH  56  81
ENDBRANCH  30  31
ENDBRANCH  23  25
ENDBRANCH  22  23
ENDBRANCH  21  22
ENDBRANCH   1  21
TORSDOF 17
ENDMDL
MODEL 2
REMARK VINA RESULT:     -10.8      2.011      3.424
REMARK SMILES C[C@H]([C@@H](C)C(=O)OCCOC(=O)c1ccc(-c2c3nc(c(-c4c(F)cc(S(=O)(=O)[O-])cc4F)c4ccc([nH]4)c(-c4c(F)cc(S(=O)(=O)[O-])cc4F)c4nc(c(-c5c(F)cc(S(=O)(=O)[O-])cc5F)c5ccc2[nH]5)C=C4)C=C3)cc1)[NH+]1CCN(c2nccs2)CC1
REMARK SMILES IDX 8 1 7 2 5 3 6 4 3 5 4 6 2 7 1 8 79 9 80 10 89 11 81 13 88 14
REMARK SMILES IDX 82 15 83 16 84 17 87 18 85 19 86 20 9 21 10 22 11 23 12 24
REMARK SMILES IDX 13 25 14 26 78 27 15 28 77 29 16 30 17 31 18 32 71 33 19 34
REMARK SMILES IDX 76 35 70 36 72 37 20 38 75 39 69 40 68 41 21 43 55 44 34 45
REMARK SMILES IDX 54 46 35 47 38 48 53 49 73 50 36 51 37 52 52 54 74 55 39 56
REMARK SMILES IDX 22 57 23 58 32 59 24 60 25 61 31 62 33 63 26 64 27 65 28 66
REMARK SMILES IDX 29 67 30 68 56 69 57 70 66 71 58 72 59 73 65 74 67 75 60 76
REMARK SMILES IDX 61 77 62 78 63 79 64 80 40 81 41 82 50 83 42 84 43 85 49 86
REMARK SMILES IDX 51 87 44 88 45 89 46 90 47 91 48 92
REMARK H PARENT 79 12 72 42 38 53
REMARK Flexibility Score: inf
ROOT
ATOM      1  C   UNL A   1      33.476  31.216  27.256  1.00  0.00     0.274 C 
ENDROOT
BRANCH   1   2
ATOM      2  O   UNL A   1      32.890  29.895  27.237  1.00  0.00    -0.462 OA
BRANCH   2   3
ATOM      3  C   UNL A   1      32.345  29.510  26.056  1.00  0.00     0.314 C 
ATOM      4  O   UNL A   1      31.589  30.224  25.400  1.00  0.00    -0.252 OA
BRANCH   3   5
ATOM      5  C   UNL A   1      32.691  28.089  25.592  1.00  0.00     0.154 C 
ATOM      6  C   UNL A   1      34.020  27.720  26.270  1.00  0.00     0.026 C 
BRANCH   5   7
ATOM      7  C   UNL A   1      32.716  27.825  24.060  1.00  0.00     0.195 C 
ATOM      8  C   UNL A   1      33.898  28.522  23.367  1.00  0.00     0.076 C 
BRANCH   7   9
ATOM      9  N   UNL A   1      32.681  26.388  23.780  1.00  0.00    -0.329 N 
ATOM     10  C   UNL A   1      33.104  25.908  22.458  1.00  0.00     0.284 C 
ATOM     11  C   UNL A   1      31.423  25.719  24.109  1.00  0.00     0.284 C 
ATOM     12  H   UNL A   1      33.420  26.122  24.431  1.00  0.00     0.348 HD
ATOM     13  C   UNL A   1      33.279  24.364  22.370  1.00  0.00     0.180 C 
ATOM     14  C   UNL A   1      31.702  24.235  24.371  1.00  0.00     0.180 C 
ATOM     15  N   UNL A   1      32.495  23.558  23.330  1.00  0.00    -0.337 N 
BRANCH  15  16
ATOM     16  C   UNL A   1      32.920  22.301  23.692  1.00  0.00     0.185 A 
ATOM     17  N   UNL A   1      32.240  21.207  23.388  1.00  0.00    -0.229 NA
ATOM     18  S   UNL A   1      34.345  21.966  24.633  1.00  0.00    -0.106 S 
ATOM     19  C   UNL A   1      32.778  20.095  23.999  1.00  0.00     0.125 A 
ATOM     20  C   UNL A   1      33.900  20.321  24.757  1.00  0.00     0.088 A 
ENDBRANCH  15  16
ENDBRANCH   7   9
ENDBRANCH   5   7
ENDBRANCH   3   5
ENDBRANCH   2   3
ENDBRANCH   1   2
BRANCH   1  21
ATOM     21  C   UNL A   1      34.864  31.297  27.912  1.00  0.00     0.275 C 
BRANCH  21  22
ATOM     22  O   UNL A   1      35.328  30.036  28.436  1.00  0.00    -0.458 OA
BRANCH  22  23
ATOM     23  C   UNL A   1      36.226  30.189  29.434  1.00  0.00     0.338 C 
ATOM     24  O   UNL A   1      35.987  30.632  30.540  1.00  0.00    -0.246 OA
BRANCH  23  25
ATOM     25  C   UNL A   1      37.569  29.700  29.109  1.00  0.00     0.060 A 
ATOM     26  C   UNL A   1      38.472  29.534  30.162  1.00  0.00     0.016 A 
ATOM     27  C   UNL A   1      38.002  29.617  27.785  1.00  0.00     0.016 A 
ATOM     28  C   UNL A   1      39.812  29.273  29.901  1.00  0.00     0.010 A 
ATOM     29  C   UNL A   1      39.348  29.333  27.523  1.00  0.00     0.010 A 
ATOM     30  C   UNL A   1      40.260  29.159  28.578  1.00  0.00    -0.014 A 
BRANCH  30  31
ATOM     31  C   UNL A   1      41.666  28.769  28.323  1.00  0.00     0.031 A 
ATOM     32  C   UNL A   1      42.783  29.767  28.387  1.00  0.00     0.074 A 
ATOM     33  C   UNL A   1      41.925  27.476  28.053  1.00  0.00     0.049 A 
ATOM     34  N   UNL A   1      44.058  29.587  28.153  1.00  0.00    -0.248 NA
ATOM     35  C   UNL A   1      42.428  31.142  28.769  1.00  0.00     0.031 C 
ATOM     36  C   UNL A   1      40.919  26.412  27.999  1.00  0.00     0.029 A 
ATOM     37  N   UNL A   1      43.105  26.835  27.776  1.00  0.00    -0.354 N 
ATOM     38  C   UNL A   1      44.660  30.825  28.343  1.00  0.00     0.074 A 
ATOM     39  C   UNL A   1      43.607  31.750  28.710  1.00  0.00     0.031 C 
ATOM     40  C   UNL A   1      41.525  25.250  27.714  1.00  0.00     0.029 A 
ATOM     41  C   UNL A   1      42.950  25.495  27.519  1.00  0.00     0.049 A 
ATOM     42  H   UNL A   1      43.977  27.291  27.763  1.00  0.00     0.167 HD
ATOM     43  C   UNL A   1      45.970  31.152  28.220  1.00  0.00     0.037 A 
ATOM     44  C   UNL A   1      43.850  24.569  27.141  1.00  0.00     0.037 A 
ATOM     45  C   UNL A   1      47.012  30.223  27.860  1.00  0.00     0.049 A 
ATOM     46  C   UNL A   1      45.284  24.968  26.960  1.00  0.00     0.074 A 
ATOM     47  C   UNL A   1      48.370  30.457  27.732  1.00  0.00     0.029 A 
ATOM     48  N   UNL A   1      46.811  28.882  27.565  1.00  0.00    -0.354 N 
ATOM     49  N   UNL A   1      45.836  26.144  27.142  1.00  0.00    -0.248 NA
ATOM     50  C   UNL A   1      46.214  23.923  26.516  1.00  0.00     0.031 C 
ATOM     51  C   UNL A   1      48.987  29.267  27.325  1.00  0.00     0.029 A 
ATOM     52  C   UNL A   1      48.017  28.282  27.232  1.00  0.00     0.049 A 
ATOM     53  H   UNL A   1      45.941  28.422  27.588  1.00  0.00     0.167 HD
ATOM     54  C   UNL A   1      47.181  25.979  26.840  1.00  0.00     0.074 A 
ATOM     55  C   UNL A   1      47.362  24.587  26.478  1.00  0.00     0.031 C 
ATOM     56  C   UNL A   1      48.177  26.899  26.861  1.00  0.00     0.037 A 
BRANCH  43  57
ATOM     57  C   UNL A   1      46.354  32.586  28.450  1.00  0.00     0.058 A 
ATOM     58  C   UNL A   1      46.344  33.528  27.411  1.00  0.00     0.135 A 
ATOM     59  C   UNL A   1      46.689  33.033  29.738  1.00  0.00     0.135 A 
ATOM     60  F   UNL A   1      46.042  33.150  26.159  1.00  0.00    -0.206 F 
ATOM     61  C   UNL A   1      46.670  34.863  27.637  1.00  0.00     0.059 A 
ATOM     62  C   UNL A   1      47.003  34.365  29.991  1.00  0.00     0.059 A 
ATOM     63  F   UNL A   1      46.713  32.171  30.766  1.00  0.00    -0.206 F 
ATOM     64  C   UNL A   1      47.002  35.271  28.931  1.00  0.00     0.060 A 
BRANCH  64  65
ATOM     65  S   UNL A   1      47.420  37.005  29.217  1.00  0.00     0.124 S 
ATOM     66  O   UNL A   1      48.872  36.981  29.068  1.00  0.00    -0.237 OA
ATOM     67  O   UNL A   1      46.687  37.686  28.153  1.00  0.00    -0.237 OA
ATOM     68  O   UNL A   1      46.930  37.254  30.569  1.00  0.00    -0.744 OA
ENDBRANCH  64  65
ENDBRANCH  43  57
BRANCH  44  69
ATOM     69  C   UNL A   1      43.399  23.178  26.885  1.00  0.00     0.058 A 
ATOM     70  C   UNL A   1      43.323  22.672  25.581  1.00  0.00     0.135 A 
ATOM     71  C   UNL A   1      43.090  22.315  27.948  1.00  0.00     0.135 A 
ATOM     72  F   UNL A   1      43.606  23.465  24.537  1.00  0.00    -0.206 F 
ATOM     73  C   UNL A   1      42.958  21.354  25.337  1.00  0.00     0.059 A 
ATOM     74  C   UNL A   1      42.742  20.987  27.729  1.00  0.00     0.059 A 
ATOM     75  F   UNL A   1      43.163  22.753  29.215  1.00  0.00    -0.206 F 
ATOM     76  C   UNL A   1      42.675  20.517  26.419  1.00  0.00     0.060 A 
BRANCH  76  77
ATOM     77  S   UNL A   1      42.278  18.784  26.102  1.00  0.00     0.124 S 
ATOM     78  O   UNL A   1      43.206  18.464  25.024  1.00  0.00    -0.237 OA
ATOM     79  O   UNL A   1      42.560  18.158  27.391  1.00  0.00    -0.237 OA
ATOM     80  O   UNL A   1      40.867  18.828  25.733  1.00  0.00    -0.744 OA
ENDBRANCH  76  77
ENDBRANCH  44  69
BRANCH  56  81
ATOM     81  C   UNL A   1      49.550  26.421  26.487  1.00  0.00     0.058 A 
ATOM     82  C   UNL A   1      50.012  26.491  25.164  1.00  0.00     0.135 A 
ATOM     83  C   UNL A   1      50.418  25.905  27.462  1.00  0.00     0.135 A 
ATOM     84  F   UNL A   1      49.215  26.968  24.194  1.00  0.00    -0.206 F 
ATOM     85  C   UNL A   1      51.283  26.046  24.816  1.00  0.00     0.059 A 
ATOM     86  C   UNL A   1      51.698  25.470  27.139  1.00  0.00     0.059 A 
ATOM     87  F   UNL A   1      50.021  25.821  28.742  1.00  0.00    -0.206 F 
ATOM     88  C   UNL A   1      52.118  25.532  25.810  1.00  0.00     0.060 A 
BRANCH  88  89
ATOM     89  S   UNL A   1      53.773  24.972  25.355  1.00  0.00     0.124 S 
ATOM     90  O   UNL A   1      53.554  23.544  25.155  1.00  0.00    -0.237 OA
ATOM     91  O   UNL A   1      54.050  25.746  24.149  1.00  0.00    -0.237 OA
ATOM     92  O   UNL A   1      54.580  25.328  26.518  1.00  0.00    -0.744 OA
ENDBRANCH  88  89
ENDBRANCH  56  81
ENDBRANCH  30  31
ENDBRANCH  23  25
ENDBRANCH  22  23
ENDBRANCH  21  22
ENDBRANCH   1  21
TORSDOF 17
ENDMDL
MODEL 3
REMARK VINA RESULT:     -10.7      3.533      9.368
REMARK SMILES C[C@H]([C@@H](C)C(=O)OCCOC(=O)c1ccc(-c2c3nc(c(-c4c(F)cc(S(=O)(=O)[O-])cc4F)c4ccc([nH]4)c(-c4c(F)cc(S(=O)(=O)[O-])cc4F)c4nc(c(-c5c(F)cc(S(=O)(=O)[O-])cc5F)c5ccc2[nH]5)C=C4)C=C3)cc1)[NH+]1CCN(c2nccs2)CC1
REMARK SMILES IDX 8 1 7 2 5 3 6 4 3 5 4 6 2 7 1 8 79 9 80 10 89 11 81 13 88 14
REMARK SMILES IDX 82 15 83 16 84 17 87 18 85 19 86 20 9 21 10 22 11 23 12 24
REMARK SMILES IDX 13 25 14 26 78 27 15 28 77 29 16 30 17 31 18 32 71 33 19 34
REMARK SMILES IDX 76 35 70 36 72 37 20 38 75 39 69 40 68 41 21 43 55 44 34 45
REMARK SMILES IDX 54 46 35 47 38 48 53 49 73 50 36 51 37 52 52 54 74 55 39 56
REMARK SMILES IDX 22 57 23 58 32 59 24 60 25 61 31 62 33 63 26 64 27 65 28 66
REMARK SMILES IDX 29 67 30 68 56 69 57 70 66 71 58 72 59 73 65 74 67 75 60 76
REMARK SMILES IDX 61 77 62 78 63 79 64 80 40 81 41 82 50 83 42 84 43 85 49 86
REMARK SMILES IDX 51 87 44 88 45 89 46 90 47 91 48 92
REMARK H PARENT 79 12 72 42 38 53
REMARK Flexibility Score: inf
ROOT
ATOM      1  C   UNL A   1      38.859  20.426  25.339  1.00  0.00     0.274 C 
ENDROOT
BRANCH   1   2
ATOM      2  O   UNL A   1      38.216  21.636  25.797  1.00  0.00    -0.462 OA
BRANCH   2   3
ATOM      3  C   UNL A   1      37.340  22.201  24.929  1.00  0.00     0.314 C 
ATOM      4  O   UNL A   1      36.941  21.635  23.912  1.00  0.00    -0.252 OA
BRANCH   3   5
ATOM      5  C   UNL A   1      36.895  23.630  25.264  1.00  0.00     0.154 C 
ATOM      6  C   UNL A   1      37.864  24.148  26.338  1.00  0.00     0.026 C 
BRANCH   5   7
ATOM      7  C   UNL A   1      35.406  23.841  25.660  1.00  0.00     0.195 C 
ATOM      8  C   UNL A   1      34.770  25.031  24.925  1.00  0.00     0.076 C 
BRANCH   7   9
ATOM      9  N   UNL A   1      34.640  22.606  25.480  1.00  0.00    -0.329 N 
ATOM     10  C   UNL A   1      33.709  22.503  24.349  1.00  0.00     0.284 C 
ATOM     11  C   UNL A   1      33.941  22.126  26.671  1.00  0.00     0.284 C 
ATOM     12  H   UNL A   1      35.434  22.007  25.253  1.00  0.00     0.348 HD
ATOM     13  C   UNL A   1      33.162  21.066  24.107  1.00  0.00     0.180 C 
ATOM     14  C   UNL A   1      33.735  20.612  26.551  1.00  0.00     0.180 C 
ATOM     15  N   UNL A   1      33.144  20.164  25.278  1.00  0.00    -0.337 N 
BRANCH  15  16
ATOM     16  C   UNL A   1      33.176  18.800  25.105  1.00  0.00     0.185 A 
ATOM     17  N   UNL A   1      32.234  18.000  25.579  1.00  0.00    -0.229 NA
ATOM     18  S   UNL A   1      34.459  17.930  24.312  1.00  0.00    -0.106 S 
ATOM     19  C   UNL A   1      32.575  16.675  25.423  1.00  0.00     0.125 A 
ATOM     20  C   UNL A   1      33.774  16.441  24.797  1.00  0.00     0.088 A 
ENDBRANCH  15  16
ENDBRANCH   7   9
ENDBRANCH   5   7
ENDBRANCH   3   5
ENDBRANCH   2   3
ENDBRANCH   1   2
BRANCH   1  21
ATOM     21  C   UNL A   1      39.983  19.908  26.251  1.00  0.00     0.275 C 
BRANCH  21  22
ATOM     22  O   UNL A   1      41.054  19.259  25.535  1.00  0.00    -0.458 OA
BRANCH  22  23
ATOM     23  C   UNL A   1      42.213  19.252  26.230  1.00  0.00     0.338 C 
ATOM     24  O   UNL A   1      42.791  18.263  26.632  1.00  0.00    -0.246 OA
BRANCH  23  25
ATOM     25  C   UNL A   1      42.800  20.581  26.422  1.00  0.00     0.060 A 
ATOM     26  C   UNL A   1      42.784  21.117  27.712  1.00  0.00     0.016 A 
ATOM     27  C   UNL A   1      43.157  21.374  25.331  1.00  0.00     0.016 A 
ATOM     28  C   UNL A   1      43.134  22.446  27.923  1.00  0.00     0.010 A 
ATOM     29  C   UNL A   1      43.530  22.707  25.546  1.00  0.00     0.010 A 
ATOM     30  C   UNL A   1      43.521  23.249  26.842  1.00  0.00    -0.014 A 
BRANCH  30  31
ATOM     31  C   UNL A   1      43.999  24.627  27.102  1.00  0.00     0.031 A 
ATOM     32  C   UNL A   1      43.068  25.711  27.557  1.00  0.00     0.074 A 
ATOM     33  C   UNL A   1      45.312  24.883  26.942  1.00  0.00     0.049 A 
ATOM     34  N   UNL A   1      43.328  26.971  27.790  1.00  0.00    -0.248 NA
ATOM     35  C   UNL A   1      41.667  25.330  27.789  1.00  0.00     0.031 C 
ATOM     36  C   UNL A   1      46.315  23.895  26.535  1.00  0.00     0.029 A 
ATOM     37  N   UNL A   1      46.027  26.041  27.101  1.00  0.00    -0.354 N 
ATOM     38  C   UNL A   1      42.124  27.544  28.181  1.00  0.00     0.074 A 
ATOM     39  C   UNL A   1      41.130  26.490  28.151  1.00  0.00     0.031 C 
ATOM     40  C   UNL A   1      47.517  24.489  26.484  1.00  0.00     0.029 A 
ATOM     41  C   UNL A   1      47.362  25.903  26.807  1.00  0.00     0.049 A 
ATOM     42  H   UNL A   1      45.623  26.888  27.398  1.00  0.00     0.167 HD
ATOM     43  C   UNL A   1      41.878  28.830  28.530  1.00  0.00     0.037 A 
ATOM     44  C   UNL A   1      48.347  26.818  26.772  1.00  0.00     0.037 A 
ATOM     45  C   UNL A   1      42.875  29.871  28.563  1.00  0.00     0.049 A 
ATOM     46  C   UNL A   1      48.037  28.246  27.111  1.00  0.00     0.074 A 
ATOM     47  C   UNL A   1      42.723  31.200  28.925  1.00  0.00     0.029 A 
ATOM     48  N   UNL A   1      44.208  29.704  28.216  1.00  0.00    -0.354 N 
ATOM     49  N   UNL A   1      46.892  28.771  27.476  1.00  0.00    -0.248 NA
ATOM     50  C   UNL A   1      49.145  29.204  27.025  1.00  0.00     0.031 C 
ATOM     51  C   UNL A   1      43.957  31.844  28.763  1.00  0.00     0.029 A 
ATOM     52  C   UNL A   1      44.885  30.910  28.333  1.00  0.00     0.049 A 
ATOM     53  H   UNL A   1      44.614  28.855  27.929  1.00  0.00     0.167 HD
ATOM     54  C   UNL A   1      47.143  30.123  27.670  1.00  0.00     0.074 A 
ATOM     55  C   UNL A   1      48.551  30.331  27.396  1.00  0.00     0.031 C 
ATOM     56  C   UNL A   1      46.283  31.102  28.043  1.00  0.00     0.037 A 
BRANCH  43  57
ATOM     57  C   UNL A   1      40.463  29.199  28.881  1.00  0.00     0.058 A 
ATOM     58  C   UNL A   1      40.044  29.329  30.213  1.00  0.00     0.135 A 
ATOM     59  C   UNL A   1      39.530  29.473  27.869  1.00  0.00     0.135 A 
ATOM     60  F   UNL A   1      40.894  29.067  31.219  1.00  0.00    -0.206 F 
ATOM     61  C   UNL A   1      38.741  29.702  30.531  1.00  0.00     0.059 A 
ATOM     62  C   UNL A   1      38.227  29.862  28.162  1.00  0.00     0.059 A 
ATOM     63  F   UNL A   1      39.882  29.362  26.578  1.00  0.00    -0.206 F 
ATOM     64  C   UNL A   1      37.838  29.963  29.498  1.00  0.00     0.060 A 
BRANCH  64  65
ATOM     65  S   UNL A   1      36.150  30.451  29.919  1.00  0.00     0.124 S 
ATOM     66  O   UNL A   1      35.395  29.855  28.820  1.00  0.00    -0.237 OA
ATOM     67  O   UNL A   1      35.959  29.830  31.226  1.00  0.00    -0.237 OA
ATOM     68  O   UNL A   1      36.210  31.909  29.924  1.00  0.00    -0.744 OA
ENDBRANCH  64  65
ENDBRANCH  43  57
BRANCH  44  69
ATOM     69  C   UNL A   1      49.714  26.399  26.373  1.00  0.00     0.058 A 
ATOM     70  C   UNL A   1      50.179  26.603  25.068  1.00  0.00     0.135 A 
ATOM     71  C   UNL A   1      50.597  25.840  27.310  1.00  0.00     0.135 A 
ATOM     72  F   UNL A   1      49.367  27.132  24.141  1.00  0.00    -0.206 F 
ATOM     73  C   UNL A   1      51.478  26.269  24.702  1.00  0.00     0.059 A 
ATOM     74  C   UNL A   1      51.906  25.515  26.972  1.00  0.00     0.059 A 
ATOM     75  F   UNL A   1      50.199  25.640  28.576  1.00  0.00    -0.206 F 
ATOM     76  C   UNL A   1      52.335  25.729  25.664  1.00  0.00     0.060 A 
BRANCH  76  77
ATOM     77  S   UNL A   1      54.045  25.369  25.206  1.00  0.00     0.124 S 
ATOM     78  O   UNL A   1      54.136  23.946  25.510  1.00  0.00    -0.237 OA
ATOM     79  O   UNL A   1      54.070  25.721  23.789  1.00  0.00    -0.237 OA
ATOM     80  O   UNL A   1      54.814  26.254  26.074  1.00  0.00    -0.744 OA
ENDBRANCH  76  77
ENDBRANCH  44  69
BRANCH  56  81
ATOM     81  C   UNL A   1      46.849  32.486  28.180  1.00  0.00     0.058 A 
ATOM     82  C   UNL A   1      47.495  32.898  29.355  1.00  0.00     0.135 A 
ATOM     83  C   UNL A   1      46.762  33.402  27.120  1.00  0.00     0.135 A 
ATOM     84  F   UNL A   1      47.595  32.060  30.400  1.00  0.00    -0.206 F 
ATOM     85  C   UNL A   1      48.017  34.180  29.484  1.00  0.00     0.059 A 
ATOM     86  C   UNL A   1      47.291  34.684  27.221  1.00  0.00     0.059 A 
ATOM     87  F   UNL A   1      46.156  33.053  25.974  1.00  0.00    -0.206 F 
ATOM     88  C   UNL A   1      47.907  35.069  28.412  1.00  0.00     0.060 A 
BRANCH  88  89
ATOM     89  S   UNL A   1      48.602  36.727  28.579  1.00  0.00     0.124 S 
ATOM     90  O   UNL A   1      47.641  37.525  27.826  1.00  0.00    -0.237 OA
ATOM     91  O   UNL A   1      48.599  36.928  30.025  1.00  0.00    -0.237 OA
ATOM     92  O   UNL A   1      49.925  36.599  27.975  1.00  0.00    -0.744 OA
ENDBRANCH  88  89
ENDBRANCH  56  81
ENDBRANCH  30  31
ENDBRANCH  23  25
ENDBRANCH  22  23
ENDBRANCH  21  22
ENDBRANCH   1  21
TORSDOF 17
ENDMDL
