MODEL 1
REMARK VINA RESULT:     -10.8      0.000      0.000
REMARK SMILES CCCC(=O)Nc1ccc(Cl)c(NC(=O)/C=C/C(=O)OCCOC(=O)c2ccc(-c3c4nc(c(-c5c(F)cc(S(=O)(=O)[O-])cc5F)c5ccc([nH]5)c(-c5c(F)cc(S(=O)(=O)[O-])cc5F)c5nc(c(-c6c(F)cc(S(=O)(=O)[O-])cc6F)c6ccc3[nH]6)C=C5)C=C4)cc2)c1
REMARK SMILES IDX 21 1 20 2 18 3 19 4 17 5 16 6 14 7 13 8 15 10 12 11 7 12
REMARK SMILES IDX 8 13 92 14 9 15 10 16 11 17 6 18 4 19 5 20 3 22 2 23 1 24
REMARK SMILES IDX 22 25 23 26 24 27 25 28 26 29 27 30 91 31 28 32 90 33 29 34
REMARK SMILES IDX 30 35 31 36 84 37 32 38 89 39 83 40 85 41 33 42 88 43 82 44
REMARK SMILES IDX 81 45 34 47 68 48 47 49 67 50 48 51 51 52 66 53 86 54 49 55
REMARK SMILES IDX 50 56 65 58 87 59 52 60 35 61 36 62 45 63 37 64 38 65 44 66
REMARK SMILES IDX 46 67 39 68 40 69 41 70 42 71 43 72 69 73 70 74 79 75 71 76
REMARK SMILES IDX 72 77 78 78 80 79 73 80 74 81 75 82 76 83 77 84 53 85 54 86
REMARK SMILES IDX 63 87 55 88 56 89 62 90 64 91 57 92 58 93 59 94 60 95 61 96
REMARK H PARENT 13 9 6 21 85 46 51 57
REMARK Flexibility Score: inf
ROOT
ATOM      1  C   UNL A   1      44.981  22.831  25.727  1.00  0.00     0.275 C 
ENDROOT
BRANCH   1   2
ATOM      2  O   UNL A   1      45.184  22.033  24.544  1.00  0.00    -0.459 OA
BRANCH   2   3
ATOM      3  C   UNL A   1      44.589  20.826  24.541  1.00  0.00     0.331 C 
ATOM      4  O   UNL A   1      44.778  19.911  23.753  1.00  0.00    -0.247 OA
BRANCH   3   5
ATOM      5  C   UNL A   1      43.658  20.709  25.674  1.00  0.00     0.099 C 
ATOM      6  C   UNL A   1      42.963  19.564  25.762  1.00  0.00     0.079 C 
BRANCH   6   7
ATOM      7  C   UNL A   1      42.285  19.138  27.006  1.00  0.00     0.248 C 
ATOM      8  N   UNL A   1      41.191  19.821  27.470  1.00  0.00    -0.321 N 
ATOM      9  H   UNL A   1      40.818  19.468  28.309  1.00  0.00     0.170 HD
ATOM     10  O   UNL A   1      42.734  18.177  27.626  1.00  0.00    -0.270 OA
BRANCH   8  11
ATOM     11  C   UNL A   1      40.505  20.946  26.954  1.00  0.00     0.062 A 
ATOM     12  C   UNL A   1      38.585  21.858  25.775  1.00  0.00     0.043 A 
ATOM     13  C   UNL A   1      38.780  23.069  26.425  1.00  0.00     0.028 A 
ATOM     14  C   UNL A   1      39.494  20.830  25.999  1.00  0.00     0.053 A 
ATOM     15  C   UNL A   1      39.902  23.273  27.234  1.00  0.00     0.025 A 
ATOM     16  C   UNL A   1      40.771  22.214  27.491  1.00  0.00     0.064 A 
ATOM     17  Cl  UNL A   1      42.104  22.476  28.558  1.00  0.00    -0.082 Cl
BRANCH  12  18
ATOM     18  N   UNL A   1      37.408  21.521  25.092  1.00  0.00    -0.326 N 
ATOM     19  C   UNL A   1      36.101  21.589  25.482  1.00  0.00     0.224 C 
ATOM     20  O   UNL A   1      35.306  20.728  25.100  1.00  0.00    -0.275 OA
ATOM     21  H   UNL A   1      37.547  21.179  24.180  1.00  0.00     0.169 HD
BRANCH  19  22
ATOM     22  C   UNL A   1      35.624  22.870  26.141  1.00  0.00     0.100 C 
BRANCH  22  23
ATOM     23  C   UNL A   1      34.139  22.973  26.445  1.00  0.00     0.006 C 
ATOM     24  C   UNL A   1      33.682  22.216  27.686  1.00  0.00     0.004 C 
ENDBRANCH  22  23
ENDBRANCH  19  22
ENDBRANCH  12  18
ENDBRANCH   8  11
ENDBRANCH   6   7
ENDBRANCH   3   5
ENDBRANCH   2   3
ENDBRANCH   1   2
BRANCH   1  25
ATOM     25  C   UNL A   1      44.358  24.176  25.349  1.00  0.00     0.275 C 
BRANCH  25  26
ATOM     26  O   UNL A   1      43.429  24.659  26.341  1.00  0.00    -0.458 OA
BRANCH  26  27
ATOM     27  C   UNL A   1      42.754  25.791  26.028  1.00  0.00     0.338 C 
ATOM     28  O   UNL A   1      42.389  26.134  24.910  1.00  0.00    -0.246 OA
BRANCH  27  29
ATOM     29  C   UNL A   1      42.411  26.547  27.251  1.00  0.00     0.060 A 
ATOM     30  C   UNL A   1      43.018  27.791  27.421  1.00  0.00     0.016 A 
ATOM     31  C   UNL A   1      41.547  26.052  28.236  1.00  0.00     0.016 A 
ATOM     32  C   UNL A   1      42.711  28.567  28.537  1.00  0.00     0.010 A 
ATOM     33  C   UNL A   1      41.267  26.824  29.377  1.00  0.00     0.010 A 
ATOM     34  C   UNL A   1      41.832  28.098  29.522  1.00  0.00    -0.014 A 
BRANCH  34  35
ATOM     35  C   UNL A   1      41.596  28.963  30.709  1.00  0.00     0.031 A 
ATOM     36  C   UNL A   1      40.382  29.851  30.729  1.00  0.00     0.074 A 
ATOM     37  C   UNL A   1      42.349  28.826  31.820  1.00  0.00     0.049 A 
ATOM     38  N   UNL A   1      39.965  30.657  31.669  1.00  0.00    -0.248 NA
ATOM     39  C   UNL A   1      39.511  29.809  29.542  1.00  0.00     0.031 C 
ATOM     40  C   UNL A   1      43.464  27.893  31.962  1.00  0.00     0.029 A 
ATOM     41  N   UNL A   1      42.245  29.405  33.064  1.00  0.00    -0.354 N 
ATOM     42  C   UNL A   1      38.809  31.246  31.173  1.00  0.00     0.074 A 
ATOM     43  C   UNL A   1      38.549  30.655  29.879  1.00  0.00     0.031 C 
ATOM     44  C   UNL A   1      43.876  27.893  33.243  1.00  0.00     0.029 A 
ATOM     45  C   UNL A   1      43.127  28.895  33.996  1.00  0.00     0.049 A 
ATOM     46  H   UNL A   1      41.601  30.119  33.272  1.00  0.00     0.167 HD
ATOM     47  C   UNL A   1      38.073  32.239  31.722  1.00  0.00     0.037 A 
ATOM     48  C   UNL A   1      43.316  29.220  35.295  1.00  0.00     0.037 A 
ATOM     49  C   UNL A   1      38.394  32.868  32.974  1.00  0.00     0.049 A 
ATOM     50  C   UNL A   1      42.540  30.397  35.847  1.00  0.00     0.074 A 
ATOM     51  C   UNL A   1      37.843  34.005  33.535  1.00  0.00     0.029 A 
ATOM     52  N   UNL A   1      39.365  32.413  33.855  1.00  0.00    -0.354 N 
ATOM     53  N   UNL A   1      41.538  31.053  35.309  1.00  0.00    -0.248 NA
ATOM     54  C   UNL A   1      42.969  30.929  37.151  1.00  0.00     0.031 C 
ATOM     55  C   UNL A   1      38.517  34.267  34.732  1.00  0.00     0.029 A 
ATOM     56  C   UNL A   1      39.436  33.253  34.950  1.00  0.00     0.049 A 
ATOM     57  H   UNL A   1      39.921  31.613  33.718  1.00  0.00     0.167 HD
ATOM     58  C   UNL A   1      41.227  32.075  36.202  1.00  0.00     0.074 A 
ATOM     59  C   UNL A   1      42.114  31.928  37.334  1.00  0.00     0.031 C 
ATOM     60  C   UNL A   1      40.310  33.066  36.081  1.00  0.00     0.037 A 
BRANCH  47  61
ATOM     61  C   UNL A   1      36.949  32.794  30.897  1.00  0.00     0.058 A 
ATOM     62  C   UNL A   1      37.164  33.692  29.842  1.00  0.00     0.135 A 
ATOM     63  C   UNL A   1      35.625  32.424  31.187  1.00  0.00     0.135 A 
ATOM     64  F   UNL A   1      38.407  34.106  29.549  1.00  0.00    -0.206 F 
ATOM     65  C   UNL A   1      36.101  34.217  29.112  1.00  0.00     0.059 A 
ATOM     66  C   UNL A   1      34.550  32.917  30.455  1.00  0.00     0.059 A 
ATOM     67  F   UNL A   1      35.364  31.583  32.200  1.00  0.00    -0.206 F 
ATOM     68  C   UNL A   1      34.798  33.822  29.427  1.00  0.00     0.060 A 
BRANCH  68  69
ATOM     69  S   UNL A   1      33.431  34.518  28.477  1.00  0.00     0.124 S 
ATOM     70  O   UNL A   1      32.502  34.897  29.538  1.00  0.00    -0.237 OA
ATOM     71  O   UNL A   1      34.072  35.621  27.770  1.00  0.00    -0.237 OA
ATOM     72  O   UNL A   1      32.998  33.405  27.637  1.00  0.00    -0.744 OA
ENDBRANCH  68  69
ENDBRANCH  47  61
BRANCH  48  73
ATOM     73  C   UNL A   1      44.332  28.526  36.153  1.00  0.00     0.058 A 
ATOM     74  C   UNL A   1      43.977  27.445  36.982  1.00  0.00     0.135 A 
ATOM     75  C   UNL A   1      45.660  28.977  36.235  1.00  0.00     0.135 A 
ATOM     76  F   UNL A   1      42.719  26.976  36.971  1.00  0.00    -0.206 F 
ATOM     77  C   UNL A   1      44.882  26.866  37.873  1.00  0.00     0.059 A 
ATOM     78  C   UNL A   1      46.594  28.385  37.082  1.00  0.00     0.059 A 
ATOM     79  F   UNL A   1      46.068  30.018  35.492  1.00  0.00    -0.206 F 
ATOM     80  C   UNL A   1      46.190  27.348  37.917  1.00  0.00     0.060 A 
BRANCH  80  81
ATOM     81  S   UNL A   1      47.366  26.609  39.074  1.00  0.00     0.124 S 
ATOM     82  O   UNL A   1      48.389  27.646  39.153  1.00  0.00    -0.237 OA
ATOM     83  O   UNL A   1      46.551  26.425  40.270  1.00  0.00    -0.237 OA
ATOM     84  O   UNL A   1      47.766  25.378  38.402  1.00  0.00    -0.744 OA
ENDBRANCH  80  81
ENDBRANCH  48  73
BRANCH  60  85
ATOM     85  C   UNL A   1      40.179  34.054  37.208  1.00  0.00     0.058 A 
ATOM     86  C   UNL A   1      40.899  35.258  37.221  1.00  0.00     0.135 A 
ATOM     87  C   UNL A   1      39.221  33.848  38.214  1.00  0.00     0.135 A 
ATOM     88  F   UNL A   1      41.829  35.501  36.284  1.00  0.00    -0.206 F 
ATOM     89  C   UNL A   1      40.670  36.227  38.191  1.00  0.00     0.059 A 
ATOM     90  C   UNL A   1      38.958  34.815  39.178  1.00  0.00     0.059 A 
ATOM     91  F   UNL A   1      38.500  32.716  38.239  1.00  0.00    -0.206 F 
ATOM     92  C   UNL A   1      39.687  36.003  39.157  1.00  0.00     0.060 A 
BRANCH  92  93
ATOM     93  S   UNL A   1      39.334  37.310  40.352  1.00  0.00     0.124 S 
ATOM     94  O   UNL A   1      38.519  38.223  39.558  1.00  0.00    -0.237 OA
ATOM     95  O   UNL A   1      38.630  36.586  41.406  1.00  0.00    -0.237 OA
ATOM     96  O   UNL A   1      40.658  37.806  40.717  1.00  0.00    -0.744 OA
ENDBRANCH  92  93
ENDBRANCH  60  85
ENDBRANCH  34  35
ENDBRANCH  27  29
ENDBRANCH  26  27
ENDBRANCH  25  26
ENDBRANCH   1  25
TORSDOF 19
ENDMDL
MODEL 2
REMARK VINA RESULT:     -10.6      3.644      9.798
REMARK SMILES CCCC(=O)Nc1ccc(Cl)c(NC(=O)/C=C/C(=O)OCCOC(=O)c2ccc(-c3c4nc(c(-c5c(F)cc(S(=O)(=O)[O-])cc5F)c5ccc([nH]5)c(-c5c(F)cc(S(=O)(=O)[O-])cc5F)c5nc(c(-c6c(F)cc(S(=O)(=O)[O-])cc6F)c6ccc3[nH]6)C=C5)C=C4)cc2)c1
REMARK SMILES IDX 21 1 20 2 18 3 19 4 17 5 16 6 14 7 13 8 15 10 12 11 7 12
REMARK SMILES IDX 8 13 92 14 9 15 10 16 11 17 6 18 4 19 5 20 3 22 2 23 1 24
REMARK SMILES IDX 22 25 23 26 24 27 25 28 26 29 27 30 91 31 28 32 90 33 29 34
REMARK SMILES IDX 30 35 31 36 84 37 32 38 89 39 83 40 85 41 33 42 88 43 82 44
REMARK SMILES IDX 81 45 34 47 68 48 47 49 67 50 48 51 51 52 66 53 86 54 49 55
REMARK SMILES IDX 50 56 65 58 87 59 52 60 35 61 36 62 45 63 37 64 38 65 44 66
REMARK SMILES IDX 46 67 39 68 40 69 41 70 42 71 43 72 69 73 70 74 79 75 71 76
REMARK SMILES IDX 72 77 78 78 80 79 73 80 74 81 75 82 76 83 77 84 53 85 54 86
REMARK SMILES IDX 63 87 55 88 56 89 62 90 64 91 57 92 58 93 59 94 60 95 61 96
REMARK H PARENT 13 9 6 21 85 46 51 57
REMARK Flexibility Score: inf
ROOT
ATOM      1  C   UNL A   1      36.599  22.798  23.430  1.00  0.00     0.275 C 
ENDROOT
BRANCH   1   2
ATOM      2  O   UNL A   1      35.531  23.695  23.788  1.00  0.00    -0.459 OA
BRANCH   2   3
ATOM      3  C   UNL A   1      34.345  23.461  23.196  1.00  0.00     0.331 C 
ATOM      4  O   UNL A   1      33.664  22.449  23.281  1.00  0.00    -0.247 OA
BRANCH   3   5
ATOM      5  C   UNL A   1      33.917  24.634  22.419  1.00  0.00     0.099 C 
ATOM      6  C   UNL A   1      32.631  24.661  22.034  1.00  0.00     0.079 C 
BRANCH   6   7
ATOM      7  C   UNL A   1      31.960  25.900  21.587  1.00  0.00     0.248 C 
ATOM      8  N   UNL A   1      31.747  26.930  22.466  1.00  0.00    -0.321 N 
ATOM      9  H   UNL A   1      31.284  27.707  22.077  1.00  0.00     0.170 HD
ATOM     10  O   UNL A   1      31.577  25.980  20.422  1.00  0.00    -0.270 OA
BRANCH   8  11
ATOM     11  C   UNL A   1      32.075  27.073  23.835  1.00  0.00     0.062 A 
ATOM     12  C   UNL A   1      31.866  26.281  26.123  1.00  0.00     0.043 A 
ATOM     13  C   UNL A   1      33.088  26.867  26.421  1.00  0.00     0.028 A 
ATOM     14  C   UNL A   1      31.343  26.450  24.846  1.00  0.00     0.053 A 
ATOM     15  C   UNL A   1      33.747  27.666  25.481  1.00  0.00     0.025 A 
ATOM     16  C   UNL A   1      33.234  27.777  24.190  1.00  0.00     0.064 A 
ATOM     17  Cl  UNL A   1      34.112  28.707  23.028  1.00  0.00    -0.082 Cl
BRANCH  12  18
ATOM     18  N   UNL A   1      31.234  25.336  26.944  1.00  0.00    -0.326 N 
ATOM     19  C   UNL A   1      30.891  24.036  26.704  1.00  0.00     0.224 C 
ATOM     20  O   UNL A   1      29.856  23.579  27.192  1.00  0.00    -0.275 OA
ATOM     21  H   UNL A   1      30.997  25.664  27.840  1.00  0.00     0.169 HD
BRANCH  19  22
ATOM     22  C   UNL A   1      31.937  23.132  26.078  1.00  0.00     0.100 C 
BRANCH  22  23
ATOM     23  C   UNL A   1      32.922  22.465  27.024  1.00  0.00     0.006 C 
ATOM     24  C   UNL A   1      34.319  23.072  27.031  1.00  0.00     0.004 C 
ENDBRANCH  22  23
ENDBRANCH  19  22
ENDBRANCH  12  18
ENDBRANCH   8  11
ENDBRANCH   6   7
ENDBRANCH   3   5
ENDBRANCH   2   3
ENDBRANCH   1   2
BRANCH   1  25
ATOM     25  C   UNL A   1      37.341  22.341  24.687  1.00  0.00     0.275 C 
BRANCH  25  26
ATOM     26  O   UNL A   1      37.840  23.443  25.473  1.00  0.00    -0.458 OA
BRANCH  26  27
ATOM     27  C   UNL A   1      39.028  23.247  26.092  1.00  0.00     0.338 C 
ATOM     28  O   UNL A   1      39.753  22.266  25.981  1.00  0.00    -0.246 OA
BRANCH  27  29
ATOM     29  C   UNL A   1      39.411  24.443  26.873  1.00  0.00     0.060 A 
ATOM     30  C   UNL A   1      38.971  24.508  28.194  1.00  0.00     0.016 A 
ATOM     31  C   UNL A   1      40.151  25.502  26.331  1.00  0.00     0.016 A 
ATOM     32  C   UNL A   1      39.326  25.593  28.992  1.00  0.00     0.010 A 
ATOM     33  C   UNL A   1      40.478  26.611  27.130  1.00  0.00     0.010 A 
ATOM     34  C   UNL A   1      40.086  26.652  28.475  1.00  0.00    -0.014 A 
BRANCH  34  35
ATOM     35  C   UNL A   1      40.379  27.800  29.374  1.00  0.00     0.031 A 
ATOM     36  C   UNL A   1      41.767  27.943  29.936  1.00  0.00     0.074 A 
ATOM     37  C   UNL A   1      39.478  28.790  29.542  1.00  0.00     0.049 A 
ATOM     38  N   UNL A   1      42.251  28.878  30.709  1.00  0.00    -0.248 NA
ATOM     39  C   UNL A   1      42.745  26.908  29.559  1.00  0.00     0.031 C 
ATOM     40  C   UNL A   1      38.152  28.824  28.929  1.00  0.00     0.029 A 
ATOM     41  N   UNL A   1      39.565  29.993  30.204  1.00  0.00    -0.354 N 
ATOM     42  C   UNL A   1      43.573  28.526  30.943  1.00  0.00     0.074 A 
ATOM     43  C   UNL A   1      43.839  27.330  30.176  1.00  0.00     0.031 C 
ATOM     44  C   UNL A   1      37.592  30.024  29.163  1.00  0.00     0.029 A 
ATOM     45  C   UNL A   1      38.468  30.813  30.025  1.00  0.00     0.049 A 
ATOM     46  H   UNL A   1      40.338  30.247  30.757  1.00  0.00     0.167 HD
ATOM     47  C   UNL A   1      44.462  29.112  31.778  1.00  0.00     0.037 A 
ATOM     48  C   UNL A   1      38.201  32.042  30.520  1.00  0.00     0.037 A 
ATOM     49  C   UNL A   1      44.153  30.254  32.593  1.00  0.00     0.049 A 
ATOM     50  C   UNL A   1      39.175  32.625  31.522  1.00  0.00     0.074 A 
ATOM     51  C   UNL A   1      44.900  30.814  33.613  1.00  0.00     0.029 A 
ATOM     52  N   UNL A   1      42.992  31.006  32.484  1.00  0.00    -0.354 N 
ATOM     53  N   UNL A   1      40.373  32.202  31.854  1.00  0.00    -0.248 NA
ATOM     54  C   UNL A   1      38.731  33.809  32.276  1.00  0.00     0.031 C 
ATOM     55  C   UNL A   1      44.166  31.874  34.155  1.00  0.00     0.029 A 
ATOM     56  C   UNL A   1      42.998  32.018  33.425  1.00  0.00     0.049 A 
ATOM     57  H   UNL A   1      42.272  30.841  31.833  1.00  0.00     0.167 HD
ATOM     58  C   UNL A   1      40.817  33.060  32.857  1.00  0.00     0.074 A 
ATOM     59  C   UNL A   1      39.783  34.052  33.049  1.00  0.00     0.031 C 
ATOM     60  C   UNL A   1      41.966  33.014  33.576  1.00  0.00     0.037 A 
BRANCH  47  61
ATOM     61  C   UNL A   1      45.789  28.431  31.953  1.00  0.00     0.058 A 
ATOM     62  C   UNL A   1      46.917  28.781  31.199  1.00  0.00     0.135 A 
ATOM     63  C   UNL A   1      45.919  27.394  32.892  1.00  0.00     0.135 A 
ATOM     64  F   UNL A   1      46.835  29.739  30.262  1.00  0.00    -0.206 F 
ATOM     65  C   UNL A   1      48.129  28.113  31.359  1.00  0.00     0.059 A 
ATOM     66  C   UNL A   1      47.125  26.730  33.086  1.00  0.00     0.059 A 
ATOM     67  F   UNL A   1      44.863  27.009  33.626  1.00  0.00    -0.206 F 
ATOM     68  C   UNL A   1      48.221  27.089  32.306  1.00  0.00     0.060 A 
BRANCH  68  69
ATOM     69  S   UNL A   1      49.795  26.227  32.496  1.00  0.00     0.124 S 
ATOM     70  O   UNL A   1      50.303  26.243  31.127  1.00  0.00    -0.237 OA
ATOM     71  O   UNL A   1      50.504  27.078  33.445  1.00  0.00    -0.237 OA
ATOM     72  O   UNL A   1      49.406  24.914  33.002  1.00  0.00    -0.744 OA
ENDBRANCH  68  69
ENDBRANCH  47  61
BRANCH  48  73
ATOM     73  C   UNL A   1      36.939  32.781  30.188  1.00  0.00     0.058 A 
ATOM     74  C   UNL A   1      36.894  33.726  29.146  1.00  0.00     0.135 A 
ATOM     75  C   UNL A   1      35.772  32.630  30.955  1.00  0.00     0.135 A 
ATOM     76  F   UNL A   1      37.980  33.939  28.385  1.00  0.00    -0.206 F 
ATOM     77  C   UNL A   1      35.763  34.507  28.902  1.00  0.00     0.059 A 
ATOM     78  C   UNL A   1      34.615  33.363  30.701  1.00  0.00     0.059 A 
ATOM     79  F   UNL A   1      35.745  31.764  31.981  1.00  0.00    -0.206 F 
ATOM     80  C   UNL A   1      34.627  34.318  29.689  1.00  0.00     0.060 A 
BRANCH  80  81
ATOM     81  S   UNL A   1      33.162  35.331  29.385  1.00  0.00     0.124 S 
ATOM     82  O   UNL A   1      32.596  35.437  30.725  1.00  0.00    -0.237 OA
ATOM     83  O   UNL A   1      33.738  36.555  28.836  1.00  0.00    -0.237 OA
ATOM     84  O   UNL A   1      32.394  34.529  28.438  1.00  0.00    -0.744 OA
ENDBRANCH  80  81
ENDBRANCH  48  73
BRANCH  60  85
ATOM     85  C   UNL A   1      42.198  34.077  34.613  1.00  0.00     0.058 A 
ATOM     86  C   UNL A   1      41.699  33.955  35.919  1.00  0.00     0.135 A 
ATOM     87  C   UNL A   1      43.042  35.163  34.329  1.00  0.00     0.135 A 
ATOM     88  F   UNL A   1      40.885  32.938  36.241  1.00  0.00    -0.206 F 
ATOM     89  C   UNL A   1      42.034  34.872  36.909  1.00  0.00     0.059 A 
ATOM     90  C   UNL A   1      43.411  36.075  35.310  1.00  0.00     0.059 A 
ATOM     91  F   UNL A   1      43.552  35.317  33.097  1.00  0.00    -0.206 F 
ATOM     92  C   UNL A   1      42.902  35.921  36.599  1.00  0.00     0.060 A 
BRANCH  92  93
ATOM     93  S   UNL A   1      43.405  37.047  37.918  1.00  0.00     0.124 S 
ATOM     94  O   UNL A   1      44.458  36.280  38.576  1.00  0.00    -0.237 OA
ATOM     95  O   UNL A   1      43.847  38.221  37.173  1.00  0.00    -0.237 OA
ATOM     96  O   UNL A   1      42.182  37.229  38.696  1.00  0.00    -0.744 OA
ENDBRANCH  92  93
ENDBRANCH  60  85
ENDBRANCH  34  35
ENDBRANCH  27  29
ENDBRANCH  26  27
ENDBRANCH  25  26
ENDBRANCH   1  25
TORSDOF 19
ENDMDL
MODEL 3
REMARK VINA RESULT:     -10.5      2.520      4.331
REMARK SMILES CCCC(=O)Nc1ccc(Cl)c(NC(=O)/C=C/C(=O)OCCOC(=O)c2ccc(-c3c4nc(c(-c5c(F)cc(S(=O)(=O)[O-])cc5F)c5ccc([nH]5)c(-c5c(F)cc(S(=O)(=O)[O-])cc5F)c5nc(c(-c6c(F)cc(S(=O)(=O)[O-])cc6F)c6ccc3[nH]6)C=C5)C=C4)cc2)c1
REMARK SMILES IDX 21 1 20 2 18 3 19 4 17 5 16 6 14 7 13 8 15 10 12 11 7 12
REMARK SMILES IDX 8 13 92 14 9 15 10 16 11 17 6 18 4 19 5 20 3 22 2 23 1 24
REMARK SMILES IDX 22 25 23 26 24 27 25 28 26 29 27 30 91 31 28 32 90 33 29 34
REMARK SMILES IDX 30 35 31 36 84 37 32 38 89 39 83 40 85 41 33 42 88 43 82 44
REMARK SMILES IDX 81 45 34 47 68 48 47 49 67 50 48 51 51 52 66 53 86 54 49 55
REMARK SMILES IDX 50 56 65 58 87 59 52 60 35 61 36 62 45 63 37 64 38 65 44 66
REMARK SMILES IDX 46 67 39 68 40 69 41 70 42 71 43 72 69 73 70 74 79 75 71 76
REMARK SMILES IDX 72 77 78 78 80 79 73 80 74 81 75 82 76 83 77 84 53 85 54 86
REMARK SMILES IDX 63 87 55 88 56 89 62 90 64 91 57 92 58 93 59 94 60 95 61 96
REMARK H PARENT 13 9 6 21 85 46 51 57
REMARK Flexibility Score: inf
ROOT
ATOM      1  C   UNL A   1      39.100  21.979  26.132  1.00  0.00     0.275 C 
ENDROOT
BRANCH   1   2
ATOM      2  O   UNL A   1      37.805  22.584  25.949  1.00  0.00    -0.459 OA
BRANCH   2   3
ATOM      3  C   UNL A   1      36.996  21.980  25.059  1.00  0.00     0.331 C 
ATOM      4  O   UNL A   1      37.207  21.807  23.867  1.00  0.00    -0.247 OA
BRANCH   3   5
ATOM      5  C   UNL A   1      35.777  21.492  25.721  1.00  0.00     0.099 C 
ATOM      6  C   UNL A   1      35.083  22.392  26.437  1.00  0.00     0.079 C 
BRANCH   6   7
ATOM      7  C   UNL A   1      33.678  22.173  26.843  1.00  0.00     0.248 C 
ATOM      8  N   UNL A   1      32.653  22.725  26.119  1.00  0.00    -0.321 N 
ATOM      9  H   UNL A   1      31.756  22.532  26.474  1.00  0.00     0.170 HD
ATOM     10  O   UNL A   1      33.448  21.510  27.851  1.00  0.00    -0.270 OA
BRANCH   8  11
ATOM     11  C   UNL A   1      32.658  23.523  24.951  1.00  0.00     0.062 A 
ATOM     12  C   UNL A   1      33.072  25.673  23.896  1.00  0.00     0.043 A 
ATOM     13  C   UNL A   1      33.282  25.023  22.688  1.00  0.00     0.028 A 
ATOM     14  C   UNL A   1      32.696  24.917  25.000  1.00  0.00     0.053 A 
ATOM     15  C   UNL A   1      33.055  23.648  22.567  1.00  0.00     0.025 A 
ATOM     16  C   UNL A   1      32.733  22.900  23.698  1.00  0.00     0.064 A 
ATOM     17  Cl  UNL A   1      32.537  21.191  23.530  1.00  0.00    -0.082 Cl
BRANCH  12  18
ATOM     18  N   UNL A   1      33.440  27.004  24.139  1.00  0.00    -0.326 N 
ATOM     19  C   UNL A   1      32.722  28.161  24.028  1.00  0.00     0.224 C 
ATOM     20  O   UNL A   1      33.281  29.192  23.652  1.00  0.00    -0.275 OA
ATOM     21  H   UNL A   1      34.369  27.126  24.438  1.00  0.00     0.169 HD
BRANCH  19  22
ATOM     22  C   UNL A   1      31.332  28.192  24.637  1.00  0.00     0.100 C 
BRANCH  22  23
ATOM     23  C   UNL A   1      30.165  27.939  23.696  1.00  0.00     0.006 C 
ATOM     24  C   UNL A   1      29.472  26.595  23.877  1.00  0.00     0.004 C 
ENDBRANCH  22  23
ENDBRANCH  19  22
ENDBRANCH  12  18
ENDBRANCH   8  11
ENDBRANCH   6   7
ENDBRANCH   3   5
ENDBRANCH   2   3
ENDBRANCH   1   2
BRANCH   1  25
ATOM     25  C   UNL A   1      40.131  23.050  26.493  1.00  0.00     0.275 C 
BRANCH  25  26
ATOM     26  O   UNL A   1      39.631  24.391  26.310  1.00  0.00    -0.458 OA
BRANCH  26  27
ATOM     27  C   UNL A   1      40.558  25.378  26.288  1.00  0.00     0.338 C 
ATOM     28  O   UNL A   1      41.350  25.611  25.384  1.00  0.00    -0.246 OA
BRANCH  27  29
ATOM     29  C   UNL A   1      40.434  26.234  27.487  1.00  0.00     0.060 A 
ATOM     30  C   UNL A   1      41.334  27.292  27.609  1.00  0.00     0.016 A 
ATOM     31  C   UNL A   1      39.491  26.001  28.496  1.00  0.00     0.016 A 
ATOM     32  C   UNL A   1      41.248  28.155  28.700  1.00  0.00     0.010 A 
ATOM     33  C   UNL A   1      39.430  26.854  29.611  1.00  0.00     0.010 A 
ATOM     34  C   UNL A   1      40.296  27.951  29.708  1.00  0.00    -0.014 A 
BRANCH  34  35
ATOM     35  C   UNL A   1      40.302  28.884  30.867  1.00  0.00     0.031 A 
ATOM     36  C   UNL A   1      39.253  29.959  30.936  1.00  0.00     0.074 A 
ATOM     37  C   UNL A   1      41.114  28.666  31.922  1.00  0.00     0.049 A 
ATOM     38  N   UNL A   1      39.051  30.855  31.865  1.00  0.00    -0.248 NA
ATOM     39  C   UNL A   1      38.289  30.018  29.824  1.00  0.00     0.031 C 
ATOM     40  C   UNL A   1      42.074  27.568  32.022  1.00  0.00     0.029 A 
ATOM     41  N   UNL A   1      41.209  29.298  33.140  1.00  0.00    -0.354 N 
ATOM     42  C   UNL A   1      37.967  31.607  31.433  1.00  0.00     0.074 A 
ATOM     43  C   UNL A   1      37.507  31.022  30.193  1.00  0.00     0.031 C 
ATOM     44  C   UNL A   1      42.586  27.546  33.266  1.00  0.00     0.029 A 
ATOM     45  C   UNL A   1      42.073  28.683  34.025  1.00  0.00     0.049 A 
ATOM     46  H   UNL A   1      40.708  30.114  33.362  1.00  0.00     0.167 HD
ATOM     47  C   UNL A   1      37.447  32.726  31.988  1.00  0.00     0.037 A 
ATOM     48  C   UNL A   1      42.421  29.019  35.288  1.00  0.00     0.037 A 
ATOM     49  C   UNL A   1      37.969  33.338  33.179  1.00  0.00     0.049 A 
ATOM     50  C   UNL A   1      41.892  30.325  35.841  1.00  0.00     0.074 A 
ATOM     51  C   UNL A   1      37.656  34.569  33.725  1.00  0.00     0.029 A 
ATOM     52  N   UNL A   1      38.925  32.763  34.003  1.00  0.00    -0.354 N 
ATOM     53  N   UNL A   1      40.967  31.118  35.350  1.00  0.00    -0.248 NA
ATOM     54  C   UNL A   1      42.509  30.826  37.080  1.00  0.00     0.031 C 
ATOM     55  C   UNL A   1      38.462  34.760  34.853  1.00  0.00     0.029 A 
ATOM     56  C   UNL A   1      39.221  33.618  35.048  1.00  0.00     0.049 A 
ATOM     57  H   UNL A   1      39.332  31.877  33.863  1.00  0.00     0.167 HD
ATOM     58  C   UNL A   1      40.899  32.207  36.213  1.00  0.00     0.074 A 
ATOM     59  C   UNL A   1      41.843  31.957  37.280  1.00  0.00     0.031 C 
ATOM     60  C   UNL A   1      40.146  33.330  36.116  1.00  0.00     0.037 A 
BRANCH  47  61
ATOM     61  C   UNL A   1      36.361  33.429  31.226  1.00  0.00     0.058 A 
ATOM     62  C   UNL A   1      35.025  33.424  31.648  1.00  0.00     0.135 A 
ATOM     63  C   UNL A   1      36.675  34.108  30.037  1.00  0.00     0.135 A 
ATOM     64  F   UNL A   1      34.667  32.757  32.757  1.00  0.00    -0.206 F 
ATOM     65  C   UNL A   1      34.031  34.058  30.906  1.00  0.00     0.059 A 
ATOM     66  C   UNL A   1      35.703  34.769  29.293  1.00  0.00     0.059 A 
ATOM     67  F   UNL A   1      37.937  34.126  29.580  1.00  0.00    -0.206 F 
ATOM     68  C   UNL A   1      34.381  34.727  29.730  1.00  0.00     0.060 A 
BRANCH  68  69
ATOM     69  S   UNL A   1      33.081  35.536  28.776  1.00  0.00     0.124 S 
ATOM     70  O   UNL A   1      33.845  36.529  28.026  1.00  0.00    -0.237 OA
ATOM     71  O   UNL A   1      32.536  34.432  27.994  1.00  0.00    -0.237 OA
ATOM     72  O   UNL A   1      32.192  36.077  29.800  1.00  0.00    -0.744 OA
ENDBRANCH  68  69
ENDBRANCH  47  61
BRANCH  48  73
ATOM     73  C   UNL A   1      43.381  28.199  36.098  1.00  0.00     0.058 A 
ATOM     74  C   UNL A   1      44.771  28.400  36.013  1.00  0.00     0.135 A 
ATOM     75  C   UNL A   1      42.944  27.139  36.908  1.00  0.00     0.135 A 
ATOM     76  F   UNL A   1      45.262  29.382  35.238  1.00  0.00    -0.206 F 
ATOM     77  C   UNL A   1      45.682  27.569  36.667  1.00  0.00     0.059 A 
ATOM     78  C   UNL A   1      43.830  26.325  37.610  1.00  0.00     0.059 A 
ATOM     79  F   UNL A   1      41.633  26.870  37.022  1.00  0.00    -0.206 F 
ATOM     80  C   UNL A   1      45.199  26.530  37.462  1.00  0.00     0.060 A 
BRANCH  80  81
ATOM     81  S   UNL A   1      46.371  25.444  38.306  1.00  0.00     0.124 S 
ATOM     82  O   UNL A   1      46.837  26.302  39.390  1.00  0.00    -0.237 OA
ATOM     83  O   UNL A   1      45.528  24.320  38.698  1.00  0.00    -0.237 OA
ATOM     84  O   UNL A   1      47.356  25.147  37.270  1.00  0.00    -0.744 OA
ENDBRANCH  80  81
ENDBRANCH  48  73
BRANCH  60  85
ATOM     85  C   UNL A   1      40.270  34.365  37.200  1.00  0.00     0.058 A 
ATOM     86  C   UNL A   1      41.240  35.378  37.146  1.00  0.00     0.135 A 
ATOM     87  C   UNL A   1      39.319  34.418  38.233  1.00  0.00     0.135 A 
ATOM     88  F   UNL A   1      42.174  35.370  36.182  1.00  0.00    -0.206 F 
ATOM     89  C   UNL A   1      41.260  36.410  38.077  1.00  0.00     0.059 A 
ATOM     90  C   UNL A   1      39.305  35.456  39.157  1.00  0.00     0.059 A 
ATOM     91  F   UNL A   1      38.366  33.478  38.321  1.00  0.00    -0.206 F 
ATOM     92  C   UNL A   1      40.280  36.449  39.070  1.00  0.00     0.060 A 
BRANCH  92  93
ATOM     93  S   UNL A   1      40.260  37.848  40.212  1.00  0.00     0.124 S 
ATOM     94  O   UNL A   1      38.866  38.272  40.136  1.00  0.00    -0.237 OA
ATOM     95  O   UNL A   1      40.666  37.228  41.470  1.00  0.00    -0.237 OA
ATOM     96  O   UNL A   1      41.231  38.774  39.634  1.00  0.00    -0.744 OA
ENDBRANCH  92  93
ENDBRANCH  60  85
ENDBRANCH  34  35
ENDBRANCH  27  29
ENDBRANCH  26  27
ENDBRANCH  25  26
ENDBRANCH   1  25
TORSDOF 19
ENDMDL
