MODEL 1
REMARK VINA RESULT:     -11.2      0.000      0.000
REMARK SMILES O=C(OCCOC(=O)c1ccc(S(=O)(=O)Cc2cnoc2)c(F)c1)c1ccc(-c2c3nc(c(-c4c(F)cc(S(=O)(=O)[O-])cc4F)c4ccc([nH]4)c(-c4c(F)cc(S(=O)(=O)[O-])cc4F)c4nc(c(-c5c(F)cc(S(=O)(=O)[O-])cc5F)c5ccc2[nH]5)C=C4)C=C3)cc1
REMARK SMILES IDX 4 1 3 2 2 3 1 4 25 5 26 6 90 7 27 8 89 9 28 10 29 11 30 12
REMARK SMILES IDX 83 13 31 14 88 15 82 16 84 17 32 18 87 19 81 20 80 21 33 23
REMARK SMILES IDX 67 24 46 25 66 26 47 27 50 28 65 29 85 30 48 31 49 32 64 34
REMARK SMILES IDX 86 35 51 36 34 37 35 38 44 39 36 40 37 41 43 42 45 43 38 44
REMARK SMILES IDX 39 45 40 46 41 47 42 48 68 49 69 50 78 51 70 52 71 53 77 54
REMARK SMILES IDX 79 55 72 56 73 57 74 58 75 59 76 60 52 61 53 62 62 63 54 64
REMARK SMILES IDX 55 65 61 66 63 67 56 68 57 69 58 70 59 71 60 72 5 73 6 74
REMARK SMILES IDX 7 75 8 76 9 77 10 78 24 79 11 80 22 81 12 82 23 83 13 84
REMARK SMILES IDX 14 85 15 86 16 87 17 88 18 89 21 90 19 91 20 92
REMARK H PARENT 84 22 50 33
REMARK Flexibility Score: inf
ROOT
ATOM      1  C   UNL A   1      41.124  22.257  26.053  1.00  0.00     0.275 C 
ENDROOT
BRANCH   1   2
ATOM      2  O   UNL A   1      41.808  23.289  26.785  1.00  0.00    -0.458 OA
BRANCH   2   3
ATOM      3  C   UNL A   1      41.864  24.613  26.506  1.00  0.00     0.338 C 
ATOM      4  O   UNL A   1      42.280  24.972  25.404  1.00  0.00    -0.246 OA
BRANCH   3   5
ATOM      5  C   UNL A   1      41.669  25.666  27.552  1.00  0.00     0.060 A 
ATOM      6  C   UNL A   1      42.502  26.762  27.784  1.00  0.00     0.016 A 
ATOM      7  C   UNL A   1      40.543  25.507  28.383  1.00  0.00     0.016 A 
ATOM      8  C   UNL A   1      42.187  27.709  28.762  1.00  0.00     0.010 A 
ATOM      9  C   UNL A   1      40.209  26.464  29.345  1.00  0.00     0.010 A 
ATOM     10  C   UNL A   1      41.038  27.570  29.543  1.00  0.00    -0.014 A 
BRANCH  10  11
ATOM     11  C   UNL A   1      40.802  28.501  30.669  1.00  0.00     0.031 A 
ATOM     12  C   UNL A   1      41.656  28.369  31.894  1.00  0.00     0.074 A 
ATOM     13  C   UNL A   1      39.884  29.479  30.568  1.00  0.00     0.049 A 
ATOM     14  N   UNL A   1      41.681  29.112  32.967  1.00  0.00    -0.248 NA
ATOM     15  C   UNL A   1      42.631  27.264  31.901  1.00  0.00     0.031 C 
ATOM     16  C   UNL A   1      39.039  29.725  29.401  1.00  0.00     0.029 A 
ATOM     17  N   UNL A   1      39.507  30.448  31.461  1.00  0.00    -0.354 N 
ATOM     18  C   UNL A   1      42.697  28.591  33.757  1.00  0.00     0.074 A 
ATOM     19  C   UNL A   1      43.213  27.424  33.079  1.00  0.00     0.031 C 
ATOM     20  C   UNL A   1      38.218  30.756  29.659  1.00  0.00     0.029 A 
ATOM     21  C   UNL A   1      38.483  31.246  31.009  1.00  0.00     0.049 A 
ATOM     22  H   UNL A   1      39.930  30.562  32.343  1.00  0.00     0.167 HD
ATOM     23  C   UNL A   1      43.186  29.071  34.922  1.00  0.00     0.037 A 
ATOM     24  C   UNL A   1      37.838  32.261  31.619  1.00  0.00     0.037 A 
ATOM     25  C   UNL A   1      42.641  30.210  35.604  1.00  0.00     0.049 A 
ATOM     26  C   UNL A   1      38.308  32.699  32.979  1.00  0.00     0.074 A 
ATOM     27  C   UNL A   1      43.035  30.770  36.804  1.00  0.00     0.029 A 
ATOM     28  N   UNL A   1      41.566  30.959  35.142  1.00  0.00    -0.354 N 
ATOM     29  N   UNL A   1      39.295  32.221  33.700  1.00  0.00    -0.248 NA
ATOM     30  C   UNL A   1      37.599  33.826  33.600  1.00  0.00     0.031 C 
ATOM     31  C   UNL A   1      42.174  31.838  37.086  1.00  0.00     0.029 A 
ATOM     32  C   UNL A   1      41.271  31.968  36.041  1.00  0.00     0.049 A 
ATOM     33  H   UNL A   1      41.084  30.796  34.299  1.00  0.00     0.167 HD
ATOM     34  C   UNL A   1      39.354  33.012  34.840  1.00  0.00     0.074 A 
ATOM     35  C   UNL A   1      38.295  33.995  34.718  1.00  0.00     0.031 C 
ATOM     36  C   UNL A   1      40.216  32.941  35.885  1.00  0.00     0.037 A 
BRANCH  23  37
ATOM     37  C   UNL A   1      44.362  28.344  35.506  1.00  0.00     0.058 A 
ATOM     38  C   UNL A   1      45.674  28.718  35.182  1.00  0.00     0.135 A 
ATOM     39  C   UNL A   1      44.185  27.310  36.441  1.00  0.00     0.135 A 
ATOM     40  F   UNL A   1      45.900  29.707  34.305  1.00  0.00    -0.206 F 
ATOM     41  C   UNL A   1      46.771  28.105  35.780  1.00  0.00     0.059 A 
ATOM     42  C   UNL A   1      45.266  26.699  37.068  1.00  0.00     0.059 A 
ATOM     43  F   UNL A   1      42.948  26.939  36.810  1.00  0.00    -0.206 F 
ATOM     44  C   UNL A   1      46.557  27.103  36.730  1.00  0.00     0.060 A 
BRANCH  44  45
ATOM     45  S   UNL A   1      47.983  26.400  37.585  1.00  0.00     0.124 S 
ATOM     46  O   UNL A   1      49.092  26.915  36.790  1.00  0.00    -0.237 OA
ATOM     47  O   UNL A   1      47.846  26.959  38.927  1.00  0.00    -0.237 OA
ATOM     48  O   UNL A   1      47.754  24.960  37.493  1.00  0.00    -0.744 OA
ENDBRANCH  44  45
ENDBRANCH  23  37
BRANCH  24  49
ATOM     49  C   UNL A   1      36.723  32.948  30.916  1.00  0.00     0.058 A 
ATOM     50  C   UNL A   1      36.973  33.878  29.895  1.00  0.00     0.135 A 
ATOM     51  C   UNL A   1      35.389  32.738  31.294  1.00  0.00     0.135 A 
ATOM     52  F   UNL A   1      38.232  34.121  29.500  1.00  0.00    -0.206 F 
ATOM     53  C   UNL A   1      35.944  34.597  29.294  1.00  0.00     0.059 A 
ATOM     54  C   UNL A   1      34.340  33.434  30.696  1.00  0.00     0.059 A 
ATOM     55  F   UNL A   1      35.098  31.853  32.260  1.00  0.00    -0.206 F 
ATOM     56  C   UNL A   1      34.630  34.377  29.711  1.00  0.00     0.060 A 
BRANCH  56  57
ATOM     57  S   UNL A   1      33.316  35.365  28.963  1.00  0.00     0.124 S 
ATOM     58  O   UNL A   1      32.656  35.913  30.144  1.00  0.00    -0.237 OA
ATOM     59  O   UNL A   1      34.070  36.317  28.154  1.00  0.00    -0.237 OA
ATOM     60  O   UNL A   1      32.540  34.382  28.211  1.00  0.00    -0.744 OA
ENDBRANCH  56  57
ENDBRANCH  24  49
BRANCH  36  61
ATOM     61  C   UNL A   1      40.083  33.972  36.967  1.00  0.00     0.058 A 
ATOM     62  C   UNL A   1      39.212  33.754  38.047  1.00  0.00     0.135 A 
ATOM     63  C   UNL A   1      40.730  35.214  36.880  1.00  0.00     0.135 A 
ATOM     64  F   UNL A   1      38.569  32.582  38.169  1.00  0.00    -0.206 F 
ATOM     65  C   UNL A   1      38.963  34.743  38.989  1.00  0.00     0.059 A 
ATOM     66  C   UNL A   1      40.511  36.212  37.825  1.00  0.00     0.059 A 
ATOM     67  F   UNL A   1      41.580  35.464  35.872  1.00  0.00    -0.206 F 
ATOM     68  C   UNL A   1      39.609  35.974  38.864  1.00  0.00     0.060 A 
BRANCH  68  69
ATOM     69  S   UNL A   1      39.261  37.256  40.084  1.00  0.00     0.124 S 
ATOM     70  O   UNL A   1      38.557  36.501  41.116  1.00  0.00    -0.237 OA
ATOM     71  O   UNL A   1      40.599  37.720  40.439  1.00  0.00    -0.237 OA
ATOM     72  O   UNL A   1      38.448  38.217  39.343  1.00  0.00    -0.744 OA
ENDBRANCH  68  69
ENDBRANCH  36  61
ENDBRANCH  10  11
ENDBRANCH   3   5
ENDBRANCH   2   3
ENDBRANCH   1   2
BRANCH   1  73
ATOM     73  C   UNL A   1      39.792  21.838  26.680  1.00  0.00     0.275 C 
BRANCH  73  74
ATOM     74  O   UNL A   1      38.683  21.960  25.776  1.00  0.00    -0.458 OA
BRANCH  74  75
ATOM     75  C   UNL A   1      37.934  23.080  25.940  1.00  0.00     0.338 C 
ATOM     76  O   UNL A   1      38.296  24.161  26.373  1.00  0.00    -0.246 OA
BRANCH  75  77
ATOM     77  C   UNL A   1      36.612  22.861  25.335  1.00  0.00     0.063 A 
ATOM     78  C   UNL A   1      36.031  21.594  25.252  1.00  0.00     0.017 A 
ATOM     79  C   UNL A   1      35.962  23.975  24.804  1.00  0.00     0.056 A 
ATOM     80  C   UNL A   1      34.788  21.449  24.620  1.00  0.00     0.024 A 
ATOM     81  C   UNL A   1      34.771  23.805  24.108  1.00  0.00     0.142 A 
ATOM     82  C   UNL A   1      34.167  22.561  24.031  1.00  0.00     0.103 A 
ATOM     83  F   UNL A   1      34.294  24.861  23.442  1.00  0.00    -0.206 F 
BRANCH  82  84
ATOM     84  S   UNL A   1      32.652  22.315  23.157  1.00  0.00     0.185 S 
ATOM     85  O   UNL A   1      32.945  22.668  21.782  1.00  0.00    -0.223 OA
ATOM     86  O   UNL A   1      32.202  20.978  23.503  1.00  0.00    -0.223 OA
BRANCH  84  87
ATOM     87  C   UNL A   1      31.408  23.452  23.729  1.00  0.00     0.183 C 
BRANCH  87  88
ATOM     88  C   UNL A   1      31.259  23.560  25.204  1.00  0.00     0.027 A 
ATOM     89  C   UNL A   1      30.663  22.639  26.095  1.00  0.00     0.162 A 
ATOM     90  C   UNL A   1      31.632  24.595  26.030  1.00  0.00     0.235 A 
ATOM     91  N   UNL A   1      30.687  23.071  27.358  1.00  0.00    -0.088 NA
ATOM     92  O   UNL A   1      31.307  24.306  27.312  1.00  0.00    -0.364 OA
ENDBRANCH  87  88
ENDBRANCH  84  87
ENDBRANCH  82  84
ENDBRANCH  75  77
ENDBRANCH  74  75
ENDBRANCH  73  74
ENDBRANCH   1  73
TORSDOF 17
ENDMDL
MODEL 2
REMARK VINA RESULT:     -11.2      6.434     12.216
REMARK SMILES O=C(OCCOC(=O)c1ccc(S(=O)(=O)Cc2cnoc2)c(F)c1)c1ccc(-c2c3nc(c(-c4c(F)cc(S(=O)(=O)[O-])cc4F)c4ccc([nH]4)c(-c4c(F)cc(S(=O)(=O)[O-])cc4F)c4nc(c(-c5c(F)cc(S(=O)(=O)[O-])cc5F)c5ccc2[nH]5)C=C4)C=C3)cc1
REMARK SMILES IDX 4 1 3 2 2 3 1 4 25 5 26 6 90 7 27 8 89 9 28 10 29 11 30 12
REMARK SMILES IDX 83 13 31 14 88 15 82 16 84 17 32 18 87 19 81 20 80 21 33 23
REMARK SMILES IDX 67 24 46 25 66 26 47 27 50 28 65 29 85 30 48 31 49 32 64 34
REMARK SMILES IDX 86 35 51 36 34 37 35 38 44 39 36 40 37 41 43 42 45 43 38 44
REMARK SMILES IDX 39 45 40 46 41 47 42 48 68 49 69 50 78 51 70 52 71 53 77 54
REMARK SMILES IDX 79 55 72 56 73 57 74 58 75 59 76 60 52 61 53 62 62 63 54 64
REMARK SMILES IDX 55 65 61 66 63 67 56 68 57 69 58 70 59 71 60 72 5 73 6 74
REMARK SMILES IDX 7 75 8 76 9 77 10 78 24 79 11 80 22 81 12 82 23 83 13 84
REMARK SMILES IDX 14 85 15 86 16 87 17 88 18 89 21 90 19 91 20 92
REMARK H PARENT 84 22 50 33
REMARK Flexibility Score: inf
ROOT
ATOM      1  C   UNL A   1      35.233  32.551  31.425  1.00  0.00     0.275 C 
ENDROOT
BRANCH   1   2
ATOM      2  O   UNL A   1      36.510  31.894  31.360  1.00  0.00    -0.458 OA
BRANCH   2   3
ATOM      3  C   UNL A   1      36.779  30.633  30.945  1.00  0.00     0.338 C 
ATOM      4  O   UNL A   1      36.020  29.723  31.275  1.00  0.00    -0.246 OA
BRANCH   3   5
ATOM      5  C   UNL A   1      38.080  30.256  30.305  1.00  0.00     0.060 A 
ATOM      6  C   UNL A   1      38.345  30.223  28.936  1.00  0.00     0.016 A 
ATOM      7  C   UNL A   1      39.115  29.887  31.186  1.00  0.00     0.016 A 
ATOM      8  C   UNL A   1      39.619  29.902  28.458  1.00  0.00     0.010 A 
ATOM      9  C   UNL A   1      40.397  29.590  30.717  1.00  0.00     0.010 A 
ATOM     10  C   UNL A   1      40.653  29.590  29.344  1.00  0.00    -0.014 A 
BRANCH  10  11
ATOM     11  C   UNL A   1      41.949  29.111  28.815  1.00  0.00     0.031 A 
ATOM     12  C   UNL A   1      43.089  30.081  28.737  1.00  0.00     0.074 A 
ATOM     13  C   UNL A   1      42.114  27.821  28.472  1.00  0.00     0.049 A 
ATOM     14  N   UNL A   1      44.328  29.873  28.380  1.00  0.00    -0.248 NA
ATOM     15  C   UNL A   1      42.801  31.470  29.138  1.00  0.00     0.031 C 
ATOM     16  C   UNL A   1      41.085  26.787  28.560  1.00  0.00     0.029 A 
ATOM     17  N   UNL A   1      43.208  27.159  27.979  1.00  0.00    -0.354 N 
ATOM     18  C   UNL A   1      44.974  31.089  28.551  1.00  0.00     0.074 A 
ATOM     19  C   UNL A   1      43.978  32.050  28.968  1.00  0.00     0.031 C 
ATOM     20  C   UNL A   1      41.584  25.627  28.104  1.00  0.00     0.029 A 
ATOM     21  C   UNL A   1      42.971  25.835  27.696  1.00  0.00     0.049 A 
ATOM     22  H   UNL A   1      44.082  27.590  27.841  1.00  0.00     0.167 HD
ATOM     23  C   UNL A   1      46.290  31.369  28.417  1.00  0.00     0.037 A 
ATOM     24  C   UNL A   1      43.787  24.898  27.173  1.00  0.00     0.037 A 
ATOM     25  C   UNL A   1      47.263  30.414  27.967  1.00  0.00     0.049 A 
ATOM     26  C   UNL A   1      45.220  25.262  26.900  1.00  0.00     0.074 A 
ATOM     27  C   UNL A   1      48.618  30.591  27.765  1.00  0.00     0.029 A 
ATOM     28  N   UNL A   1      46.973  29.097  27.636  1.00  0.00    -0.354 N 
ATOM     29  N   UNL A   1      45.828  26.407  27.102  1.00  0.00    -0.248 NA
ATOM     30  C   UNL A   1      46.085  24.207  26.356  1.00  0.00     0.031 C 
ATOM     31  C   UNL A   1      49.143  29.388  27.277  1.00  0.00     0.029 A 
ATOM     32  C   UNL A   1      48.121  28.451  27.215  1.00  0.00     0.049 A 
ATOM     33  H   UNL A   1      46.082  28.683  27.692  1.00  0.00     0.167 HD
ATOM     34  C   UNL A   1      47.157  26.202  26.748  1.00  0.00     0.074 A 
ATOM     35  C   UNL A   1      47.261  24.825  26.310  1.00  0.00     0.031 C 
ATOM     36  C   UNL A   1      48.196  27.071  26.796  1.00  0.00     0.037 A 
BRANCH  23  37
ATOM     37  C   UNL A   1      46.718  32.765  28.763  1.00  0.00     0.058 A 
ATOM     38  C   UNL A   1      47.155  33.086  30.056  1.00  0.00     0.135 A 
ATOM     39  C   UNL A   1      46.754  33.776  27.787  1.00  0.00     0.135 A 
ATOM     40  F   UNL A   1      47.154  32.155  31.022  1.00  0.00    -0.206 F 
ATOM     41  C   UNL A   1      47.631  34.356  30.366  1.00  0.00     0.059 A 
ATOM     42  C   UNL A   1      47.246  35.046  28.070  1.00  0.00     0.059 A 
ATOM     43  F   UNL A   1      46.378  33.509  26.526  1.00  0.00    -0.206 F 
ATOM     44  C   UNL A   1      47.683  35.327  29.363  1.00  0.00     0.060 A 
BRANCH  44  45
ATOM     45  S   UNL A   1      48.413  36.933  29.748  1.00  0.00     0.124 S 
ATOM     46  O   UNL A   1      49.789  36.750  29.301  1.00  0.00    -0.237 OA
ATOM     47  O   UNL A   1      47.598  37.843  28.950  1.00  0.00    -0.237 OA
ATOM     48  O   UNL A   1      48.228  37.048  31.193  1.00  0.00    -0.744 OA
ENDBRANCH  44  45
ENDBRANCH  23  37
BRANCH  24  49
ATOM     49  C   UNL A   1      43.266  23.527  26.928  1.00  0.00     0.058 A 
ATOM     50  C   UNL A   1      43.132  22.604  27.978  1.00  0.00     0.135 A 
ATOM     51  C   UNL A   1      42.953  23.090  25.633  1.00  0.00     0.135 A 
ATOM     52  F   UNL A   1      43.425  22.968  29.235  1.00  0.00    -0.206 F 
ATOM     53  C   UNL A   1      42.737  21.290  27.748  1.00  0.00     0.059 A 
ATOM     54  C   UNL A   1      42.539  21.785  25.380  1.00  0.00     0.059 A 
ATOM     55  F   UNL A   1      43.057  23.938  24.598  1.00  0.00    -0.206 F 
ATOM     56  C   UNL A   1      42.453  20.886  26.442  1.00  0.00     0.060 A 
BRANCH  56  57
ATOM     57  S   UNL A   1      42.001  19.160  26.157  1.00  0.00     0.124 S 
ATOM     58  O   UNL A   1      42.857  18.818  25.025  1.00  0.00    -0.237 OA
ATOM     59  O   UNL A   1      42.350  18.538  27.430  1.00  0.00    -0.237 OA
ATOM     60  O   UNL A   1      40.573  19.228  25.865  1.00  0.00    -0.744 OA
ENDBRANCH  56  57
ENDBRANCH  24  49
BRANCH  36  61
ATOM     61  C   UNL A   1      49.550  26.557  26.403  1.00  0.00     0.058 A 
ATOM     62  C   UNL A   1      50.377  25.945  27.358  1.00  0.00     0.135 A 
ATOM     63  C   UNL A   1      50.070  26.768  25.117  1.00  0.00     0.135 A 
ATOM     64  F   UNL A   1      49.924  25.726  28.603  1.00  0.00    -0.206 F 
ATOM     65  C   UNL A   1      51.684  25.584  27.061  1.00  0.00     0.059 A 
ATOM     66  C   UNL A   1      51.370  26.394  24.791  1.00  0.00     0.059 A 
ATOM     67  F   UNL A   1      49.312  27.339  24.167  1.00  0.00    -0.206 F 
ATOM     68  C   UNL A   1      52.177  25.823  25.777  1.00  0.00     0.060 A 
BRANCH  68  69
ATOM     69  S   UNL A   1      53.884  25.368  25.411  1.00  0.00     0.124 S 
ATOM     70  O   UNL A   1      54.465  25.295  26.748  1.00  0.00    -0.237 OA
ATOM     71  O   UNL A   1      53.724  24.093  24.719  1.00  0.00    -0.237 OA
ATOM     72  O   UNL A   1      54.357  26.470  24.579  1.00  0.00    -0.744 OA
ENDBRANCH  68  69
ENDBRANCH  36  61
ENDBRANCH  10  11
ENDBRANCH   3   5
ENDBRANCH   2   3
ENDBRANCH   1   2
BRANCH   1  73
ATOM     73  C   UNL A   1      34.935  33.438  30.215  1.00  0.00     0.275 C 
BRANCH  73  74
ATOM     74  O   UNL A   1      34.107  32.793  29.235  1.00  0.00    -0.458 OA
BRANCH  74  75
ATOM     75  C   UNL A   1      34.754  32.410  28.104  1.00  0.00     0.338 C 
ATOM     76  O   UNL A   1      35.699  32.961  27.565  1.00  0.00    -0.246 OA
BRANCH  75  77
ATOM     77  C   UNL A   1      34.256  31.089  27.696  1.00  0.00     0.063 A 
ATOM     78  C   UNL A   1      35.070  29.953  27.695  1.00  0.00     0.017 A 
ATOM     79  C   UNL A   1      32.932  31.012  27.265  1.00  0.00     0.056 A 
ATOM     80  C   UNL A   1      34.544  28.734  27.249  1.00  0.00     0.024 A 
ATOM     81  C   UNL A   1      32.449  29.816  26.748  1.00  0.00     0.142 A 
ATOM     82  C   UNL A   1      33.231  28.673  26.757  1.00  0.00     0.103 A 
ATOM     83  F   UNL A   1      31.249  29.843  26.159  1.00  0.00    -0.206 F 
BRANCH  82  84
ATOM     84  S   UNL A   1      32.643  27.139  26.110  1.00  0.00     0.185 S 
ATOM     85  O   UNL A   1      33.833  26.347  25.869  1.00  0.00    -0.223 OA
ATOM     86  O   UNL A   1      31.617  26.681  27.030  1.00  0.00    -0.223 OA
BRANCH  84  87
ATOM     87  C   UNL A   1      31.858  27.386  24.531  1.00  0.00     0.183 C 
BRANCH  87  88
ATOM     88  C   UNL A   1      32.771  27.480  23.362  1.00  0.00     0.027 A 
ATOM     89  C   UNL A   1      33.707  28.494  23.059  1.00  0.00     0.162 A 
ATOM     90  C   UNL A   1      32.884  26.623  22.291  1.00  0.00     0.235 A 
ATOM     91  N   UNL A   1      34.347  28.265  21.911  1.00  0.00    -0.088 NA
ATOM     92  O   UNL A   1      33.827  27.076  21.432  1.00  0.00    -0.364 OA
ENDBRANCH  87  88
ENDBRANCH  84  87
ENDBRANCH  82  84
ENDBRANCH  75  77
ENDBRANCH  74  75
ENDBRANCH  73  74
ENDBRANCH   1  73
TORSDOF 17
ENDMDL
MODEL 3
REMARK VINA RESULT:     -11.2      6.388     12.059
REMARK SMILES O=C(OCCOC(=O)c1ccc(S(=O)(=O)Cc2cnoc2)c(F)c1)c1ccc(-c2c3nc(c(-c4c(F)cc(S(=O)(=O)[O-])cc4F)c4ccc([nH]4)c(-c4c(F)cc(S(=O)(=O)[O-])cc4F)c4nc(c(-c5c(F)cc(S(=O)(=O)[O-])cc5F)c5ccc2[nH]5)C=C4)C=C3)cc1
REMARK SMILES IDX 4 1 3 2 2 3 1 4 25 5 26 6 90 7 27 8 89 9 28 10 29 11 30 12
REMARK SMILES IDX 83 13 31 14 88 15 82 16 84 17 32 18 87 19 81 20 80 21 33 23
REMARK SMILES IDX 67 24 46 25 66 26 47 27 50 28 65 29 85 30 48 31 49 32 64 34
REMARK SMILES IDX 86 35 51 36 34 37 35 38 44 39 36 40 37 41 43 42 45 43 38 44
REMARK SMILES IDX 39 45 40 46 41 47 42 48 68 49 69 50 78 51 70 52 71 53 77 54
REMARK SMILES IDX 79 55 72 56 73 57 74 58 75 59 76 60 52 61 53 62 62 63 54 64
REMARK SMILES IDX 55 65 61 66 63 67 56 68 57 69 58 70 59 71 60 72 5 73 6 74
REMARK SMILES IDX 7 75 8 76 9 77 10 78 24 79 11 80 22 81 12 82 23 83 13 84
REMARK SMILES IDX 14 85 15 86 16 87 17 88 18 89 21 90 19 91 20 92
REMARK H PARENT 84 22 50 33
REMARK Flexibility Score: inf
ROOT
ATOM      1  C   UNL A   1      34.921  32.101  29.531  1.00  0.00     0.275 C 
ENDROOT
BRANCH   1   2
ATOM      2  O   UNL A   1      36.010  31.741  30.399  1.00  0.00    -0.458 OA
BRANCH   2   3
ATOM      3  C   UNL A   1      36.573  30.520  30.567  1.00  0.00     0.338 C 
ATOM      4  O   UNL A   1      36.084  29.747  31.389  1.00  0.00    -0.246 OA
BRANCH   3   5
ATOM      5  C   UNL A   1      37.899  30.157  29.974  1.00  0.00     0.060 A 
ATOM      6  C   UNL A   1      38.171  29.967  28.618  1.00  0.00     0.016 A 
ATOM      7  C   UNL A   1      38.955  29.978  30.888  1.00  0.00     0.016 A 
ATOM      8  C   UNL A   1      39.466  29.679  28.179  1.00  0.00     0.010 A 
ATOM      9  C   UNL A   1      40.256  29.715  30.454  1.00  0.00     0.010 A 
ATOM     10  C   UNL A   1      40.516  29.557  29.091  1.00  0.00    -0.014 A 
BRANCH  10  11
ATOM     11  C   UNL A   1      41.845  29.106  28.621  1.00  0.00     0.031 A 
ATOM     12  C   UNL A   1      42.959  30.108  28.566  1.00  0.00     0.074 A 
ATOM     13  C   UNL A   1      42.060  27.815  28.310  1.00  0.00     0.049 A 
ATOM     14  N   UNL A   1      44.215  29.930  28.260  1.00  0.00    -0.248 NA
ATOM     15  C   UNL A   1      42.615  31.495  28.927  1.00  0.00     0.031 C 
ATOM     16  C   UNL A   1      41.059  26.753  28.381  1.00  0.00     0.029 A 
ATOM     17  N   UNL A   1      43.191  27.177  27.872  1.00  0.00    -0.354 N 
ATOM     18  C   UNL A   1      44.819  31.168  28.430  1.00  0.00     0.074 A 
ATOM     19  C   UNL A   1      43.781  32.107  28.790  1.00  0.00     0.031 C 
ATOM     20  C   UNL A   1      41.608  25.599  27.968  1.00  0.00     0.029 A 
ATOM     21  C   UNL A   1      43.003  25.841  27.608  1.00  0.00     0.049 A 
ATOM     22  H   UNL A   1      44.057  27.631  27.758  1.00  0.00     0.167 HD
ATOM     23  C   UNL A   1      46.130  31.484  28.339  1.00  0.00     0.037 A 
ATOM     24  C   UNL A   1      43.865  24.919  27.135  1.00  0.00     0.037 A 
ATOM     25  C   UNL A   1      47.147  30.550  27.946  1.00  0.00     0.049 A 
ATOM     26  C   UNL A   1      45.296  25.320  26.909  1.00  0.00     0.074 A 
ATOM     27  C   UNL A   1      48.503  30.764  27.790  1.00  0.00     0.029 A 
ATOM     28  N   UNL A   1      46.908  29.219  27.631  1.00  0.00    -0.354 N 
ATOM     29  N   UNL A   1      45.863  26.487  27.109  1.00  0.00    -0.248 NA
ATOM     30  C   UNL A   1      46.212  24.281  26.419  1.00  0.00     0.031 C 
ATOM     31  C   UNL A   1      49.081  29.568  27.347  1.00  0.00     0.029 A 
ATOM     32  C   UNL A   1      48.090  28.600  27.266  1.00  0.00     0.049 A 
ATOM     33  H   UNL A   1      46.028  28.780  27.662  1.00  0.00     0.167 HD
ATOM     34  C   UNL A   1      47.209  26.314  26.810  1.00  0.00     0.074 A 
ATOM     35  C   UNL A   1      47.370  24.932  26.404  1.00  0.00     0.031 C 
ATOM     36  C   UNL A   1      48.221  27.215  26.879  1.00  0.00     0.037 A 
BRANCH  23  37
ATOM     37  C   UNL A   1      46.504  32.899  28.673  1.00  0.00     0.058 A 
ATOM     38  C   UNL A   1      46.523  33.893  27.684  1.00  0.00     0.135 A 
ATOM     39  C   UNL A   1      46.785  33.282  29.996  1.00  0.00     0.135 A 
ATOM     40  F   UNL A   1      46.250  33.584  26.408  1.00  0.00    -0.206 F 
ATOM     41  C   UNL A   1      46.789  35.222  27.998  1.00  0.00     0.059 A 
ATOM     42  C   UNL A   1      47.031  34.608  30.335  1.00  0.00     0.059 A 
ATOM     43  F   UNL A   1      46.746  32.372  30.984  1.00  0.00    -0.206 F 
ATOM     44  C   UNL A   1      47.031  35.572  29.329  1.00  0.00     0.060 A 
BRANCH  44  45
ATOM     45  S   UNL A   1      47.255  37.316  29.739  1.00  0.00     0.124 S 
ATOM     46  O   UNL A   1      46.827  37.970  28.508  1.00  0.00    -0.237 OA
ATOM     47  O   UNL A   1      46.371  37.479  30.889  1.00  0.00    -0.237 OA
ATOM     48  O   UNL A   1      48.681  37.409  30.042  1.00  0.00    -0.744 OA
ENDBRANCH  44  45
ENDBRANCH  23  37
BRANCH  24  49
ATOM     49  C   UNL A   1      43.394  23.528  26.899  1.00  0.00     0.058 A 
ATOM     50  C   UNL A   1      43.201  22.637  27.967  1.00  0.00     0.135 A 
ATOM     51  C   UNL A   1      43.189  23.043  25.600  1.00  0.00     0.135 A 
ATOM     52  F   UNL A   1      43.391  23.049  29.229  1.00  0.00    -0.206 F 
ATOM     53  C   UNL A   1      42.853  21.307  27.753  1.00  0.00     0.059 A 
ATOM     54  C   UNL A   1      42.824  21.720  25.361  1.00  0.00     0.059 A 
ATOM     55  F   UNL A   1      43.353  23.859  24.547  1.00  0.00    -0.206 F 
ATOM     56  C   UNL A   1      42.678  20.854  26.444  1.00  0.00     0.060 A 
BRANCH  56  57
ATOM     57  S   UNL A   1      42.286  19.109  26.185  1.00  0.00     0.124 S 
ATOM     58  O   UNL A   1      42.556  18.551  27.506  1.00  0.00    -0.237 OA
ATOM     59  O   UNL A   1      40.881  19.166  25.793  1.00  0.00    -0.237 OA
ATOM     60  O   UNL A   1      43.214  18.707  25.133  1.00  0.00    -0.744 OA
ENDBRANCH  56  57
ENDBRANCH  24  49
BRANCH  36  61
ATOM     61  C   UNL A   1      49.603  26.734  26.547  1.00  0.00     0.058 A 
ATOM     62  C   UNL A   1      50.093  26.846  25.236  1.00  0.00     0.135 A 
ATOM     63  C   UNL A   1      50.395  26.067  27.493  1.00  0.00     0.135 A 
ATOM     64  F   UNL A   1      49.369  27.474  24.295  1.00  0.00    -0.206 F 
ATOM     65  C   UNL A   1      51.310  26.289  24.866  1.00  0.00     0.059 A 
ATOM     66  C   UNL A   1      51.627  25.519  27.150  1.00  0.00     0.059 A 
ATOM     67  F   UNL A   1      49.973  25.945  28.762  1.00  0.00    -0.206 F 
ATOM     68  C   UNL A   1      52.065  25.616  25.828  1.00  0.00     0.060 A 
BRANCH  68  69
ATOM     69  S   UNL A   1      53.634  24.879  25.329  1.00  0.00     0.124 S 
ATOM     70  O   UNL A   1      53.270  23.473  25.186  1.00  0.00    -0.237 OA
ATOM     71  O   UNL A   1      53.929  25.587  24.086  1.00  0.00    -0.237 OA
ATOM     72  O   UNL A   1      54.524  25.188  26.444  1.00  0.00    -0.744 OA
ENDBRANCH  68  69
ENDBRANCH  36  61
ENDBRANCH  10  11
ENDBRANCH   3   5
ENDBRANCH   2   3
ENDBRANCH   1   2
BRANCH   1  73
ATOM     73  C   UNL A   1      35.218  31.878  28.046  1.00  0.00     0.275 C 
BRANCH  73  74
ATOM     74  O   UNL A   1      34.679  30.645  27.545  1.00  0.00    -0.458 OA
BRANCH  74  75
ATOM     75  C   UNL A   1      33.355  30.681  27.247  1.00  0.00     0.338 C 
ATOM     76  O   UNL A   1      32.645  31.665  27.127  1.00  0.00    -0.246 OA
BRANCH  75  77
ATOM     77  C   UNL A   1      32.908  29.324  26.900  1.00  0.00     0.063 A 
ATOM     78  C   UNL A   1      31.720  28.780  27.394  1.00  0.00     0.017 A 
ATOM     79  C   UNL A   1      33.744  28.570  26.077  1.00  0.00     0.056 A 
ATOM     80  C   UNL A   1      31.378  27.464  27.060  1.00  0.00     0.024 A 
ATOM     81  C   UNL A   1      33.434  27.239  25.822  1.00  0.00     0.142 A 
ATOM     82  C   UNL A   1      32.252  26.686  26.284  1.00  0.00     0.103 A 
ATOM     83  F   UNL A   1      34.362  26.501  25.205  1.00  0.00    -0.206 F 
BRANCH  82  84
ATOM     84  S   UNL A   1      31.829  25.000  25.974  1.00  0.00     0.185 S 
ATOM     85  O   UNL A   1      33.063  24.260  26.146  1.00  0.00    -0.223 OA
ATOM     86  O   UNL A   1      30.669  24.718  26.802  1.00  0.00    -0.223 OA
BRANCH  84  87
ATOM     87  C   UNL A   1      31.328  24.782  24.279  1.00  0.00     0.183 C 
BRANCH  87  88
ATOM     88  C   UNL A   1      30.682  25.958  23.640  1.00  0.00     0.027 A 
ATOM     89  C   UNL A   1      31.211  26.823  22.655  1.00  0.00     0.162 A 
ATOM     90  C   UNL A   1      29.439  26.493  23.888  1.00  0.00     0.235 A 
ATOM     91  N   UNL A   1      30.356  27.792  22.322  1.00  0.00    -0.088 NA
ATOM     92  O   UNL A   1      29.233  27.575  23.101  1.00  0.00    -0.364 OA
ENDBRANCH  87  88
ENDBRANCH  84  87
ENDBRANCH  82  84
ENDBRANCH  75  77
ENDBRANCH  74  75
ENDBRANCH  73  74
ENDBRANCH   1  73
TORSDOF 17
ENDMDL
