MODEL 1
REMARK VINA RESULT:     -12.2      0.000      0.000
REMARK SMILES O=C(Cc1ccn[nH]1)Nc1sc2c(c1C(=O)OCCOC(=O)c1ccc(-c3c4nc(c(-c5c(F)cc(S(=O)(=O)[O-])cc5F)c5ccc([nH]5)c(-c5c(F)cc(S(=O)(=O)[O-])cc5F)c5nc(c(-c6c(F)cc(S(=O)(=O)[O-])cc6F)c6ccc3[nH]6)C=C5)C=C4)cc1)CCC2
REMARK SMILES IDX 18 1 17 2 15 3 16 4 14 5 10 6 11 7 12 8 13 9 91 10 89 11
REMARK SMILES IDX 90 12 9 13 1 14 2 15 3 17 4 18 5 19 8 20 6 21 7 22 19 24
REMARK SMILES IDX 20 25 21 26 22 27 23 28 24 29 88 30 25 31 87 32 26 33 27 34
REMARK SMILES IDX 28 35 81 36 29 37 86 38 80 39 82 40 30 41 85 42 79 43 78 44
REMARK SMILES IDX 31 46 65 47 44 48 64 49 45 50 48 51 63 52 83 53 46 54 47 55
REMARK SMILES IDX 62 57 84 58 49 59 32 60 33 61 42 62 34 63 35 64 41 65 43 66
REMARK SMILES IDX 36 67 37 68 38 69 39 70 40 71 66 72 67 73 76 74 68 75 69 76
REMARK SMILES IDX 75 77 77 78 70 79 71 80 72 81 73 82 74 83 50 84 51 85 60 86
REMARK SMILES IDX 52 87 53 88 59 89 61 90 54 91 55 92 56 93 57 94 58 95
REMARK H PARENT 9 16 8 23 82 45 48 56
REMARK Flexibility Score: inf
ROOT
ATOM      1  C   UNL A   1      32.696  29.557  25.517  1.00  0.00     0.275 C 
ENDROOT
BRANCH   1   2
ATOM      2  O   UNL A   1      31.404  28.940  25.682  1.00  0.00    -0.458 OA
BRANCH   2   3
ATOM      3  C   UNL A   1      31.386  27.660  26.188  1.00  0.00     0.341 C 
ATOM      4  O   UNL A   1      31.350  27.409  27.382  1.00  0.00    -0.246 OA
BRANCH   3   5
ATOM      5  C   UNL A   1      31.510  26.634  25.148  1.00  0.00     0.098 A 
ATOM      6  C   UNL A   1      30.490  26.285  24.264  1.00  0.00     0.110 A 
ATOM      7  S   UNL A   1      30.814  24.887  23.328  1.00  0.00    -0.122 S 
ATOM      8  C   UNL A   1      32.379  24.858  23.914  1.00  0.00     0.011 A 
ATOM      9  C   UNL A   1      32.632  25.793  24.880  1.00  0.00    -0.017 A 
ATOM     10  C   UNL A   1      33.521  23.969  23.604  1.00  0.00     0.047 C 
ATOM     11  C   UNL A   1      34.015  25.648  25.405  1.00  0.00     0.038 C 
ATOM     12  C   UNL A   1      34.674  24.677  24.376  1.00  0.00     0.010 C 
BRANCH   6  13
ATOM     13  N   UNL A   1      29.264  26.866  24.016  1.00  0.00    -0.317 N 
ATOM     14  O   UNL A   1      30.140  28.153  22.307  1.00  0.00    -0.274 OA
ATOM     15  C   UNL A   1      29.212  27.874  23.061  1.00  0.00     0.230 C 
ATOM     16  H   UNL A   1      28.455  26.579  24.498  1.00  0.00     0.170 HD
BRANCH  15  17
ATOM     17  C   UNL A   1      27.869  28.583  22.980  1.00  0.00     0.155 C 
BRANCH  17  18
ATOM     18  C   UNL A   1      28.028  29.970  22.461  1.00  0.00     0.044 A 
ATOM     19  C   UNL A   1      28.344  31.162  23.081  1.00  0.00     0.045 A 
ATOM     20  N   UNL A   1      27.826  30.288  21.140  1.00  0.00    -0.282 N 
ATOM     21  C   UNL A   1      28.335  32.119  22.052  1.00  0.00     0.135 A 
ATOM     22  N   UNL A   1      28.077  31.579  20.863  1.00  0.00    -0.184 NA
ATOM     23  H   UNL A   1      27.528  29.636  20.464  1.00  0.00     0.190 HD
ENDBRANCH  17  18
ENDBRANCH  15  17
ENDBRANCH   6  13
ENDBRANCH   3   5
ENDBRANCH   2   3
ENDBRANCH   1   2
BRANCH   1  24
ATOM     24  C   UNL A   1      33.027  30.582  26.599  1.00  0.00     0.275 C 
BRANCH  24  25
ATOM     25  O   UNL A   1      34.096  30.147  27.434  1.00  0.00    -0.458 OA
BRANCH  25  26
ATOM     26  C   UNL A   1      34.945  31.145  27.766  1.00  0.00     0.338 C 
ATOM     27  O   UNL A   1      34.850  32.318  27.437  1.00  0.00    -0.246 OA
BRANCH  26  28
ATOM     28  C   UNL A   1      36.098  30.618  28.491  1.00  0.00     0.060 A 
ATOM     29  C   UNL A   1      36.965  31.567  29.036  1.00  0.00     0.016 A 
ATOM     30  C   UNL A   1      36.434  29.260  28.424  1.00  0.00     0.016 A 
ATOM     31  C   UNL A   1      38.230  31.190  29.411  1.00  0.00     0.010 A 
ATOM     32  C   UNL A   1      37.713  28.883  28.769  1.00  0.00     0.010 A 
ATOM     33  C   UNL A   1      38.610  29.870  29.189  1.00  0.00    -0.014 A 
BRANCH  33  34
ATOM     34  C   UNL A   1      40.001  29.539  29.412  1.00  0.00     0.031 A 
ATOM     35  C   UNL A   1      40.352  29.410  30.848  1.00  0.00     0.074 A 
ATOM     36  C   UNL A   1      40.799  29.297  28.352  1.00  0.00     0.049 A 
ATOM     37  N   UNL A   1      41.227  30.082  31.521  1.00  0.00    -0.248 NA
ATOM     38  C   UNL A   1      39.489  28.558  31.688  1.00  0.00     0.031 C 
ATOM     39  C   UNL A   1      40.407  29.219  26.940  1.00  0.00     0.029 A 
ATOM     40  N   UNL A   1      42.100  28.907  28.329  1.00  0.00    -0.354 N 
ATOM     41  C   UNL A   1      41.202  29.543  32.805  1.00  0.00     0.074 A 
ATOM     42  C   UNL A   1      39.985  28.786  32.904  1.00  0.00     0.031 C 
ATOM     43  C   UNL A   1      41.361  28.555  26.251  1.00  0.00     0.029 A 
ATOM     44  C   UNL A   1      42.464  28.263  27.143  1.00  0.00     0.049 A 
ATOM     45  H   UNL A   1      42.726  29.063  29.073  1.00  0.00     0.167 HD
ATOM     46  C   UNL A   1      42.324  29.513  33.575  1.00  0.00     0.037 A 
ATOM     47  C   UNL A   1      43.520  27.414  27.022  1.00  0.00     0.037 A 
ATOM     48  C   UNL A   1      43.275  30.507  33.145  1.00  0.00     0.049 A 
ATOM     49  C   UNL A   1      44.441  27.730  28.157  1.00  0.00     0.074 A 
ATOM     50  C   UNL A   1      43.219  31.879  32.983  1.00  0.00     0.029 A 
ATOM     51  N   UNL A   1      44.368  30.091  32.421  1.00  0.00    -0.354 N 
ATOM     52  N   UNL A   1      45.070  28.873  28.275  1.00  0.00    -0.248 NA
ATOM     53  C   UNL A   1      44.238  27.001  29.404  1.00  0.00     0.031 C 
ATOM     54  C   UNL A   1      43.940  32.135  31.780  1.00  0.00     0.029 A 
ATOM     55  C   UNL A   1      44.468  30.924  31.333  1.00  0.00     0.049 A 
ATOM     56  H   UNL A   1      44.964  29.339  32.639  1.00  0.00     0.167 HD
ATOM     57  C   UNL A   1      44.960  29.202  29.620  1.00  0.00     0.074 A 
ATOM     58  C   UNL A   1      44.475  27.987  30.274  1.00  0.00     0.031 C 
ATOM     59  C   UNL A   1      44.983  30.499  30.053  1.00  0.00     0.037 A 
BRANCH  46  60
ATOM     60  C   UNL A   1      42.706  28.331  34.437  1.00  0.00     0.058 A 
ATOM     61  C   UNL A   1      42.967  28.531  35.807  1.00  0.00     0.135 A 
ATOM     62  C   UNL A   1      43.101  27.071  33.925  1.00  0.00     0.135 A 
ATOM     63  F   UNL A   1      42.648  29.691  36.402  1.00  0.00    -0.206 F 
ATOM     64  C   UNL A   1      43.637  27.586  36.587  1.00  0.00     0.059 A 
ATOM     65  C   UNL A   1      43.718  26.096  34.696  1.00  0.00     0.059 A 
ATOM     66  F   UNL A   1      43.000  26.751  32.630  1.00  0.00    -0.206 F 
ATOM     67  C   UNL A   1      44.021  26.376  36.015  1.00  0.00     0.060 A 
BRANCH  67  68
ATOM     68  S   UNL A   1      44.968  25.193  36.985  1.00  0.00     0.124 S 
ATOM     69  O   UNL A   1      44.516  23.926  36.421  1.00  0.00    -0.237 OA
ATOM     70  O   UNL A   1      46.341  25.580  36.674  1.00  0.00    -0.237 OA
ATOM     71  O   UNL A   1      44.542  25.463  38.354  1.00  0.00    -0.744 OA
ENDBRANCH  67  68
ENDBRANCH  46  60
BRANCH  47  72
ATOM     72  C   UNL A   1      43.523  26.102  26.308  1.00  0.00     0.058 A 
ATOM     73  C   UNL A   1      44.500  25.799  25.341  1.00  0.00     0.135 A 
ATOM     74  C   UNL A   1      42.732  25.015  26.739  1.00  0.00     0.135 A 
ATOM     75  F   UNL A   1      45.312  26.762  24.881  1.00  0.00    -0.206 F 
ATOM     76  C   UNL A   1      44.711  24.494  24.872  1.00  0.00     0.059 A 
ATOM     77  C   UNL A   1      42.912  23.714  26.277  1.00  0.00     0.059 A 
ATOM     78  F   UNL A   1      41.811  25.157  27.703  1.00  0.00    -0.206 F 
ATOM     79  C   UNL A   1      43.923  23.452  25.365  1.00  0.00     0.060 A 
BRANCH  79  80
ATOM     80  S   UNL A   1      44.303  21.740  24.918  1.00  0.00     0.124 S 
ATOM     81  O   UNL A   1      43.108  21.036  25.372  1.00  0.00    -0.237 OA
ATOM     82  O   UNL A   1      44.481  21.831  23.474  1.00  0.00    -0.237 OA
ATOM     83  O   UNL A   1      45.519  21.455  25.676  1.00  0.00    -0.744 OA
ENDBRANCH  79  80
ENDBRANCH  47  72
BRANCH  59  84
ATOM     84  C   UNL A   1      45.361  31.589  29.083  1.00  0.00     0.058 A 
ATOM     85  C   UNL A   1      46.679  31.994  28.809  1.00  0.00     0.135 A 
ATOM     86  C   UNL A   1      44.347  32.125  28.274  1.00  0.00     0.135 A 
ATOM     87  F   UNL A   1      47.717  31.441  29.453  1.00  0.00    -0.206 F 
ATOM     88  C   UNL A   1      46.969  32.931  27.812  1.00  0.00     0.059 A 
ATOM     89  C   UNL A   1      44.615  33.033  27.255  1.00  0.00     0.059 A 
ATOM     90  F   UNL A   1      43.074  31.728  28.438  1.00  0.00    -0.206 F 
ATOM     91  C   UNL A   1      45.927  33.448  27.042  1.00  0.00     0.060 A 
BRANCH  91  92
ATOM     92  S   UNL A   1      46.298  34.637  25.734  1.00  0.00     0.124 S 
ATOM     93  O   UNL A   1      47.691  34.327  25.426  1.00  0.00    -0.237 OA
ATOM     94  O   UNL A   1      45.327  34.289  24.701  1.00  0.00    -0.237 OA
ATOM     95  O   UNL A   1      46.076  35.932  26.375  1.00  0.00    -0.744 OA
ENDBRANCH  91  92
ENDBRANCH  59  84
ENDBRANCH  33  34
ENDBRANCH  26  28
ENDBRANCH  25  26
ENDBRANCH  24  25
ENDBRANCH   1  24
TORSDOF 17
ENDMDL
MODEL 2
REMARK VINA RESULT:     -11.9      4.018      5.870
REMARK SMILES O=C(Cc1ccn[nH]1)Nc1sc2c(c1C(=O)OCCOC(=O)c1ccc(-c3c4nc(c(-c5c(F)cc(S(=O)(=O)[O-])cc5F)c5ccc([nH]5)c(-c5c(F)cc(S(=O)(=O)[O-])cc5F)c5nc(c(-c6c(F)cc(S(=O)(=O)[O-])cc6F)c6ccc3[nH]6)C=C5)C=C4)cc1)CCC2
REMARK SMILES IDX 18 1 17 2 15 3 16 4 14 5 10 6 11 7 12 8 13 9 91 10 89 11
REMARK SMILES IDX 90 12 9 13 1 14 2 15 3 17 4 18 5 19 8 20 6 21 7 22 19 24
REMARK SMILES IDX 20 25 21 26 22 27 23 28 24 29 88 30 25 31 87 32 26 33 27 34
REMARK SMILES IDX 28 35 81 36 29 37 86 38 80 39 82 40 30 41 85 42 79 43 78 44
REMARK SMILES IDX 31 46 65 47 44 48 64 49 45 50 48 51 63 52 83 53 46 54 47 55
REMARK SMILES IDX 62 57 84 58 49 59 32 60 33 61 42 62 34 63 35 64 41 65 43 66
REMARK SMILES IDX 36 67 37 68 38 69 39 70 40 71 66 72 67 73 76 74 68 75 69 76
REMARK SMILES IDX 75 77 77 78 70 79 71 80 72 81 73 82 74 83 50 84 51 85 60 86
REMARK SMILES IDX 52 87 53 88 59 89 61 90 54 91 55 92 56 93 57 94 58 95
REMARK H PARENT 9 16 8 23 82 45 48 56
REMARK Flexibility Score: inf
ROOT
ATOM      1  C   UNL A   1      36.201  34.197  29.063  1.00  0.00     0.275 C 
ENDROOT
BRANCH   1   2
ATOM      2  O   UNL A   1      36.039  33.952  30.474  1.00  0.00    -0.458 OA
BRANCH   2   3
ATOM      3  C   UNL A   1      37.138  34.168  31.273  1.00  0.00     0.341 C 
ATOM      4  O   UNL A   1      38.223  34.524  30.843  1.00  0.00    -0.246 OA
BRANCH   3   5
ATOM      5  C   UNL A   1      36.894  33.834  32.680  1.00  0.00     0.098 A 
ATOM      6  C   UNL A   1      35.962  34.482  33.490  1.00  0.00     0.110 A 
ATOM      7  S   UNL A   1      36.063  34.071  35.151  1.00  0.00    -0.122 S 
ATOM      8  C   UNL A   1      37.178  32.880  34.788  1.00  0.00     0.011 A 
ATOM      9  C   UNL A   1      37.566  32.858  33.476  1.00  0.00    -0.017 A 
ATOM     10  C   UNL A   1      37.849  31.878  35.645  1.00  0.00     0.047 C 
ATOM     11  C   UNL A   1      38.615  31.829  33.254  1.00  0.00     0.038 C 
ATOM     12  C   UNL A   1      38.575  31.004  34.578  1.00  0.00     0.010 C 
BRANCH   6  13
ATOM     13  N   UNL A   1      34.978  35.400  33.188  1.00  0.00    -0.317 N 
ATOM     14  O   UNL A   1      33.388  33.734  32.985  1.00  0.00    -0.274 OA
ATOM     15  C   UNL A   1      33.722  34.909  32.855  1.00  0.00     0.230 C 
ATOM     16  H   UNL A   1      35.158  36.368  33.207  1.00  0.00     0.170 HD
BRANCH  15  17
ATOM     17  C   UNL A   1      32.751  35.971  32.362  1.00  0.00     0.155 C 
BRANCH  17  18
ATOM     18  C   UNL A   1      32.962  36.256  30.914  1.00  0.00     0.044 A 
ATOM     19  C   UNL A   1      32.874  35.461  29.791  1.00  0.00     0.045 A 
ATOM     20  N   UNL A   1      33.346  37.493  30.458  1.00  0.00    -0.282 N 
ATOM     21  C   UNL A   1      33.193  36.312  28.719  1.00  0.00     0.135 A 
ATOM     22  N   UNL A   1      33.424  37.561  29.118  1.00  0.00    -0.184 NA
ATOM     23  H   UNL A   1      33.545  38.253  31.052  1.00  0.00     0.190 HD
ENDBRANCH  17  18
ENDBRANCH  15  17
ENDBRANCH   6  13
ENDBRANCH   3   5
ENDBRANCH   2   3
ENDBRANCH   1   2
BRANCH   1  24
ATOM     24  C   UNL A   1      35.363  33.274  28.181  1.00  0.00     0.275 C 
BRANCH  24  25
ATOM     25  O   UNL A   1      34.804  32.193  28.922  1.00  0.00    -0.458 OA
BRANCH  25  26
ATOM     26  C   UNL A   1      34.852  31.018  28.256  1.00  0.00     0.338 C 
ATOM     27  O   UNL A   1      34.010  30.590  27.481  1.00  0.00    -0.246 OA
BRANCH  26  28
ATOM     28  C   UNL A   1      36.010  30.235  28.677  1.00  0.00     0.060 A 
ATOM     29  C   UNL A   1      36.626  30.642  29.862  1.00  0.00     0.016 A 
ATOM     30  C   UNL A   1      36.602  29.302  27.816  1.00  0.00     0.016 A 
ATOM     31  C   UNL A   1      37.899  30.212  30.143  1.00  0.00     0.010 A 
ATOM     32  C   UNL A   1      37.890  28.893  28.079  1.00  0.00     0.010 A 
ATOM     33  C   UNL A   1      38.541  29.413  29.201  1.00  0.00    -0.014 A 
BRANCH  33  34
ATOM     34  C   UNL A   1      39.942  29.129  29.425  1.00  0.00     0.031 A 
ATOM     35  C   UNL A   1      40.294  29.003  30.861  1.00  0.00     0.074 A 
ATOM     36  C   UNL A   1      40.750  28.921  28.366  1.00  0.00     0.049 A 
ATOM     37  N   UNL A   1      41.145  29.701  31.540  1.00  0.00    -0.248 NA
ATOM     38  C   UNL A   1      39.460  28.118  31.695  1.00  0.00     0.031 C 
ATOM     39  C   UNL A   1      40.363  28.837  26.952  1.00  0.00     0.029 A 
ATOM     40  N   UNL A   1      42.064  28.576  28.343  1.00  0.00    -0.354 N 
ATOM     41  C   UNL A   1      41.136  29.153  32.821  1.00  0.00     0.074 A 
ATOM     42  C   UNL A   1      39.945  28.355  32.913  1.00  0.00     0.031 C 
ATOM     43  C   UNL A   1      41.340  28.211  26.261  1.00  0.00     0.029 A 
ATOM     44  C   UNL A   1      42.451  27.951  27.154  1.00  0.00     0.049 A 
ATOM     45  H   UNL A   1      42.682  28.749  29.089  1.00  0.00     0.167 HD
ATOM     46  C   UNL A   1      42.257  29.158  33.593  1.00  0.00     0.037 A 
ATOM     47  C   UNL A   1      43.536  27.139  27.030  1.00  0.00     0.037 A 
ATOM     48  C   UNL A   1      43.174  30.186  33.170  1.00  0.00     0.049 A 
ATOM     49  C   UNL A   1      44.444  27.480  28.168  1.00  0.00     0.074 A 
ATOM     50  C   UNL A   1      43.071  31.556  33.016  1.00  0.00     0.029 A 
ATOM     51  N   UNL A   1      44.282  29.812  32.446  1.00  0.00    -0.354 N 
ATOM     52  N   UNL A   1      45.033  28.643  28.295  1.00  0.00    -0.248 NA
ATOM     53  C   UNL A   1      44.264  26.737  29.411  1.00  0.00     0.031 C 
ATOM     54  C   UNL A   1      43.785  31.844  31.817  1.00  0.00     0.029 A 
ATOM     55  C   UNL A   1      44.355  30.654  31.364  1.00  0.00     0.049 A 
ATOM     56  H   UNL A   1      44.903  29.080  32.662  1.00  0.00     0.167 HD
ATOM     57  C   UNL A   1      44.909  28.960  29.642  1.00  0.00     0.074 A 
ATOM     58  C   UNL A   1      44.464  27.726  30.288  1.00  0.00     0.031 C 
ATOM     59  C   UNL A   1      44.887  30.255  30.082  1.00  0.00     0.037 A 
BRANCH  46  60
ATOM     60  C   UNL A   1      42.678  27.984  34.449  1.00  0.00     0.058 A 
ATOM     61  C   UNL A   1      42.864  28.171  35.833  1.00  0.00     0.135 A 
ATOM     62  C   UNL A   1      43.178  26.765  33.931  1.00  0.00     0.135 A 
ATOM     63  F   UNL A   1      42.441  29.294  36.434  1.00  0.00    -0.206 F 
ATOM     64  C   UNL A   1      43.559  27.254  36.624  1.00  0.00     0.059 A 
ATOM     65  C   UNL A   1      43.823  25.815  34.711  1.00  0.00     0.059 A 
ATOM     66  F   UNL A   1      43.156  26.468  32.627  1.00  0.00    -0.206 F 
ATOM     67  C   UNL A   1      44.047  26.085  36.048  1.00  0.00     0.060 A 
BRANCH  67  68
ATOM     68  S   UNL A   1      45.027  24.945  37.037  1.00  0.00     0.124 S 
ATOM     69  O   UNL A   1      46.371  25.480  36.852  1.00  0.00    -0.237 OA
ATOM     70  O   UNL A   1      44.444  25.120  38.364  1.00  0.00    -0.237 OA
ATOM     71  O   UNL A   1      44.769  23.651  36.412  1.00  0.00    -0.744 OA
ENDBRANCH  67  68
ENDBRANCH  46  60
BRANCH  47  72
ATOM     72  C   UNL A   1      43.585  25.833  26.309  1.00  0.00     0.058 A 
ATOM     73  C   UNL A   1      44.535  25.591  25.298  1.00  0.00     0.135 A 
ATOM     74  C   UNL A   1      42.879  24.699  26.767  1.00  0.00     0.135 A 
ATOM     75  F   UNL A   1      45.268  26.603  24.810  1.00  0.00    -0.206 F 
ATOM     76  C   UNL A   1      44.802  24.303  24.813  1.00  0.00     0.059 A 
ATOM     77  C   UNL A   1      43.115  23.413  26.289  1.00  0.00     0.059 A 
ATOM     78  F   UNL A   1      41.994  24.783  27.770  1.00  0.00    -0.206 F 
ATOM     79  C   UNL A   1      44.099  23.215  25.332  1.00  0.00     0.060 A 
BRANCH  79  80
ATOM     80  S   UNL A   1      44.559  21.530  24.859  1.00  0.00     0.124 S 
ATOM     81  O   UNL A   1      45.808  21.340  25.589  1.00  0.00    -0.237 OA
ATOM     82  O   UNL A   1      43.418  20.755  25.331  1.00  0.00    -0.237 OA
ATOM     83  O   UNL A   1      44.694  21.612  23.406  1.00  0.00    -0.744 OA
ENDBRANCH  79  80
ENDBRANCH  47  72
BRANCH  59  84
ATOM     84  C   UNL A   1      45.229  31.363  29.119  1.00  0.00     0.058 A 
ATOM     85  C   UNL A   1      46.536  31.760  28.788  1.00  0.00     0.135 A 
ATOM     86  C   UNL A   1      44.183  31.928  28.374  1.00  0.00     0.135 A 
ATOM     87  F   UNL A   1      47.598  31.182  29.368  1.00  0.00    -0.206 F 
ATOM     88  C   UNL A   1      46.787  32.717  27.800  1.00  0.00     0.059 A 
ATOM     89  C   UNL A   1      44.410  32.857  27.364  1.00  0.00     0.059 A 
ATOM     90  F   UNL A   1      42.914  31.541  28.592  1.00  0.00    -0.206 F 
ATOM     91  C   UNL A   1      45.715  33.263  27.095  1.00  0.00     0.060 A 
BRANCH  91  92
ATOM     92  S   UNL A   1      46.034  34.477  25.797  1.00  0.00     0.124 S 
ATOM     93  O   UNL A   1      45.167  34.010  24.720  1.00  0.00    -0.237 OA
ATOM     94  O   UNL A   1      45.639  35.732  26.430  1.00  0.00    -0.237 OA
ATOM     95  O   UNL A   1      47.467  34.340  25.545  1.00  0.00    -0.744 OA
ENDBRANCH  91  92
ENDBRANCH  59  84
ENDBRANCH  33  34
ENDBRANCH  26  28
ENDBRANCH  25  26
ENDBRANCH  24  25
ENDBRANCH   1  24
TORSDOF 17
ENDMDL
MODEL 3
REMARK VINA RESULT:     -11.9      3.816      9.692
REMARK SMILES O=C(Cc1ccn[nH]1)Nc1sc2c(c1C(=O)OCCOC(=O)c1ccc(-c3c4nc(c(-c5c(F)cc(S(=O)(=O)[O-])cc5F)c5ccc([nH]5)c(-c5c(F)cc(S(=O)(=O)[O-])cc5F)c5nc(c(-c6c(F)cc(S(=O)(=O)[O-])cc6F)c6ccc3[nH]6)C=C5)C=C4)cc1)CCC2
REMARK SMILES IDX 18 1 17 2 15 3 16 4 14 5 10 6 11 7 12 8 13 9 91 10 89 11
REMARK SMILES IDX 90 12 9 13 1 14 2 15 3 17 4 18 5 19 8 20 6 21 7 22 19 24
REMARK SMILES IDX 20 25 21 26 22 27 23 28 24 29 88 30 25 31 87 32 26 33 27 34
REMARK SMILES IDX 28 35 81 36 29 37 86 38 80 39 82 40 30 41 85 42 79 43 78 44
REMARK SMILES IDX 31 46 65 47 44 48 64 49 45 50 48 51 63 52 83 53 46 54 47 55
REMARK SMILES IDX 62 57 84 58 49 59 32 60 33 61 42 62 34 63 35 64 41 65 43 66
REMARK SMILES IDX 36 67 37 68 38 69 39 70 40 71 66 72 67 73 76 74 68 75 69 76
REMARK SMILES IDX 75 77 77 78 70 79 71 80 72 81 73 82 74 83 50 84 51 85 60 86
REMARK SMILES IDX 52 87 53 88 59 89 61 90 54 91 55 92 56 93 57 94 58 95
REMARK H PARENT 9 16 8 23 82 45 48 56
REMARK Flexibility Score: inf
ROOT
ATOM      1  C   UNL A   1      37.083  22.109  24.187  1.00  0.00     0.275 C 
ENDROOT
BRANCH   1   2
ATOM      2  O   UNL A   1      35.676  22.028  24.492  1.00  0.00    -0.458 OA
BRANCH   2   3
ATOM      3  C   UNL A   1      34.880  23.052  24.032  1.00  0.00     0.341 C 
ATOM      4  O   UNL A   1      35.014  23.567  22.934  1.00  0.00    -0.246 OA
BRANCH   3   5
ATOM      5  C   UNL A   1      33.918  23.520  25.036  1.00  0.00     0.098 A 
ATOM      6  C   UNL A   1      33.183  22.679  25.870  1.00  0.00     0.110 A 
ATOM      7  S   UNL A   1      31.952  23.470  26.761  1.00  0.00    -0.122 S 
ATOM      8  C   UNL A   1      32.516  24.950  26.227  1.00  0.00     0.011 A 
ATOM      9  C   UNL A   1      33.525  24.865  25.308  1.00  0.00    -0.017 A 
ATOM     10  C   UNL A   1      32.084  26.330  26.541  1.00  0.00     0.047 C 
ATOM     11  C   UNL A   1      33.913  26.215  24.824  1.00  0.00     0.038 C 
ATOM     12  C   UNL A   1      33.196  27.163  25.836  1.00  0.00     0.010 C 
BRANCH   6  13
ATOM     13  N   UNL A   1      33.272  21.322  26.099  1.00  0.00    -0.317 N 
ATOM     14  O   UNL A   1      32.099  20.847  24.165  1.00  0.00    -0.274 OA
ATOM     15  C   UNL A   1      32.606  20.477  25.221  1.00  0.00     0.230 C 
ATOM     16  H   UNL A   1      33.788  20.965  26.858  1.00  0.00     0.170 HD
BRANCH  15  17
ATOM     17  C   UNL A   1      32.604  19.017  25.646  1.00  0.00     0.155 C 
BRANCH  17  18
ATOM     18  C   UNL A   1      33.090  18.139  24.544  1.00  0.00     0.044 A 
ATOM     19  C   UNL A   1      34.161  17.275  24.451  1.00  0.00     0.045 A 
ATOM     20  N   UNL A   1      32.474  18.092  23.317  1.00  0.00    -0.282 N 
ATOM     21  C   UNL A   1      34.086  16.743  23.152  1.00  0.00     0.135 A 
ATOM     22  N   UNL A   1      33.028  17.196  22.483  1.00  0.00    -0.184 NA
ATOM     23  H   UNL A   1      31.706  18.657  23.073  1.00  0.00     0.190 HD
ENDBRANCH  17  18
ENDBRANCH  15  17
ENDBRANCH   6  13
ENDBRANCH   3   5
ENDBRANCH   2   3
ENDBRANCH   1   2
BRANCH   1  24
ATOM     24  C   UNL A   1      37.985  21.670  25.338  1.00  0.00     0.275 C 
BRANCH  24  25
ATOM     25  O   UNL A   1      38.258  22.740  26.238  1.00  0.00    -0.458 OA
BRANCH  25  26
ATOM     26  C   UNL A   1      39.510  22.697  26.745  1.00  0.00     0.338 C 
ATOM     27  O   UNL A   1      40.137  21.691  27.043  1.00  0.00    -0.246 OA
BRANCH  26  28
ATOM     28  C   UNL A   1      40.001  24.045  27.018  1.00  0.00     0.060 A 
ATOM     29  C   UNL A   1      41.283  24.131  27.563  1.00  0.00     0.016 A 
ATOM     30  C   UNL A   1      39.142  25.150  26.966  1.00  0.00     0.016 A 
ATOM     31  C   UNL A   1      41.680  25.294  28.173  1.00  0.00     0.010 A 
ATOM     32  C   UNL A   1      39.525  26.308  27.605  1.00  0.00     0.010 A 
ATOM     33  C   UNL A   1      40.759  26.333  28.260  1.00  0.00    -0.014 A 
BRANCH  33  34
ATOM     34  C   UNL A   1      41.128  27.474  29.070  1.00  0.00     0.031 A 
ATOM     35  C   UNL A   1      42.239  28.270  28.493  1.00  0.00     0.074 A 
ATOM     36  C   UNL A   1      40.410  27.757  30.175  1.00  0.00     0.049 A 
ATOM     37  N   UNL A   1      43.393  28.530  29.016  1.00  0.00    -0.248 NA
ATOM     38  C   UNL A   1      42.130  28.670  27.077  1.00  0.00     0.031 C 
ATOM     39  C   UNL A   1      39.182  27.096  30.636  1.00  0.00     0.029 A 
ATOM     40  N   UNL A   1      40.532  28.803  31.034  1.00  0.00    -0.354 N 
ATOM     41  C   UNL A   1      44.041  29.351  28.096  1.00  0.00     0.074 A 
ATOM     42  C   UNL A   1      43.325  29.216  26.857  1.00  0.00     0.031 C 
ATOM     43  C   UNL A   1      38.541  27.907  31.505  1.00  0.00     0.029 A 
ATOM     44  C   UNL A   1      39.358  29.080  31.740  1.00  0.00     0.049 A 
ATOM     45  H   UNL A   1      41.365  29.316  31.148  1.00  0.00     0.167 HD
ATOM     46  C   UNL A   1      44.925  30.301  28.505  1.00  0.00     0.037 A 
ATOM     47  C   UNL A   1      39.067  30.282  32.307  1.00  0.00     0.037 A 
ATOM     48  C   UNL A   1      45.454  29.990  29.809  1.00  0.00     0.049 A 
ATOM     49  C   UNL A   1      40.373  30.987  32.484  1.00  0.00     0.074 A 
ATOM     50  C   UNL A   1      46.122  28.901  30.337  1.00  0.00     0.029 A 
ATOM     51  N   UNL A   1      44.971  30.691  30.890  1.00  0.00    -0.354 N 
ATOM     52  N   UNL A   1      41.314  30.566  33.293  1.00  0.00    -0.248 NA
ATOM     53  C   UNL A   1      40.832  31.828  31.383  1.00  0.00     0.031 C 
ATOM     54  C   UNL A   1      45.566  28.727  31.638  1.00  0.00     0.029 A 
ATOM     55  C   UNL A   1      44.665  29.768  31.860  1.00  0.00     0.049 A 
ATOM     56  H   UNL A   1      44.863  31.667  30.955  1.00  0.00     0.167 HD
ATOM     57  C   UNL A   1      42.495  30.725  32.579  1.00  0.00     0.074 A 
ATOM     58  C   UNL A   1      42.138  31.549  31.424  1.00  0.00     0.031 C 
ATOM     59  C   UNL A   1      43.591  29.942  32.810  1.00  0.00     0.037 A 
BRANCH  46  60
ATOM     60  C   UNL A   1      44.991  31.686  27.901  1.00  0.00     0.058 A 
ATOM     61  C   UNL A   1      46.190  32.122  27.303  1.00  0.00     0.135 A 
ATOM     62  C   UNL A   1      44.029  32.698  28.134  1.00  0.00     0.135 A 
ATOM     63  F   UNL A   1      47.180  31.254  27.044  1.00  0.00    -0.206 F 
ATOM     64  C   UNL A   1      46.443  33.467  27.029  1.00  0.00     0.059 A 
ATOM     65  C   UNL A   1      44.240  34.034  27.818  1.00  0.00     0.059 A 
ATOM     66  F   UNL A   1      42.874  32.469  28.766  1.00  0.00    -0.206 F 
ATOM     67  C   UNL A   1      45.464  34.417  27.305  1.00  0.00     0.060 A 
BRANCH  67  68
ATOM     68  S   UNL A   1      45.817  36.163  27.046  1.00  0.00     0.124 S 
ATOM     69  O   UNL A   1      44.473  36.723  26.973  1.00  0.00    -0.237 OA
ATOM     70  O   UNL A   1      46.587  36.494  28.241  1.00  0.00    -0.237 OA
ATOM     71  O   UNL A   1      46.574  36.170  25.798  1.00  0.00    -0.744 OA
ENDBRANCH  67  68
ENDBRANCH  46  60
BRANCH  47  72
ATOM     72  C   UNL A   1      37.756  30.994  32.246  1.00  0.00     0.058 A 
ATOM     73  C   UNL A   1      37.138  31.489  33.409  1.00  0.00     0.135 A 
ATOM     74  C   UNL A   1      37.202  31.437  31.025  1.00  0.00     0.135 A 
ATOM     75  F   UNL A   1      37.603  31.138  34.618  1.00  0.00    -0.206 F 
ATOM     76  C   UNL A   1      36.076  32.404  33.363  1.00  0.00     0.059 A 
ATOM     77  C   UNL A   1      36.138  32.332  30.953  1.00  0.00     0.059 A 
ATOM     78  F   UNL A   1      37.738  31.090  29.845  1.00  0.00    -0.206 F 
ATOM     79  C   UNL A   1      35.596  32.837  32.126  1.00  0.00     0.060 A 
BRANCH  79  80
ATOM     80  S   UNL A   1      34.360  34.155  32.045  1.00  0.00     0.124 S 
ATOM     81  O   UNL A   1      35.147  35.332  32.401  1.00  0.00    -0.237 OA
ATOM     82  O   UNL A   1      33.918  34.078  30.657  1.00  0.00    -0.237 OA
ATOM     83  O   UNL A   1      33.366  33.749  33.036  1.00  0.00    -0.744 OA
ENDBRANCH  79  80
ENDBRANCH  47  72
BRANCH  59  84
ATOM     84  C   UNL A   1      43.605  29.037  34.015  1.00  0.00     0.058 A 
ATOM     85  C   UNL A   1      43.949  29.442  35.317  1.00  0.00     0.135 A 
ATOM     86  C   UNL A   1      43.080  27.743  33.868  1.00  0.00     0.135 A 
ATOM     87  F   UNL A   1      44.345  30.699  35.564  1.00  0.00    -0.206 F 
ATOM     88  C   UNL A   1      43.830  28.581  36.412  1.00  0.00     0.059 A 
ATOM     89  C   UNL A   1      42.921  26.881  34.948  1.00  0.00     0.059 A 
ATOM     90  F   UNL A   1      42.667  27.318  32.662  1.00  0.00    -0.206 F 
ATOM     91  C   UNL A   1      43.317  27.299  36.216  1.00  0.00     0.060 A 
BRANCH  91  92
ATOM     92  S   UNL A   1      43.132  26.193  37.631  1.00  0.00     0.124 S 
ATOM     93  O   UNL A   1      43.627  24.928  37.097  1.00  0.00    -0.237 OA
ATOM     94  O   UNL A   1      43.972  26.826  38.643  1.00  0.00    -0.237 OA
ATOM     95  O   UNL A   1      41.698  26.230  37.910  1.00  0.00    -0.744 OA
ENDBRANCH  91  92
ENDBRANCH  59  84
ENDBRANCH  33  34
ENDBRANCH  26  28
ENDBRANCH  25  26
ENDBRANCH  24  25
ENDBRANCH   1  24
TORSDOF 17
ENDMDL
