MODEL 1
REMARK VINA RESULT:     -11.8      0.000      0.000
REMARK SMILES Cc1onc(-c2ccccc2)c1C(=O)N1CCC[C@@H]1C(=O)OCCOC(=O)c1ccc(-c2c3nc(c(-c4c(F)cc(S(=O)(=O)[O-])cc4F)c4ccc([nH]4)c(-c4c(F)cc(S(=O)(=O)[O-])cc4F)c4nc(c(-c5c(F)cc(S(=O)(=O)[O-])cc5F)c5ccc2[nH]5)C=C4)C=C3)cc1
REMARK SMILES IDX 23 1 22 2 20 3 21 4 19 5 15 6 16 7 17 8 18 9 13 10 14 11
REMARK SMILES IDX 12 12 1 13 2 14 3 15 4 16 5 17 6 18 7 19 11 20 8 21 10 22
REMARK SMILES IDX 9 23 24 24 25 25 26 26 27 27 28 28 29 29 93 30 30 31 92 32
REMARK SMILES IDX 31 33 32 34 33 35 86 36 34 37 91 38 85 39 87 40 35 41 90 42
REMARK SMILES IDX 84 43 83 44 36 46 70 47 49 48 69 49 50 50 53 51 68 52 88 53
REMARK SMILES IDX 51 54 52 55 67 57 89 58 54 59 37 60 38 61 47 62 39 63 40 64
REMARK SMILES IDX 46 65 48 66 41 67 42 68 43 69 44 70 45 71 71 72 72 73 81 74
REMARK SMILES IDX 73 75 74 76 80 77 82 78 75 79 76 80 77 81 78 82 79 83 55 84
REMARK SMILES IDX 56 85 65 86 57 87 58 88 64 89 66 90 59 91 60 92 61 93 62 94
REMARK SMILES IDX 63 95
REMARK H PARENT 87 45 53 56
REMARK Flexibility Score: inf
ROOT
ATOM      1  C   UNL A   1      33.619  29.787  26.526  1.00  0.00     0.274 C 
ENDROOT
BRANCH   1   2
ATOM      2  O   UNL A   1      32.309  29.213  26.697  1.00  0.00    -0.461 OA
BRANCH   2   3
ATOM      3  C   UNL A   1      32.189  27.924  26.285  1.00  0.00     0.328 C 
ATOM      4  O   UNL A   1      31.570  27.062  26.899  1.00  0.00    -0.250 OA
BRANCH   3   5
ATOM      5  C   UNL A   1      33.006  27.602  25.032  1.00  0.00     0.195 C 
ATOM      6  N   UNL A   1      32.142  27.250  23.916  1.00  0.00    -0.325 N 
ATOM      7  C   UNL A   1      32.913  26.449  22.994  1.00  0.00     0.121 C 
ATOM      8  C   UNL A   1      33.738  25.572  23.915  1.00  0.00     0.024 C 
ATOM      9  C   UNL A   1      34.037  26.472  25.117  1.00  0.00     0.039 C 
BRANCH   6  10
ATOM     10  C   UNL A   1      31.284  28.219  23.430  1.00  0.00     0.260 C 
ATOM     11  O   UNL A   1      31.700  29.300  23.027  1.00  0.00    -0.269 OA
BRANCH  10  12
ATOM     12  C   UNL A   1      29.878  27.846  23.486  1.00  0.00     0.110 A 
ATOM     13  C   UNL A   1      29.883  25.404  24.536  1.00  0.00     0.092 C 
ATOM     14  C   UNL A   1      29.347  26.654  23.956  1.00  0.00     0.147 A 
ATOM     15  O   UNL A   1      27.999  26.681  23.840  1.00  0.00    -0.360 OA
ATOM     16  N   UNL A   1      27.600  27.893  23.346  1.00  0.00    -0.079 NA
ATOM     17  C   UNL A   1      28.716  28.618  23.151  1.00  0.00     0.126 A 
BRANCH  17  18
ATOM     18  C   UNL A   1      28.582  30.010  22.721  1.00  0.00     0.004 A 
ATOM     19  C   UNL A   1      28.278  30.281  21.375  1.00  0.00     0.010 A 
ATOM     20  C   UNL A   1      28.784  31.082  23.595  1.00  0.00     0.010 A 
ATOM     21  C   UNL A   1      28.170  31.595  20.917  1.00  0.00     0.001 A 
ATOM     22  C   UNL A   1      28.670  32.398  23.136  1.00  0.00     0.001 A 
ATOM     23  C   UNL A   1      28.366  32.654  21.800  1.00  0.00     0.000 A 
ENDBRANCH  17  18
ENDBRANCH  10  12
ENDBRANCH   6  10
ENDBRANCH   3   5
ENDBRANCH   2   3
ENDBRANCH   1   2
BRANCH   1  24
ATOM     24  C   UNL A   1      34.577  29.343  27.636  1.00  0.00     0.275 C 
BRANCH  24  25
ATOM     25  O   UNL A   1      35.619  30.306  27.887  1.00  0.00    -0.458 OA
BRANCH  25  26
ATOM     26  C   UNL A   1      36.252  30.161  29.076  1.00  0.00     0.338 C 
ATOM     27  O   UNL A   1      35.736  30.060  30.174  1.00  0.00    -0.246 OA
BRANCH  26  28
ATOM     28  C   UNL A   1      37.699  29.999  28.877  1.00  0.00     0.060 A 
ATOM     29  C   UNL A   1      38.153  29.707  27.590  1.00  0.00     0.016 A 
ATOM     30  C   UNL A   1      38.579  29.986  29.957  1.00  0.00     0.016 A 
ATOM     31  C   UNL A   1      39.483  29.364  27.374  1.00  0.00     0.010 A 
ATOM     32  C   UNL A   1      39.923  29.661  29.737  1.00  0.00     0.010 A 
ATOM     33  C   UNL A   1      40.378  29.326  28.448  1.00  0.00    -0.014 A 
BRANCH  33  34
ATOM     34  C   UNL A   1      41.774  28.878  28.224  1.00  0.00     0.031 A 
ATOM     35  C   UNL A   1      42.896  29.878  28.268  1.00  0.00     0.074 A 
ATOM     36  C   UNL A   1      42.032  27.574  28.006  1.00  0.00     0.049 A 
ATOM     37  N   UNL A   1      44.164  29.711  28.001  1.00  0.00    -0.248 NA
ATOM     38  C   UNL A   1      42.541  31.251  28.662  1.00  0.00     0.031 C 
ATOM     39  C   UNL A   1      41.030  26.506  27.996  1.00  0.00     0.029 A 
ATOM     40  N   UNL A   1      43.213  26.926  27.750  1.00  0.00    -0.354 N 
ATOM     41  C   UNL A   1      44.756  30.958  28.164  1.00  0.00     0.074 A 
ATOM     42  C   UNL A   1      43.702  31.878  28.536  1.00  0.00     0.031 C 
ATOM     43  C   UNL A   1      41.640  25.337  27.745  1.00  0.00     0.029 A 
ATOM     44  C   UNL A   1      43.061  25.579  27.521  1.00  0.00     0.049 A 
ATOM     45  H   UNL A   1      44.085  27.382  27.731  1.00  0.00     0.167 HD
ATOM     46  C   UNL A   1      46.058  31.300  28.019  1.00  0.00     0.037 A 
ATOM     47  C   UNL A   1      43.959  24.652  27.138  1.00  0.00     0.037 A 
ATOM     48  C   UNL A   1      47.098  30.367  27.666  1.00  0.00     0.049 A 
ATOM     49  C   UNL A   1      45.390  25.068  26.926  1.00  0.00     0.074 A 
ATOM     50  C   UNL A   1      48.452  30.608  27.505  1.00  0.00     0.029 A 
ATOM     51  N   UNL A   1      46.902  29.015  27.418  1.00  0.00    -0.354 N 
ATOM     52  N   UNL A   1      45.935  26.253  27.072  1.00  0.00    -0.248 NA
ATOM     53  C   UNL A   1      46.328  24.024  26.494  1.00  0.00     0.031 C 
ATOM     54  C   UNL A   1      49.065  29.413  27.113  1.00  0.00     0.029 A 
ATOM     55  C   UNL A   1      48.105  28.414  27.085  1.00  0.00     0.049 A 
ATOM     56  H   UNL A   1      46.034  28.552  27.471  1.00  0.00     0.167 HD
ATOM     57  C   UNL A   1      47.284  26.090  26.778  1.00  0.00     0.074 A 
ATOM     58  C   UNL A   1      47.474  24.691  26.456  1.00  0.00     0.031 C 
ATOM     59  C   UNL A   1      48.276  27.016  26.775  1.00  0.00     0.037 A 
BRANCH  46  60
ATOM     60  C   UNL A   1      46.429  32.746  28.210  1.00  0.00     0.058 A 
ATOM     61  C   UNL A   1      46.890  33.242  29.439  1.00  0.00     0.135 A 
ATOM     62  C   UNL A   1      46.349  33.646  27.133  1.00  0.00     0.135 A 
ATOM     63  F   UNL A   1      46.970  32.433  30.508  1.00  0.00    -0.206 F 
ATOM     64  C   UNL A   1      47.233  34.581  29.603  1.00  0.00     0.059 A 
ATOM     65  C   UNL A   1      46.714  34.982  27.265  1.00  0.00     0.059 A 
ATOM     66  F   UNL A   1      45.913  33.228  25.935  1.00  0.00    -0.206 F 
ATOM     67  C   UNL A   1      47.140  35.444  28.509  1.00  0.00     0.060 A 
BRANCH  67  68
ATOM     68  S   UNL A   1      47.586  37.179  28.738  1.00  0.00     0.124 S 
ATOM     69  O   UNL A   1      46.560  37.850  27.946  1.00  0.00    -0.237 OA
ATOM     70  O   UNL A   1      47.476  37.341  30.183  1.00  0.00    -0.237 OA
ATOM     71  O   UNL A   1      48.941  37.256  28.202  1.00  0.00    -0.744 OA
ENDBRANCH  67  68
ENDBRANCH  46  60
BRANCH  47  72
ATOM     72  C   UNL A   1      43.526  23.248  26.907  1.00  0.00     0.058 A 
ATOM     73  C   UNL A   1      43.255  22.387  27.980  1.00  0.00     0.135 A 
ATOM     74  C   UNL A   1      43.363  22.742  25.607  1.00  0.00     0.135 A 
ATOM     75  F   UNL A   1      43.405  22.820  29.241  1.00  0.00    -0.206 F 
ATOM     76  C   UNL A   1      42.854  21.071  27.775  1.00  0.00     0.059 A 
ATOM     77  C   UNL A   1      42.933  21.439  25.376  1.00  0.00     0.059 A 
ATOM     78  F   UNL A   1      43.597  23.528  24.544  1.00  0.00    -0.206 F 
ATOM     79  C   UNL A   1      42.693  20.607  26.468  1.00  0.00     0.060 A 
BRANCH  79  80
ATOM     80  S   UNL A   1      42.132  18.909  26.214  1.00  0.00     0.124 S 
ATOM     81  O   UNL A   1      43.074  18.436  25.208  1.00  0.00    -0.237 OA
ATOM     82  O   UNL A   1      42.277  18.334  27.548  1.00  0.00    -0.237 OA
ATOM     83  O   UNL A   1      40.754  19.075  25.758  1.00  0.00    -0.744 OA
ENDBRANCH  79  80
ENDBRANCH  47  72
BRANCH  59  84
ATOM     84  C   UNL A   1      49.666  26.536  26.458  1.00  0.00     0.058 A 
ATOM     85  C   UNL A   1      50.519  26.025  27.450  1.00  0.00     0.135 A 
ATOM     86  C   UNL A   1      50.134  26.546  25.134  1.00  0.00     0.135 A 
ATOM     87  F   UNL A   1      50.123  25.999  28.733  1.00  0.00    -0.206 F 
ATOM     88  C   UNL A   1      51.795  25.564  27.143  1.00  0.00     0.059 A 
ATOM     89  C   UNL A   1      51.395  26.062  24.800  1.00  0.00     0.059 A 
ATOM     90  F   UNL A   1      49.356  27.014  24.145  1.00  0.00    -0.206 F 
ATOM     91  C   UNL A   1      52.224  25.585  25.815  1.00  0.00     0.060 A 
BRANCH  91  92
ATOM     92  S   UNL A   1      53.869  24.954  25.426  1.00  0.00     0.124 S 
ATOM     93  O   UNL A   1      54.210  25.734  24.240  1.00  0.00    -0.237 OA
ATOM     94  O   UNL A   1      54.622  25.277  26.634  1.00  0.00    -0.237 OA
ATOM     95  O   UNL A   1      53.643  23.531  25.197  1.00  0.00    -0.744 OA
ENDBRANCH  91  92
ENDBRANCH  59  84
ENDBRANCH  33  34
ENDBRANCH  26  28
ENDBRANCH  25  26
ENDBRANCH  24  25
ENDBRANCH   1  24
TORSDOF 17
ENDMDL
MODEL 2
REMARK VINA RESULT:     -11.8      3.206      4.973
REMARK SMILES Cc1onc(-c2ccccc2)c1C(=O)N1CCC[C@@H]1C(=O)OCCOC(=O)c1ccc(-c2c3nc(c(-c4c(F)cc(S(=O)(=O)[O-])cc4F)c4ccc([nH]4)c(-c4c(F)cc(S(=O)(=O)[O-])cc4F)c4nc(c(-c5c(F)cc(S(=O)(=O)[O-])cc5F)c5ccc2[nH]5)C=C4)C=C3)cc1
REMARK SMILES IDX 23 1 22 2 20 3 21 4 19 5 15 6 16 7 17 8 18 9 13 10 14 11
REMARK SMILES IDX 12 12 1 13 2 14 3 15 4 16 5 17 6 18 7 19 11 20 8 21 10 22
REMARK SMILES IDX 9 23 24 24 25 25 26 26 27 27 28 28 29 29 93 30 30 31 92 32
REMARK SMILES IDX 31 33 32 34 33 35 86 36 34 37 91 38 85 39 87 40 35 41 90 42
REMARK SMILES IDX 84 43 83 44 36 46 70 47 49 48 69 49 50 50 53 51 68 52 88 53
REMARK SMILES IDX 51 54 52 55 67 57 89 58 54 59 37 60 38 61 47 62 39 63 40 64
REMARK SMILES IDX 46 65 48 66 41 67 42 68 43 69 44 70 45 71 71 72 72 73 81 74
REMARK SMILES IDX 73 75 74 76 80 77 82 78 75 79 76 80 77 81 78 82 79 83 55 84
REMARK SMILES IDX 56 85 65 86 57 87 58 88 64 89 66 90 59 91 60 92 61 93 62 94
REMARK SMILES IDX 63 95
REMARK H PARENT 87 45 53 56
REMARK Flexibility Score: inf
ROOT
ATOM      1  C   UNL A   1      31.794  28.301  26.006  1.00  0.00     0.274 C 
ENDROOT
BRANCH   1   2
ATOM      2  O   UNL A   1      31.850  26.885  25.750  1.00  0.00    -0.461 OA
BRANCH   2   3
ATOM      3  C   UNL A   1      30.956  26.431  24.832  1.00  0.00     0.328 C 
ATOM      4  O   UNL A   1      29.751  26.336  25.038  1.00  0.00    -0.250 OA
BRANCH   3   5
ATOM      5  C   UNL A   1      31.605  25.926  23.542  1.00  0.00     0.195 C 
ATOM      6  N   UNL A   1      32.461  24.778  23.799  1.00  0.00    -0.325 N 
ATOM      7  C   UNL A   1      33.433  24.703  22.734  1.00  0.00     0.121 C 
ATOM      8  C   UNL A   1      33.784  26.158  22.493  1.00  0.00     0.024 C 
ATOM      9  C   UNL A   1      32.471  26.904  22.742  1.00  0.00     0.039 C 
BRANCH   6  10
ATOM     10  C   UNL A   1      31.868  23.620  24.269  1.00  0.00     0.260 C 
ATOM     11  O   UNL A   1      31.115  22.955  23.566  1.00  0.00    -0.269 OA
BRANCH  10  12
ATOM     12  C   UNL A   1      32.191  23.309  25.653  1.00  0.00     0.110 A 
ATOM     13  C   UNL A   1      29.850  23.376  26.910  1.00  0.00     0.092 C 
ATOM     14  C   UNL A   1      31.307  23.222  26.719  1.00  0.00     0.147 A 
ATOM     15  O   UNL A   1      31.989  22.917  27.848  1.00  0.00    -0.360 OA
ATOM     16  N   UNL A   1      33.315  22.744  27.559  1.00  0.00    -0.079 NA
ATOM     17  C   UNL A   1      33.452  22.951  26.237  1.00  0.00     0.126 A 
BRANCH  17  18
ATOM     18  C   UNL A   1      34.762  22.728  25.625  1.00  0.00     0.004 A 
ATOM     19  C   UNL A   1      35.174  21.411  25.356  1.00  0.00     0.010 A 
ATOM     20  C   UNL A   1      35.636  23.780  25.334  1.00  0.00     0.010 A 
ATOM     21  C   UNL A   1      36.428  21.153  24.801  1.00  0.00     0.001 A 
ATOM     22  C   UNL A   1      36.891  23.520  24.773  1.00  0.00     0.001 A 
ATOM     23  C   UNL A   1      37.286  22.210  24.509  1.00  0.00     0.000 A 
ENDBRANCH  17  18
ENDBRANCH  10  12
ENDBRANCH   6  10
ENDBRANCH   3   5
ENDBRANCH   2   3
ENDBRANCH   1   2
BRANCH   1  24
ATOM     24  C   UNL A   1      33.162  28.963  25.809  1.00  0.00     0.275 C 
BRANCH  24  25
ATOM     25  O   UNL A   1      34.039  28.768  26.934  1.00  0.00    -0.458 OA
BRANCH  25  26
ATOM     26  C   UNL A   1      34.389  29.904  27.585  1.00  0.00     0.338 C 
ATOM     27  O   UNL A   1      33.660  30.833  27.882  1.00  0.00    -0.246 OA
BRANCH  26  28
ATOM     28  C   UNL A   1      35.787  29.836  28.034  1.00  0.00     0.060 A 
ATOM     29  C   UNL A   1      36.789  30.007  27.078  1.00  0.00     0.016 A 
ATOM     30  C   UNL A   1      36.109  29.464  29.338  1.00  0.00     0.016 A 
ATOM     31  C   UNL A   1      38.120  29.773  27.405  1.00  0.00     0.010 A 
ATOM     32  C   UNL A   1      37.451  29.249  29.673  1.00  0.00     0.010 A 
ATOM     33  C   UNL A   1      38.462  29.381  28.703  1.00  0.00    -0.014 A 
BRANCH  33  34
ATOM     34  C   UNL A   1      39.873  29.052  29.021  1.00  0.00     0.031 A 
ATOM     35  C   UNL A   1      40.751  30.082  29.675  1.00  0.00     0.074 A 
ATOM     36  C   UNL A   1      40.353  27.824  28.745  1.00  0.00     0.049 A 
ATOM     37  N   UNL A   1      42.030  30.031  29.943  1.00  0.00    -0.248 NA
ATOM     38  C   UNL A   1      40.103  31.341  30.079  1.00  0.00     0.031 C 
ATOM     39  C   UNL A   1      39.579  26.726  28.161  1.00  0.00     0.029 A 
ATOM     40  N   UNL A   1      41.607  27.294  28.915  1.00  0.00    -0.354 N 
ATOM     41  C   UNL A   1      42.348  31.256  30.518  1.00  0.00     0.074 A 
ATOM     42  C   UNL A   1      41.131  32.037  30.544  1.00  0.00     0.031 C 
ATOM     43  C   UNL A   1      40.375  25.655  28.022  1.00  0.00     0.029 A 
ATOM     44  C   UNL A   1      41.725  26.006  28.451  1.00  0.00     0.049 A 
ATOM     45  H   UNL A   1      42.350  27.789  29.330  1.00  0.00     0.167 HD
ATOM     46  C   UNL A   1      43.546  31.683  30.983  1.00  0.00     0.037 A 
ATOM     47  C   UNL A   1      42.807  25.210  28.349  1.00  0.00     0.037 A 
ATOM     48  C   UNL A   1      44.745  30.884  30.966  1.00  0.00     0.049 A 
ATOM     49  C   UNL A   1      44.140  25.729  28.819  1.00  0.00     0.074 A 
ATOM     50  C   UNL A   1      46.009  31.218  31.424  1.00  0.00     0.029 A 
ATOM     51  N   UNL A   1      44.832  29.592  30.466  1.00  0.00    -0.354 N 
ATOM     52  N   UNL A   1      44.430  26.894  29.350  1.00  0.00    -0.248 NA
ATOM     53  C   UNL A   1      45.292  24.831  28.673  1.00  0.00     0.031 C 
ATOM     54  C   UNL A   1      46.868  30.147  31.156  1.00  0.00     0.029 A 
ATOM     55  C   UNL A   1      46.130  29.123  30.584  1.00  0.00     0.049 A 
ATOM     56  H   UNL A   1      44.080  29.084  30.083  1.00  0.00     0.167 HD
ATOM     57  C   UNL A   1      45.792  26.856  29.627  1.00  0.00     0.074 A 
ATOM     58  C   UNL A   1      46.264  25.550  29.215  1.00  0.00     0.031 C 
ATOM     59  C   UNL A   1      46.580  27.815  30.175  1.00  0.00     0.037 A 
BRANCH  46  60
ATOM     60  C   UNL A   1      43.629  33.087  31.518  1.00  0.00     0.058 A 
ATOM     61  C   UNL A   1      43.546  33.368  32.892  1.00  0.00     0.135 A 
ATOM     62  C   UNL A   1      43.827  34.170  30.643  1.00  0.00     0.135 A 
ATOM     63  F   UNL A   1      43.339  32.376  33.773  1.00  0.00    -0.206 F 
ATOM     64  C   UNL A   1      43.627  34.670  33.376  1.00  0.00     0.059 A 
ATOM     65  C   UNL A   1      43.940  35.476  31.107  1.00  0.00     0.059 A 
ATOM     66  F   UNL A   1      43.913  33.960  29.321  1.00  0.00    -0.206 F 
ATOM     67  C   UNL A   1      43.823  35.718  32.474  1.00  0.00     0.060 A 
BRANCH  67  68
ATOM     68  S   UNL A   1      43.925  37.403  33.118  1.00  0.00     0.124 S 
ATOM     69  O   UNL A   1      45.211  37.374  33.807  1.00  0.00    -0.237 OA
ATOM     70  O   UNL A   1      43.877  38.205  31.900  1.00  0.00    -0.237 OA
ATOM     71  O   UNL A   1      42.753  37.508  33.982  1.00  0.00    -0.744 OA
ENDBRANCH  67  68
ENDBRANCH  46  60
BRANCH  47  72
ATOM     72  C   UNL A   1      42.678  23.853  27.757  1.00  0.00     0.058 A 
ATOM     73  C   UNL A   1      42.757  23.655  26.371  1.00  0.00     0.135 A 
ATOM     74  C   UNL A   1      42.484  22.721  28.567  1.00  0.00     0.135 A 
ATOM     75  F   UNL A   1      42.932  24.704  25.553  1.00  0.00    -0.206 F 
ATOM     76  C   UNL A   1      42.632  22.389  25.807  1.00  0.00     0.059 A 
ATOM     77  C   UNL A   1      42.387  21.442  28.030  1.00  0.00     0.059 A 
ATOM     78  F   UNL A   1      42.413  22.853  29.902  1.00  0.00    -0.206 F 
ATOM     79  C   UNL A   1      42.450  21.288  26.646  1.00  0.00     0.060 A 
BRANCH  79  80
ATOM     80  S   UNL A   1      42.331  19.645  25.905  1.00  0.00     0.124 S 
ATOM     81  O   UNL A   1      42.645  18.788  27.042  1.00  0.00    -0.237 OA
ATOM     82  O   UNL A   1      40.946  19.615  25.445  1.00  0.00    -0.237 OA
ATOM     83  O   UNL A   1      43.334  19.680  24.845  1.00  0.00    -0.744 OA
ENDBRANCH  79  80
ENDBRANCH  47  72
BRANCH  59  84
ATOM     84  C   UNL A   1      48.027  27.472  30.403  1.00  0.00     0.058 A 
ATOM     85  C   UNL A   1      48.454  26.776  31.546  1.00  0.00     0.135 A 
ATOM     86  C   UNL A   1      48.994  27.805  29.440  1.00  0.00     0.135 A 
ATOM     87  F   UNL A   1      47.571  26.440  32.501  1.00  0.00    -0.206 F 
ATOM     88  C   UNL A   1      49.791  26.445  31.737  1.00  0.00     0.059 A 
ATOM     89  C   UNL A   1      50.332  27.457  29.597  1.00  0.00     0.059 A 
ATOM     90  F   UNL A   1      48.640  28.461  28.324  1.00  0.00    -0.206 F 
ATOM     91  C   UNL A   1      50.723  26.788  30.757  1.00  0.00     0.060 A 
BRANCH  91  92
ATOM     92  S   UNL A   1      52.449  26.324  31.002  1.00  0.00     0.124 S 
ATOM     93  O   UNL A   1      52.971  27.493  31.704  1.00  0.00    -0.237 OA
ATOM     94  O   UNL A   1      52.336  25.106  31.798  1.00  0.00    -0.237 OA
ATOM     95  O   UNL A   1      52.948  26.134  29.644  1.00  0.00    -0.744 OA
ENDBRANCH  91  92
ENDBRANCH  59  84
ENDBRANCH  33  34
ENDBRANCH  26  28
ENDBRANCH  25  26
ENDBRANCH  24  25
ENDBRANCH   1  24
TORSDOF 17
ENDMDL
MODEL 3
REMARK VINA RESULT:     -11.8      3.098      4.912
REMARK SMILES Cc1onc(-c2ccccc2)c1C(=O)N1CCC[C@@H]1C(=O)OCCOC(=O)c1ccc(-c2c3nc(c(-c4c(F)cc(S(=O)(=O)[O-])cc4F)c4ccc([nH]4)c(-c4c(F)cc(S(=O)(=O)[O-])cc4F)c4nc(c(-c5c(F)cc(S(=O)(=O)[O-])cc5F)c5ccc2[nH]5)C=C4)C=C3)cc1
REMARK SMILES IDX 23 1 22 2 20 3 21 4 19 5 15 6 16 7 17 8 18 9 13 10 14 11
REMARK SMILES IDX 12 12 1 13 2 14 3 15 4 16 5 17 6 18 7 19 11 20 8 21 10 22
REMARK SMILES IDX 9 23 24 24 25 25 26 26 27 27 28 28 29 29 93 30 30 31 92 32
REMARK SMILES IDX 31 33 32 34 33 35 86 36 34 37 91 38 85 39 87 40 35 41 90 42
REMARK SMILES IDX 84 43 83 44 36 46 70 47 49 48 69 49 50 50 53 51 68 52 88 53
REMARK SMILES IDX 51 54 52 55 67 57 89 58 54 59 37 60 38 61 47 62 39 63 40 64
REMARK SMILES IDX 46 65 48 66 41 67 42 68 43 69 44 70 45 71 71 72 72 73 81 74
REMARK SMILES IDX 73 75 74 76 80 77 82 78 75 79 76 80 77 81 78 82 79 83 55 84
REMARK SMILES IDX 56 85 65 86 57 87 58 88 64 89 66 90 59 91 60 92 61 93 62 94
REMARK SMILES IDX 63 95
REMARK H PARENT 87 45 53 56
REMARK Flexibility Score: inf
ROOT
ATOM      1  C   UNL A   1      31.871  28.015  26.212  1.00  0.00     0.274 C 
ENDROOT
BRANCH   1   2
ATOM      2  O   UNL A   1      31.873  26.594  25.979  1.00  0.00    -0.461 OA
BRANCH   2   3
ATOM      3  C   UNL A   1      30.958  26.160  25.072  1.00  0.00     0.328 C 
ATOM      4  O   UNL A   1      29.759  26.049  25.305  1.00  0.00    -0.250 OA
BRANCH   3   5
ATOM      5  C   UNL A   1      31.577  25.697  23.752  1.00  0.00     0.195 C 
ATOM      6  N   UNL A   1      32.471  24.568  23.958  1.00  0.00    -0.325 N 
ATOM      7  C   UNL A   1      33.410  24.539  22.861  1.00  0.00     0.121 C 
ATOM      8  C   UNL A   1      33.714  26.008  22.637  1.00  0.00     0.024 C 
ATOM      9  C   UNL A   1      32.390  26.713  22.943  1.00  0.00     0.039 C 
BRANCH   6  10
ATOM     10  C   UNL A   1      31.925  23.386  24.424  1.00  0.00     0.260 C 
ATOM     11  O   UNL A   1      31.195  22.696  23.721  1.00  0.00    -0.269 OA
BRANCH  10  12
ATOM     12  C   UNL A   1      32.267  23.080  25.805  1.00  0.00     0.110 A 
ATOM     13  C   UNL A   1      29.929  23.034  27.069  1.00  0.00     0.092 C 
ATOM     14  C   UNL A   1      31.391  22.947  26.873  1.00  0.00     0.147 A 
ATOM     15  O   UNL A   1      32.089  22.664  27.998  1.00  0.00    -0.360 OA
ATOM     16  N   UNL A   1      33.420  22.552  27.703  1.00  0.00    -0.079 NA
ATOM     17  C   UNL A   1      33.544  22.774  26.382  1.00  0.00     0.126 A 
BRANCH  17  18
ATOM     18  C   UNL A   1      34.861  22.614  25.765  1.00  0.00     0.004 A 
ATOM     19  C   UNL A   1      35.263  21.336  25.340  1.00  0.00     0.010 A 
ATOM     20  C   UNL A   1      35.749  23.683  25.619  1.00  0.00     0.010 A 
ATOM     21  C   UNL A   1      36.522  21.134  24.774  1.00  0.00     0.001 A 
ATOM     22  C   UNL A   1      37.009  23.480  25.047  1.00  0.00     0.001 A 
ATOM     23  C   UNL A   1      37.395  22.208  24.627  1.00  0.00     0.000 A 
ENDBRANCH  17  18
ENDBRANCH  10  12
ENDBRANCH   6  10
ENDBRANCH   3   5
ENDBRANCH   2   3
ENDBRANCH   1   2
BRANCH   1  24
ATOM     24  C   UNL A   1      33.268  28.617  26.027  1.00  0.00     0.275 C 
BRANCH  24  25
ATOM     25  O   UNL A   1      34.042  28.606  27.242  1.00  0.00    -0.458 OA
BRANCH  25  26
ATOM     26  C   UNL A   1      34.473  29.823  27.652  1.00  0.00     0.338 C 
ATOM     27  O   UNL A   1      33.805  30.832  27.782  1.00  0.00    -0.246 OA
BRANCH  26  28
ATOM     28  C   UNL A   1      35.882  29.762  28.068  1.00  0.00     0.060 A 
ATOM     29  C   UNL A   1      36.861  29.948  27.091  1.00  0.00     0.016 A 
ATOM     30  C   UNL A   1      36.236  29.383  29.362  1.00  0.00     0.016 A 
ATOM     31  C   UNL A   1      38.200  29.722  27.386  1.00  0.00     0.010 A 
ATOM     32  C   UNL A   1      37.587  29.176  29.665  1.00  0.00     0.010 A 
ATOM     33  C   UNL A   1      38.574  29.322  28.673  1.00  0.00    -0.014 A 
BRANCH  33  34
ATOM     34  C   UNL A   1      39.994  29.002  28.957  1.00  0.00     0.031 A 
ATOM     35  C   UNL A   1      40.888  30.045  29.568  1.00  0.00     0.074 A 
ATOM     36  C   UNL A   1      40.470  27.770  28.689  1.00  0.00     0.049 A 
ATOM     37  N   UNL A   1      42.174  30.000  29.800  1.00  0.00    -0.248 NA
ATOM     38  C   UNL A   1      40.249  31.309  29.968  1.00  0.00     0.031 C 
ATOM     39  C   UNL A   1      39.682  26.661  28.146  1.00  0.00     0.029 A 
ATOM     40  N   UNL A   1      41.728  27.246  28.833  1.00  0.00    -0.354 N 
ATOM     41  C   UNL A   1      42.505  31.236  30.345  1.00  0.00     0.074 A 
ATOM     42  C   UNL A   1      41.287  32.015  30.392  1.00  0.00     0.031 C 
ATOM     43  C   UNL A   1      40.476  25.589  28.003  1.00  0.00     0.029 A 
ATOM     44  C   UNL A   1      41.837  25.950  28.388  1.00  0.00     0.049 A 
ATOM     45  H   UNL A   1      42.482  27.749  29.218  1.00  0.00     0.167 HD
ATOM     46  C   UNL A   1      43.715  31.673  30.769  1.00  0.00     0.037 A 
ATOM     47  C   UNL A   1      42.918  25.154  28.269  1.00  0.00     0.037 A 
ATOM     48  C   UNL A   1      44.915  30.876  30.732  1.00  0.00     0.049 A 
ATOM     49  C   UNL A   1      44.262  25.684  28.692  1.00  0.00     0.074 A 
ATOM     50  C   UNL A   1      46.190  31.221  31.148  1.00  0.00     0.029 A 
ATOM     51  N   UNL A   1      44.991  29.576  30.252  1.00  0.00    -0.354 N 
ATOM     52  N   UNL A   1      44.564  26.858  29.195  1.00  0.00    -0.248 NA
ATOM     53  C   UNL A   1      45.411  24.785  28.529  1.00  0.00     0.031 C 
ATOM     54  C   UNL A   1      47.044  30.147  30.874  1.00  0.00     0.029 A 
ATOM     55  C   UNL A   1      46.292  29.111  30.341  1.00  0.00     0.049 A 
ATOM     56  H   UNL A   1      44.229  29.060  29.899  1.00  0.00     0.167 HD
ATOM     57  C   UNL A   1      45.934  26.828  29.434  1.00  0.00     0.074 A 
ATOM     58  C   UNL A   1      46.397  25.516  29.031  1.00  0.00     0.031 C 
ATOM     59  C   UNL A   1      46.734  27.798  29.942  1.00  0.00     0.037 A 
BRANCH  46  60
ATOM     60  C   UNL A   1      43.810  33.087  31.277  1.00  0.00     0.058 A 
ATOM     61  C   UNL A   1      44.229  34.147  30.458  1.00  0.00     0.135 A 
ATOM     62  C   UNL A   1      43.444  33.391  32.600  1.00  0.00     0.135 A 
ATOM     63  F   UNL A   1      44.608  33.915  29.191  1.00  0.00    -0.206 F 
ATOM     64  C   UNL A   1      44.310  35.451  30.938  1.00  0.00     0.059 A 
ATOM     65  C   UNL A   1      43.490  34.691  33.093  1.00  0.00     0.059 A 
ATOM     66  F   UNL A   1      43.037  32.416  33.428  1.00  0.00    -0.206 F 
ATOM     67  C   UNL A   1      43.939  35.712  32.259  1.00  0.00     0.060 A 
BRANCH  67  68
ATOM     68  S   UNL A   1      44.052  37.409  32.868  1.00  0.00     0.124 S 
ATOM     69  O   UNL A   1      45.429  37.455  33.348  1.00  0.00    -0.237 OA
ATOM     70  O   UNL A   1      43.775  38.190  31.667  1.00  0.00    -0.237 OA
ATOM     71  O   UNL A   1      43.024  37.468  33.902  1.00  0.00    -0.744 OA
ENDBRANCH  67  68
ENDBRANCH  46  60
BRANCH  47  72
ATOM     72  C   UNL A   1      42.775  23.786  27.705  1.00  0.00     0.058 A 
ATOM     73  C   UNL A   1      42.464  22.692  28.525  1.00  0.00     0.135 A 
ATOM     74  C   UNL A   1      42.936  23.546  26.330  1.00  0.00     0.135 A 
ATOM     75  F   UNL A   1      42.309  22.867  29.846  1.00  0.00    -0.206 F 
ATOM     76  C   UNL A   1      42.333  21.407  28.007  1.00  0.00     0.059 A 
ATOM     77  C   UNL A   1      42.780  22.276  25.784  1.00  0.00     0.059 A 
ATOM     78  F   UNL A   1      43.223  24.561  25.499  1.00  0.00    -0.206 F 
ATOM     79  C   UNL A   1      42.491  21.210  26.634  1.00  0.00     0.060 A 
BRANCH  79  80
ATOM     80  S   UNL A   1      42.278  19.545  25.968  1.00  0.00     0.124 S 
ATOM     81  O   UNL A   1      40.838  19.499  25.747  1.00  0.00    -0.237 OA
ATOM     82  O   UNL A   1      43.108  19.585  24.768  1.00  0.00    -0.237 OA
ATOM     83  O   UNL A   1      42.779  18.688  27.039  1.00  0.00    -0.744 OA
ENDBRANCH  79  80
ENDBRANCH  47  72
BRANCH  59  84
ATOM     84  C   UNL A   1      48.188  27.461  30.135  1.00  0.00     0.058 A 
ATOM     85  C   UNL A   1      48.666  26.892  31.326  1.00  0.00     0.135 A 
ATOM     86  C   UNL A   1      49.108  27.670  29.094  1.00  0.00     0.135 A 
ATOM     87  F   UNL A   1      47.830  26.677  32.356  1.00  0.00    -0.206 F 
ATOM     88  C   UNL A   1      50.008  26.565  31.487  1.00  0.00     0.059 A 
ATOM     89  C   UNL A   1      50.449  27.323  29.223  1.00  0.00     0.059 A 
ATOM     90  F   UNL A   1      48.703  28.202  27.930  1.00  0.00    -0.206 F 
ATOM     91  C   UNL A   1      50.892  26.782  30.430  1.00  0.00     0.060 A 
BRANCH  91  92
ATOM     92  S   UNL A   1      52.625  26.324  30.640  1.00  0.00     0.124 S 
ATOM     93  O   UNL A   1      52.509  25.068  31.374  1.00  0.00    -0.237 OA
ATOM     94  O   UNL A   1      53.088  26.211  29.260  1.00  0.00    -0.237 OA
ATOM     95  O   UNL A   1      53.184  27.441  31.393  1.00  0.00    -0.744 OA
ENDBRANCH  91  92
ENDBRANCH  59  84
ENDBRANCH  33  34
ENDBRANCH  26  28
ENDBRANCH  25  26
ENDBRANCH  24  25
ENDBRANCH   1  24
TORSDOF 17
ENDMDL
