MODEL 1
REMARK VINA RESULT:     -11.4      0.000      0.000
REMARK SMILES O=C(OCCOC(=O)c1ccc(-c2c3nc(c(-c4c(F)cc(S(=O)(=O)[O-])cc4F)c4ccc([nH]4)c(-c4c(F)cc(S(=O)(=O)[O-])cc4F)c4nc(c(-c5c(F)cc(S(=O)(=O)[O-])cc5F)c5ccc2[nH]5)C=C4)C=C3)cc1)C1=Cc2c(cc(Cl)c(Cl)c2Cl)O[C@H]1C(F)(F)F
REMARK SMILES IDX 5 1 4 2 3 3 2 4 1 5 75 6 76 7 87 8 77 9 86 10 78 11 84 12
REMARK SMILES IDX 79 13 82 14 85 15 80 16 83 17 81 18 88 19 89 20 90 21 91 22
REMARK SMILES IDX 6 23 7 24 8 25 9 26 10 27 74 28 11 29 73 30 12 31 13 32
REMARK SMILES IDX 14 33 67 34 15 35 72 36 66 37 68 38 16 39 71 40 65 41 64 42
REMARK SMILES IDX 17 44 51 45 30 46 50 47 31 48 34 49 49 50 69 51 32 52 33 53
REMARK SMILES IDX 48 55 70 56 35 57 18 58 19 59 28 60 20 61 21 62 27 63 29 64
REMARK SMILES IDX 22 65 23 66 24 67 25 68 26 69 52 70 53 71 62 72 54 73 55 74
REMARK SMILES IDX 61 75 63 76 56 77 57 78 58 79 59 80 60 81 36 82 37 83 46 84
REMARK SMILES IDX 38 85 39 86 45 87 47 88 40 89 41 90 42 91 43 92 44 93
REMARK H PARENT 68 43 34 54
REMARK Flexibility Score: inf
ROOT
ATOM      1  C   UNL A   1      44.608  25.537  25.276  1.00  0.00     0.275 C 
ENDROOT
BRANCH   1   2
ATOM      2  C   UNL A   1      44.974  24.122  24.806  1.00  0.00     0.275 C 
BRANCH   2   3
ATOM      3  O   UNL A   1      44.771  23.090  25.794  1.00  0.00    -0.459 OA
BRANCH   3   4
ATOM      4  C   UNL A   1      43.821  22.136  25.855  1.00  0.00     0.338 C 
ATOM      5  O   UNL A   1      43.791  21.271  24.981  1.00  0.00    -0.246 OA
BRANCH   4   6
ATOM      6  C   UNL A   1      42.806  22.068  26.939  1.00  0.00     0.087 C 
ATOM      7  C   UNL A   1      41.851  21.128  27.064  1.00  0.00     0.029 C 
ATOM      8  C   UNL A   1      42.612  23.409  27.640  1.00  0.00     0.316 C 
ATOM      9  C   UNL A   1      40.512  21.697  26.763  1.00  0.00     0.038 A 
ATOM     10  O   UNL A   1      41.205  23.757  27.832  1.00  0.00    -0.475 OA
ATOM     11  C   UNL A   1      40.301  23.040  27.094  1.00  0.00     0.131 A 
ATOM     12  C   UNL A   1      39.501  20.974  26.100  1.00  0.00     0.072 A 
ATOM     13  C   UNL A   1      39.132  23.684  26.708  1.00  0.00     0.069 A 
ATOM     14  C   UNL A   1      38.351  21.639  25.644  1.00  0.00     0.079 A 
ATOM     15  Cl  UNL A   1      39.667  19.261  25.877  1.00  0.00    -0.082 Cl
ATOM     16  C   UNL A   1      38.181  22.998  25.945  1.00  0.00     0.064 A 
ATOM     17  Cl  UNL A   1      37.173  20.797  24.681  1.00  0.00    -0.081 Cl
ATOM     18  Cl  UNL A   1      36.808  23.898  25.400  1.00  0.00    -0.083 Cl
BRANCH   8  19
ATOM     19  C   UNL A   1      43.364  23.428  28.980  1.00  0.00     0.430 C 
ATOM     20  F   UNL A   1      43.517  24.681  29.461  1.00  0.00    -0.167 F 
ATOM     21  F   UNL A   1      42.712  22.708  29.922  1.00  0.00    -0.167 F 
ATOM     22  F   UNL A   1      44.605  22.896  28.849  1.00  0.00    -0.167 F 
ENDBRANCH   8  19
ENDBRANCH   4   6
ENDBRANCH   3   4
ENDBRANCH   2   3
ENDBRANCH   1   2
BRANCH   1  23
ATOM     23  O   UNL A   1      43.199  25.764  25.256  1.00  0.00    -0.458 OA
BRANCH  23  24
ATOM     24  C   UNL A   1      42.886  27.079  25.355  1.00  0.00     0.338 C 
ATOM     25  O   UNL A   1      42.623  27.829  24.427  1.00  0.00    -0.246 OA
BRANCH  24  26
ATOM     26  C   UNL A   1      42.723  27.433  26.775  1.00  0.00     0.060 A 
ATOM     27  C   UNL A   1      41.646  26.849  27.444  1.00  0.00     0.016 A 
ATOM     28  C   UNL A   1      43.579  28.324  27.434  1.00  0.00     0.016 A 
ATOM     29  C   UNL A   1      41.351  27.244  28.740  1.00  0.00     0.010 A 
ATOM     30  C   UNL A   1      43.297  28.698  28.750  1.00  0.00     0.010 A 
ATOM     31  C   UNL A   1      42.139  28.213  29.377  1.00  0.00    -0.014 A 
BRANCH  31  32
ATOM     32  C   UNL A   1      41.596  28.830  30.608  1.00  0.00     0.031 A 
ATOM     33  C   UNL A   1      42.360  28.663  31.894  1.00  0.00     0.074 A 
ATOM     34  C   UNL A   1      40.538  29.655  30.531  1.00  0.00     0.049 A 
ATOM     35  N   UNL A   1      42.219  29.298  33.028  1.00  0.00    -0.248 NA
ATOM     36  C   UNL A   1      43.434  27.654  31.905  1.00  0.00     0.031 C 
ATOM     37  C   UNL A   1      39.731  29.882  29.331  1.00  0.00     0.029 A 
ATOM     38  N   UNL A   1      39.984  30.484  31.471  1.00  0.00    -0.354 N 
ATOM     39  C   UNL A   1      43.207  28.794  33.867  1.00  0.00     0.074 A 
ATOM     40  C   UNL A   1      43.887  27.746  33.145  1.00  0.00     0.031 C 
ATOM     41  C   UNL A   1      38.797  30.810  29.603  1.00  0.00     0.029 A 
ATOM     42  C   UNL A   1      38.939  31.236  30.993  1.00  0.00     0.049 A 
ATOM     43  H   UNL A   1      40.304  30.535  32.401  1.00  0.00     0.167 HD
ATOM     44  C   UNL A   1      43.542  29.199  35.115  1.00  0.00     0.037 A 
ATOM     45  C   UNL A   1      38.194  32.173  31.609  1.00  0.00     0.037 A 
ATOM     46  C   UNL A   1      42.844  30.234  35.829  1.00  0.00     0.049 A 
ATOM     47  C   UNL A   1      38.554  32.571  33.017  1.00  0.00     0.074 A 
ATOM     48  C   UNL A   1      43.085  30.718  37.102  1.00  0.00     0.029 A 
ATOM     49  N   UNL A   1      41.759  30.940  35.329  1.00  0.00    -0.354 N 
ATOM     50  N   UNL A   1      39.527  32.125  33.780  1.00  0.00    -0.248 NA
ATOM     51  C   UNL A   1      37.735  33.618  33.641  1.00  0.00     0.031 C 
ATOM     52  C   UNL A   1      42.114  31.685  37.389  1.00  0.00     0.029 A 
ATOM     53  C   UNL A   1      41.305  31.844  36.274  1.00  0.00     0.049 A 
ATOM     54  H   UNL A   1      41.370  30.818  34.432  1.00  0.00     0.167 HD
ATOM     55  C   UNL A   1      39.447  32.853  34.964  1.00  0.00     0.074 A 
ATOM     56  C   UNL A   1      38.352  33.788  34.801  1.00  0.00     0.031 C 
ATOM     57  C   UNL A   1      40.205  32.758  36.087  1.00  0.00     0.037 A 
BRANCH  44  58
ATOM     58  C   UNL A   1      44.712  28.518  35.773  1.00  0.00     0.058 A 
ATOM     59  C   UNL A   1      46.022  29.012  35.635  1.00  0.00     0.135 A 
ATOM     60  C   UNL A   1      44.528  27.373  36.561  1.00  0.00     0.135 A 
ATOM     61  F   UNL A   1      46.261  30.091  34.872  1.00  0.00    -0.206 F 
ATOM     62  C   UNL A   1      47.107  28.379  36.233  1.00  0.00     0.059 A 
ATOM     63  C   UNL A   1      45.596  26.740  37.193  1.00  0.00     0.059 A 
ATOM     64  F   UNL A   1      43.301  26.852  36.722  1.00  0.00    -0.206 F 
ATOM     65  C   UNL A   1      46.883  27.243  37.012  1.00  0.00     0.060 A 
BRANCH  65  66
ATOM     66  S   UNL A   1      48.301  26.440  37.787  1.00  0.00     0.124 S 
ATOM     67  O   UNL A   1      48.213  25.092  37.233  1.00  0.00    -0.237 OA
ATOM     68  O   UNL A   1      49.418  27.249  37.309  1.00  0.00    -0.237 OA
ATOM     69  O   UNL A   1      48.017  26.549  39.214  1.00  0.00    -0.744 OA
ENDBRANCH  65  66
ENDBRANCH  44  58
BRANCH  45  70
ATOM     70  C   UNL A   1      37.044  32.799  30.900  1.00  0.00     0.058 A 
ATOM     71  C   UNL A   1      37.211  33.891  30.035  1.00  0.00     0.135 A 
ATOM     72  C   UNL A   1      35.740  32.317  31.094  1.00  0.00     0.135 A 
ATOM     73  F   UNL A   1      38.436  34.393  29.816  1.00  0.00    -0.206 F 
ATOM     74  C   UNL A   1      36.125  34.503  29.415  1.00  0.00     0.059 A 
ATOM     75  C   UNL A   1      34.642  32.892  30.461  1.00  0.00     0.059 A 
ATOM     76  F   UNL A   1      35.524  31.265  31.898  1.00  0.00    -0.206 F 
ATOM     77  C   UNL A   1      34.843  33.997  29.637  1.00  0.00     0.060 A 
BRANCH  77  78
ATOM     78  S   UNL A   1      33.441  34.788  28.819  1.00  0.00     0.124 S 
ATOM     79  O   UNL A   1      32.531  35.003  29.938  1.00  0.00    -0.237 OA
ATOM     80  O   UNL A   1      34.053  35.988  28.255  1.00  0.00    -0.237 OA
ATOM     81  O   UNL A   1      33.016  33.791  27.841  1.00  0.00    -0.744 OA
ENDBRANCH  77  78
ENDBRANCH  45  70
BRANCH  57  82
ATOM     82  C   UNL A   1      39.881  33.703  37.212  1.00  0.00     0.058 A 
ATOM     83  C   UNL A   1      40.495  34.960  37.320  1.00  0.00     0.135 A 
ATOM     84  C   UNL A   1      38.927  33.354  38.184  1.00  0.00     0.135 A 
ATOM     85  F   UNL A   1      41.413  35.344  36.419  1.00  0.00    -0.206 F 
ATOM     86  C   UNL A   1      40.215  35.817  38.380  1.00  0.00     0.059 A 
ATOM     87  C   UNL A   1      38.605  34.210  39.231  1.00  0.00     0.059 A 
ATOM     88  F   UNL A   1      38.294  32.172  38.117  1.00  0.00    -0.206 F 
ATOM     89  C   UNL A   1      39.272  35.430  39.332  1.00  0.00     0.060 A 
BRANCH  89  90
ATOM     90  S   UNL A   1      38.921  36.549  40.704  1.00  0.00     0.124 S 
ATOM     91  O   UNL A   1      37.927  35.789  41.454  1.00  0.00    -0.237 OA
ATOM     92  O   UNL A   1      40.228  36.684  41.340  1.00  0.00    -0.237 OA
ATOM     93  O   UNL A   1      38.424  37.752  40.043  1.00  0.00    -0.744 OA
ENDBRANCH  89  90
ENDBRANCH  57  82
ENDBRANCH  31  32
ENDBRANCH  24  26
ENDBRANCH  23  24
ENDBRANCH   1  23
TORSDOF 15
ENDMDL
MODEL 2
REMARK VINA RESULT:     -11.3      5.191     11.573
REMARK SMILES O=C(OCCOC(=O)c1ccc(-c2c3nc(c(-c4c(F)cc(S(=O)(=O)[O-])cc4F)c4ccc([nH]4)c(-c4c(F)cc(S(=O)(=O)[O-])cc4F)c4nc(c(-c5c(F)cc(S(=O)(=O)[O-])cc5F)c5ccc2[nH]5)C=C4)C=C3)cc1)C1=Cc2c(cc(Cl)c(Cl)c2Cl)O[C@H]1C(F)(F)F
REMARK SMILES IDX 5 1 4 2 3 3 2 4 1 5 75 6 76 7 87 8 77 9 86 10 78 11 84 12
REMARK SMILES IDX 79 13 82 14 85 15 80 16 83 17 81 18 88 19 89 20 90 21 91 22
REMARK SMILES IDX 6 23 7 24 8 25 9 26 10 27 74 28 11 29 73 30 12 31 13 32
REMARK SMILES IDX 14 33 67 34 15 35 72 36 66 37 68 38 16 39 71 40 65 41 64 42
REMARK SMILES IDX 17 44 51 45 30 46 50 47 31 48 34 49 49 50 69 51 32 52 33 53
REMARK SMILES IDX 48 55 70 56 35 57 18 58 19 59 28 60 20 61 21 62 27 63 29 64
REMARK SMILES IDX 22 65 23 66 24 67 25 68 26 69 52 70 53 71 62 72 54 73 55 74
REMARK SMILES IDX 61 75 63 76 56 77 57 78 58 79 59 80 60 81 36 82 37 83 46 84
REMARK SMILES IDX 38 85 39 86 45 87 47 88 40 89 41 90 42 91 43 92 44 93
REMARK H PARENT 68 43 34 54
REMARK Flexibility Score: inf
ROOT
ATOM      1  C   UNL A   1      34.780  33.072  28.214  1.00  0.00     0.275 C 
ENDROOT
BRANCH   1   2
ATOM      2  C   UNL A   1      36.015  33.919  28.551  1.00  0.00     0.275 C 
BRANCH   2   3
ATOM      3  O   UNL A   1      36.200  34.177  29.958  1.00  0.00    -0.459 OA
BRANCH   3   4
ATOM      4  C   UNL A   1      37.302  34.026  30.720  1.00  0.00     0.338 C 
ATOM      5  O   UNL A   1      38.398  34.319  30.244  1.00  0.00    -0.246 OA
BRANCH   4   6
ATOM      6  C   UNL A   1      37.259  33.531  32.121  1.00  0.00     0.087 C 
ATOM      7  C   UNL A   1      38.281  33.560  32.997  1.00  0.00     0.029 C 
ATOM      8  C   UNL A   1      36.121  32.543  32.355  1.00  0.00     0.316 C 
ATOM      9  C   UNL A   1      38.805  32.191  33.238  1.00  0.00     0.038 A 
ATOM     10  O   UNL A   1      36.536  31.355  33.099  1.00  0.00    -0.475 OA
ATOM     11  C   UNL A   1      37.887  31.138  33.181  1.00  0.00     0.131 A 
ATOM     12  C   UNL A   1      40.172  31.915  33.437  1.00  0.00     0.072 A 
ATOM     13  C   UNL A   1      38.323  29.820  33.246  1.00  0.00     0.069 A 
ATOM     14  C   UNL A   1      40.625  30.587  33.428  1.00  0.00     0.079 A 
ATOM     15  Cl  UNL A   1      41.285  33.217  33.720  1.00  0.00    -0.082 Cl
ATOM     16  C   UNL A   1      39.691  29.545  33.322  1.00  0.00     0.064 A 
ATOM     17  Cl  UNL A   1      42.327  30.238  33.506  1.00  0.00    -0.081 Cl
ATOM     18  Cl  UNL A   1      40.167  27.882  33.278  1.00  0.00    -0.083 Cl
BRANCH   8  19
ATOM     19  C   UNL A   1      34.943  33.238  33.057  1.00  0.00     0.430 C 
ATOM     20  F   UNL A   1      34.879  34.554  32.764  1.00  0.00    -0.167 F 
ATOM     21  F   UNL A   1      33.761  32.684  32.701  1.00  0.00    -0.167 F 
ATOM     22  F   UNL A   1      35.051  33.133  34.406  1.00  0.00    -0.167 F 
ENDBRANCH   8  19
ENDBRANCH   4   6
ENDBRANCH   3   4
ENDBRANCH   2   3
ENDBRANCH   1   2
BRANCH   1  23
ATOM     23  O   UNL A   1      34.654  31.939  29.073  1.00  0.00    -0.458 OA
BRANCH  23  24
ATOM     24  C   UNL A   1      34.635  30.770  28.388  1.00  0.00     0.338 C 
ATOM     25  O   UNL A   1      33.726  30.363  27.682  1.00  0.00    -0.246 OA
BRANCH  24  26
ATOM     26  C   UNL A   1      35.963  30.139  28.469  1.00  0.00     0.060 A 
ATOM     27  C   UNL A   1      36.366  29.691  29.727  1.00  0.00     0.016 A 
ATOM     28  C   UNL A   1      36.805  30.005  27.357  1.00  0.00     0.016 A 
ATOM     29  C   UNL A   1      37.657  29.216  29.903  1.00  0.00     0.010 A 
ATOM     30  C   UNL A   1      38.094  29.498  27.531  1.00  0.00     0.010 A 
ATOM     31  C   UNL A   1      38.545  29.172  28.819  1.00  0.00    -0.014 A 
BRANCH  31  32
ATOM     32  C   UNL A   1      39.980  28.976  29.123  1.00  0.00     0.031 A 
ATOM     33  C   UNL A   1      40.609  27.647  28.800  1.00  0.00     0.074 A 
ATOM     34  C   UNL A   1      40.729  30.019  29.519  1.00  0.00     0.049 A 
ATOM     35  N   UNL A   1      41.874  27.321  28.749  1.00  0.00    -0.248 NA
ATOM     36  C   UNL A   1      39.693  26.537  28.481  1.00  0.00     0.031 C 
ATOM     37  C   UNL A   1      40.212  31.347  29.859  1.00  0.00     0.029 A 
ATOM     38  N   UNL A   1      42.085  30.138  29.668  1.00  0.00    -0.354 N 
ATOM     39  C   UNL A   1      41.903  25.987  28.356  1.00  0.00     0.074 A 
ATOM     40  C   UNL A   1      40.534  25.539  28.262  1.00  0.00     0.031 C 
ATOM     41  C   UNL A   1      41.245  32.154  30.154  1.00  0.00     0.029 A 
ATOM     42  C   UNL A   1      42.490  31.400  30.029  1.00  0.00     0.049 A 
ATOM     43  H   UNL A   1      42.710  29.390  29.529  1.00  0.00     0.167 HD
ATOM     44  C   UNL A   1      42.977  25.218  28.061  1.00  0.00     0.037 A 
ATOM     45  C   UNL A   1      43.730  31.889  30.220  1.00  0.00     0.037 A 
ATOM     46  C   UNL A   1      44.336  25.672  28.177  1.00  0.00     0.049 A 
ATOM     47  C   UNL A   1      44.911  30.997  29.935  1.00  0.00     0.074 A 
ATOM     48  C   UNL A   1      45.504  24.978  27.920  1.00  0.00     0.029 A 
ATOM     49  N   UNL A   1      44.708  26.944  28.592  1.00  0.00    -0.354 N 
ATOM     50  N   UNL A   1      44.925  29.754  29.511  1.00  0.00    -0.248 NA
ATOM     51  C   UNL A   1      46.244  31.580  30.128  1.00  0.00     0.031 C 
ATOM     52  C   UNL A   1      46.583  25.815  28.226  1.00  0.00     0.029 A 
ATOM     53  C   UNL A   1      46.089  27.050  28.618  1.00  0.00     0.049 A 
ATOM     54  H   UNL A   1      44.082  27.665  28.832  1.00  0.00     0.167 HD
ATOM     55  C   UNL A   1      46.267  29.415  29.367  1.00  0.00     0.074 A 
ATOM     56  C   UNL A   1      47.030  30.595  29.719  1.00  0.00     0.031 C 
ATOM     57  C   UNL A   1      46.822  28.237  28.982  1.00  0.00     0.037 A 
BRANCH  44  58
ATOM     58  C   UNL A   1      42.714  23.813  27.588  1.00  0.00     0.058 A 
ATOM     59  C   UNL A   1      42.614  22.740  28.493  1.00  0.00     0.135 A 
ATOM     60  C   UNL A   1      42.546  23.533  26.224  1.00  0.00     0.135 A 
ATOM     61  F   UNL A   1      42.791  22.946  29.808  1.00  0.00    -0.206 F 
ATOM     62  C   UNL A   1      42.381  21.440  28.058  1.00  0.00     0.059 A 
ATOM     63  C   UNL A   1      42.284  22.242  25.770  1.00  0.00     0.059 A 
ATOM     64  F   UNL A   1      42.639  24.515  25.315  1.00  0.00    -0.206 F 
ATOM     65  C   UNL A   1      42.216  21.200  26.694  1.00  0.00     0.060 A 
BRANCH  65  66
ATOM     66  S   UNL A   1      41.907  19.508  26.148  1.00  0.00     0.124 S 
ATOM     67  O   UNL A   1      40.467  19.535  25.912  1.00  0.00    -0.237 OA
ATOM     68  O   UNL A   1      42.743  19.408  24.955  1.00  0.00    -0.237 OA
ATOM     69  O   UNL A   1      42.340  18.699  27.282  1.00  0.00    -0.744 OA
ENDBRANCH  65  66
ENDBRANCH  44  58
BRANCH  45  70
ATOM     70  C   UNL A   1      43.916  33.286  30.699  1.00  0.00     0.058 A 
ATOM     71  C   UNL A   1      44.222  33.578  32.036  1.00  0.00     0.135 A 
ATOM     72  C   UNL A   1      43.769  34.368  29.815  1.00  0.00     0.135 A 
ATOM     73  F   UNL A   1      44.371  32.582  32.924  1.00  0.00    -0.206 F 
ATOM     74  C   UNL A   1      44.343  34.890  32.488  1.00  0.00     0.059 A 
ATOM     75  C   UNL A   1      43.916  35.686  30.235  1.00  0.00     0.059 A 
ATOM     76  F   UNL A   1      43.491  34.146  28.521  1.00  0.00    -0.206 F 
ATOM     77  C   UNL A   1      44.186  35.938  31.579  1.00  0.00     0.060 A 
BRANCH  77  78
ATOM     78  S   UNL A   1      44.357  37.636  32.169  1.00  0.00     0.124 S 
ATOM     79  O   UNL A   1      43.937  38.398  30.999  1.00  0.00    -0.237 OA
ATOM     80  O   UNL A   1      43.443  37.658  33.308  1.00  0.00    -0.237 OA
ATOM     81  O   UNL A   1      45.774  37.732  32.510  1.00  0.00    -0.744 OA
ENDBRANCH  77  78
ENDBRANCH  45  70
BRANCH  57  82
ATOM     82  C   UNL A   1      48.325  28.181  28.908  1.00  0.00     0.058 A 
ATOM     83  C   UNL A   1      49.018  28.509  27.734  1.00  0.00     0.135 A 
ATOM     84  C   UNL A   1      49.080  27.813  30.035  1.00  0.00     0.135 A 
ATOM     85  F   UNL A   1      48.345  28.868  26.629  1.00  0.00    -0.206 F 
ATOM     86  C   UNL A   1      50.405  28.426  27.661  1.00  0.00     0.059 A 
ATOM     87  C   UNL A   1      50.469  27.759  29.996  1.00  0.00     0.059 A 
ATOM     88  F   UNL A   1      48.469  27.509  31.190  1.00  0.00    -0.206 F 
ATOM     89  C   UNL A   1      51.120  28.045  28.797  1.00  0.00     0.060 A 
BRANCH  89  90
ATOM     90  S   UNL A   1      52.919  27.937  28.688  1.00  0.00     0.124 S 
ATOM     91  O   UNL A   1      53.198  26.813  29.576  1.00  0.00    -0.237 OA
ATOM     92  O   UNL A   1      53.132  27.688  27.266  1.00  0.00    -0.237 OA
ATOM     93  O   UNL A   1      53.367  29.241  29.165  1.00  0.00    -0.744 OA
ENDBRANCH  89  90
ENDBRANCH  57  82
ENDBRANCH  31  32
ENDBRANCH  24  26
ENDBRANCH  23  24
ENDBRANCH   1  23
TORSDOF 15
ENDMDL
MODEL 3
REMARK VINA RESULT:     -11.2      3.861     11.392
REMARK SMILES O=C(OCCOC(=O)c1ccc(-c2c3nc(c(-c4c(F)cc(S(=O)(=O)[O-])cc4F)c4ccc([nH]4)c(-c4c(F)cc(S(=O)(=O)[O-])cc4F)c4nc(c(-c5c(F)cc(S(=O)(=O)[O-])cc5F)c5ccc2[nH]5)C=C4)C=C3)cc1)C1=Cc2c(cc(Cl)c(Cl)c2Cl)O[C@H]1C(F)(F)F
REMARK SMILES IDX 5 1 4 2 3 3 2 4 1 5 75 6 76 7 87 8 77 9 86 10 78 11 84 12
REMARK SMILES IDX 79 13 82 14 85 15 80 16 83 17 81 18 88 19 89 20 90 21 91 22
REMARK SMILES IDX 6 23 7 24 8 25 9 26 10 27 74 28 11 29 73 30 12 31 13 32
REMARK SMILES IDX 14 33 67 34 15 35 72 36 66 37 68 38 16 39 71 40 65 41 64 42
REMARK SMILES IDX 17 44 51 45 30 46 50 47 31 48 34 49 49 50 69 51 32 52 33 53
REMARK SMILES IDX 48 55 70 56 35 57 18 58 19 59 28 60 20 61 21 62 27 63 29 64
REMARK SMILES IDX 22 65 23 66 24 67 25 68 26 69 52 70 53 71 62 72 54 73 55 74
REMARK SMILES IDX 61 75 63 76 56 77 57 78 58 79 59 80 60 81 36 82 37 83 46 84
REMARK SMILES IDX 38 85 39 86 45 87 47 88 40 89 41 90 42 91 43 92 44 93
REMARK H PARENT 68 43 34 54
REMARK Flexibility Score: inf
ROOT
ATOM      1  C   UNL A   1      33.659  32.822  28.159  1.00  0.00     0.275 C 
ENDROOT
BRANCH   1   2
ATOM      2  C   UNL A   1      34.000  33.387  29.546  1.00  0.00     0.275 C 
BRANCH   2   3
ATOM      3  O   UNL A   1      34.591  32.433  30.453  1.00  0.00    -0.459 OA
BRANCH   3   4
ATOM      4  C   UNL A   1      35.524  32.624  31.409  1.00  0.00     0.338 C 
ATOM      5  O   UNL A   1      35.921  31.654  32.052  1.00  0.00    -0.246 OA
BRANCH   4   6
ATOM      6  C   UNL A   1      36.110  33.954  31.718  1.00  0.00     0.087 C 
ATOM      7  C   UNL A   1      36.993  34.622  30.952  1.00  0.00     0.029 C 
ATOM      8  C   UNL A   1      36.014  34.302  33.200  1.00  0.00     0.316 C 
ATOM      9  C   UNL A   1      38.337  34.628  31.585  1.00  0.00     0.038 A 
ATOM     10  O   UNL A   1      37.261  34.839  33.745  1.00  0.00    -0.475 OA
ATOM     11  C   UNL A   1      38.383  34.646  32.983  1.00  0.00     0.131 A 
ATOM     12  C   UNL A   1      39.534  34.540  30.848  1.00  0.00     0.072 A 
ATOM     13  C   UNL A   1      39.594  34.502  33.648  1.00  0.00     0.069 A 
ATOM     14  C   UNL A   1      40.750  34.321  31.514  1.00  0.00     0.079 A 
ATOM     15  Cl  UNL A   1      39.505  34.733  29.123  1.00  0.00    -0.082 Cl
ATOM     16  C   UNL A   1      40.768  34.293  32.917  1.00  0.00     0.064 A 
ATOM     17  Cl  UNL A   1      42.210  34.044  30.611  1.00  0.00    -0.081 Cl
ATOM     18  Cl  UNL A   1      42.217  34.003  33.815  1.00  0.00    -0.083 Cl
BRANCH   8  19
ATOM     19  C   UNL A   1      34.850  35.276  33.449  1.00  0.00     0.430 C 
ATOM     20  F   UNL A   1      35.030  36.457  32.819  1.00  0.00    -0.167 F 
ATOM     21  F   UNL A   1      33.676  34.760  33.019  1.00  0.00    -0.167 F 
ATOM     22  F   UNL A   1      34.716  35.545  34.772  1.00  0.00    -0.167 F 
ENDBRANCH   8  19
ENDBRANCH   4   6
ENDBRANCH   3   4
ENDBRANCH   2   3
ENDBRANCH   1   2
BRANCH   1  23
ATOM     23  O   UNL A   1      34.815  32.341  27.474  1.00  0.00    -0.458 OA
BRANCH  23  24
ATOM     24  C   UNL A   1      34.933  30.993  27.541  1.00  0.00     0.338 C 
ATOM     25  O   UNL A   1      34.096  30.177  27.186  1.00  0.00    -0.246 OA
BRANCH  24  26
ATOM     26  C   UNL A   1      36.308  30.645  27.937  1.00  0.00     0.060 A 
ATOM     27  C   UNL A   1      36.635  29.289  27.933  1.00  0.00     0.016 A 
ATOM     28  C   UNL A   1      37.249  31.608  28.322  1.00  0.00     0.016 A 
ATOM     29  C   UNL A   1      37.865  28.880  28.426  1.00  0.00     0.010 A 
ATOM     30  C   UNL A   1      38.499  31.196  28.790  1.00  0.00     0.010 A 
ATOM     31  C   UNL A   1      38.778  29.827  28.912  1.00  0.00    -0.014 A 
BRANCH  31  32
ATOM     32  C   UNL A   1      39.914  29.326  29.718  1.00  0.00     0.031 A 
ATOM     33  C   UNL A   1      40.039  29.780  31.147  1.00  0.00     0.074 A 
ATOM     34  C   UNL A   1      40.709  28.360  29.225  1.00  0.00     0.049 A 
ATOM     35  N   UNL A   1      40.791  29.302  32.104  1.00  0.00    -0.248 NA
ATOM     36  C   UNL A   1      39.199  30.919  31.560  1.00  0.00     0.031 C 
ATOM     37  C   UNL A   1      40.667  27.852  27.852  1.00  0.00     0.029 A 
ATOM     38  N   UNL A   1      41.679  27.608  29.833  1.00  0.00    -0.354 N 
ATOM     39  C   UNL A   1      40.484  30.054  33.234  1.00  0.00     0.074 A 
ATOM     40  C   UNL A   1      39.543  31.071  32.828  1.00  0.00     0.031 C 
ATOM     41  C   UNL A   1      41.558  26.854  27.729  1.00  0.00     0.029 A 
ATOM     42  C   UNL A   1      42.233  26.657  29.009  1.00  0.00     0.049 A 
ATOM     43  H   UNL A   1      41.953  27.736  30.769  1.00  0.00     0.167 HD
ATOM     44  C   UNL A   1      40.920  29.884  34.504  1.00  0.00     0.037 A 
ATOM     45  C   UNL A   1      43.169  25.725  29.271  1.00  0.00     0.037 A 
ATOM     46  C   UNL A   1      41.871  28.877  34.890  1.00  0.00     0.049 A 
ATOM     47  C   UNL A   1      43.677  25.588  30.684  1.00  0.00     0.074 A 
ATOM     48  C   UNL A   1      42.396  28.620  36.143  1.00  0.00     0.029 A 
ATOM     49  N   UNL A   1      42.446  27.963  34.019  1.00  0.00    -0.354 N 
ATOM     50  N   UNL A   1      43.338  26.270  31.755  1.00  0.00    -0.248 NA
ATOM     51  C   UNL A   1      44.674  24.540  30.931  1.00  0.00     0.031 C 
ATOM     52  C   UNL A   1      43.325  27.580  36.020  1.00  0.00     0.029 A 
ATOM     53  C   UNL A   1      43.336  27.151  34.702  1.00  0.00     0.049 A 
ATOM     54  H   UNL A   1      42.249  27.899  33.056  1.00  0.00     0.167 HD
ATOM     55  C   UNL A   1      44.065  25.718  32.804  1.00  0.00     0.074 A 
ATOM     56  C   UNL A   1      44.836  24.627  32.243  1.00  0.00     0.031 C 
ATOM     57  C   UNL A   1      44.098  26.077  34.114  1.00  0.00     0.037 A 
BRANCH  44  58
ATOM     58  C   UNL A   1      40.366  30.808  35.556  1.00  0.00     0.058 A 
ATOM     59  C   UNL A   1      41.180  31.753  36.205  1.00  0.00     0.135 A 
ATOM     60  C   UNL A   1      39.009  30.763  35.911  1.00  0.00     0.135 A 
ATOM     61  F   UNL A   1      42.491  31.823  35.923  1.00  0.00    -0.206 F 
ATOM     62  C   UNL A   1      40.674  32.601  37.185  1.00  0.00     0.059 A 
ATOM     63  C   UNL A   1      38.476  31.622  36.869  1.00  0.00     0.059 A 
ATOM     64  F   UNL A   1      38.187  29.876  35.330  1.00  0.00    -0.206 F 
ATOM     65  C   UNL A   1      39.319  32.529  37.509  1.00  0.00     0.060 A 
BRANCH  65  66
ATOM     66  S   UNL A   1      38.677  33.642  38.776  1.00  0.00     0.124 S 
ATOM     67  O   UNL A   1      38.929  34.948  38.174  1.00  0.00    -0.237 OA
ATOM     68  O   UNL A   1      37.275  33.243  38.860  1.00  0.00    -0.237 OA
ATOM     69  O   UNL A   1      39.487  33.328  39.949  1.00  0.00    -0.744 OA
ENDBRANCH  65  66
ENDBRANCH  44  58
BRANCH  45  70
ATOM     70  C   UNL A   1      43.678  24.851  28.179  1.00  0.00     0.058 A 
ATOM     71  C   UNL A   1      44.773  25.220  27.383  1.00  0.00     0.135 A 
ATOM     72  C   UNL A   1      43.056  23.623  27.900  1.00  0.00     0.135 A 
ATOM     73  F   UNL A   1      45.402  26.384  27.605  1.00  0.00    -0.206 F 
ATOM     74  C   UNL A   1      45.211  24.421  26.330  1.00  0.00     0.059 A 
ATOM     75  C   UNL A   1      43.495  22.793  26.874  1.00  0.00     0.059 A 
ATOM     76  F   UNL A   1      42.014  23.214  28.641  1.00  0.00    -0.206 F 
ATOM     77  C   UNL A   1      44.563  23.209  26.082  1.00  0.00     0.060 A 
BRANCH  77  78
ATOM     78  S   UNL A   1      45.145  22.173  24.723  1.00  0.00     0.124 S 
ATOM     79  O   UNL A   1      45.125  23.111  23.607  1.00  0.00    -0.237 OA
ATOM     80  O   UNL A   1      46.467  21.767  25.193  1.00  0.00    -0.237 OA
ATOM     81  O   UNL A   1      44.153  21.103  24.668  1.00  0.00    -0.744 OA
ENDBRANCH  77  78
ENDBRANCH  45  70
BRANCH  57  82
ATOM     82  C   UNL A   1      44.985  25.269  35.022  1.00  0.00     0.058 A 
ATOM     83  C   UNL A   1      46.315  25.639  35.274  1.00  0.00     0.135 A 
ATOM     84  C   UNL A   1      44.491  24.121  35.664  1.00  0.00     0.135 A 
ATOM     85  F   UNL A   1      46.837  26.728  34.687  1.00  0.00    -0.206 F 
ATOM     86  C   UNL A   1      47.141  24.872  36.090  1.00  0.00     0.059 A 
ATOM     87  C   UNL A   1      45.288  23.360  36.512  1.00  0.00     0.059 A 
ATOM     88  F   UNL A   1      43.221  23.733  35.474  1.00  0.00    -0.206 F 
ATOM     89  C   UNL A   1      46.618  23.732  36.701  1.00  0.00     0.060 A 
BRANCH  89  90
ATOM     90  S   UNL A   1      47.701  22.743  37.753  1.00  0.00     0.124 S 
ATOM     91  O   UNL A   1      47.034  22.856  39.046  1.00  0.00    -0.237 OA
ATOM     92  O   UNL A   1      47.638  21.429  37.120  1.00  0.00    -0.237 OA
ATOM     93  O   UNL A   1      48.989  23.422  37.649  1.00  0.00    -0.744 OA
ENDBRANCH  89  90
ENDBRANCH  57  82
ENDBRANCH  31  32
ENDBRANCH  24  26
ENDBRANCH  23  24
ENDBRANCH   1  23
TORSDOF 15
ENDMDL
