MODEL 1
REMARK VINA RESULT:     -12.1      0.000      0.000
REMARK SMILES O=C(OCCOC(=O)c1ccc2c(=O)n(Cc3cccnc3)c(=O)[nH]c2c1)c1ccc(-c2c3nc(c(-c4c(F)cc(S(=O)(=O)[O-])cc4F)c4ccc([nH]4)c(-c4c(F)cc(S(=O)(=O)[O-])cc4F)c4nc(c(-c5c(F)cc(S(=O)(=O)[O-])cc5F)c5ccc2[nH]5)C=C4)C=C3)cc1
REMARK SMILES IDX 4 1 3 2 2 3 1 4 28 5 29 6 93 7 30 8 92 9 31 10 32 11 33 12
REMARK SMILES IDX 86 13 34 14 91 15 85 16 87 17 35 18 90 19 84 20 83 21 36 23
REMARK SMILES IDX 70 24 49 25 69 26 50 27 53 28 68 29 88 30 51 31 52 32 67 34
REMARK SMILES IDX 89 35 54 36 37 37 38 38 47 39 39 40 40 41 46 42 48 43 41 44
REMARK SMILES IDX 42 45 43 46 44 47 45 48 71 49 72 50 81 51 73 52 74 53 80 54
REMARK SMILES IDX 82 55 75 56 76 57 77 58 78 59 79 60 55 61 56 62 65 63 57 64
REMARK SMILES IDX 58 65 64 66 66 67 59 68 60 69 61 70 62 71 63 72 5 73 6 74
REMARK SMILES IDX 7 75 8 76 9 77 10 78 27 79 11 80 26 81 12 82 25 83 13 84
REMARK SMILES IDX 23 85 14 87 15 88 24 89 16 90 17 91 18 92 22 93 19 94 21 95
REMARK SMILES IDX 20 96
REMARK H PARENT 87 22 53 33 25 86
REMARK Flexibility Score: inf
ROOT
ATOM      1  C   UNL A   1      34.565  32.207  29.222  1.00  0.00     0.275 C 
ENDROOT
BRANCH   1   2
ATOM      2  O   UNL A   1      35.920  31.968  29.633  1.00  0.00    -0.458 OA
BRANCH   2   3
ATOM      3  C   UNL A   1      36.473  30.831  30.119  1.00  0.00     0.338 C 
ATOM      4  O   UNL A   1      35.942  30.270  31.076  1.00  0.00    -0.246 OA
BRANCH   3   5
ATOM      5  C   UNL A   1      37.816  30.342  29.682  1.00  0.00     0.060 A 
ATOM      6  C   UNL A   1      38.762  30.154  30.701  1.00  0.00     0.016 A 
ATOM      7  C   UNL A   1      38.197  30.041  28.374  1.00  0.00     0.016 A 
ATOM      8  C   UNL A   1      40.086  29.823  30.403  1.00  0.00     0.010 A 
ATOM      9  C   UNL A   1      39.520  29.695  28.071  1.00  0.00     0.010 A 
ATOM     10  C   UNL A   1      40.484  29.618  29.078  1.00  0.00    -0.014 A 
BRANCH  10  11
ATOM     11  C   UNL A   1      41.858  29.163  28.768  1.00  0.00     0.031 A 
ATOM     12  C   UNL A   1      43.031  30.100  28.759  1.00  0.00     0.074 A 
ATOM     13  C   UNL A   1      42.030  27.864  28.466  1.00  0.00     0.049 A 
ATOM     14  N   UNL A   1      44.303  29.825  28.622  1.00  0.00    -0.248 NA
ATOM     15  C   UNL A   1      42.747  31.528  28.946  1.00  0.00     0.031 C 
ATOM     16  C   UNL A   1      40.963  26.862  28.435  1.00  0.00     0.029 A 
ATOM     17  N   UNL A   1      43.155  27.170  28.118  1.00  0.00    -0.354 N 
ATOM     18  C   UNL A   1      44.976  31.024  28.819  1.00  0.00     0.074 A 
ATOM     19  C   UNL A   1      43.968  32.047  28.996  1.00  0.00     0.031 C 
ATOM     20  C   UNL A   1      41.486  25.679  28.090  1.00  0.00     0.029 A 
ATOM     21  C   UNL A   1      42.909  25.852  27.829  1.00  0.00     0.049 A 
ATOM     22  H   UNL A   1      44.051  27.575  28.079  1.00  0.00     0.167 HD
ATOM     23  C   UNL A   1      46.313  31.243  28.863  1.00  0.00     0.037 A 
ATOM     24  C   UNL A   1      43.732  24.892  27.372  1.00  0.00     0.037 A 
ATOM     25  C   UNL A   1      47.294  30.248  28.510  1.00  0.00     0.049 A 
ATOM     26  C   UNL A   1      45.177  25.221  27.167  1.00  0.00     0.074 A 
ATOM     27  C   UNL A   1      48.673  30.348  28.511  1.00  0.00     0.029 A 
ATOM     28  N   UNL A   1      46.987  28.987  28.020  1.00  0.00    -0.354 N 
ATOM     29  N   UNL A   1      45.812  26.340  27.430  1.00  0.00    -0.248 NA
ATOM     30  C   UNL A   1      46.018  24.162  26.603  1.00  0.00     0.031 C 
ATOM     31  C   UNL A   1      49.196  29.164  27.969  1.00  0.00     0.029 A 
ATOM     32  C   UNL A   1      48.146  28.305  27.688  1.00  0.00     0.049 A 
ATOM     33  H   UNL A   1      46.075  28.627  27.922  1.00  0.00     0.167 HD
ATOM     34  C   UNL A   1      47.132  26.121  27.065  1.00  0.00     0.074 A 
ATOM     35  C   UNL A   1      47.206  24.755  26.580  1.00  0.00     0.031 C 
ATOM     36  C   UNL A   1      48.189  26.970  27.140  1.00  0.00     0.037 A 
BRANCH  23  37
ATOM     37  C   UNL A   1      46.775  32.608  29.296  1.00  0.00     0.058 A 
ATOM     38  C   UNL A   1      47.068  33.604  28.348  1.00  0.00     0.135 A 
ATOM     39  C   UNL A   1      46.915  32.940  30.651  1.00  0.00     0.135 A 
ATOM     40  F   UNL A   1      46.958  33.339  27.037  1.00  0.00    -0.206 F 
ATOM     41  C   UNL A   1      47.515  34.868  28.726  1.00  0.00     0.059 A 
ATOM     42  C   UNL A   1      47.346  34.204  31.054  1.00  0.00     0.059 A 
ATOM     43  F   UNL A   1      46.652  32.029  31.599  1.00  0.00    -0.206 F 
ATOM     44  C   UNL A   1      47.658  35.155  30.084  1.00  0.00     0.060 A 
BRANCH  44  45
ATOM     45  S   UNL A   1      48.294  36.780  30.556  1.00  0.00     0.124 S 
ATOM     46  O   UNL A   1      47.093  37.604  30.452  1.00  0.00    -0.237 OA
ATOM     47  O   UNL A   1      48.784  36.541  31.909  1.00  0.00    -0.237 OA
ATOM     48  O   UNL A   1      49.322  37.048  29.555  1.00  0.00    -0.744 OA
ENDBRANCH  44  45
ENDBRANCH  23  37
BRANCH  24  49
ATOM     49  C   UNL A   1      43.164  23.555  27.079  1.00  0.00     0.058 A 
ATOM     50  C   UNL A   1      42.930  23.147  25.762  1.00  0.00     0.135 A 
ATOM     51  C   UNL A   1      42.984  22.611  28.105  1.00  0.00     0.135 A 
ATOM     52  F   UNL A   1      43.069  24.021  24.753  1.00  0.00    -0.206 F 
ATOM     53  C   UNL A   1      42.571  21.836  25.463  1.00  0.00     0.059 A 
ATOM     54  C   UNL A   1      42.645  21.292  27.831  1.00  0.00     0.059 A 
ATOM     55  F   UNL A   1      43.210  22.956  29.383  1.00  0.00    -0.206 F 
ATOM     56  C   UNL A   1      42.451  20.911  26.504  1.00  0.00     0.060 A 
BRANCH  56  57
ATOM     57  S   UNL A   1      42.112  19.186  26.095  1.00  0.00     0.124 S 
ATOM     58  O   UNL A   1      42.986  18.977  24.946  1.00  0.00    -0.237 OA
ATOM     59  O   UNL A   1      42.497  18.498  27.324  1.00  0.00    -0.237 OA
ATOM     60  O   UNL A   1      40.681  19.183  25.806  1.00  0.00    -0.744 OA
ENDBRANCH  56  57
ENDBRANCH  24  49
BRANCH  36  61
ATOM     61  C   UNL A   1      49.507  26.433  26.659  1.00  0.00     0.058 A 
ATOM     62  C   UNL A   1      50.410  25.820  27.542  1.00  0.00     0.135 A 
ATOM     63  C   UNL A   1      49.882  26.556  25.313  1.00  0.00     0.135 A 
ATOM     64  F   UNL A   1      50.101  25.691  28.843  1.00  0.00    -0.206 F 
ATOM     65  C   UNL A   1      51.658  25.384  27.114  1.00  0.00     0.059 A 
ATOM     66  C   UNL A   1      51.114  26.101  24.857  1.00  0.00     0.059 A 
ATOM     67  F   UNL A   1      49.051  27.129  24.428  1.00  0.00    -0.206 F 
ATOM     68  C   UNL A   1      52.004  25.536  25.771  1.00  0.00     0.060 A 
BRANCH  68  69
ATOM     69  S   UNL A   1      53.635  24.984  25.230  1.00  0.00     0.124 S 
ATOM     70  O   UNL A   1      53.432  23.544  25.115  1.00  0.00    -0.237 OA
ATOM     71  O   UNL A   1      53.809  25.703  23.972  1.00  0.00    -0.237 OA
ATOM     72  O   UNL A   1      54.514  25.411  26.315  1.00  0.00    -0.744 OA
ENDBRANCH  68  69
ENDBRANCH  36  61
ENDBRANCH  10  11
ENDBRANCH   3   5
ENDBRANCH   2   3
ENDBRANCH   1   2
BRANCH   1  73
ATOM     73  C   UNL A   1      34.256  31.846  27.767  1.00  0.00     0.275 C 
BRANCH  73  74
ATOM     74  O   UNL A   1      33.668  30.548  27.598  1.00  0.00    -0.458 OA
BRANCH  74  75
ATOM     75  C   UNL A   1      32.503  30.526  26.898  1.00  0.00     0.338 C 
ATOM     76  O   UNL A   1      31.772  31.470  26.652  1.00  0.00    -0.246 OA
BRANCH  75  77
ATOM     77  C   UNL A   1      32.303  29.174  26.343  1.00  0.00     0.062 A 
ATOM     78  C   UNL A   1      31.904  28.109  27.155  1.00  0.00     0.016 A 
ATOM     79  C   UNL A   1      32.581  28.972  24.985  1.00  0.00     0.042 A 
ATOM     80  C   UNL A   1      31.817  26.823  26.609  1.00  0.00     0.017 A 
ATOM     81  C   UNL A   1      32.586  27.671  24.479  1.00  0.00     0.056 A 
ATOM     82  C   UNL A   1      32.199  26.606  25.281  1.00  0.00     0.064 A 
ATOM     83  N   UNL A   1      33.067  27.420  23.196  1.00  0.00    -0.307 N 
ATOM     84  C   UNL A   1      32.222  25.250  24.700  1.00  0.00     0.264 A 
ATOM     85  C   UNL A   1      33.269  26.164  22.689  1.00  0.00     0.329 A 
ATOM     86  H   UNL A   1      33.274  28.192  22.620  1.00  0.00     0.171 HD
ATOM     87  O   UNL A   1      31.631  24.351  25.288  1.00  0.00    -0.268 OA
ATOM     88  N   UNL A   1      32.880  25.099  23.482  1.00  0.00    -0.255 N 
ATOM     89  O   UNL A   1      33.753  26.057  21.563  1.00  0.00    -0.248 OA
BRANCH  88  90
ATOM     90  C   UNL A   1      32.984  23.753  22.929  1.00  0.00     0.168 C 
BRANCH  90  91
ATOM     91  C   UNL A   1      34.140  22.932  23.445  1.00  0.00    -0.010 A 
ATOM     92  C   UNL A   1      35.469  23.335  23.278  1.00  0.00     0.009 A 
ATOM     93  C   UNL A   1      33.921  21.788  24.209  1.00  0.00     0.116 A 
ATOM     94  C   UNL A   1      36.493  22.618  23.889  1.00  0.00     0.020 A 
ATOM     95  N   UNL A   1      34.896  21.075  24.818  1.00  0.00    -0.264 NA
ATOM     96  C   UNL A   1      36.163  21.509  24.646  1.00  0.00     0.111 A 
ENDBRANCH  90  91
ENDBRANCH  88  90
ENDBRANCH  75  77
ENDBRANCH  74  75
ENDBRANCH  73  74
ENDBRANCH   1  73
TORSDOF 16
ENDMDL
MODEL 2
REMARK VINA RESULT:     -12.1      6.000     11.774
REMARK SMILES O=C(OCCOC(=O)c1ccc2c(=O)n(Cc3cccnc3)c(=O)[nH]c2c1)c1ccc(-c2c3nc(c(-c4c(F)cc(S(=O)(=O)[O-])cc4F)c4ccc([nH]4)c(-c4c(F)cc(S(=O)(=O)[O-])cc4F)c4nc(c(-c5c(F)cc(S(=O)(=O)[O-])cc5F)c5ccc2[nH]5)C=C4)C=C3)cc1
REMARK SMILES IDX 4 1 3 2 2 3 1 4 28 5 29 6 93 7 30 8 92 9 31 10 32 11 33 12
REMARK SMILES IDX 86 13 34 14 91 15 85 16 87 17 35 18 90 19 84 20 83 21 36 23
REMARK SMILES IDX 70 24 49 25 69 26 50 27 53 28 68 29 88 30 51 31 52 32 67 34
REMARK SMILES IDX 89 35 54 36 37 37 38 38 47 39 39 40 40 41 46 42 48 43 41 44
REMARK SMILES IDX 42 45 43 46 44 47 45 48 71 49 72 50 81 51 73 52 74 53 80 54
REMARK SMILES IDX 82 55 75 56 76 57 77 58 78 59 79 60 55 61 56 62 65 63 57 64
REMARK SMILES IDX 58 65 64 66 66 67 59 68 60 69 61 70 62 71 63 72 5 73 6 74
REMARK SMILES IDX 7 75 8 76 9 77 10 78 27 79 11 80 26 81 12 82 25 83 13 84
REMARK SMILES IDX 23 85 14 87 15 88 24 89 16 90 17 91 18 92 22 93 19 94 21 95
REMARK SMILES IDX 20 96
REMARK H PARENT 87 22 53 33 25 86
REMARK Flexibility Score: inf
ROOT
ATOM      1  C   UNL A   1      40.402  22.634  27.121  1.00  0.00     0.275 C 
ENDROOT
BRANCH   1   2
ATOM      2  O   UNL A   1      41.411  23.461  26.518  1.00  0.00    -0.458 OA
BRANCH   2   3
ATOM      3  C   UNL A   1      41.402  24.800  26.313  1.00  0.00     0.338 C 
ATOM      4  O   UNL A   1      41.768  25.241  25.225  1.00  0.00    -0.246 OA
BRANCH   3   5
ATOM      5  C   UNL A   1      41.169  25.778  27.419  1.00  0.00     0.060 A 
ATOM      6  C   UNL A   1      42.119  26.803  27.541  1.00  0.00     0.016 A 
ATOM      7  C   UNL A   1      40.096  25.773  28.310  1.00  0.00     0.016 A 
ATOM      8  C   UNL A   1      42.078  27.700  28.611  1.00  0.00     0.010 A 
ATOM      9  C   UNL A   1      40.043  26.678  29.377  1.00  0.00     0.010 A 
ATOM     10  C   UNL A   1      41.052  27.627  29.558  1.00  0.00    -0.014 A 
BRANCH  10  11
ATOM     11  C   UNL A   1      40.945  28.641  30.631  1.00  0.00     0.031 A 
ATOM     12  C   UNL A   1      41.830  28.622  31.844  1.00  0.00     0.074 A 
ATOM     13  C   UNL A   1      40.000  29.588  30.501  1.00  0.00     0.049 A 
ATOM     14  N   UNL A   1      41.931  29.507  32.803  1.00  0.00    -0.248 NA
ATOM     15  C   UNL A   1      42.733  27.475  31.994  1.00  0.00     0.031 C 
ATOM     16  C   UNL A   1      39.077  29.701  29.369  1.00  0.00     0.029 A 
ATOM     17  N   UNL A   1      39.652  30.621  31.325  1.00  0.00    -0.354 N 
ATOM     18  C   UNL A   1      42.982  29.082  33.605  1.00  0.00     0.074 A 
ATOM     19  C   UNL A   1      43.430  27.813  33.073  1.00  0.00     0.031 C 
ATOM     20  C   UNL A   1      38.268  30.749  29.570  1.00  0.00     0.029 A 
ATOM     21  C   UNL A   1      38.584  31.346  30.861  1.00  0.00     0.049 A 
ATOM     22  H   UNL A   1      40.120  30.824  32.167  1.00  0.00     0.167 HD
ATOM     23  C   UNL A   1      43.530  29.705  34.677  1.00  0.00     0.037 A 
ATOM     24  C   UNL A   1      37.910  32.363  31.427  1.00  0.00     0.037 A 
ATOM     25  C   UNL A   1      42.960  30.875  35.294  1.00  0.00     0.049 A 
ATOM     26  C   UNL A   1      38.366  32.878  32.756  1.00  0.00     0.074 A 
ATOM     27  C   UNL A   1      43.417  31.595  36.383  1.00  0.00     0.029 A 
ATOM     28  N   UNL A   1      41.756  31.452  34.913  1.00  0.00    -0.354 N 
ATOM     29  N   UNL A   1      39.408  32.514  33.465  1.00  0.00    -0.248 NA
ATOM     30  C   UNL A   1      37.558  33.939  33.361  1.00  0.00     0.031 C 
ATOM     31  C   UNL A   1      42.460  32.573  36.692  1.00  0.00     0.029 A 
ATOM     32  C   UNL A   1      41.437  32.501  35.759  1.00  0.00     0.049 A 
ATOM     33  H   UNL A   1      41.207  31.157  34.151  1.00  0.00     0.167 HD
ATOM     34  C   UNL A   1      39.385  33.303  34.606  1.00  0.00     0.074 A 
ATOM     35  C   UNL A   1      38.233  34.177  34.479  1.00  0.00     0.031 C 
ATOM     36  C   UNL A   1      40.248  33.313  35.654  1.00  0.00     0.037 A 
BRANCH  23  37
ATOM     37  C   UNL A   1      44.796  29.120  35.242  1.00  0.00     0.058 A 
ATOM     38  C   UNL A   1      44.752  28.162  36.269  1.00  0.00     0.135 A 
ATOM     39  C   UNL A   1      46.059  29.496  34.759  1.00  0.00     0.135 A 
ATOM     40  F   UNL A   1      43.572  27.770  36.774  1.00  0.00    -0.206 F 
ATOM     41  C   UNL A   1      45.912  27.622  36.820  1.00  0.00     0.059 A 
ATOM     42  C   UNL A   1      47.233  28.958  35.283  1.00  0.00     0.059 A 
ATOM     43  F   UNL A   1      46.162  30.408  33.781  1.00  0.00    -0.206 F 
ATOM     44  C   UNL A   1      47.149  28.033  36.324  1.00  0.00     0.060 A 
BRANCH  44  45
ATOM     45  S   UNL A   1      48.645  27.367  37.088  1.00  0.00     0.124 S 
ATOM     46  O   UNL A   1      49.490  28.556  37.159  1.00  0.00    -0.237 OA
ATOM     47  O   UNL A   1      48.147  26.866  38.365  1.00  0.00    -0.237 OA
ATOM     48  O   UNL A   1      49.085  26.345  36.143  1.00  0.00    -0.744 OA
ENDBRANCH  44  45
ENDBRANCH  23  37
BRANCH  24  49
ATOM     49  C   UNL A   1      36.735  32.916  30.712  1.00  0.00     0.058 A 
ATOM     50  C   UNL A   1      35.434  32.625  31.136  1.00  0.00     0.135 A 
ATOM     51  C   UNL A   1      36.900  33.860  29.684  1.00  0.00     0.135 A 
ATOM     52  F   UNL A   1      35.230  31.715  32.101  1.00  0.00    -0.206 F 
ATOM     53  C   UNL A   1      34.333  33.279  30.592  1.00  0.00     0.059 A 
ATOM     54  C   UNL A   1      35.818  34.539  29.138  1.00  0.00     0.059 A 
ATOM     55  F   UNL A   1      38.131  34.178  29.254  1.00  0.00    -0.206 F 
ATOM     56  C   UNL A   1      34.538  34.249  29.607  1.00  0.00     0.060 A 
BRANCH  56  57
ATOM     57  S   UNL A   1      33.115  35.181  29.001  1.00  0.00     0.124 S 
ATOM     58  O   UNL A   1      33.750  36.385  28.479  1.00  0.00    -0.237 OA
ATOM     59  O   UNL A   1      32.555  34.271  28.006  1.00  0.00    -0.237 OA
ATOM     60  O   UNL A   1      32.299  35.367  30.197  1.00  0.00    -0.744 OA
ENDBRANCH  56  57
ENDBRANCH  24  49
BRANCH  36  61
ATOM     61  C   UNL A   1      39.949  34.293  36.751  1.00  0.00     0.058 A 
ATOM     62  C   UNL A   1      40.362  35.632  36.664  1.00  0.00     0.135 A 
ATOM     63  C   UNL A   1      39.268  33.887  37.909  1.00  0.00     0.135 A 
ATOM     64  F   UNL A   1      41.029  36.065  35.582  1.00  0.00    -0.206 F 
ATOM     65  C   UNL A   1      40.147  36.525  37.708  1.00  0.00     0.059 A 
ATOM     66  C   UNL A   1      39.016  34.771  38.952  1.00  0.00     0.059 A 
ATOM     67  F   UNL A   1      38.846  32.620  38.036  1.00  0.00    -0.206 F 
ATOM     68  C   UNL A   1      39.480  36.083  38.851  1.00  0.00     0.060 A 
BRANCH  68  69
ATOM     69  S   UNL A   1      39.222  37.246  40.207  1.00  0.00     0.124 S 
ATOM     70  O   UNL A   1      38.530  38.336  39.528  1.00  0.00    -0.237 OA
ATOM     71  O   UNL A   1      38.416  36.466  41.140  1.00  0.00    -0.237 OA
ATOM     72  O   UNL A   1      40.578  37.545  40.658  1.00  0.00    -0.744 OA
ENDBRANCH  68  69
ENDBRANCH  36  61
ENDBRANCH  10  11
ENDBRANCH   3   5
ENDBRANCH   2   3
ENDBRANCH   1   2
BRANCH   1  73
ATOM     73  C   UNL A   1      39.601  21.773  26.142  1.00  0.00     0.275 C 
BRANCH  73  74
ATOM     74  O   UNL A   1      38.272  22.252  25.893  1.00  0.00    -0.458 OA
BRANCH  74  75
ATOM     75  C   UNL A   1      37.528  21.486  25.052  1.00  0.00     0.338 C 
ATOM     76  O   UNL A   1      37.768  20.350  24.682  1.00  0.00    -0.246 OA
BRANCH  75  77
ATOM     77  C   UNL A   1      36.274  22.197  24.740  1.00  0.00     0.062 A 
ATOM     78  C   UNL A   1      36.156  22.993  23.597  1.00  0.00     0.016 A 
ATOM     79  C   UNL A   1      35.217  22.099  25.654  1.00  0.00     0.042 A 
ATOM     80  C   UNL A   1      34.983  23.725  23.386  1.00  0.00     0.017 A 
ATOM     81  C   UNL A   1      34.094  22.911  25.482  1.00  0.00     0.056 A 
ATOM     82  C   UNL A   1      33.973  23.710  24.354  1.00  0.00     0.064 A 
ATOM     83  N   UNL A   1      33.130  22.995  26.485  1.00  0.00    -0.307 N 
ATOM     84  C   UNL A   1      32.767  24.550  24.220  1.00  0.00     0.264 A 
ATOM     85  C   UNL A   1      32.094  23.891  26.475  1.00  0.00     0.329 A 
ATOM     86  H   UNL A   1      33.198  22.373  27.245  1.00  0.00     0.171 HD
ATOM     87  O   UNL A   1      32.514  25.039  23.124  1.00  0.00    -0.268 OA
ATOM     88  N   UNL A   1      31.966  24.685  25.350  1.00  0.00    -0.255 N 
ATOM     89  O   UNL A   1      31.333  23.917  27.440  1.00  0.00    -0.248 OA
BRANCH  88  90
ATOM     90  C   UNL A   1      30.813  25.576  25.262  1.00  0.00     0.168 C 
BRANCH  90  91
ATOM     91  C   UNL A   1      31.085  27.018  25.610  1.00  0.00    -0.010 A 
ATOM     92  C   UNL A   1      31.426  27.417  26.907  1.00  0.00     0.009 A 
ATOM     93  C   UNL A   1      31.112  28.001  24.623  1.00  0.00     0.116 A 
ATOM     94  C   UNL A   1      31.802  28.734  27.152  1.00  0.00     0.020 A 
ATOM     95  N   UNL A   1      31.477  29.286  24.831  1.00  0.00    -0.264 NA
ATOM     96  C   UNL A   1      31.817  29.625  26.094  1.00  0.00     0.111 A 
ENDBRANCH  90  91
ENDBRANCH  88  90
ENDBRANCH  75  77
ENDBRANCH  74  75
ENDBRANCH  73  74
ENDBRANCH   1  73
TORSDOF 16
ENDMDL
MODEL 3
REMARK VINA RESULT:     -12.0      6.013     11.845
REMARK SMILES O=C(OCCOC(=O)c1ccc2c(=O)n(Cc3cccnc3)c(=O)[nH]c2c1)c1ccc(-c2c3nc(c(-c4c(F)cc(S(=O)(=O)[O-])cc4F)c4ccc([nH]4)c(-c4c(F)cc(S(=O)(=O)[O-])cc4F)c4nc(c(-c5c(F)cc(S(=O)(=O)[O-])cc5F)c5ccc2[nH]5)C=C4)C=C3)cc1
REMARK SMILES IDX 4 1 3 2 2 3 1 4 28 5 29 6 93 7 30 8 92 9 31 10 32 11 33 12
REMARK SMILES IDX 86 13 34 14 91 15 85 16 87 17 35 18 90 19 84 20 83 21 36 23
REMARK SMILES IDX 70 24 49 25 69 26 50 27 53 28 68 29 88 30 51 31 52 32 67 34
REMARK SMILES IDX 89 35 54 36 37 37 38 38 47 39 39 40 40 41 46 42 48 43 41 44
REMARK SMILES IDX 42 45 43 46 44 47 45 48 71 49 72 50 81 51 73 52 74 53 80 54
REMARK SMILES IDX 82 55 75 56 76 57 77 58 78 59 79 60 55 61 56 62 65 63 57 64
REMARK SMILES IDX 58 65 64 66 66 67 59 68 60 69 61 70 62 71 63 72 5 73 6 74
REMARK SMILES IDX 7 75 8 76 9 77 10 78 27 79 11 80 26 81 12 82 25 83 13 84
REMARK SMILES IDX 23 85 14 87 15 88 24 89 16 90 17 91 18 92 22 93 19 94 21 95
REMARK SMILES IDX 20 96
REMARK H PARENT 87 22 53 33 25 86
REMARK Flexibility Score: inf
ROOT
ATOM      1  C   UNL A   1      42.889  22.976  25.369  1.00  0.00     0.275 C 
ENDROOT
BRANCH   1   2
ATOM      2  O   UNL A   1      42.582  23.981  26.349  1.00  0.00    -0.458 OA
BRANCH   2   3
ATOM      3  C   UNL A   1      42.026  25.203  26.169  1.00  0.00     0.338 C 
ATOM      4  O   UNL A   1      41.920  25.649  25.028  1.00  0.00    -0.246 OA
BRANCH   3   5
ATOM      5  C   UNL A   1      41.727  26.123  27.308  1.00  0.00     0.060 A 
ATOM      6  C   UNL A   1      42.551  27.254  27.415  1.00  0.00     0.016 A 
ATOM      7  C   UNL A   1      40.704  25.969  28.244  1.00  0.00     0.016 A 
ATOM      8  C   UNL A   1      42.450  28.117  28.508  1.00  0.00     0.010 A 
ATOM      9  C   UNL A   1      40.591  26.840  29.335  1.00  0.00     0.010 A 
ATOM     10  C   UNL A   1      41.485  27.901  29.496  1.00  0.00    -0.014 A 
BRANCH  10  11
ATOM     11  C   UNL A   1      41.305  28.873  30.599  1.00  0.00     0.031 A 
ATOM     12  C   UNL A   1      42.165  28.857  31.829  1.00  0.00     0.074 A 
ATOM     13  C   UNL A   1      40.317  29.776  30.476  1.00  0.00     0.049 A 
ATOM     14  N   UNL A   1      42.202  29.714  32.818  1.00  0.00    -0.248 NA
ATOM     15  C   UNL A   1      43.120  27.751  31.964  1.00  0.00     0.031 C 
ATOM     16  C   UNL A   1      39.414  29.881  29.329  1.00  0.00     0.029 A 
ATOM     17  N   UNL A   1      39.902  30.763  31.325  1.00  0.00    -0.354 N 
ATOM     18  C   UNL A   1      43.255  29.314  33.630  1.00  0.00     0.074 A 
ATOM     19  C   UNL A   1      43.776  28.086  33.068  1.00  0.00     0.031 C 
ATOM     20  C   UNL A   1      38.551  30.882  29.544  1.00  0.00     0.029 A 
ATOM     21  C   UNL A   1      38.809  31.451  30.861  1.00  0.00     0.049 A 
ATOM     22  H   UNL A   1      40.341  30.961  32.183  1.00  0.00     0.167 HD
ATOM     23  C   UNL A   1      43.749  29.928  34.733  1.00  0.00     0.037 A 
ATOM     24  C   UNL A   1      38.074  32.414  31.443  1.00  0.00     0.037 A 
ATOM     25  C   UNL A   1      43.108  31.048  35.374  1.00  0.00     0.049 A 
ATOM     26  C   UNL A   1      38.476  32.907  32.797  1.00  0.00     0.074 A 
ATOM     27  C   UNL A   1      43.506  31.753  36.496  1.00  0.00     0.029 A 
ATOM     28  N   UNL A   1      41.886  31.577  34.985  1.00  0.00    -0.354 N 
ATOM     29  N   UNL A   1      39.520  32.571  33.518  1.00  0.00    -0.248 NA
ATOM     30  C   UNL A   1      37.604  33.907  33.418  1.00  0.00     0.031 C 
ATOM     31  C   UNL A   1      42.496  32.673  36.814  1.00  0.00     0.029 A 
ATOM     32  C   UNL A   1      41.498  32.582  35.856  1.00  0.00     0.049 A 
ATOM     33  H   UNL A   1      41.368  31.282  34.201  1.00  0.00     0.167 HD
ATOM     34  C   UNL A   1      39.433  33.320  34.682  1.00  0.00     0.074 A 
ATOM     35  C   UNL A   1      38.243  34.141  34.557  1.00  0.00     0.031 C 
ATOM     36  C   UNL A   1      40.272  33.338  35.749  1.00  0.00     0.037 A 
BRANCH  23  37
ATOM     37  C   UNL A   1      45.030  29.387  35.308  1.00  0.00     0.058 A 
ATOM     38  C   UNL A   1      45.012  28.430  36.337  1.00  0.00     0.135 A 
ATOM     39  C   UNL A   1      46.282  29.804  34.832  1.00  0.00     0.135 A 
ATOM     40  F   UNL A   1      43.842  28.000  36.836  1.00  0.00    -0.206 F 
ATOM     41  C   UNL A   1      46.185  27.931  36.897  1.00  0.00     0.059 A 
ATOM     42  C   UNL A   1      47.470  29.307  35.366  1.00  0.00     0.059 A 
ATOM     43  F   UNL A   1      46.361  30.718  33.853  1.00  0.00    -0.206 F 
ATOM     44  C   UNL A   1      47.411  28.382  36.409  1.00  0.00     0.060 A 
BRANCH  44  45
ATOM     45  S   UNL A   1      48.923  27.768  37.184  1.00  0.00     0.124 S 
ATOM     46  O   UNL A   1      49.845  27.750  36.051  1.00  0.00    -0.237 OA
ATOM     47  O   UNL A   1      49.187  28.783  38.199  1.00  0.00    -0.237 OA
ATOM     48  O   UNL A   1      48.537  26.457  37.695  1.00  0.00    -0.744 OA
ENDBRANCH  44  45
ENDBRANCH  23  37
BRANCH  24  49
ATOM     49  C   UNL A   1      36.889  32.933  30.720  1.00  0.00     0.058 A 
ATOM     50  C   UNL A   1      35.595  32.554  31.096  1.00  0.00     0.135 A 
ATOM     51  C   UNL A   1      37.027  33.927  29.735  1.00  0.00     0.135 A 
ATOM     52  F   UNL A   1      35.418  31.594  32.017  1.00  0.00    -0.206 F 
ATOM     53  C   UNL A   1      34.474  33.170  30.549  1.00  0.00     0.059 A 
ATOM     54  C   UNL A   1      35.922  34.569  29.188  1.00  0.00     0.059 A 
ATOM     55  F   UNL A   1      38.249  34.329  29.353  1.00  0.00    -0.206 F 
ATOM     56  C   UNL A   1      34.649  34.190  29.611  1.00  0.00     0.060 A 
BRANCH  56  57
ATOM     57  S   UNL A   1      33.193  35.069  29.004  1.00  0.00     0.124 S 
ATOM     58  O   UNL A   1      33.786  36.278  28.448  1.00  0.00    -0.237 OA
ATOM     59  O   UNL A   1      32.645  34.122  28.038  1.00  0.00    -0.237 OA
ATOM     60  O   UNL A   1      32.388  35.258  30.208  1.00  0.00    -0.744 OA
ENDBRANCH  56  57
ENDBRANCH  24  49
BRANCH  36  61
ATOM     61  C   UNL A   1      39.902  34.266  36.870  1.00  0.00     0.058 A 
ATOM     62  C   UNL A   1      40.269  35.621  36.846  1.00  0.00     0.135 A 
ATOM     63  C   UNL A   1      39.198  33.794  37.989  1.00  0.00     0.135 A 
ATOM     64  F   UNL A   1      40.955  36.116  35.804  1.00  0.00    -0.206 F 
ATOM     65  C   UNL A   1      39.988  36.466  37.913  1.00  0.00     0.059 A 
ATOM     66  C   UNL A   1      38.881  34.629  39.054  1.00  0.00     0.059 A 
ATOM     67  F   UNL A   1      38.818  32.508  38.056  1.00  0.00    -0.206 F 
ATOM     68  C   UNL A   1      39.300  35.959  39.016  1.00  0.00     0.060 A 
BRANCH  68  69
ATOM     69  S   UNL A   1      38.956  37.061  40.403  1.00  0.00     0.124 S 
ATOM     70  O   UNL A   1      38.263  38.160  39.738  1.00  0.00    -0.237 OA
ATOM     71  O   UNL A   1      38.134  36.225  41.272  1.00  0.00    -0.237 OA
ATOM     72  O   UNL A   1      40.284  37.377  40.921  1.00  0.00    -0.744 OA
ENDBRANCH  68  69
ENDBRANCH  36  61
ENDBRANCH  10  11
ENDBRANCH   3   5
ENDBRANCH   2   3
ENDBRANCH   1   2
BRANCH   1  73
ATOM     73  C   UNL A   1      42.571  21.540  25.793  1.00  0.00     0.275 C 
BRANCH  73  74
ATOM     74  O   UNL A   1      41.221  21.137  25.524  1.00  0.00    -0.458 OA
BRANCH  74  75
ATOM     75  C   UNL A   1      40.371  21.211  26.582  1.00  0.00     0.338 C 
ATOM     76  O   UNL A   1      40.590  20.863  27.729  1.00  0.00    -0.246 OA
BRANCH  75  77
ATOM     77  C   UNL A   1      39.147  21.919  26.165  1.00  0.00     0.062 A 
ATOM     78  C   UNL A   1      38.955  23.273  26.460  1.00  0.00     0.016 A 
ATOM     79  C   UNL A   1      38.150  21.183  25.513  1.00  0.00     0.042 A 
ATOM     80  C   UNL A   1      37.741  23.883  26.130  1.00  0.00     0.017 A 
ATOM     81  C   UNL A   1      36.909  21.778  25.279  1.00  0.00     0.056 A 
ATOM     82  C   UNL A   1      36.707  23.119  25.576  1.00  0.00     0.064 A 
ATOM     83  N   UNL A   1      35.836  21.009  24.834  1.00  0.00    -0.307 N 
ATOM     84  C   UNL A   1      35.377  23.700  25.312  1.00  0.00     0.264 A 
ATOM     85  C   UNL A   1      34.549  21.471  24.747  1.00  0.00     0.329 A 
ATOM     86  H   UNL A   1      36.014  20.077  24.567  1.00  0.00     0.171 HD
ATOM     87  O   UNL A   1      35.263  24.921  25.305  1.00  0.00    -0.268 OA
ATOM     88  N   UNL A   1      34.345  22.808  25.036  1.00  0.00    -0.255 N 
ATOM     89  O   UNL A   1      33.668  20.688  24.395  1.00  0.00    -0.248 OA
BRANCH  88  90
ATOM     90  C   UNL A   1      33.005  23.356  24.851  1.00  0.00     0.168 C 
BRANCH  90  91
ATOM     91  C   UNL A   1      32.778  24.078  23.546  1.00  0.00    -0.010 A 
ATOM     92  C   UNL A   1      32.130  25.316  23.487  1.00  0.00     0.009 A 
ATOM     93  C   UNL A   1      33.304  23.586  22.354  1.00  0.00     0.116 A 
ATOM     94  C   UNL A   1      32.065  26.008  22.281  1.00  0.00     0.020 A 
ATOM     95  N   UNL A   1      33.260  24.238  21.170  1.00  0.00    -0.264 NA
ATOM     96  C   UNL A   1      32.641  25.439  21.161  1.00  0.00     0.111 A 
ENDBRANCH  90  91
ENDBRANCH  88  90
ENDBRANCH  75  77
ENDBRANCH  74  75
ENDBRANCH  73  74
ENDBRANCH   1  73
TORSDOF 16
ENDMDL
