MODEL 1
REMARK VINA RESULT:      -9.7      0.000      0.000
REMARK SMILES CC[C@H](C)[NH+]1CCN(C(=O)CC(=O)OCCOC(=O)c2ccc(-c3c4nc(c(-c5c(F)cc(S(=O)(=O)[O-])cc5F)c5ccc([nH]5)c(-c5c(F)cc(S(=O)(=O)[O-])cc5F)c5nc(c(-c6c(F)cc(S(=O)(=O)[O-])cc6F)c6ccc3[nH]6)C=C5)C=C4)cc2)CC1
REMARK SMILES IDX 15 1 14 2 12 3 13 4 11 5 9 6 5 7 6 8 87 9 7 11 86 12 8 13
REMARK SMILES IDX 10 14 3 15 4 16 2 17 1 18 16 19 17 20 18 21 19 22 20 23
REMARK SMILES IDX 21 24 85 25 22 26 84 27 23 28 24 29 25 30 78 31 26 32 83 33
REMARK SMILES IDX 77 34 79 35 27 36 82 37 76 38 75 39 28 41 62 42 41 43 61 44
REMARK SMILES IDX 42 45 45 46 60 47 80 48 43 49 44 50 59 52 81 53 46 54 29 55
REMARK SMILES IDX 30 56 39 57 31 58 32 59 38 60 40 61 33 62 34 63 35 64 36 65
REMARK SMILES IDX 37 66 63 67 64 68 73 69 65 70 66 71 72 72 74 73 67 74 68 75
REMARK SMILES IDX 69 76 70 77 71 78 47 79 48 80 57 81 49 82 50 83 56 84 58 85
REMARK SMILES IDX 51 86 52 87 53 88 54 89 55 90
REMARK H PARENT 5 10 79 40 45 51
REMARK Flexibility Score: inf
ROOT
ATOM      1  C   UNL A   1      33.522  33.770  27.985  1.00  0.00     0.274 C 
ENDROOT
BRANCH   1   2
ATOM      2  O   UNL A   1      33.031  34.069  29.308  1.00  0.00    -0.462 OA
BRANCH   2   3
ATOM      3  C   UNL A   1      32.915  35.387  29.612  1.00  0.00     0.315 C 
ATOM      4  O   UNL A   1      32.323  36.208  28.918  1.00  0.00    -0.252 OA
BRANCH   3   5
ATOM      5  C   UNL A   1      33.625  35.795  30.865  1.00  0.00     0.222 C 
BRANCH   5   6
ATOM      6  C   UNL A   1      33.815  34.726  31.910  1.00  0.00     0.234 C 
ATOM      7  N   UNL A   1      37.316  32.143  32.043  1.00  0.00    -0.330 N 
ATOM      8  C   UNL A   1      36.019  31.783  32.629  1.00  0.00     0.284 C 
ATOM      9  C   UNL A   1      37.112  33.011  30.879  1.00  0.00     0.284 C 
ATOM     10  H   UNL A   1      37.761  31.306  31.667  1.00  0.00     0.348 HD
ATOM     11  C   UNL A   1      35.135  32.984  32.988  1.00  0.00     0.181 C 
ATOM     12  C   UNL A   1      36.161  34.212  31.087  1.00  0.00     0.181 C 
ATOM     13  N   UNL A   1      34.959  33.933  31.883  1.00  0.00    -0.331 N 
ATOM     14  O   UNL A   1      32.929  34.556  32.754  1.00  0.00    -0.274 OA
BRANCH   7  15
ATOM     15  C   UNL A   1      38.355  32.516  33.023  1.00  0.00     0.180 C 
ATOM     16  C   UNL A   1      39.159  31.240  33.314  1.00  0.00     0.075 C 
BRANCH  15  17
ATOM     17  C   UNL A   1      39.278  33.694  32.646  1.00  0.00     0.061 C 
ATOM     18  C   UNL A   1      40.650  33.654  33.308  1.00  0.00     0.010 C 
ENDBRANCH  15  17
ENDBRANCH   7  15
ENDBRANCH   5   6
ENDBRANCH   3   5
ENDBRANCH   2   3
ENDBRANCH   1   2
BRANCH   1  19
ATOM     19  C   UNL A   1      34.619  32.711  28.036  1.00  0.00     0.275 C 
BRANCH  19  20
ATOM     20  O   UNL A   1      34.162  31.566  28.774  1.00  0.00    -0.458 OA
BRANCH  20  21
ATOM     21  C   UNL A   1      34.387  30.373  28.186  1.00  0.00     0.338 C 
ATOM     22  O   UNL A   1      33.577  29.694  27.564  1.00  0.00    -0.246 OA
BRANCH  21  23
ATOM     23  C   UNL A   1      35.782  29.939  28.391  1.00  0.00     0.060 A 
ATOM     24  C   UNL A   1      36.248  29.536  29.647  1.00  0.00     0.016 A 
ATOM     25  C   UNL A   1      36.670  30.057  27.318  1.00  0.00     0.016 A 
ATOM     26  C   UNL A   1      37.614  29.316  29.841  1.00  0.00     0.010 A 
ATOM     27  C   UNL A   1      38.021  29.764  27.498  1.00  0.00     0.010 A 
ATOM     28  C   UNL A   1      38.512  29.413  28.765  1.00  0.00    -0.014 A 
BRANCH  28  29
ATOM     29  C   UNL A   1      39.957  29.102  28.931  1.00  0.00     0.031 A 
ATOM     30  C   UNL A   1      40.933  30.164  29.361  1.00  0.00     0.074 A 
ATOM     31  C   UNL A   1      40.403  27.867  28.632  1.00  0.00     0.049 A 
ATOM     32  N   UNL A   1      42.241  30.114  29.407  1.00  0.00    -0.248 NA
ATOM     33  C   UNL A   1      40.367  31.452  29.791  1.00  0.00     0.031 C 
ATOM     34  C   UNL A   1      39.564  26.745  28.210  1.00  0.00     0.029 A 
ATOM     35  N   UNL A   1      41.676  27.355  28.619  1.00  0.00    -0.354 N 
ATOM     36  C   UNL A   1      42.657  31.365  29.844  1.00  0.00     0.074 A 
ATOM     37  C   UNL A   1      41.462  32.158  30.044  1.00  0.00     0.031 C 
ATOM     38  C   UNL A   1      40.342  25.674  27.989  1.00  0.00     0.029 A 
ATOM     39  C   UNL A   1      41.737  26.051  28.192  1.00  0.00     0.049 A 
ATOM     40  H   UNL A   1      42.469  27.872  28.891  1.00  0.00     0.167 HD
ATOM     41  C   UNL A   1      43.920  31.812  30.058  1.00  0.00     0.037 A 
ATOM     42  C   UNL A   1      42.794  25.253  27.951  1.00  0.00     0.037 A 
ATOM     43  C   UNL A   1      45.109  31.019  29.871  1.00  0.00     0.049 A 
ATOM     44  C   UNL A   1      44.183  25.781  28.150  1.00  0.00     0.074 A 
ATOM     45  C   UNL A   1      46.428  31.378  30.091  1.00  0.00     0.029 A 
ATOM     46  N   UNL A   1      45.125  29.708  29.419  1.00  0.00    -0.354 N 
ATOM     47  N   UNL A   1      44.559  26.971  28.552  1.00  0.00    -0.248 NA
ATOM     48  C   UNL A   1      45.290  24.864  27.851  1.00  0.00     0.031 C 
ATOM     49  C   UNL A   1      47.244  30.295  29.742  1.00  0.00     0.029 A 
ATOM     50  C   UNL A   1      46.431  29.250  29.335  1.00  0.00     0.049 A 
ATOM     51  H   UNL A   1      44.326  29.179  29.190  1.00  0.00     0.167 HD
ATOM     52  C   UNL A   1      45.948  26.944  28.563  1.00  0.00     0.074 A 
ATOM     53  C   UNL A   1      46.345  25.616  28.137  1.00  0.00     0.031 C 
ATOM     54  C   UNL A   1      46.814  27.932  28.898  1.00  0.00     0.037 A 
BRANCH  41  55
ATOM     55  C   UNL A   1      44.084  33.238  30.498  1.00  0.00     0.058 A 
ATOM     56  C   UNL A   1      44.243  34.281  29.573  1.00  0.00     0.135 A 
ATOM     57  C   UNL A   1      44.049  33.570  31.862  1.00  0.00     0.135 A 
ATOM     58  F   UNL A   1      44.296  34.016  28.258  1.00  0.00    -0.206 F 
ATOM     59  C   UNL A   1      44.385  35.603  29.986  1.00  0.00     0.059 A 
ATOM     60  C   UNL A   1      44.170  34.886  32.296  1.00  0.00     0.059 A 
ATOM     61  F   UNL A   1      43.899  32.608  32.787  1.00  0.00    -0.206 F 
ATOM     62  C   UNL A   1      44.353  35.895  31.351  1.00  0.00     0.060 A 
BRANCH  62  63
ATOM     63  S   UNL A   1      44.541  37.612  31.881  1.00  0.00     0.124 S 
ATOM     64  O   UNL A   1      43.744  37.627  33.103  1.00  0.00    -0.237 OA
ATOM     65  O   UNL A   1      45.985  37.730  32.065  1.00  0.00    -0.237 OA
ATOM     66  O   UNL A   1      43.993  38.371  30.762  1.00  0.00    -0.744 OA
ENDBRANCH  62  63
ENDBRANCH  41  55
BRANCH  42  67
ATOM     67  C   UNL A   1      42.559  23.869  27.473  1.00  0.00     0.058 A 
ATOM     68  C   UNL A   1      42.574  23.571  26.105  1.00  0.00     0.135 A 
ATOM     69  C   UNL A   1      42.389  22.809  28.378  1.00  0.00     0.135 A 
ATOM     70  F   UNL A   1      42.728  24.555  25.206  1.00  0.00    -0.206 F 
ATOM     71  C   UNL A   1      42.439  22.266  25.645  1.00  0.00     0.059 A 
ATOM     72  C   UNL A   1      42.270  21.494  27.943  1.00  0.00     0.059 A 
ATOM     73  F   UNL A   1      42.383  23.047  29.699  1.00  0.00    -0.206 F 
ATOM     74  C   UNL A   1      42.296  21.233  26.574  1.00  0.00     0.060 A 
BRANCH  74  75
ATOM     75  S   UNL A   1      42.226  19.529  25.979  1.00  0.00     0.124 S 
ATOM     76  O   UNL A   1      43.163  19.571  24.862  1.00  0.00    -0.237 OA
ATOM     77  O   UNL A   1      42.662  18.773  27.149  1.00  0.00    -0.237 OA
ATOM     78  O   UNL A   1      40.820  19.360  25.623  1.00  0.00    -0.744 OA
ENDBRANCH  74  75
ENDBRANCH  42  67
BRANCH  54  79
ATOM     79  C   UNL A   1      48.277  27.605  28.829  1.00  0.00     0.058 A 
ATOM     80  C   UNL A   1      49.074  28.036  27.758  1.00  0.00     0.135 A 
ATOM     81  C   UNL A   1      48.892  26.865  29.851  1.00  0.00     0.135 A 
ATOM     82  F   UNL A   1      48.529  28.738  26.751  1.00  0.00    -0.206 F 
ATOM     83  C   UNL A   1      50.429  27.727  27.690  1.00  0.00     0.059 A 
ATOM     84  C   UNL A   1      50.249  26.560  29.813  1.00  0.00     0.059 A 
ATOM     85  F   UNL A   1      48.174  26.434  30.900  1.00  0.00    -0.206 F 
ATOM     86  C   UNL A   1      51.006  26.984  28.722  1.00  0.00     0.060 A 
BRANCH  86  87
ATOM     87  S   UNL A   1      52.767  26.597  28.637  1.00  0.00     0.124 S 
ATOM     88  O   UNL A   1      53.318  27.851  28.132  1.00  0.00    -0.237 OA
ATOM     89  O   UNL A   1      53.091  26.276  30.024  1.00  0.00    -0.237 OA
ATOM     90  O   UNL A   1      52.820  25.469  27.711  1.00  0.00    -0.744 OA
ENDBRANCH  86  87
ENDBRANCH  54  79
ENDBRANCH  28  29
ENDBRANCH  21  23
ENDBRANCH  20  21
ENDBRANCH  19  20
ENDBRANCH   1  19
TORSDOF 17
ENDMDL
MODEL 2
REMARK VINA RESULT:      -9.5      3.405      5.462
REMARK SMILES CC[C@H](C)[NH+]1CCN(C(=O)CC(=O)OCCOC(=O)c2ccc(-c3c4nc(c(-c5c(F)cc(S(=O)(=O)[O-])cc5F)c5ccc([nH]5)c(-c5c(F)cc(S(=O)(=O)[O-])cc5F)c5nc(c(-c6c(F)cc(S(=O)(=O)[O-])cc6F)c6ccc3[nH]6)C=C5)C=C4)cc2)CC1
REMARK SMILES IDX 15 1 14 2 12 3 13 4 11 5 9 6 5 7 6 8 87 9 7 11 86 12 8 13
REMARK SMILES IDX 10 14 3 15 4 16 2 17 1 18 16 19 17 20 18 21 19 22 20 23
REMARK SMILES IDX 21 24 85 25 22 26 84 27 23 28 24 29 25 30 78 31 26 32 83 33
REMARK SMILES IDX 77 34 79 35 27 36 82 37 76 38 75 39 28 41 62 42 41 43 61 44
REMARK SMILES IDX 42 45 45 46 60 47 80 48 43 49 44 50 59 52 81 53 46 54 29 55
REMARK SMILES IDX 30 56 39 57 31 58 32 59 38 60 40 61 33 62 34 63 35 64 36 65
REMARK SMILES IDX 37 66 63 67 64 68 73 69 65 70 66 71 72 72 74 73 67 74 68 75
REMARK SMILES IDX 69 76 70 77 71 78 47 79 48 80 57 81 49 82 50 83 56 84 58 85
REMARK SMILES IDX 51 86 52 87 53 88 54 89 55 90
REMARK H PARENT 5 10 79 40 45 51
REMARK Flexibility Score: inf
ROOT
ATOM      1  C   UNL A   1      33.569  30.049  26.130  1.00  0.00     0.274 C 
ENDROOT
BRANCH   1   2
ATOM      2  O   UNL A   1      32.761  28.858  26.039  1.00  0.00    -0.462 OA
BRANCH   2   3
ATOM      3  C   UNL A   1      31.666  28.945  25.242  1.00  0.00     0.315 C 
ATOM      4  O   UNL A   1      31.112  29.998  24.939  1.00  0.00    -0.252 OA
BRANCH   3   5
ATOM      5  C   UNL A   1      31.128  27.624  24.787  1.00  0.00     0.222 C 
BRANCH   5   6
ATOM      6  C   UNL A   1      31.254  26.477  25.755  1.00  0.00     0.234 C 
ATOM      7  N   UNL A   1      33.477  22.846  24.845  1.00  0.00    -0.330 N 
ATOM      8  C   UNL A   1      32.396  22.909  25.836  1.00  0.00     0.284 C 
ATOM      9  C   UNL A   1      33.230  23.819  23.777  1.00  0.00     0.284 C 
ATOM     10  H   UNL A   1      33.456  21.940  24.379  1.00  0.00     0.348 HD
ATOM     11  C   UNL A   1      32.152  24.309  26.414  1.00  0.00     0.181 C 
ATOM     12  C   UNL A   1      32.879  25.254  24.234  1.00  0.00     0.181 C 
ATOM     13  N   UNL A   1      31.976  25.343  25.390  1.00  0.00    -0.331 N 
ATOM     14  O   UNL A   1      30.684  26.556  26.849  1.00  0.00    -0.274 OA
BRANCH   7  15
ATOM     15  C   UNL A   1      34.836  22.762  25.417  1.00  0.00     0.180 C 
ATOM     16  C   UNL A   1      35.096  21.277  25.708  1.00  0.00     0.075 C 
BRANCH  15  17
ATOM     17  C   UNL A   1      35.979  23.387  24.590  1.00  0.00     0.061 C 
ATOM     18  C   UNL A   1      36.663  22.419  23.632  1.00  0.00     0.010 C 
ENDBRANCH  15  17
ENDBRANCH   7  15
ENDBRANCH   5   6
ENDBRANCH   3   5
ENDBRANCH   2   3
ENDBRANCH   1   2
BRANCH   1  19
ATOM     19  C   UNL A   1      33.905  30.372  27.583  1.00  0.00     0.275 C 
BRANCH  19  20
ATOM     20  O   UNL A   1      35.078  29.647  27.988  1.00  0.00    -0.458 OA
BRANCH  20  21
ATOM     21  C   UNL A   1      35.893  30.301  28.842  1.00  0.00     0.338 C 
ATOM     22  O   UNL A   1      35.584  31.215  29.598  1.00  0.00    -0.246 OA
BRANCH  21  23
ATOM     23  C   UNL A   1      37.271  29.782  28.757  1.00  0.00     0.060 A 
ATOM     24  C   UNL A   1      38.016  29.487  29.903  1.00  0.00     0.016 A 
ATOM     25  C   UNL A   1      37.866  29.704  27.495  1.00  0.00     0.016 A 
ATOM     26  C   UNL A   1      39.374  29.181  29.787  1.00  0.00     0.010 A 
ATOM     27  C   UNL A   1      39.203  29.324  27.378  1.00  0.00     0.010 A 
ATOM     28  C   UNL A   1      39.977  29.081  28.523  1.00  0.00    -0.014 A 
BRANCH  28  29
ATOM     29  C   UNL A   1      41.400  28.675  28.373  1.00  0.00     0.031 A 
ATOM     30  C   UNL A   1      42.507  29.694  28.437  1.00  0.00     0.074 A 
ATOM     31  C   UNL A   1      41.693  27.387  28.114  1.00  0.00     0.049 A 
ATOM     32  N   UNL A   1      43.781  29.546  28.175  1.00  0.00    -0.248 NA
ATOM     33  C   UNL A   1      42.133  31.057  28.844  1.00  0.00     0.031 C 
ATOM     34  C   UNL A   1      40.718  26.299  28.031  1.00  0.00     0.029 A 
ATOM     35  N   UNL A   1      42.895  26.778  27.854  1.00  0.00    -0.354 N 
ATOM     36  C   UNL A   1      44.358  30.796  28.359  1.00  0.00     0.074 A 
ATOM     37  C   UNL A   1      43.292  31.696  28.749  1.00  0.00     0.031 C 
ATOM     38  C   UNL A   1      41.359  25.154  27.750  1.00  0.00     0.029 A 
ATOM     39  C   UNL A   1      42.779  25.439  27.572  1.00  0.00     0.049 A 
ATOM     40  H   UNL A   1      43.756  27.254  27.870  1.00  0.00     0.167 HD
ATOM     41  C   UNL A   1      45.656  31.161  28.214  1.00  0.00     0.037 A 
ATOM     42  C   UNL A   1      43.702  24.541  27.175  1.00  0.00     0.037 A 
ATOM     43  C   UNL A   1      46.720  30.263  27.838  1.00  0.00     0.049 A 
ATOM     44  C   UNL A   1      45.123  24.975  26.978  1.00  0.00     0.074 A 
ATOM     45  C   UNL A   1      48.069  30.537  27.696  1.00  0.00     0.029 A 
ATOM     46  N   UNL A   1      46.554  28.918  27.543  1.00  0.00    -0.354 N 
ATOM     47  N   UNL A   1      45.648  26.164  27.145  1.00  0.00    -0.248 NA
ATOM     48  C   UNL A   1      46.073  23.950  26.526  1.00  0.00     0.031 C 
ATOM     49  C   UNL A   1      48.716  29.365  27.284  1.00  0.00     0.029 A 
ATOM     50  C   UNL A   1      47.774  28.353  27.201  1.00  0.00     0.049 A 
ATOM     51  H   UNL A   1      45.697  28.434  27.571  1.00  0.00     0.167 HD
ATOM     52  C   UNL A   1      46.994  26.030  26.827  1.00  0.00     0.074 A 
ATOM     53  C   UNL A   1      47.203  24.641  26.468  1.00  0.00     0.031 C 
ATOM     54  C   UNL A   1      47.967  26.974  26.834  1.00  0.00     0.037 A 
BRANCH  41  55
ATOM     55  C   UNL A   1      45.999  32.605  28.442  1.00  0.00     0.058 A 
ATOM     56  C   UNL A   1      46.334  33.090  29.716  1.00  0.00     0.135 A 
ATOM     57  C   UNL A   1      46.027  33.508  27.367  1.00  0.00     0.135 A 
ATOM     58  F   UNL A   1      46.311  32.271  30.779  1.00  0.00    -0.206 F 
ATOM     59  C   UNL A   1      46.662  34.428  29.921  1.00  0.00     0.059 A 
ATOM     60  C   UNL A   1      46.370  34.845  27.546  1.00  0.00     0.059 A 
ATOM     61  F   UNL A   1      45.715  33.093  26.130  1.00  0.00    -0.206 F 
ATOM     62  C   UNL A   1      46.672  35.299  28.829  1.00  0.00     0.060 A 
BRANCH  62  63
ATOM     63  S   UNL A   1      47.093  37.034  29.102  1.00  0.00     0.124 S 
ATOM     64  O   UNL A   1      45.862  37.540  29.701  1.00  0.00    -0.237 OA
ATOM     65  O   UNL A   1      48.243  36.944  29.997  1.00  0.00    -0.237 OA
ATOM     66  O   UNL A   1      47.387  37.524  27.759  1.00  0.00    -0.744 OA
ENDBRANCH  62  63
ENDBRANCH  41  55
BRANCH  42  67
ATOM     67  C   UNL A   1      43.283  23.140  26.923  1.00  0.00     0.058 A 
ATOM     68  C   UNL A   1      43.198  22.642  25.618  1.00  0.00     0.135 A 
ATOM     69  C   UNL A   1      43.033  22.257  27.985  1.00  0.00     0.135 A 
ATOM     70  F   UNL A   1      43.424  23.455  24.574  1.00  0.00    -0.206 F 
ATOM     71  C   UNL A   1      42.889  21.310  25.369  1.00  0.00     0.059 A 
ATOM     72  C   UNL A   1      42.740  20.917  27.762  1.00  0.00     0.059 A 
ATOM     73  F   UNL A   1      43.118  22.689  29.253  1.00  0.00    -0.206 F 
ATOM     74  C   UNL A   1      42.670  20.453  26.449  1.00  0.00     0.060 A 
BRANCH  74  75
ATOM     75  S   UNL A   1      42.373  18.701  26.126  1.00  0.00     0.124 S 
ATOM     76  O   UNL A   1      43.321  18.437  25.050  1.00  0.00    -0.237 OA
ATOM     77  O   UNL A   1      42.683  18.089  27.415  1.00  0.00    -0.237 OA
ATOM     78  O   UNL A   1      40.962  18.668  25.751  1.00  0.00    -0.744 OA
ENDBRANCH  74  75
ENDBRANCH  42  67
BRANCH  54  79
ATOM     79  C   UNL A   1      49.349  26.528  26.454  1.00  0.00     0.058 A 
ATOM     80  C   UNL A   1      49.823  26.653  25.140  1.00  0.00     0.135 A 
ATOM     81  C   UNL A   1      50.213  25.985  27.417  1.00  0.00     0.135 A 
ATOM     82  F   UNL A   1      49.029  27.157  24.181  1.00  0.00    -0.206 F 
ATOM     83  C   UNL A   1      51.102  26.234  24.786  1.00  0.00     0.059 A 
ATOM     84  C   UNL A   1      51.502  25.575  27.090  1.00  0.00     0.059 A 
ATOM     85  F   UNL A   1      49.808  25.850  28.690  1.00  0.00    -0.206 F 
ATOM     86  C   UNL A   1      51.932  25.691  25.769  1.00  0.00     0.060 A 
BRANCH  86  87
ATOM     87  S   UNL A   1      53.596  25.161  25.308  1.00  0.00     0.124 S 
ATOM     88  O   UNL A   1      54.401  25.783  26.354  1.00  0.00    -0.237 OA
ATOM     89  O   UNL A   1      53.494  23.706  25.368  1.00  0.00    -0.237 OA
ATOM     90  O   UNL A   1      53.767  25.716  23.969  1.00  0.00    -0.744 OA
ENDBRANCH  86  87
ENDBRANCH  54  79
ENDBRANCH  28  29
ENDBRANCH  21  23
ENDBRANCH  20  21
ENDBRANCH  19  20
ENDBRANCH   1  19
TORSDOF 17
ENDMDL
MODEL 3
REMARK VINA RESULT:      -9.3      4.756     12.392
REMARK SMILES CC[C@H](C)[NH+]1CCN(C(=O)CC(=O)OCCOC(=O)c2ccc(-c3c4nc(c(-c5c(F)cc(S(=O)(=O)[O-])cc5F)c5ccc([nH]5)c(-c5c(F)cc(S(=O)(=O)[O-])cc5F)c5nc(c(-c6c(F)cc(S(=O)(=O)[O-])cc6F)c6ccc3[nH]6)C=C5)C=C4)cc2)CC1
REMARK SMILES IDX 15 1 14 2 12 3 13 4 11 5 9 6 5 7 6 8 87 9 7 11 86 12 8 13
REMARK SMILES IDX 10 14 3 15 4 16 2 17 1 18 16 19 17 20 18 21 19 22 20 23
REMARK SMILES IDX 21 24 85 25 22 26 84 27 23 28 24 29 25 30 78 31 26 32 83 33
REMARK SMILES IDX 77 34 79 35 27 36 82 37 76 38 75 39 28 41 62 42 41 43 61 44
REMARK SMILES IDX 42 45 45 46 60 47 80 48 43 49 44 50 59 52 81 53 46 54 29 55
REMARK SMILES IDX 30 56 39 57 31 58 32 59 38 60 40 61 33 62 34 63 35 64 36 65
REMARK SMILES IDX 37 66 63 67 64 68 73 69 65 70 66 71 72 72 74 73 67 74 68 75
REMARK SMILES IDX 69 76 70 77 71 78 47 79 48 80 57 81 49 82 50 83 56 84 58 85
REMARK SMILES IDX 51 86 52 87 53 88 54 89 55 90
REMARK H PARENT 5 10 79 40 45 51
REMARK Flexibility Score: inf
ROOT
ATOM      1  C   UNL A   1      42.220  21.782  25.871  1.00  0.00     0.274 C 
ENDROOT
BRANCH   1   2
ATOM      2  O   UNL A   1      43.546  22.351  25.877  1.00  0.00    -0.462 OA
BRANCH   2   3
ATOM      3  C   UNL A   1      43.954  22.913  24.711  1.00  0.00     0.315 C 
ATOM      4  O   UNL A   1      44.137  22.290  23.669  1.00  0.00    -0.252 OA
BRANCH   3   5
ATOM      5  C   UNL A   1      44.226  24.383  24.796  1.00  0.00     0.222 C 
BRANCH   5   6
ATOM      6  C   UNL A   1      45.465  24.795  25.548  1.00  0.00     0.234 C 
ATOM      7  N   UNL A   1      45.361  26.348  29.613  1.00  0.00    -0.330 N 
ATOM      8  C   UNL A   1      46.449  26.622  28.667  1.00  0.00     0.284 C 
ATOM      9  C   UNL A   1      44.101  26.170  28.884  1.00  0.00     0.284 C 
ATOM     10  H   UNL A   1      45.207  27.169  30.198  1.00  0.00     0.348 HD
ATOM     11  C   UNL A   1      46.601  25.572  27.560  1.00  0.00     0.181 C 
ATOM     12  C   UNL A   1      44.147  25.200  27.679  1.00  0.00     0.181 C 
ATOM     13  N   UNL A   1      45.352  25.290  26.844  1.00  0.00    -0.331 N 
ATOM     14  O   UNL A   1      46.560  24.710  24.981  1.00  0.00    -0.274 OA
BRANCH   7  15
ATOM     15  C   UNL A   1      45.697  25.384  30.680  1.00  0.00     0.180 C 
ATOM     16  C   UNL A   1      46.455  26.173  31.758  1.00  0.00     0.075 C 
BRANCH  15  17
ATOM     17  C   UNL A   1      44.528  24.578  31.284  1.00  0.00     0.061 C 
ATOM     18  C   UNL A   1      44.615  24.379  32.792  1.00  0.00     0.010 C 
ENDBRANCH  15  17
ENDBRANCH   7  15
ENDBRANCH   5   6
ENDBRANCH   3   5
ENDBRANCH   2   3
ENDBRANCH   1   2
BRANCH   1  19
ATOM     19  C   UNL A   1      41.312  22.504  26.862  1.00  0.00     0.275 C 
BRANCH  19  20
ATOM     20  O   UNL A   1      41.141  23.874  26.462  1.00  0.00    -0.458 OA
BRANCH  20  21
ATOM     21  C   UNL A   1      39.899  24.373  26.628  1.00  0.00     0.338 C 
ATOM     22  O   UNL A   1      38.867  23.965  26.105  1.00  0.00    -0.246 OA
BRANCH  21  23
ATOM     23  C   UNL A   1      39.912  25.529  27.543  1.00  0.00     0.060 A 
ATOM     24  C   UNL A   1      40.717  26.647  27.301  1.00  0.00     0.016 A 
ATOM     25  C   UNL A   1      39.188  25.432  28.735  1.00  0.00     0.016 A 
ATOM     26  C   UNL A   1      40.846  27.634  28.282  1.00  0.00     0.010 A 
ATOM     27  C   UNL A   1      39.261  26.455  29.679  1.00  0.00     0.010 A 
ATOM     28  C   UNL A   1      40.107  27.555  29.474  1.00  0.00    -0.014 A 
BRANCH  28  29
ATOM     29  C   UNL A   1      40.166  28.636  30.494  1.00  0.00     0.031 A 
ATOM     30  C   UNL A   1      41.128  28.557  31.650  1.00  0.00     0.074 A 
ATOM     31  C   UNL A   1      39.303  29.665  30.413  1.00  0.00     0.049 A 
ATOM     32  N   UNL A   1      41.209  29.322  32.710  1.00  0.00    -0.248 NA
ATOM     33  C   UNL A   1      42.124  27.476  31.614  1.00  0.00     0.031 C 
ATOM     34  C   UNL A   1      38.325  29.866  29.343  1.00  0.00     0.029 A 
ATOM     35  N   UNL A   1      39.096  30.728  31.257  1.00  0.00    -0.354 N 
ATOM     36  C   UNL A   1      42.244  28.804  33.478  1.00  0.00     0.074 A 
ATOM     37  C   UNL A   1      42.758  27.652  32.766  1.00  0.00     0.031 C 
ATOM     38  C   UNL A   1      37.629  30.987  29.588  1.00  0.00     0.029 A 
ATOM     39  C   UNL A   1      38.068  31.548  30.861  1.00  0.00     0.049 A 
ATOM     40  H   UNL A   1      39.634  30.888  32.066  1.00  0.00     0.167 HD
ATOM     41  C   UNL A   1      42.720  29.247  34.668  1.00  0.00     0.037 A 
ATOM     42  C   UNL A   1      37.509  32.612  31.469  1.00  0.00     0.037 A 
ATOM     43  C   UNL A   1      42.217  30.401  35.371  1.00  0.00     0.049 A 
ATOM     44  C   UNL A   1      38.021  33.058  32.805  1.00  0.00     0.074 A 
ATOM     45  C   UNL A   1      42.658  30.941  36.568  1.00  0.00     0.029 A 
ATOM     46  N   UNL A   1      41.161  31.191  34.943  1.00  0.00    -0.354 N 
ATOM     47  N   UNL A   1      38.992  32.549  33.523  1.00  0.00    -0.248 NA
ATOM     48  C   UNL A   1      37.354  34.213  33.420  1.00  0.00     0.031 C 
ATOM     49  C   UNL A   1      41.848  32.040  36.879  1.00  0.00     0.029 A 
ATOM     50  C   UNL A   1      40.923  32.204  35.860  1.00  0.00     0.049 A 
ATOM     51  H   UNL A   1      40.654  31.054  34.111  1.00  0.00     0.167 HD
ATOM     52  C   UNL A   1      39.059  33.326  34.672  1.00  0.00     0.074 A 
ATOM     53  C   UNL A   1      38.037  34.347  34.548  1.00  0.00     0.031 C 
ATOM     54  C   UNL A   1      39.896  33.205  35.733  1.00  0.00     0.037 A 
BRANCH  41  55
ATOM     55  C   UNL A   1      43.834  28.465  35.302  1.00  0.00     0.058 A 
ATOM     56  C   UNL A   1      45.179  28.704  34.979  1.00  0.00     0.135 A 
ATOM     57  C   UNL A   1      43.556  27.487  36.271  1.00  0.00     0.135 A 
ATOM     58  F   UNL A   1      45.499  29.619  34.051  1.00  0.00    -0.206 F 
ATOM     59  C   UNL A   1      46.209  27.983  35.578  1.00  0.00     0.059 A 
ATOM     60  C   UNL A   1      44.571  26.768  36.895  1.00  0.00     0.059 A 
ATOM     61  F   UNL A   1      42.286  27.221  36.614  1.00  0.00    -0.206 F 
ATOM     62  C   UNL A   1      45.894  27.013  36.531  1.00  0.00     0.060 A 
BRANCH  62  63
ATOM     63  S   UNL A   1      47.235  26.078  37.301  1.00  0.00     0.124 S 
ATOM     64  O   UNL A   1      48.254  27.111  37.456  1.00  0.00    -0.237 OA
ATOM     65  O   UNL A   1      46.621  25.602  38.536  1.00  0.00    -0.237 OA
ATOM     66  O   UNL A   1      47.532  25.043  36.315  1.00  0.00    -0.744 OA
ENDBRANCH  62  63
ENDBRANCH  41  55
BRANCH  42  67
ATOM     67  C   UNL A   1      36.380  33.310  30.806  1.00  0.00     0.058 A 
ATOM     68  C   UNL A   1      35.081  33.220  31.320  1.00  0.00     0.135 A 
ATOM     69  C   UNL A   1      36.594  34.137  29.692  1.00  0.00     0.135 A 
ATOM     70  F   UNL A   1      34.832  32.436  32.380  1.00  0.00    -0.206 F 
ATOM     71  C   UNL A   1      34.028  33.935  30.760  1.00  0.00     0.059 A 
ATOM     72  C   UNL A   1      35.562  34.875  29.126  1.00  0.00     0.059 A 
ATOM     73  F   UNL A   1      37.826  34.264  29.176  1.00  0.00    -0.206 F 
ATOM     74  C   UNL A   1      34.282  34.767  29.668  1.00  0.00     0.060 A 
BRANCH  74  75
ATOM     75  S   UNL A   1      32.935  35.774  29.009  1.00  0.00     0.124 S 
ATOM     76  O   UNL A   1      33.667  36.883  28.406  1.00  0.00    -0.237 OA
ATOM     77  O   UNL A   1      32.286  34.856  28.078  1.00  0.00    -0.237 OA
ATOM     78  O   UNL A   1      32.153  36.102  30.198  1.00  0.00    -0.744 OA
ENDBRANCH  74  75
ENDBRANCH  42  67
BRANCH  54  79
ATOM     79  C   UNL A   1      39.745  34.212  36.836  1.00  0.00     0.058 A 
ATOM     80  C   UNL A   1      40.312  35.491  36.741  1.00  0.00     0.135 A 
ATOM     81  C   UNL A   1      39.013  33.899  37.991  1.00  0.00     0.135 A 
ATOM     82  F   UNL A   1      41.030  35.833  35.659  1.00  0.00    -0.206 F 
ATOM     83  C   UNL A   1      40.178  36.422  37.767  1.00  0.00     0.059 A 
ATOM     84  C   UNL A   1      38.851  34.820  39.022  1.00  0.00     0.059 A 
ATOM     85  F   UNL A   1      38.446  32.690  38.127  1.00  0.00    -0.206 F 
ATOM     86  C   UNL A   1      39.449  36.074  38.906  1.00  0.00     0.060 A 
BRANCH  86  87
ATOM     87  S   UNL A   1      39.266  37.290  40.228  1.00  0.00     0.124 S 
ATOM     88  O   UNL A   1      38.485  38.329  39.564  1.00  0.00    -0.237 OA
ATOM     89  O   UNL A   1      38.566  36.534  41.262  1.00  0.00    -0.237 OA
ATOM     90  O   UNL A   1      40.645  37.648  40.549  1.00  0.00    -0.744 OA
ENDBRANCH  86  87
ENDBRANCH  54  79
ENDBRANCH  28  29
ENDBRANCH  21  23
ENDBRANCH  20  21
ENDBRANCH  19  20
ENDBRANCH   1  19
TORSDOF 17
ENDMDL
