MODEL 1
REMARK VINA RESULT:     -10.7      0.000      0.000
REMARK SMILES O=C(OCCOC(=O)c1c(F)ccc(F)c1Br)c1ccc(-c2c3nc(c(-c4c(F)cc(S(=O)(=O)[O-])cc4F)c4ccc([nH]4)c(-c4c(F)cc(S(=O)(=O)[O-])cc4F)c4nc(c(-c5c(F)cc(S(=O)(=O)[O-])cc5F)c5ccc2[nH]5)C=C4)C=C3)cc1
REMARK SMILES IDX 3 1 2 2 1 3 18 4 19 5 83 6 20 7 82 8 21 9 22 10 23 11 76 12
REMARK SMILES IDX 24 13 81 14 75 15 77 16 25 17 80 18 74 19 73 20 26 22 60 23
REMARK SMILES IDX 39 24 59 25 40 26 43 27 58 28 78 29 41 30 42 31 57 33 79 34
REMARK SMILES IDX 44 35 27 36 28 37 37 38 29 39 30 40 36 41 38 42 31 43 32 44
REMARK SMILES IDX 33 45 34 46 35 47 61 48 62 49 71 50 63 51 64 52 70 53 72 54
REMARK SMILES IDX 65 55 66 56 67 57 68 58 69 59 45 60 46 61 55 62 47 63 48 64
REMARK SMILES IDX 54 65 56 66 49 67 50 68 51 69 52 70 53 71 4 72 5 73 6 74
REMARK SMILES IDX 7 75 8 76 9 77 10 78 16 79 11 80 12 81 14 82 17 83 13 84
REMARK SMILES IDX 15 85
REMARK H PARENT 77 21 43 32
REMARK Flexibility Score: inf
ROOT
ATOM      1  O   UNL A   1      44.139  25.518  25.657  1.00  0.00    -0.458 OA
ENDROOT
BRANCH   1   2
ATOM      2  C   UNL A   1      42.873  25.935  25.907  1.00  0.00     0.338 C 
ATOM      3  O   UNL A   1      42.036  25.890  25.008  1.00  0.00    -0.246 OA
BRANCH   2   4
ATOM      4  C   UNL A   1      42.499  26.623  27.179  1.00  0.00     0.060 A 
ATOM      5  C   UNL A   1      43.252  27.758  27.522  1.00  0.00     0.016 A 
ATOM      6  C   UNL A   1      41.452  26.246  28.024  1.00  0.00     0.016 A 
ATOM      7  C   UNL A   1      43.028  28.433  28.727  1.00  0.00     0.010 A 
ATOM      8  C   UNL A   1      41.229  26.914  29.233  1.00  0.00     0.010 A 
ATOM      9  C   UNL A   1      42.016  28.008  29.598  1.00  0.00    -0.014 A 
BRANCH   9  10
ATOM     10  C   UNL A   1      41.600  28.847  30.745  1.00  0.00     0.031 A 
ATOM     11  C   UNL A   1      40.586  29.948  30.628  1.00  0.00     0.074 A 
ATOM     12  C   UNL A   1      42.229  28.620  31.913  1.00  0.00     0.049 A 
ATOM     13  N   UNL A   1      40.011  30.631  31.584  1.00  0.00    -0.248 NA
ATOM     14  C   UNL A   1      40.123  30.313  29.283  1.00  0.00     0.031 C 
ATOM     15  C   UNL A   1      43.257  27.596  32.131  1.00  0.00     0.029 A 
ATOM     16  N   UNL A   1      42.129  29.254  33.119  1.00  0.00    -0.354 N 
ATOM     17  C   UNL A   1      39.028  31.400  30.969  1.00  0.00     0.074 A 
ATOM     18  C   UNL A   1      39.128  31.154  29.548  1.00  0.00     0.031 C 
ATOM     19  C   UNL A   1      43.710  27.691  33.388  1.00  0.00     0.029 A 
ATOM     20  C   UNL A   1      43.033  28.799  34.047  1.00  0.00     0.049 A 
ATOM     21  H   UNL A   1      41.473  29.965  33.306  1.00  0.00     0.167 HD
ATOM     22  C   UNL A   1      38.135  32.235  31.550  1.00  0.00     0.037 A 
ATOM     23  C   UNL A   1      43.309  29.253  35.281  1.00  0.00     0.037 A 
ATOM     24  C   UNL A   1      38.244  32.676  32.918  1.00  0.00     0.049 A 
ATOM     25  C   UNL A   1      42.496  30.393  35.816  1.00  0.00     0.074 A 
ATOM     26  C   UNL A   1      37.488  33.626  33.583  1.00  0.00     0.029 A 
ATOM     27  N   UNL A   1      39.229  32.259  33.803  1.00  0.00    -0.354 N 
ATOM     28  N   UNL A   1      41.483  31.014  35.259  1.00  0.00    -0.248 NA
ATOM     29  C   UNL A   1      42.853  30.886  37.150  1.00  0.00     0.031 C 
ATOM     30  C   UNL A   1      38.077  33.853  34.832  1.00  0.00     0.029 A 
ATOM     31  C   UNL A   1      39.144  32.981  34.981  1.00  0.00     0.049 A 
ATOM     32  H   UNL A   1      39.891  31.554  33.620  1.00  0.00     0.167 HD
ATOM     33  C   UNL A   1      41.050  31.944  36.195  1.00  0.00     0.074 A 
ATOM     34  C   UNL A   1      41.914  31.800  37.352  1.00  0.00     0.031 C 
ATOM     35  C   UNL A   1      40.022  32.824  36.115  1.00  0.00     0.037 A 
BRANCH  22  36
ATOM     36  C   UNL A   1      36.991  32.760  30.727  1.00  0.00     0.058 A 
ATOM     37  C   UNL A   1      35.693  32.252  30.908  1.00  0.00     0.135 A 
ATOM     38  C   UNL A   1      37.146  33.860  29.869  1.00  0.00     0.135 A 
ATOM     39  F   UNL A   1      35.488  31.191  31.705  1.00  0.00    -0.206 F 
ATOM     40  C   UNL A   1      34.588  32.830  30.287  1.00  0.00     0.059 A 
ATOM     41  C   UNL A   1      36.053  34.461  29.244  1.00  0.00     0.059 A 
ATOM     42  F   UNL A   1      38.364  34.380  29.654  1.00  0.00    -0.206 F 
ATOM     43  C   UNL A   1      34.777  33.944  29.466  1.00  0.00     0.060 A 
BRANCH  43  44
ATOM     44  S   UNL A   1      33.325  34.713  28.713  1.00  0.00     0.124 S 
ATOM     45  O   UNL A   1      32.857  33.652  27.826  1.00  0.00    -0.237 OA
ATOM     46  O   UNL A   1      32.484  34.985  29.874  1.00  0.00    -0.237 OA
ATOM     47  O   UNL A   1      33.869  35.891  28.045  1.00  0.00    -0.744 OA
ENDBRANCH  43  44
ENDBRANCH  22  36
BRANCH  23  48
ATOM     48  C   UNL A   1      44.401  28.630  36.068  1.00  0.00     0.058 A 
ATOM     49  C   UNL A   1      44.142  27.566  36.942  1.00  0.00     0.135 A 
ATOM     50  C   UNL A   1      45.729  29.071  35.947  1.00  0.00     0.135 A 
ATOM     51  F   UNL A   1      42.890  27.107  37.087  1.00  0.00    -0.206 F 
ATOM     52  C   UNL A   1      45.156  26.980  37.691  1.00  0.00     0.059 A 
ATOM     53  C   UNL A   1      46.764  28.480  36.661  1.00  0.00     0.059 A 
ATOM     54  F   UNL A   1      46.033  30.071  35.104  1.00  0.00    -0.206 F 
ATOM     55  C   UNL A   1      46.463  27.446  37.545  1.00  0.00     0.060 A 
BRANCH  55  56
ATOM     56  S   UNL A   1      47.769  26.672  38.521  1.00  0.00     0.124 S 
ATOM     57  O   UNL A   1      47.134  25.420  38.915  1.00  0.00    -0.237 OA
ATOM     58  O   UNL A   1      48.852  26.562  37.549  1.00  0.00    -0.237 OA
ATOM     59  O   UNL A   1      47.996  27.630  39.598  1.00  0.00    -0.744 OA
ENDBRANCH  55  56
ENDBRANCH  23  48
BRANCH  35  60
ATOM     60  C   UNL A   1      39.751  33.665  37.328  1.00  0.00     0.058 A 
ATOM     61  C   UNL A   1      40.383  34.901  37.532  1.00  0.00     0.135 A 
ATOM     62  C   UNL A   1      38.830  33.227  38.294  1.00  0.00     0.135 A 
ATOM     63  F   UNL A   1      41.275  35.360  36.641  1.00  0.00    -0.206 F 
ATOM     64  C   UNL A   1      40.144  35.655  38.674  1.00  0.00     0.059 A 
ATOM     65  C   UNL A   1      38.548  33.983  39.426  1.00  0.00     0.059 A 
ATOM     66  F   UNL A   1      38.189  32.058  38.139  1.00  0.00    -0.206 F 
ATOM     67  C   UNL A   1      39.225  35.185  39.617  1.00  0.00     0.060 A 
BRANCH  67  68
ATOM     68  S   UNL A   1      38.924  36.175  41.094  1.00  0.00     0.124 S 
ATOM     69  O   UNL A   1      40.213  36.086  41.774  1.00  0.00    -0.237 OA
ATOM     70  O   UNL A   1      38.593  37.481  40.531  1.00  0.00    -0.237 OA
ATOM     71  O   UNL A   1      37.819  35.481  41.749  1.00  0.00    -0.744 OA
ENDBRANCH  67  68
ENDBRANCH  35  60
ENDBRANCH   9  10
ENDBRANCH   2   4
ENDBRANCH   1   2
BRANCH   1  72
ATOM     72  C   UNL A   1      45.038  24.819  26.537  1.00  0.00     0.275 C 
BRANCH  72  73
ATOM     73  C   UNL A   1      46.319  24.310  25.873  1.00  0.00     0.275 C 
BRANCH  73  74
ATOM     74  O   UNL A   1      46.311  22.890  25.671  1.00  0.00    -0.458 OA
BRANCH  74  75
ATOM     75  C   UNL A   1      45.542  22.431  24.651  1.00  0.00     0.342 C 
ATOM     76  O   UNL A   1      45.322  22.993  23.592  1.00  0.00    -0.246 OA
BRANCH  75  77
ATOM     77  C   UNL A   1      45.051  21.087  24.991  1.00  0.00     0.112 A 
ATOM     78  C   UNL A   1      45.913  20.002  24.817  1.00  0.00     0.139 A 
ATOM     79  C   UNL A   1      43.752  20.861  25.458  1.00  0.00     0.071 A 
ATOM     80  F   UNL A   1      47.172  20.194  24.396  1.00  0.00    -0.206 F 
ATOM     81  C   UNL A   1      45.488  18.697  25.066  1.00  0.00     0.043 A 
ATOM     82  C   UNL A   1      43.324  19.545  25.670  1.00  0.00     0.138 A 
ATOM     83  Br  UNL A   1      42.503  22.261  25.753  1.00  0.00    -0.047 Br
ATOM     84  C   UNL A   1      44.178  18.464  25.467  1.00  0.00     0.043 A 
ATOM     85  F   UNL A   1      42.061  19.289  26.045  1.00  0.00    -0.206 F 
ENDBRANCH  75  77
ENDBRANCH  74  75
ENDBRANCH  73  74
ENDBRANCH  72  73
ENDBRANCH   1  72
TORSDOF 14
ENDMDL
MODEL 2
REMARK VINA RESULT:     -10.7      3.479     11.465
REMARK SMILES O=C(OCCOC(=O)c1c(F)ccc(F)c1Br)c1ccc(-c2c3nc(c(-c4c(F)cc(S(=O)(=O)[O-])cc4F)c4ccc([nH]4)c(-c4c(F)cc(S(=O)(=O)[O-])cc4F)c4nc(c(-c5c(F)cc(S(=O)(=O)[O-])cc5F)c5ccc2[nH]5)C=C4)C=C3)cc1
REMARK SMILES IDX 3 1 2 2 1 3 18 4 19 5 83 6 20 7 82 8 21 9 22 10 23 11 76 12
REMARK SMILES IDX 24 13 81 14 75 15 77 16 25 17 80 18 74 19 73 20 26 22 60 23
REMARK SMILES IDX 39 24 59 25 40 26 43 27 58 28 78 29 41 30 42 31 57 33 79 34
REMARK SMILES IDX 44 35 27 36 28 37 37 38 29 39 30 40 36 41 38 42 31 43 32 44
REMARK SMILES IDX 33 45 34 46 35 47 61 48 62 49 71 50 63 51 64 52 70 53 72 54
REMARK SMILES IDX 65 55 66 56 67 57 68 58 69 59 45 60 46 61 55 62 47 63 48 64
REMARK SMILES IDX 54 65 56 66 49 67 50 68 51 69 52 70 53 71 4 72 5 73 6 74
REMARK SMILES IDX 7 75 8 76 9 77 10 78 16 79 11 80 12 81 14 82 17 83 13 84
REMARK SMILES IDX 15 85
REMARK H PARENT 77 21 43 32
REMARK Flexibility Score: inf
ROOT
ATOM      1  O   UNL A   1      33.533  31.782  27.804  1.00  0.00    -0.458 OA
ENDROOT
BRANCH   1   2
ATOM      2  C   UNL A   1      34.258  30.737  27.332  1.00  0.00     0.338 C 
ATOM      3  O   UNL A   1      33.818  30.073  26.396  1.00  0.00    -0.246 OA
BRANCH   2   4
ATOM      4  C   UNL A   1      35.484  30.243  28.026  1.00  0.00     0.060 A 
ATOM      5  C   UNL A   1      36.675  30.258  27.281  1.00  0.00     0.016 A 
ATOM      6  C   UNL A   1      35.541  29.802  29.350  1.00  0.00     0.016 A 
ATOM      7  C   UNL A   1      37.864  29.751  27.815  1.00  0.00     0.010 A 
ATOM      8  C   UNL A   1      36.727  29.288  29.887  1.00  0.00     0.010 A 
ATOM      9  C   UNL A   1      37.896  29.253  29.125  1.00  0.00    -0.014 A 
BRANCH   9  10
ATOM     10  C   UNL A   1      39.183  28.947  29.790  1.00  0.00     0.031 A 
ATOM     11  C   UNL A   1      40.036  27.769  29.420  1.00  0.00     0.074 A 
ATOM     12  C   UNL A   1      39.536  29.752  30.810  1.00  0.00     0.049 A 
ATOM     13  N   UNL A   1      41.257  27.495  29.801  1.00  0.00    -0.248 NA
ATOM     14  C   UNL A   1      39.480  26.790  28.478  1.00  0.00     0.031 C 
ATOM     15  C   UNL A   1      38.763  30.908  31.278  1.00  0.00     0.029 A 
ATOM     16  N   UNL A   1      40.605  29.701  31.659  1.00  0.00    -0.354 N 
ATOM     17  C   UNL A   1      41.659  26.399  29.046  1.00  0.00     0.074 A 
ATOM     18  C   UNL A   1      40.529  26.011  28.231  1.00  0.00     0.031 C 
ATOM     19  C   UNL A   1      39.372  31.440  32.345  1.00  0.00     0.029 A 
ATOM     20  C   UNL A   1      40.551  30.644  32.656  1.00  0.00     0.049 A 
ATOM     21  H   UNL A   1      41.343  29.055  31.565  1.00  0.00     0.167 HD
ATOM     22  C   UNL A   1      42.862  25.779  29.047  1.00  0.00     0.037 A 
ATOM     23  C   UNL A   1      41.347  30.820  33.724  1.00  0.00     0.037 A 
ATOM     24  C   UNL A   1      43.861  26.000  30.062  1.00  0.00     0.049 A 
ATOM     25  C   UNL A   1      42.537  29.922  33.878  1.00  0.00     0.074 A 
ATOM     26  C   UNL A   1      45.060  25.335  30.255  1.00  0.00     0.029 A 
ATOM     27  N   UNL A   1      43.732  26.903  31.109  1.00  0.00    -0.354 N 
ATOM     28  N   UNL A   1      42.965  28.977  33.074  1.00  0.00    -0.248 NA
ATOM     29  C   UNL A   1      43.359  30.119  35.076  1.00  0.00     0.031 C 
ATOM     30  C   UNL A   1      45.604  25.767  31.470  1.00  0.00     0.029 A 
ATOM     31  C   UNL A   1      44.792  26.763  31.988  1.00  0.00     0.049 A 
ATOM     32  H   UNL A   1      42.995  27.547  31.212  1.00  0.00     0.167 HD
ATOM     33  C   UNL A   1      44.136  28.497  33.646  1.00  0.00     0.074 A 
ATOM     34  C   UNL A   1      44.344  29.257  34.864  1.00  0.00     0.031 C 
ATOM     35  C   UNL A   1      44.972  27.528  33.198  1.00  0.00     0.037 A 
BRANCH  22  36
ATOM     36  C   UNL A   1      43.166  24.783  27.961  1.00  0.00     0.058 A 
ATOM     37  C   UNL A   1      43.811  25.195  26.781  1.00  0.00     0.135 A 
ATOM     38  C   UNL A   1      42.957  23.408  28.143  1.00  0.00     0.135 A 
ATOM     39  F   UNL A   1      44.024  26.499  26.547  1.00  0.00    -0.206 F 
ATOM     40  C   UNL A   1      44.258  24.275  25.834  1.00  0.00     0.059 A 
ATOM     41  C   UNL A   1      43.403  22.470  27.213  1.00  0.00     0.059 A 
ATOM     42  F   UNL A   1      42.339  22.962  29.247  1.00  0.00    -0.206 F 
ATOM     43  C   UNL A   1      44.060  22.913  26.065  1.00  0.00     0.060 A 
BRANCH  43  44
ATOM     44  S   UNL A   1      44.695  21.734  24.850  1.00  0.00     0.124 S 
ATOM     45  O   UNL A   1      43.763  20.621  25.005  1.00  0.00    -0.237 OA
ATOM     46  O   UNL A   1      44.583  22.486  23.605  1.00  0.00    -0.237 OA
ATOM     47  O   UNL A   1      46.058  21.475  25.305  1.00  0.00    -0.744 OA
ENDBRANCH  43  44
ENDBRANCH  22  36
BRANCH  23  48
ATOM     48  C   UNL A   1      41.029  31.879  34.713  1.00  0.00     0.058 A 
ATOM     49  C   UNL A   1      41.515  33.183  34.553  1.00  0.00     0.135 A 
ATOM     50  C   UNL A   1      40.215  31.613  35.826  1.00  0.00     0.135 A 
ATOM     51  F   UNL A   1      42.292  33.485  33.502  1.00  0.00    -0.206 F 
ATOM     52  C   UNL A   1      41.231  34.181  35.478  1.00  0.00     0.059 A 
ATOM     53  C   UNL A   1      39.891  32.601  36.747  1.00  0.00     0.059 A 
ATOM     54  F   UNL A   1      39.704  30.385  36.010  1.00  0.00    -0.206 F 
ATOM     55  C   UNL A   1      40.420  33.879  36.573  1.00  0.00     0.060 A 
BRANCH  55  56
ATOM     56  S   UNL A   1      40.054  35.186  37.763  1.00  0.00     0.124 S 
ATOM     57  O   UNL A   1      39.989  36.357  36.897  1.00  0.00    -0.237 OA
ATOM     58  O   UNL A   1      38.788  34.737  38.331  1.00  0.00    -0.237 OA
ATOM     59  O   UNL A   1      41.195  35.139  38.674  1.00  0.00    -0.744 OA
ENDBRANCH  55  56
ENDBRANCH  23  48
BRANCH  35  60
ATOM     60  C   UNL A   1      46.210  27.271  34.008  1.00  0.00     0.058 A 
ATOM     61  C   UNL A   1      47.406  27.969  33.779  1.00  0.00     0.135 A 
ATOM     62  C   UNL A   1      46.188  26.319  35.039  1.00  0.00     0.135 A 
ATOM     63  F   UNL A   1      47.478  28.885  32.801  1.00  0.00    -0.206 F 
ATOM     64  C   UNL A   1      48.551  27.700  34.518  1.00  0.00     0.059 A 
ATOM     65  C   UNL A   1      47.312  26.061  35.815  1.00  0.00     0.059 A 
ATOM     66  F   UNL A   1      45.065  25.634  35.307  1.00  0.00    -0.206 F 
ATOM     67  C   UNL A   1      48.494  26.742  35.533  1.00  0.00     0.060 A 
BRANCH  67  68
ATOM     68  S   UNL A   1      49.989  26.405  36.485  1.00  0.00     0.124 S 
ATOM     69  O   UNL A   1      49.467  25.573  37.565  1.00  0.00    -0.237 OA
ATOM     70  O   UNL A   1      50.831  25.722  35.508  1.00  0.00    -0.237 OA
ATOM     71  O   UNL A   1      50.446  27.733  36.881  1.00  0.00    -0.744 OA
ENDBRANCH  67  68
ENDBRANCH  35  60
ENDBRANCH   9  10
ENDBRANCH   2   4
ENDBRANCH   1   2
BRANCH   1  72
ATOM     72  C   UNL A   1      33.810  33.189  27.678  1.00  0.00     0.275 C 
BRANCH  72  73
ATOM     73  C   UNL A   1      33.297  34.049  28.834  1.00  0.00     0.275 C 
BRANCH  73  74
ATOM     74  O   UNL A   1      34.350  34.513  29.689  1.00  0.00    -0.458 OA
BRANCH  74  75
ATOM     75  C   UNL A   1      35.002  33.565  30.410  1.00  0.00     0.342 C 
ATOM     76  O   UNL A   1      34.525  32.543  30.872  1.00  0.00    -0.246 OA
BRANCH  75  77
ATOM     77  C   UNL A   1      36.425  33.927  30.499  1.00  0.00     0.112 A 
ATOM     78  C   UNL A   1      37.212  33.811  29.352  1.00  0.00     0.139 A 
ATOM     79  C   UNL A   1      37.013  34.360  31.692  1.00  0.00     0.071 A 
ATOM     80  F   UNL A   1      36.668  33.424  28.189  1.00  0.00    -0.206 F 
ATOM     81  C   UNL A   1      38.580  34.084  29.386  1.00  0.00     0.043 A 
ATOM     82  C   UNL A   1      38.393  34.595  31.726  1.00  0.00     0.138 A 
ATOM     83  Br  UNL A   1      36.035  34.576  33.306  1.00  0.00    -0.047 Br
ATOM     84  C   UNL A   1      39.180  34.450  30.586  1.00  0.00     0.043 A 
ATOM     85  F   UNL A   1      39.001  34.938  32.872  1.00  0.00    -0.206 F 
ENDBRANCH  75  77
ENDBRANCH  74  75
ENDBRANCH  73  74
ENDBRANCH  72  73
ENDBRANCH   1  72
TORSDOF 14
ENDMDL
MODEL 3
REMARK VINA RESULT:     -10.5      1.012      1.733
REMARK SMILES O=C(OCCOC(=O)c1c(F)ccc(F)c1Br)c1ccc(-c2c3nc(c(-c4c(F)cc(S(=O)(=O)[O-])cc4F)c4ccc([nH]4)c(-c4c(F)cc(S(=O)(=O)[O-])cc4F)c4nc(c(-c5c(F)cc(S(=O)(=O)[O-])cc5F)c5ccc2[nH]5)C=C4)C=C3)cc1
REMARK SMILES IDX 3 1 2 2 1 3 18 4 19 5 83 6 20 7 82 8 21 9 22 10 23 11 76 12
REMARK SMILES IDX 24 13 81 14 75 15 77 16 25 17 80 18 74 19 73 20 26 22 60 23
REMARK SMILES IDX 39 24 59 25 40 26 43 27 58 28 78 29 41 30 42 31 57 33 79 34
REMARK SMILES IDX 44 35 27 36 28 37 37 38 29 39 30 40 36 41 38 42 31 43 32 44
REMARK SMILES IDX 33 45 34 46 35 47 61 48 62 49 71 50 63 51 64 52 70 53 72 54
REMARK SMILES IDX 65 55 66 56 67 57 68 58 69 59 45 60 46 61 55 62 47 63 48 64
REMARK SMILES IDX 54 65 56 66 49 67 50 68 51 69 52 70 53 71 4 72 5 73 6 74
REMARK SMILES IDX 7 75 8 76 9 77 10 78 16 79 11 80 12 81 14 82 17 83 13 84
REMARK SMILES IDX 15 85
REMARK H PARENT 77 21 43 32
REMARK Flexibility Score: inf
ROOT
ATOM      1  O   UNL A   1      44.027  25.465  25.722  1.00  0.00    -0.458 OA
ENDROOT
BRANCH   1   2
ATOM      2  C   UNL A   1      42.791  25.985  25.931  1.00  0.00     0.338 C 
ATOM      3  O   UNL A   1      41.994  26.037  24.997  1.00  0.00    -0.246 OA
BRANCH   2   4
ATOM      4  C   UNL A   1      42.422  26.670  27.206  1.00  0.00     0.060 A 
ATOM      5  C   UNL A   1      43.208  27.774  27.574  1.00  0.00     0.016 A 
ATOM      6  C   UNL A   1      41.351  26.319  28.031  1.00  0.00     0.016 A 
ATOM      7  C   UNL A   1      42.990  28.441  28.784  1.00  0.00     0.010 A 
ATOM      8  C   UNL A   1      41.133  26.979  29.245  1.00  0.00     0.010 A 
ATOM      9  C   UNL A   1      41.951  28.041  29.635  1.00  0.00    -0.014 A 
BRANCH   9  10
ATOM     10  C   UNL A   1      41.546  28.880  30.786  1.00  0.00     0.031 A 
ATOM     11  C   UNL A   1      40.537  29.986  30.678  1.00  0.00     0.074 A 
ATOM     12  C   UNL A   1      42.182  28.647  31.950  1.00  0.00     0.049 A 
ATOM     13  N   UNL A   1      39.972  30.670  31.639  1.00  0.00    -0.248 NA
ATOM     14  C   UNL A   1      40.068  30.356  29.337  1.00  0.00     0.031 C 
ATOM     15  C   UNL A   1      43.206  27.618  32.159  1.00  0.00     0.029 A 
ATOM     16  N   UNL A   1      42.093  29.279  33.158  1.00  0.00    -0.354 N 
ATOM     17  C   UNL A   1      38.989  31.445  31.032  1.00  0.00     0.074 A 
ATOM     18  C   UNL A   1      39.078  31.202  29.610  1.00  0.00     0.031 C 
ATOM     19  C   UNL A   1      43.668  27.708  33.413  1.00  0.00     0.029 A 
ATOM     20  C   UNL A   1      43.001  28.818  34.078  1.00  0.00     0.049 A 
ATOM     21  H   UNL A   1      41.442  29.993  33.350  1.00  0.00     0.167 HD
ATOM     22  C   UNL A   1      38.104  32.284  31.620  1.00  0.00     0.037 A 
ATOM     23  C   UNL A   1      43.288  29.268  35.311  1.00  0.00     0.037 A 
ATOM     24  C   UNL A   1      38.225  32.722  32.988  1.00  0.00     0.049 A 
ATOM     25  C   UNL A   1      42.484  30.411  35.855  1.00  0.00     0.074 A 
ATOM     26  C   UNL A   1      37.478  33.674  33.660  1.00  0.00     0.029 A 
ATOM     27  N   UNL A   1      39.213  32.298  33.866  1.00  0.00    -0.354 N 
ATOM     28  N   UNL A   1      41.470  31.039  35.305  1.00  0.00    -0.248 NA
ATOM     29  C   UNL A   1      42.852  30.900  37.187  1.00  0.00     0.031 C 
ATOM     30  C   UNL A   1      38.076  33.895  34.906  1.00  0.00     0.029 A 
ATOM     31  C   UNL A   1      39.140  33.018  35.046  1.00  0.00     0.049 A 
ATOM     32  H   UNL A   1      39.870  31.590  33.677  1.00  0.00     0.167 HD
ATOM     33  C   UNL A   1      41.048  31.969  36.246  1.00  0.00     0.074 A 
ATOM     34  C   UNL A   1      41.919  31.818  37.396  1.00  0.00     0.031 C 
ATOM     35  C   UNL A   1      40.023  32.854  36.174  1.00  0.00     0.037 A 
BRANCH  22  36
ATOM     36  C   UNL A   1      36.958  32.817  30.805  1.00  0.00     0.058 A 
ATOM     37  C   UNL A   1      35.663  32.295  30.975  1.00  0.00     0.135 A 
ATOM     38  C   UNL A   1      37.106  33.933  29.969  1.00  0.00     0.135 A 
ATOM     39  F   UNL A   1      35.465  31.218  31.752  1.00  0.00    -0.206 F 
ATOM     40  C   UNL A   1      34.555  32.878  30.364  1.00  0.00     0.059 A 
ATOM     41  C   UNL A   1      36.009  34.538  29.354  1.00  0.00     0.059 A 
ATOM     42  F   UNL A   1      38.320  34.466  29.765  1.00  0.00    -0.206 F 
ATOM     43  C   UNL A   1      34.737  34.008  29.565  1.00  0.00     0.060 A 
BRANCH  43  44
ATOM     44  S   UNL A   1      33.280  34.781  28.824  1.00  0.00     0.124 S 
ATOM     45  O   UNL A   1      32.492  35.118  30.006  1.00  0.00    -0.237 OA
ATOM     46  O   UNL A   1      33.862  35.910  28.107  1.00  0.00    -0.237 OA
ATOM     47  O   UNL A   1      32.723  33.726  27.983  1.00  0.00    -0.744 OA
ENDBRANCH  43  44
ENDBRANCH  22  36
BRANCH  23  48
ATOM     48  C   UNL A   1      44.381  28.638  36.091  1.00  0.00     0.058 A 
ATOM     49  C   UNL A   1      45.697  29.111  35.997  1.00  0.00     0.135 A 
ATOM     50  C   UNL A   1      44.129  27.564  36.960  1.00  0.00     0.135 A 
ATOM     51  F   UNL A   1      45.984  30.138  35.184  1.00  0.00    -0.206 F 
ATOM     52  C   UNL A   1      46.731  28.523  36.716  1.00  0.00     0.059 A 
ATOM     53  C   UNL A   1      45.141  26.981  37.713  1.00  0.00     0.059 A 
ATOM     54  F   UNL A   1      42.881  27.091  37.103  1.00  0.00    -0.206 F 
ATOM     55  C   UNL A   1      46.443  27.456  37.570  1.00  0.00     0.060 A 
BRANCH  55  56
ATOM     56  S   UNL A   1      47.795  26.706  38.501  1.00  0.00     0.124 S 
ATOM     57  O   UNL A   1      47.227  26.652  39.843  1.00  0.00    -0.237 OA
ATOM     58  O   UNL A   1      47.959  25.425  37.822  1.00  0.00    -0.237 OA
ATOM     59  O   UNL A   1      48.893  27.651  38.319  1.00  0.00    -0.744 OA
ENDBRANCH  55  56
ENDBRANCH  23  48
BRANCH  35  60
ATOM     60  C   UNL A   1      39.765  33.694  37.391  1.00  0.00     0.058 A 
ATOM     61  C   UNL A   1      40.414  34.921  37.599  1.00  0.00     0.135 A 
ATOM     62  C   UNL A   1      38.839  33.265  38.356  1.00  0.00     0.135 A 
ATOM     63  F   UNL A   1      41.311  35.372  36.708  1.00  0.00    -0.206 F 
ATOM     64  C   UNL A   1      40.186  35.674  38.744  1.00  0.00     0.059 A 
ATOM     65  C   UNL A   1      38.569  34.020  39.491  1.00  0.00     0.059 A 
ATOM     66  F   UNL A   1      38.183  32.105  38.197  1.00  0.00    -0.206 F 
ATOM     67  C   UNL A   1      39.261  35.213  39.685  1.00  0.00     0.060 A 
BRANCH  67  68
ATOM     68  S   UNL A   1      38.975  36.201  41.167  1.00  0.00     0.124 S 
ATOM     69  O   UNL A   1      38.623  37.496  40.592  1.00  0.00    -0.237 OA
ATOM     70  O   UNL A   1      37.886  35.478  41.817  1.00  0.00    -0.237 OA
ATOM     71  O   UNL A   1      40.258  36.152  41.862  1.00  0.00    -0.744 OA
ENDBRANCH  67  68
ENDBRANCH  35  60
ENDBRANCH   9  10
ENDBRANCH   2   4
ENDBRANCH   1   2
BRANCH   1  72
ATOM     72  C   UNL A   1      44.776  24.576  26.571  1.00  0.00     0.275 C 
BRANCH  72  73
ATOM     73  C   UNL A   1      45.692  23.602  25.829  1.00  0.00     0.275 C 
BRANCH  73  74
ATOM     74  O   UNL A   1      45.158  22.272  25.774  1.00  0.00    -0.458 OA
BRANCH  74  75
ATOM     75  C   UNL A   1      44.044  22.102  25.018  1.00  0.00     0.342 C 
ATOM     76  O   UNL A   1      43.836  22.563  23.908  1.00  0.00    -0.246 OA
BRANCH  75  77
ATOM     77  C   UNL A   1      43.122  21.197  25.723  1.00  0.00     0.112 A 
ATOM     78  C   UNL A   1      42.081  21.757  26.466  1.00  0.00     0.139 A 
ATOM     79  C   UNL A   1      43.269  19.807  25.688  1.00  0.00     0.071 A 
ATOM     80  F   UNL A   1      41.903  23.086  26.494  1.00  0.00    -0.206 F 
ATOM     81  C   UNL A   1      41.210  20.955  27.203  1.00  0.00     0.043 A 
ATOM     82  C   UNL A   1      42.412  19.012  26.460  1.00  0.00     0.138 A 
ATOM     83  Br  UNL A   1      44.632  18.935  24.693  1.00  0.00    -0.047 Br
ATOM     84  C   UNL A   1      41.393  19.577  27.224  1.00  0.00     0.043 A 
ATOM     85  F   UNL A   1      42.573  17.681  26.509  1.00  0.00    -0.206 F 
ENDBRANCH  75  77
ENDBRANCH  74  75
ENDBRANCH  73  74
ENDBRANCH  72  73
ENDBRANCH   1  72
TORSDOF 14
ENDMDL
