MODEL 1
REMARK VINA RESULT:     -13.7      0.000      0.000
REMARK SMILES Cc1ccc(S(=O)(=O)n2cc(C(=O)C(=O)N[C@@H](Cc3c[nH]c4ccccc34)C(=O)OCCOC(=O)c3ccc(-c4c5nc(c(-c6c(F)cc(S(=O)(=O)[O-])cc6F)c6ccc([nH]6)c(-c6c(F)cc(S(=O)(=O)[O-])cc6F)c6nc(c(-c7c(F)cc(S(=O)(=O)[O-])cc7F)c7ccc4[nH]7)C=C6)C=C5)cc3)c3ccccc32)cc1
REMARK SMILES IDX 31 1 30 2 28 3 29 4 17 5 16 6 14 7 15 8 12 10 13 11 11 12
REMARK SMILES IDX 9 13 10 14 107 15 102 16 106 17 103 18 105 19 104 20 6 21
REMARK SMILES IDX 7 22 8 23 5 24 1 25 2 26 3 27 109 28 4 29 108 30 18 31 19 32
REMARK SMILES IDX 20 33 27 34 21 35 22 36 26 37 23 39 25 40 24 41 32 42 33 43
REMARK SMILES IDX 34 44 35 45 36 46 37 47 101 48 38 49 100 50 39 51 40 52
REMARK SMILES IDX 41 53 94 54 42 55 99 56 93 57 95 58 43 59 98 60 92 61 91 62
REMARK SMILES IDX 44 64 78 65 57 66 77 67 58 68 61 69 76 70 96 71 59 72 60 73
REMARK SMILES IDX 75 75 97 76 62 77 45 78 46 79 55 80 47 81 48 82 54 83 56 84
REMARK SMILES IDX 49 85 50 86 51 87 52 88 53 89 79 90 80 91 89 92 81 93 82 94
REMARK SMILES IDX 88 95 90 96 83 97 84 98 85 99 86 100 87 101 63 102 64 103
REMARK SMILES IDX 73 104 65 105 66 106 72 107 74 108 67 109 68 110 69 111
REMARK SMILES IDX 70 112 71 113
REMARK H PARENT 16 9 21 38 95 63 61 74
REMARK Flexibility Score: inf
ROOT
ATOM      1  C   UNL A   1      33.514  29.036  26.566  1.00  0.00     0.274 C 
ENDROOT
BRANCH   1   2
ATOM      2  O   UNL A   1      32.525  28.792  25.556  1.00  0.00    -0.461 OA
BRANCH   2   3
ATOM      3  C   UNL A   1      32.965  28.090  24.474  1.00  0.00     0.329 C 
ATOM      4  O   UNL A   1      34.043  28.302  23.926  1.00  0.00    -0.250 OA
BRANCH   3   5
ATOM      5  C   UNL A   1      32.004  26.941  24.092  1.00  0.00     0.197 C 
BRANCH   5   6
ATOM      6  N   UNL A   1      31.219  26.435  25.257  1.00  0.00    -0.335 N 
ATOM      7  C   UNL A   1      31.036  25.140  25.745  1.00  0.00     0.293 C 
ATOM      8  O   UNL A   1      30.396  24.956  26.779  1.00  0.00    -0.265 OA
ATOM      9  H   UNL A   1      30.752  27.135  25.769  1.00  0.00     0.164 HD
BRANCH   7  10
ATOM     10  C   UNL A   1      31.549  23.931  24.953  1.00  0.00     0.252 C 
ATOM     11  O   UNL A   1      30.672  23.199  24.486  1.00  0.00    -0.283 OA
BRANCH  10  12
ATOM     12  C   UNL A   1      32.955  23.477  24.820  1.00  0.00     0.054 A 
ATOM     13  N   UNL A   1      35.106  23.004  25.270  1.00  0.00    -0.240 N 
ATOM     14  C   UNL A   1      34.222  24.059  25.013  1.00  0.00     0.117 A 
ATOM     15  C   UNL A   1      34.379  21.808  25.240  1.00  0.00     0.065 A 
ATOM     16  C   UNL A   1      33.237  22.110  24.524  1.00  0.00     0.012 A 
ATOM     17  C   UNL A   1      34.758  20.475  25.505  1.00  0.00     0.028 A 
ATOM     18  C   UNL A   1      32.587  21.074  23.837  1.00  0.00     0.011 A 
ATOM     19  C   UNL A   1      34.144  19.473  24.761  1.00  0.00     0.002 A 
ATOM     20  C   UNL A   1      33.110  19.778  23.889  1.00  0.00     0.001 A 
BRANCH  13  21
ATOM     21  S   UNL A   1      36.741  22.726  24.813  1.00  0.00     0.268 S 
ATOM     22  O   UNL A   1      37.403  23.964  25.199  1.00  0.00    -0.201 OA
ATOM     23  O   UNL A   1      36.582  22.365  23.406  1.00  0.00    -0.201 OA
BRANCH  21  24
ATOM     24  C   UNL A   1      37.886  21.497  25.299  1.00  0.00     0.088 A 
ATOM     25  C   UNL A   1      41.509  19.455  26.447  1.00  0.00     0.044 C 
ATOM     26  C   UNL A   1      40.205  20.110  26.099  1.00  0.00    -0.051 A 
ATOM     27  C   UNL A   1      40.063  21.444  26.444  1.00  0.00     0.005 A 
ATOM     28  C   UNL A   1      39.158  19.468  25.393  1.00  0.00     0.005 A 
ATOM     29  C   UNL A   1      38.918  22.111  26.061  1.00  0.00     0.022 A 
ATOM     30  C   UNL A   1      37.988  20.158  24.981  1.00  0.00     0.022 A 
ENDBRANCH  21  24
ENDBRANCH  13  21
ENDBRANCH  10  12
ENDBRANCH   7  10
ENDBRANCH   5   6
BRANCH   5  31
ATOM     31  C   UNL A   1      31.145  27.368  22.872  1.00  0.00     0.074 C 
BRANCH  31  32
ATOM     32  C   UNL A   1      29.742  27.751  23.262  1.00  0.00    -0.020 A 
ATOM     33  C   UNL A   1      28.643  26.915  23.298  1.00  0.00     0.087 A 
ATOM     34  C   UNL A   1      29.245  29.072  23.429  1.00  0.00     0.003 A 
ATOM     35  N   UNL A   1      27.509  27.675  23.369  1.00  0.00    -0.361 N 
ATOM     36  C   UNL A   1      27.853  29.005  23.376  1.00  0.00     0.046 A 
ATOM     37  C   UNL A   1      29.868  30.330  23.494  1.00  0.00     0.010 A 
ATOM     38  H   UNL A   1      26.590  27.324  23.408  1.00  0.00     0.166 HD
ATOM     39  C   UNL A   1      27.049  30.144  23.305  1.00  0.00     0.026 A 
ATOM     40  C   UNL A   1      29.080  31.478  23.430  1.00  0.00     0.001 A 
ATOM     41  C   UNL A   1      27.694  31.383  23.315  1.00  0.00     0.002 A 
ENDBRANCH  31  32
ENDBRANCH   5  31
ENDBRANCH   3   5
ENDBRANCH   2   3
ENDBRANCH   1   2
BRANCH   1  42
ATOM     42  C   UNL A   1      33.804  30.543  26.657  1.00  0.00     0.275 C 
BRANCH  42  43
ATOM     43  O   UNL A   1      33.554  31.205  27.923  1.00  0.00    -0.458 OA
BRANCH  43  44
ATOM     44  C   UNL A   1      34.267  32.323  28.245  1.00  0.00     0.338 C 
ATOM     45  O   UNL A   1      33.839  33.463  28.162  1.00  0.00    -0.246 OA
BRANCH  44  46
ATOM     46  C   UNL A   1      35.482  31.914  29.016  1.00  0.00     0.060 A 
ATOM     47  C   UNL A   1      35.471  30.765  29.827  1.00  0.00     0.016 A 
ATOM     48  C   UNL A   1      36.693  32.459  28.611  1.00  0.00     0.016 A 
ATOM     49  C   UNL A   1      36.663  30.058  30.075  1.00  0.00     0.010 A 
ATOM     50  C   UNL A   1      37.821  31.690  28.716  1.00  0.00     0.010 A 
ATOM     51  C   UNL A   1      37.834  30.486  29.451  1.00  0.00    -0.014 A 
BRANCH  51  52
ATOM     52  C   UNL A   1      39.194  29.941  29.565  1.00  0.00     0.031 A 
ATOM     53  C   UNL A   1      39.643  28.638  29.004  1.00  0.00     0.074 A 
ATOM     54  C   UNL A   1      40.060  30.878  30.004  1.00  0.00     0.049 A 
ATOM     55  N   UNL A   1      40.679  28.469  28.238  1.00  0.00    -0.248 NA
ATOM     56  C   UNL A   1      38.945  27.385  29.322  1.00  0.00     0.031 C 
ATOM     57  C   UNL A   1      41.502  30.941  29.948  1.00  0.00     0.029 A 
ATOM     58  N   UNL A   1      39.707  32.001  30.753  1.00  0.00    -0.354 N 
ATOM     59  C   UNL A   1      40.883  27.101  28.076  1.00  0.00     0.074 A 
ATOM     60  C   UNL A   1      39.721  26.478  28.711  1.00  0.00     0.031 C 
ATOM     61  C   UNL A   1      41.925  31.845  30.854  1.00  0.00     0.029 A 
ATOM     62  C   UNL A   1      40.757  32.299  31.606  1.00  0.00     0.049 A 
ATOM     63  H   UNL A   1      38.858  32.495  30.688  1.00  0.00     0.167 HD
ATOM     64  C   UNL A   1      42.113  26.545  28.298  1.00  0.00     0.037 A 
ATOM     65  C   UNL A   1      40.535  32.100  32.941  1.00  0.00     0.037 A 
ATOM     66  C   UNL A   1      42.880  27.301  29.255  1.00  0.00     0.049 A 
ATOM     67  C   UNL A   1      41.359  30.938  33.417  1.00  0.00     0.074 A 
ATOM     68  C   UNL A   1      43.773  28.346  29.144  1.00  0.00     0.029 A 
ATOM     69  N   UNL A   1      42.620  27.114  30.599  1.00  0.00    -0.354 N 
ATOM     70  N   UNL A   1      41.612  29.872  32.704  1.00  0.00    -0.248 NA
ATOM     71  C   UNL A   1      42.082  30.976  34.681  1.00  0.00     0.031 C 
ATOM     72  C   UNL A   1      44.006  28.838  30.452  1.00  0.00     0.029 A 
ATOM     73  C   UNL A   1      43.267  28.072  31.342  1.00  0.00     0.049 A 
ATOM     74  H   UNL A   1      42.053  26.399  30.970  1.00  0.00     0.167 HD
ATOM     75  C   UNL A   1      42.585  29.150  33.344  1.00  0.00     0.074 A 
ATOM     76  C   UNL A   1      42.821  29.860  34.588  1.00  0.00     0.031 C 
ATOM     77  C   UNL A   1      43.205  28.069  32.791  1.00  0.00     0.037 A 
BRANCH  64  78
ATOM     78  C   UNL A   1      42.714  25.552  27.328  1.00  0.00     0.058 A 
ATOM     79  C   UNL A   1      42.637  24.162  27.582  1.00  0.00     0.135 A 
ATOM     80  C   UNL A   1      43.433  25.910  26.169  1.00  0.00     0.135 A 
ATOM     81  F   UNL A   1      41.947  23.678  28.624  1.00  0.00    -0.206 F 
ATOM     82  C   UNL A   1      43.293  23.208  26.803  1.00  0.00     0.059 A 
ATOM     83  C   UNL A   1      44.089  24.965  25.362  1.00  0.00     0.059 A 
ATOM     84  F   UNL A   1      43.537  27.195  25.795  1.00  0.00    -0.206 F 
ATOM     85  C   UNL A   1      44.041  23.618  25.709  1.00  0.00     0.060 A 
BRANCH  85  86
ATOM     86  S   UNL A   1      44.970  22.368  24.792  1.00  0.00     0.124 S 
ATOM     87  O   UNL A   1      46.082  22.095  25.699  1.00  0.00    -0.237 OA
ATOM     88  O   UNL A   1      43.994  21.293  24.645  1.00  0.00    -0.237 OA
ATOM     89  O   UNL A   1      45.332  23.053  23.555  1.00  0.00    -0.744 OA
ENDBRANCH  85  86
ENDBRANCH  64  78
BRANCH  65  90
ATOM     90  C   UNL A   1      39.124  32.418  33.348  1.00  0.00     0.058 A 
ATOM     91  C   UNL A   1      38.766  33.784  33.398  1.00  0.00     0.135 A 
ATOM     92  C   UNL A   1      38.071  31.490  33.285  1.00  0.00     0.135 A 
ATOM     93  F   UNL A   1      39.724  34.725  33.456  1.00  0.00    -0.206 F 
ATOM     94  C   UNL A   1      37.452  34.217  33.245  1.00  0.00     0.059 A 
ATOM     95  C   UNL A   1      36.738  31.903  33.153  1.00  0.00     0.059 A 
ATOM     96  F   UNL A   1      38.327  30.175  33.241  1.00  0.00    -0.206 F 
ATOM     97  C   UNL A   1      36.449  33.268  33.078  1.00  0.00     0.060 A 
BRANCH  97  98
ATOM     98  S   UNL A   1      34.806  33.866  32.612  1.00  0.00     0.124 S 
ATOM     99  O   UNL A   1      34.471  34.738  33.733  1.00  0.00    -0.237 OA
ATOM    100  O   UNL A   1      35.070  34.537  31.342  1.00  0.00    -0.237 OA
ATOM    101  O   UNL A   1      34.025  32.640  32.514  1.00  0.00    -0.744 OA
ENDBRANCH  97  98
ENDBRANCH  65  90
BRANCH  77 102
ATOM    102  C   UNL A   1      43.956  27.025  33.574  1.00  0.00     0.058 A 
ATOM    103  C   UNL A   1      45.359  26.937  33.575  1.00  0.00     0.135 A 
ATOM    104  C   UNL A   1      43.293  26.158  34.477  1.00  0.00     0.135 A 
ATOM    105  F   UNL A   1      46.117  27.813  32.900  1.00  0.00    -0.206 F 
ATOM    106  C   UNL A   1      46.048  25.975  34.304  1.00  0.00     0.059 A 
ATOM    107  C   UNL A   1      43.967  25.229  35.265  1.00  0.00     0.059 A 
ATOM    108  F   UNL A   1      41.964  26.200  34.647  1.00  0.00    -0.206 F 
ATOM    109  C   UNL A   1      45.343  25.114  35.136  1.00  0.00     0.060 A 
BRANCH 109 110
ATOM    110  S   UNL A   1      46.248  23.878  36.076  1.00  0.00     0.124 S 
ATOM    111  O   UNL A   1      46.823  23.071  35.004  1.00  0.00    -0.237 OA
ATOM    112  O   UNL A   1      47.199  24.687  36.834  1.00  0.00    -0.237 OA
ATOM    113  O   UNL A   1      45.210  23.233  36.871  1.00  0.00    -0.744 OA
ENDBRANCH 109 110
ENDBRANCH  77 102
ENDBRANCH  51  52
ENDBRANCH  44  46
ENDBRANCH  43  44
ENDBRANCH  42  43
ENDBRANCH   1  42
TORSDOF 21
ENDMDL
MODEL 2
REMARK VINA RESULT:     -13.4      2.259      6.215
REMARK SMILES Cc1ccc(S(=O)(=O)n2cc(C(=O)C(=O)N[C@@H](Cc3c[nH]c4ccccc34)C(=O)OCCOC(=O)c3ccc(-c4c5nc(c(-c6c(F)cc(S(=O)(=O)[O-])cc6F)c6ccc([nH]6)c(-c6c(F)cc(S(=O)(=O)[O-])cc6F)c6nc(c(-c7c(F)cc(S(=O)(=O)[O-])cc7F)c7ccc4[nH]7)C=C6)C=C5)cc3)c3ccccc32)cc1
REMARK SMILES IDX 31 1 30 2 28 3 29 4 17 5 16 6 14 7 15 8 12 10 13 11 11 12
REMARK SMILES IDX 9 13 10 14 107 15 102 16 106 17 103 18 105 19 104 20 6 21
REMARK SMILES IDX 7 22 8 23 5 24 1 25 2 26 3 27 109 28 4 29 108 30 18 31 19 32
REMARK SMILES IDX 20 33 27 34 21 35 22 36 26 37 23 39 25 40 24 41 32 42 33 43
REMARK SMILES IDX 34 44 35 45 36 46 37 47 101 48 38 49 100 50 39 51 40 52
REMARK SMILES IDX 41 53 94 54 42 55 99 56 93 57 95 58 43 59 98 60 92 61 91 62
REMARK SMILES IDX 44 64 78 65 57 66 77 67 58 68 61 69 76 70 96 71 59 72 60 73
REMARK SMILES IDX 75 75 97 76 62 77 45 78 46 79 55 80 47 81 48 82 54 83 56 84
REMARK SMILES IDX 49 85 50 86 51 87 52 88 53 89 79 90 80 91 89 92 81 93 82 94
REMARK SMILES IDX 88 95 90 96 83 97 84 98 85 99 86 100 87 101 63 102 64 103
REMARK SMILES IDX 73 104 65 105 66 106 72 107 74 108 67 109 68 110 69 111
REMARK SMILES IDX 70 112 71 113
REMARK H PARENT 16 9 21 38 95 63 61 74
REMARK Flexibility Score: inf
ROOT
ATOM      1  C   UNL A   1      33.092  27.970  26.225  1.00  0.00     0.274 C 
ENDROOT
BRANCH   1   2
ATOM      2  O   UNL A   1      33.654  26.652  26.164  1.00  0.00    -0.461 OA
BRANCH   2   3
ATOM      3  C   UNL A   1      32.816  25.647  26.544  1.00  0.00     0.329 C 
ATOM      4  O   UNL A   1      31.642  25.830  26.853  1.00  0.00    -0.250 OA
BRANCH   3   5
ATOM      5  C   UNL A   1      33.483  24.257  26.435  1.00  0.00     0.197 C 
BRANCH   5   6
ATOM      6  N   UNL A   1      32.490  23.141  26.437  1.00  0.00    -0.335 N 
ATOM      7  C   UNL A   1      31.746  22.576  25.400  1.00  0.00     0.293 C 
ATOM      8  O   UNL A   1      31.029  21.601  25.616  1.00  0.00    -0.265 OA
ATOM      9  H   UNL A   1      32.336  22.734  27.320  1.00  0.00     0.164 HD
BRANCH   7  10
ATOM     10  C   UNL A   1      31.742  23.218  24.007  1.00  0.00     0.252 C 
ATOM     11  O   UNL A   1      32.389  22.612  23.147  1.00  0.00    -0.283 OA
BRANCH  10  12
ATOM     12  C   UNL A   1      31.182  24.539  23.630  1.00  0.00     0.054 A 
ATOM     13  N   UNL A   1      30.307  26.607  23.740  1.00  0.00    -0.240 N 
ATOM     14  C   UNL A   1      30.004  25.252  23.921  1.00  0.00     0.117 A 
ATOM     15  C   UNL A   1      31.649  26.706  23.353  1.00  0.00     0.065 A 
ATOM     16  C   UNL A   1      31.966  25.453  22.865  1.00  0.00     0.012 A 
ATOM     17  C   UNL A   1      32.476  27.824  23.119  1.00  0.00     0.028 A 
ATOM     18  C   UNL A   1      32.990  25.348  21.911  1.00  0.00     0.011 A 
ATOM     19  C   UNL A   1      33.438  27.714  22.121  1.00  0.00     0.002 A 
ATOM     20  C   UNL A   1      33.650  26.503  21.480  1.00  0.00     0.001 A 
BRANCH  13  21
ATOM     21  S   UNL A   1      29.398  27.921  23.103  1.00  0.00     0.268 S 
ATOM     22  O   UNL A   1      28.021  27.496  23.308  1.00  0.00    -0.201 OA
ATOM     23  O   UNL A   1      29.961  28.027  21.759  1.00  0.00    -0.201 OA
BRANCH  21  24
ATOM     24  C   UNL A   1      29.357  29.616  23.533  1.00  0.00     0.088 A 
ATOM     25  C   UNL A   1      28.920  33.904  23.373  1.00  0.00     0.044 C 
ATOM     26  C   UNL A   1      29.045  32.416  23.512  1.00  0.00    -0.051 A 
ATOM     27  C   UNL A   1      28.244  31.642  22.689  1.00  0.00     0.005 A 
ATOM     28  C   UNL A   1      29.967  31.775  24.375  1.00  0.00     0.005 A 
ATOM     29  C   UNL A   1      28.393  30.270  22.718  1.00  0.00     0.022 A 
ATOM     30  C   UNL A   1      30.136  30.365  24.391  1.00  0.00     0.022 A 
ENDBRANCH  21  24
ENDBRANCH  13  21
ENDBRANCH  10  12
ENDBRANCH   7  10
ENDBRANCH   5   6
BRANCH   5  31
ATOM     31  C   UNL A   1      34.463  24.246  25.232  1.00  0.00     0.074 C 
BRANCH  31  32
ATOM     32  C   UNL A   1      35.744  23.516  25.540  1.00  0.00    -0.020 A 
ATOM     33  C   UNL A   1      36.982  24.087  25.761  1.00  0.00     0.087 A 
ATOM     34  C   UNL A   1      35.964  22.116  25.424  1.00  0.00     0.003 A 
ATOM     35  N   UNL A   1      37.940  23.117  25.674  1.00  0.00    -0.361 N 
ATOM     36  C   UNL A   1      37.344  21.912  25.395  1.00  0.00     0.046 A 
ATOM     37  C   UNL A   1      35.105  21.024  25.215  1.00  0.00     0.010 A 
ATOM     38  H   UNL A   1      38.907  23.259  25.794  1.00  0.00     0.166 HD
ATOM     39  C   UNL A   1      37.912  20.675  25.087  1.00  0.00     0.026 A 
ATOM     40  C   UNL A   1      35.655  19.780  24.912  1.00  0.00     0.001 A 
ATOM     41  C   UNL A   1      37.037  19.616  24.827  1.00  0.00     0.002 A 
ENDBRANCH  31  32
ENDBRANCH   5  31
ENDBRANCH   3   5
ENDBRANCH   2   3
ENDBRANCH   1   2
BRANCH   1  42
ATOM     42  C   UNL A   1      33.800  28.788  27.316  1.00  0.00     0.275 C 
BRANCH  42  43
ATOM     43  O   UNL A   1      35.178  29.181  27.083  1.00  0.00    -0.458 OA
BRANCH  43  44
ATOM     44  C   UNL A   1      35.655  30.323  27.658  1.00  0.00     0.338 C 
ATOM     45  O   UNL A   1      34.991  31.329  27.848  1.00  0.00    -0.246 OA
BRANCH  44  46
ATOM     46  C   UNL A   1      36.968  30.023  28.306  1.00  0.00     0.060 A 
ATOM     47  C   UNL A   1      37.033  29.300  29.511  1.00  0.00     0.016 A 
ATOM     48  C   UNL A   1      38.099  30.131  27.507  1.00  0.00     0.016 A 
ATOM     49  C   UNL A   1      38.172  28.534  29.821  1.00  0.00     0.010 A 
ATOM     50  C   UNL A   1      39.137  29.265  27.727  1.00  0.00     0.010 A 
ATOM     51  C   UNL A   1      39.201  28.460  28.883  1.00  0.00    -0.014 A 
BRANCH  51  52
ATOM     52  C   UNL A   1      40.488  27.756  28.978  1.00  0.00     0.031 A 
ATOM     53  C   UNL A   1      40.760  26.397  28.438  1.00  0.00     0.074 A 
ATOM     54  C   UNL A   1      41.472  28.591  29.371  1.00  0.00     0.049 A 
ATOM     55  N   UNL A   1      41.748  26.087  27.652  1.00  0.00    -0.248 NA
ATOM     56  C   UNL A   1      39.926  25.245  28.805  1.00  0.00     0.031 C 
ATOM     57  C   UNL A   1      42.909  28.478  29.278  1.00  0.00     0.029 A 
ATOM     58  N   UNL A   1      41.278  29.765  30.100  1.00  0.00    -0.354 N 
ATOM     59  C   UNL A   1      41.780  24.701  27.519  1.00  0.00     0.074 A 
ATOM     60  C   UNL A   1      40.569  24.238  28.198  1.00  0.00     0.031 C 
ATOM     61  C   UNL A   1      43.463  29.344  30.150  1.00  0.00     0.029 A 
ATOM     62  C   UNL A   1      42.379  29.952  30.919  1.00  0.00     0.049 A 
ATOM     63  H   UNL A   1      40.493  30.357  30.044  1.00  0.00     0.167 HD
ATOM     64  C   UNL A   1      42.940  24.005  27.725  1.00  0.00     0.037 A 
ATOM     65  C   UNL A   1      42.172  29.810  32.264  1.00  0.00     0.037 A 
ATOM     66  C   UNL A   1      43.819  24.683  28.643  1.00  0.00     0.049 A 
ATOM     67  C   UNL A   1      42.863  28.568  32.748  1.00  0.00     0.074 A 
ATOM     68  C   UNL A   1      44.828  25.610  28.484  1.00  0.00     0.029 A 
ATOM     69  N   UNL A   1      43.575  24.559  29.998  1.00  0.00    -0.354 N 
ATOM     70  N   UNL A   1      42.966  27.464  32.056  1.00  0.00    -0.248 NA
ATOM     71  C   UNL A   1      43.620  28.546  33.993  1.00  0.00     0.031 C 
ATOM     72  C   UNL A   1      45.154  26.098  29.773  1.00  0.00     0.029 A 
ATOM     73  C   UNL A   1      44.353  25.447  30.700  1.00  0.00     0.049 A 
ATOM     74  H   UNL A   1      42.936  23.926  30.400  1.00  0.00     0.167 HD
ATOM     75  C   UNL A   1      43.861  26.644  32.690  1.00  0.00     0.074 A 
ATOM     76  C   UNL A   1      44.215  27.347  33.910  1.00  0.00     0.031 C 
ATOM     77  C   UNL A   1      44.331  25.484  32.149  1.00  0.00     0.037 A 
BRANCH  64  78
ATOM     78  C   UNL A   1      43.390  22.925  26.765  1.00  0.00     0.058 A 
ATOM     79  C   UNL A   1      42.863  21.615  26.859  1.00  0.00     0.135 A 
ATOM     80  C   UNL A   1      44.382  23.102  25.778  1.00  0.00     0.135 A 
ATOM     81  F   UNL A   1      41.883  21.315  27.722  1.00  0.00    -0.206 F 
ATOM     82  C   UNL A   1      43.341  20.546  26.100  1.00  0.00     0.059 A 
ATOM     83  C   UNL A   1      44.867  22.043  24.993  1.00  0.00     0.059 A 
ATOM     84  F   UNL A   1      44.924  24.311  25.560  1.00  0.00    -0.206 F 
ATOM     85  C   UNL A   1      44.363  20.761  25.187  1.00  0.00     0.060 A 
BRANCH  85  86
ATOM     86  S   UNL A   1      45.036  19.334  24.306  1.00  0.00     0.124 S 
ATOM     87  O   UNL A   1      46.472  19.504  24.510  1.00  0.00    -0.237 OA
ATOM     88  O   UNL A   1      44.425  18.211  25.010  1.00  0.00    -0.237 OA
ATOM     89  O   UNL A   1      44.576  19.532  22.935  1.00  0.00    -0.744 OA
ENDBRANCH  85  86
ENDBRANCH  64  78
BRANCH  65  90
ATOM     90  C   UNL A   1      40.821  30.306  32.697  1.00  0.00     0.058 A 
ATOM     91  C   UNL A   1      40.594  31.699  32.612  1.00  0.00     0.135 A 
ATOM     92  C   UNL A   1      39.686  29.484  32.786  1.00  0.00     0.135 A 
ATOM     93  F   UNL A   1      41.636  32.542  32.522  1.00  0.00    -0.206 F 
ATOM     94  C   UNL A   1      39.318  32.239  32.473  1.00  0.00     0.059 A 
ATOM     95  C   UNL A   1      38.391  30.009  32.670  1.00  0.00     0.059 A 
ATOM     96  F   UNL A   1      39.816  28.153  32.876  1.00  0.00    -0.206 F 
ATOM     97  C   UNL A   1      38.225  31.381  32.458  1.00  0.00     0.060 A 
BRANCH  97  98
ATOM     98  S   UNL A   1      36.621  32.083  32.005  1.00  0.00     0.124 S 
ATOM     99  O   UNL A   1      35.835  30.887  31.720  1.00  0.00    -0.237 OA
ATOM    100  O   UNL A   1      36.249  32.812  33.215  1.00  0.00    -0.237 OA
ATOM    101  O   UNL A   1      36.939  32.916  30.853  1.00  0.00    -0.744 OA
ENDBRANCH  97  98
ENDBRANCH  65  90
BRANCH  77 102
ATOM    102  C   UNL A   1      44.972  24.373  32.940  1.00  0.00     0.058 A 
ATOM    103  C   UNL A   1      46.325  24.393  33.320  1.00  0.00     0.135 A 
ATOM    104  C   UNL A   1      44.206  23.308  33.475  1.00  0.00     0.135 A 
ATOM    105  F   UNL A   1      47.120  25.432  33.029  1.00  0.00    -0.206 F 
ATOM    106  C   UNL A   1      46.910  23.369  34.055  1.00  0.00     0.059 A 
ATOM    107  C   UNL A   1      44.758  22.305  34.266  1.00  0.00     0.059 A 
ATOM    108  F   UNL A   1      42.884  23.218  33.270  1.00  0.00    -0.206 F 
ATOM    109  C   UNL A   1      46.122  22.320  34.512  1.00  0.00     0.060 A 
BRANCH 109 110
ATOM    110  S   UNL A   1      46.893  21.004  35.464  1.00  0.00     0.124 S 
ATOM    111  O   UNL A   1      48.200  21.588  35.749  1.00  0.00    -0.237 OA
ATOM    112  O   UNL A   1      45.998  20.874  36.610  1.00  0.00    -0.237 OA
ATOM    113  O   UNL A   1      46.889  19.874  34.542  1.00  0.00    -0.744 OA
ENDBRANCH 109 110
ENDBRANCH  77 102
ENDBRANCH  51  52
ENDBRANCH  44  46
ENDBRANCH  43  44
ENDBRANCH  42  43
ENDBRANCH   1  42
TORSDOF 21
ENDMDL
MODEL 3
REMARK VINA RESULT:     -12.1      1.964      2.620
REMARK SMILES Cc1ccc(S(=O)(=O)n2cc(C(=O)C(=O)N[C@@H](Cc3c[nH]c4ccccc34)C(=O)OCCOC(=O)c3ccc(-c4c5nc(c(-c6c(F)cc(S(=O)(=O)[O-])cc6F)c6ccc([nH]6)c(-c6c(F)cc(S(=O)(=O)[O-])cc6F)c6nc(c(-c7c(F)cc(S(=O)(=O)[O-])cc7F)c7ccc4[nH]7)C=C6)C=C5)cc3)c3ccccc32)cc1
REMARK SMILES IDX 31 1 30 2 28 3 29 4 17 5 16 6 14 7 15 8 12 10 13 11 11 12
REMARK SMILES IDX 9 13 10 14 107 15 102 16 106 17 103 18 105 19 104 20 6 21
REMARK SMILES IDX 7 22 8 23 5 24 1 25 2 26 3 27 109 28 4 29 108 30 18 31 19 32
REMARK SMILES IDX 20 33 27 34 21 35 22 36 26 37 23 39 25 40 24 41 32 42 33 43
REMARK SMILES IDX 34 44 35 45 36 46 37 47 101 48 38 49 100 50 39 51 40 52
REMARK SMILES IDX 41 53 94 54 42 55 99 56 93 57 95 58 43 59 98 60 92 61 91 62
REMARK SMILES IDX 44 64 78 65 57 66 77 67 58 68 61 69 76 70 96 71 59 72 60 73
REMARK SMILES IDX 75 75 97 76 62 77 45 78 46 79 55 80 47 81 48 82 54 83 56 84
REMARK SMILES IDX 49 85 50 86 51 87 52 88 53 89 79 90 80 91 89 92 81 93 82 94
REMARK SMILES IDX 88 95 90 96 83 97 84 98 85 99 86 100 87 101 63 102 64 103
REMARK SMILES IDX 73 104 65 105 66 106 72 107 74 108 67 109 68 110 69 111
REMARK SMILES IDX 70 112 71 113
REMARK H PARENT 16 9 21 38 95 63 61 74
REMARK Flexibility Score: inf
ROOT
ATOM      1  C   UNL A   1      34.759  29.009  27.025  1.00  0.00     0.274 C 
ENDROOT
BRANCH   1   2
ATOM      2  O   UNL A   1      33.407  28.560  26.858  1.00  0.00    -0.461 OA
BRANCH   2   3
ATOM      3  C   UNL A   1      32.777  29.022  25.742  1.00  0.00     0.329 C 
ATOM      4  O   UNL A   1      32.826  30.193  25.376  1.00  0.00    -0.250 OA
BRANCH   3   5
ATOM      5  C   UNL A   1      32.095  27.888  24.943  1.00  0.00     0.197 C 
BRANCH   5   6
ATOM      6  N   UNL A   1      31.018  27.204  25.720  1.00  0.00    -0.335 N 
ATOM      7  C   UNL A   1      30.574  25.880  25.699  1.00  0.00     0.293 C 
ATOM      8  O   UNL A   1      29.707  25.509  26.487  1.00  0.00    -0.265 OA
ATOM      9  H   UNL A   1      30.542  27.785  26.355  1.00  0.00     0.164 HD
BRANCH   7  10
ATOM     10  C   UNL A   1      31.094  24.903  24.637  1.00  0.00     0.252 C 
ATOM     11  O   UNL A   1      30.279  24.596  23.762  1.00  0.00    -0.283 OA
BRANCH  10  12
ATOM     12  C   UNL A   1      32.392  24.186  24.637  1.00  0.00     0.054 A 
ATOM     13  N   UNL A   1      34.596  23.743  24.616  1.00  0.00    -0.240 N 
ATOM     14  C   UNL A   1      33.533  24.169  23.812  1.00  0.00     0.117 A 
ATOM     15  C   UNL A   1      34.104  23.514  25.906  1.00  0.00     0.065 A 
ATOM     16  C   UNL A   1      32.743  23.348  25.737  1.00  0.00     0.012 A 
ATOM     17  C   UNL A   1      34.753  23.152  27.105  1.00  0.00     0.028 A 
ATOM     18  C   UNL A   1      32.044  22.573  26.676  1.00  0.00     0.011 A 
ATOM     19  C   UNL A   1      34.060  22.329  27.987  1.00  0.00     0.002 A 
ATOM     20  C   UNL A   1      32.737  21.992  27.742  1.00  0.00     0.001 A 
BRANCH  13  21
ATOM     21  S   UNL A   1      35.952  22.732  24.301  1.00  0.00     0.268 S 
ATOM     22  O   UNL A   1      36.535  23.329  23.108  1.00  0.00    -0.201 OA
ATOM     23  O   UNL A   1      35.317  21.417  24.251  1.00  0.00    -0.201 OA
BRANCH  21  24
ATOM     24  C   UNL A   1      37.353  22.339  25.271  1.00  0.00     0.088 A 
ATOM     25  C   UNL A   1      41.083  22.589  27.425  1.00  0.00     0.044 C 
ATOM     26  C   UNL A   1      39.758  22.444  26.735  1.00  0.00    -0.051 A 
ATOM     27  C   UNL A   1      38.970  23.579  26.651  1.00  0.00     0.005 A 
ATOM     28  C   UNL A   1      39.311  21.248  26.122  1.00  0.00     0.005 A 
ATOM     29  C   UNL A   1      37.786  23.514  25.944  1.00  0.00     0.022 A 
ATOM     30  C   UNL A   1      38.103  21.185  25.377  1.00  0.00     0.022 A 
ENDBRANCH  21  24
ENDBRANCH  13  21
ENDBRANCH  10  12
ENDBRANCH   7  10
ENDBRANCH   5   6
BRANCH   5  31
ATOM     31  C   UNL A   1      31.648  28.427  23.558  1.00  0.00     0.074 C 
BRANCH  31  32
ATOM     32  C   UNL A   1      30.155  28.601  23.463  1.00  0.00    -0.020 A 
ATOM     33  C   UNL A   1      29.245  27.656  23.033  1.00  0.00     0.087 A 
ATOM     34  C   UNL A   1      29.442  29.827  23.565  1.00  0.00     0.003 A 
ATOM     35  N   UNL A   1      28.054  28.275  22.769  1.00  0.00    -0.361 N 
ATOM     36  C   UNL A   1      28.175  29.619  23.019  1.00  0.00     0.046 A 
ATOM     37  C   UNL A   1      29.814  31.123  23.960  1.00  0.00     0.010 A 
ATOM     38  H   UNL A   1      27.238  27.826  22.450  1.00  0.00     0.166 HD
ATOM     39  C   UNL A   1      27.284  30.665  22.774  1.00  0.00     0.026 A 
ATOM     40  C   UNL A   1      28.934  32.178  23.729  1.00  0.00     0.001 A 
ATOM     41  C   UNL A   1      27.698  31.953  23.124  1.00  0.00     0.002 A 
ENDBRANCH  31  32
ENDBRANCH   5  31
ENDBRANCH   3   5
ENDBRANCH   2   3
ENDBRANCH   1   2
BRANCH   1  42
ATOM     42  C   UNL A   1      34.769  30.402  27.674  1.00  0.00     0.275 C 
BRANCH  42  43
ATOM     43  O   UNL A   1      35.402  30.539  28.973  1.00  0.00    -0.458 OA
BRANCH  43  44
ATOM     44  C   UNL A   1      35.920  31.747  29.340  1.00  0.00     0.338 C 
ATOM     45  O   UNL A   1      35.255  32.748  29.552  1.00  0.00    -0.246 OA
BRANCH  44  46
ATOM     46  C   UNL A   1      37.342  31.552  29.761  1.00  0.00     0.060 A 
ATOM     47  C   UNL A   1      37.664  31.220  31.089  1.00  0.00     0.016 A 
ATOM     48  C   UNL A   1      38.268  31.329  28.751  1.00  0.00     0.016 A 
ATOM     49  C   UNL A   1      38.836  30.494  31.377  1.00  0.00     0.010 A 
ATOM     50  C   UNL A   1      39.321  30.490  29.007  1.00  0.00     0.010 A 
ATOM     51  C   UNL A   1      39.630  30.064  30.315  1.00  0.00    -0.014 A 
BRANCH  51  52
ATOM     52  C   UNL A   1      40.899  29.322  30.353  1.00  0.00     0.031 A 
ATOM     53  C   UNL A   1      41.165  28.047  29.634  1.00  0.00     0.074 A 
ATOM     54  C   UNL A   1      41.884  30.068  30.895  1.00  0.00     0.049 A 
ATOM     55  N   UNL A   1      42.175  27.828  28.846  1.00  0.00    -0.248 NA
ATOM     56  C   UNL A   1      40.295  26.875  29.804  1.00  0.00     0.031 C 
ATOM     57  C   UNL A   1      43.321  29.934  30.836  1.00  0.00     0.029 A 
ATOM     58  N   UNL A   1      41.685  31.131  31.776  1.00  0.00    -0.354 N 
ATOM     59  C   UNL A   1      42.185  26.474  28.518  1.00  0.00     0.074 A 
ATOM     60  C   UNL A   1      40.941  25.949  29.082  1.00  0.00     0.031 C 
ATOM     61  C   UNL A   1      43.858  30.654  31.841  1.00  0.00     0.029 A 
ATOM     62  C   UNL A   1      42.759  31.173  32.651  1.00  0.00     0.049 A 
ATOM     63  H   UNL A   1      40.915  31.744  31.778  1.00  0.00     0.167 HD
ATOM     64  C   UNL A   1      43.323  25.728  28.662  1.00  0.00     0.037 A 
ATOM     65  C   UNL A   1      42.498  30.847  33.954  1.00  0.00     0.037 A 
ATOM     66  C   UNL A   1      44.180  26.246  29.697  1.00  0.00     0.049 A 
ATOM     67  C   UNL A   1      43.146  29.533  34.279  1.00  0.00     0.074 A 
ATOM     68  C   UNL A   1      45.212  27.161  29.707  1.00  0.00     0.029 A 
ATOM     69  N   UNL A   1      43.882  25.937  31.011  1.00  0.00    -0.354 N 
ATOM     70  N   UNL A   1      43.253  28.535  33.441  1.00  0.00    -0.248 NA
ATOM     71  C   UNL A   1      43.855  29.316  35.534  1.00  0.00     0.031 C 
ATOM     72  C   UNL A   1      45.499  27.454  31.063  1.00  0.00     0.029 A 
ATOM     73  C   UNL A   1      44.651  26.697  31.860  1.00  0.00     0.049 A 
ATOM     74  H   UNL A   1      43.217  25.270  31.297  1.00  0.00     0.167 HD
ATOM     75  C   UNL A   1      44.109  27.612  33.982  1.00  0.00     0.074 A 
ATOM     76  C   UNL A   1      44.430  28.126  35.301  1.00  0.00     0.031 C 
ATOM     77  C   UNL A   1      44.575  26.529  33.297  1.00  0.00     0.037 A 
BRANCH  64  78
ATOM     78  C   UNL A   1      43.788  24.784  27.574  1.00  0.00     0.058 A 
ATOM     79  C   UNL A   1      43.378  24.977  26.233  1.00  0.00     0.135 A 
ATOM     80  C   UNL A   1      44.579  23.639  27.800  1.00  0.00     0.135 A 
ATOM     81  F   UNL A   1      42.659  26.047  25.868  1.00  0.00    -0.206 F 
ATOM     82  C   UNL A   1      43.653  24.064  25.214  1.00  0.00     0.059 A 
ATOM     83  C   UNL A   1      44.881  22.715  26.786  1.00  0.00     0.059 A 
ATOM     84  F   UNL A   1      45.069  23.374  29.021  1.00  0.00    -0.206 F 
ATOM     85  C   UNL A   1      44.383  22.920  25.503  1.00  0.00     0.060 A 
BRANCH  85  86
ATOM     86  S   UNL A   1      44.622  21.704  24.187  1.00  0.00     0.124 S 
ATOM     87  O   UNL A   1      46.063  21.476  24.247  1.00  0.00    -0.237 OA
ATOM     88  O   UNL A   1      43.786  20.592  24.630  1.00  0.00    -0.237 OA
ATOM     89  O   UNL A   1      44.153  22.398  22.992  1.00  0.00    -0.744 OA
ENDBRANCH  85  86
ENDBRANCH  64  78
BRANCH  65  90
ATOM     90  C   UNL A   1      41.142  31.310  34.407  1.00  0.00     0.058 A 
ATOM     91  C   UNL A   1      40.192  30.307  34.706  1.00  0.00     0.135 A 
ATOM     92  C   UNL A   1      40.893  32.592  34.923  1.00  0.00     0.135 A 
ATOM     93  F   UNL A   1      40.371  29.057  34.245  1.00  0.00    -0.206 F 
ATOM     94  C   UNL A   1      39.135  30.520  35.587  1.00  0.00     0.059 A 
ATOM     95  C   UNL A   1      39.822  32.834  35.796  1.00  0.00     0.059 A 
ATOM     96  F   UNL A   1      41.742  33.599  34.680  1.00  0.00    -0.206 F 
ATOM     97  C   UNL A   1      38.985  31.777  36.162  1.00  0.00     0.060 A 
BRANCH  97  98
ATOM     98  S   UNL A   1      37.778  31.942  37.499  1.00  0.00     0.124 S 
ATOM     99  O   UNL A   1      38.583  32.532  38.563  1.00  0.00    -0.237 OA
ATOM    100  O   UNL A   1      36.773  32.819  36.903  1.00  0.00    -0.237 OA
ATOM    101  O   UNL A   1      37.346  30.569  37.725  1.00  0.00    -0.744 OA
ENDBRANCH  97  98
ENDBRANCH  65  90
BRANCH  77 102
ATOM    102  C   UNL A   1      45.164  25.302  33.943  1.00  0.00     0.058 A 
ATOM    103  C   UNL A   1      46.538  25.005  33.902  1.00  0.00     0.135 A 
ATOM    104  C   UNL A   1      44.383  24.448  34.760  1.00  0.00     0.135 A 
ATOM    105  F   UNL A   1      47.416  25.829  33.311  1.00  0.00    -0.206 F 
ATOM    106  C   UNL A   1      47.078  23.876  34.504  1.00  0.00     0.059 A 
ATOM    107  C   UNL A   1      44.914  23.346  35.425  1.00  0.00     0.059 A 
ATOM    108  F   UNL A   1      43.077  24.670  34.964  1.00  0.00    -0.206 F 
ATOM    109  C   UNL A   1      46.256  23.042  35.252  1.00  0.00     0.060 A 
BRANCH 109 110
ATOM    110  S   UNL A   1      46.969  21.586  36.028  1.00  0.00     0.124 S 
ATOM    111  O   UNL A   1      45.858  20.644  35.940  1.00  0.00    -0.237 OA
ATOM    112  O   UNL A   1      48.113  21.294  35.168  1.00  0.00    -0.237 OA
ATOM    113  O   UNL A   1      47.304  22.049  37.370  1.00  0.00    -0.744 OA
ENDBRANCH 109 110
ENDBRANCH  77 102
ENDBRANCH  51  52
ENDBRANCH  44  46
ENDBRANCH  43  44
ENDBRANCH  42  43
ENDBRANCH   1  42
TORSDOF 21
ENDMDL
