MODEL 1
REMARK VINA RESULT:      -9.8      0.000      0.000
REMARK SMILES [N-]=[N+]=NC[C@H](Nc1ccc(Br)cc1)C(=O)OCCOC(=O)c1ccc(-c2c3nc(c(-c4c(F)cc(S(=O)(=O)[O-])cc4F)c4ccc([nH]4)c(-c4c(F)cc(S(=O)(=O)[O-])cc4F)c4nc(c(-c5c(F)cc(S(=O)(=O)[O-])cc5F)c5ccc2[nH]5)C=C4)C=C3)cc1
REMARK SMILES IDX 18 1 17 2 16 3 14 4 15 5 5 6 4 7 3 8 1 9 2 10 6 11 7 13 8 14
REMARK SMILES IDX 13 15 9 16 12 17 10 18 11 19 19 20 20 21 21 22 22 23 23 24
REMARK SMILES IDX 87 25 24 26 86 27 25 28 26 29 27 30 80 31 28 32 85 33 79 34
REMARK SMILES IDX 81 35 29 36 84 37 78 38 77 39 30 41 64 42 43 43 63 44 44 45
REMARK SMILES IDX 47 46 62 47 82 48 45 49 46 50 61 52 83 53 48 54 31 55 32 56
REMARK SMILES IDX 41 57 33 58 34 59 40 60 42 61 35 62 36 63 37 64 38 65 39 66
REMARK SMILES IDX 65 67 66 68 75 69 67 70 68 71 74 72 76 73 69 74 70 75 71 76
REMARK SMILES IDX 72 77 73 78 49 79 50 80 59 81 51 82 52 83 58 84 60 85 53 86
REMARK SMILES IDX 54 87 55 88 56 89 57 90
REMARK H PARENT 6 12 81 40 47 51
REMARK Flexibility Score: inf
ROOT
ATOM      1  C   UNL A   1      44.116  24.560  24.998  1.00  0.00     0.275 C 
ENDROOT
BRANCH   1   2
ATOM      2  C   UNL A   1      44.003  23.038  25.047  1.00  0.00     0.274 C 
BRANCH   2   3
ATOM      3  O   UNL A   1      42.647  22.608  24.809  1.00  0.00    -0.461 OA
BRANCH   3   4
ATOM      4  C   UNL A   1      41.995  22.138  25.905  1.00  0.00     0.328 C 
ATOM      5  O   UNL A   1      40.823  22.407  26.171  1.00  0.00    -0.250 OA
BRANCH   4   6
ATOM      6  C   UNL A   1      42.839  21.274  26.843  1.00  0.00     0.195 C 
BRANCH   6   7
ATOM      7  C   UNL A   1      42.246  19.854  26.727  1.00  0.00     0.127 C 
BRANCH   7   8
ATOM      8  N   UNL A   1      42.453  19.270  25.388  1.00  0.00    -0.091 NA
ATOM      9  N   UNL A   1      44.653  18.449  24.978  1.00  0.00    -0.003 NA
ATOM     10  N   UNL A   1      43.604  18.835  25.168  1.00  0.00     0.001 N 
ENDBRANCH   7   8
ENDBRANCH   6   7
BRANCH   6  11
ATOM     11  N   UNL A   1      42.868  21.698  28.259  1.00  0.00    -0.372 N 
ATOM     12  H   UNL A   1      42.365  21.190  28.935  1.00  0.00     0.161 HD
BRANCH  11  13
ATOM     13  C   UNL A   1      43.606  22.817  28.636  1.00  0.00     0.035 A 
ATOM     14  C   UNL A   1      44.927  23.008  28.226  1.00  0.00     0.027 A 
ATOM     15  C   UNL A   1      43.049  23.770  29.496  1.00  0.00     0.027 A 
ATOM     16  C   UNL A   1      45.666  24.130  28.619  1.00  0.00     0.018 A 
ATOM     17  C   UNL A   1      43.778  24.896  29.901  1.00  0.00     0.018 A 
ATOM     18  C   UNL A   1      45.082  25.076  29.451  1.00  0.00     0.018 A 
ATOM     19  Br  UNL A   1      46.052  26.620  29.950  1.00  0.00    -0.051 Br
ENDBRANCH  11  13
ENDBRANCH   6  11
ENDBRANCH   4   6
ENDBRANCH   3   4
ENDBRANCH   2   3
ENDBRANCH   1   2
BRANCH   1  20
ATOM     20  O   UNL A   1      43.437  25.147  26.123  1.00  0.00    -0.458 OA
BRANCH  20  21
ATOM     21  C   UNL A   1      42.412  25.968  25.803  1.00  0.00     0.338 C 
ATOM     22  O   UNL A   1      41.866  26.071  24.716  1.00  0.00    -0.246 OA
BRANCH  21  23
ATOM     23  C   UNL A   1      41.977  26.762  26.966  1.00  0.00     0.060 A 
ATOM     24  C   UNL A   1      42.615  27.956  27.305  1.00  0.00     0.016 A 
ATOM     25  C   UNL A   1      41.037  26.205  27.830  1.00  0.00     0.016 A 
ATOM     26  C   UNL A   1      42.369  28.556  28.539  1.00  0.00     0.010 A 
ATOM     27  C   UNL A   1      40.711  26.866  29.017  1.00  0.00     0.010 A 
ATOM     28  C   UNL A   1      41.384  28.040  29.394  1.00  0.00    -0.014 A 
BRANCH  28  29
ATOM     29  C   UNL A   1      41.002  28.750  30.645  1.00  0.00     0.031 A 
ATOM     30  C   UNL A   1      39.868  29.742  30.655  1.00  0.00     0.074 A 
ATOM     31  C   UNL A   1      41.731  28.553  31.763  1.00  0.00     0.049 A 
ATOM     32  N   UNL A   1      39.530  30.599  31.584  1.00  0.00    -0.248 NA
ATOM     33  C   UNL A   1      39.012  29.786  29.459  1.00  0.00     0.031 C 
ATOM     34  C   UNL A   1      42.842  27.609  31.894  1.00  0.00     0.029 A 
ATOM     35  N   UNL A   1      41.661  29.151  32.998  1.00  0.00    -0.354 N 
ATOM     36  C   UNL A   1      38.448  31.310  31.076  1.00  0.00     0.074 A 
ATOM     37  C   UNL A   1      38.197  30.792  29.747  1.00  0.00     0.031 C 
ATOM     38  C   UNL A   1      43.343  27.683  33.135  1.00  0.00     0.029 A 
ATOM     39  C   UNL A   1      42.646  28.737  33.862  1.00  0.00     0.049 A 
ATOM     40  H   UNL A   1      40.973  29.813  33.239  1.00  0.00     0.167 HD
ATOM     41  C   UNL A   1      37.734  32.299  31.667  1.00  0.00     0.037 A 
ATOM     42  C   UNL A   1      42.994  29.184  35.083  1.00  0.00     0.037 A 
ATOM     43  C   UNL A   1      37.981  32.791  33.001  1.00  0.00     0.049 A 
ATOM     44  C   UNL A   1      42.224  30.321  35.692  1.00  0.00     0.074 A 
ATOM     45  C   UNL A   1      37.290  33.767  33.699  1.00  0.00     0.029 A 
ATOM     46  N   UNL A   1      38.996  32.349  33.838  1.00  0.00    -0.354 N 
ATOM     47  N   UNL A   1      41.205  30.983  35.200  1.00  0.00    -0.248 NA
ATOM     48  C   UNL A   1      42.656  30.778  37.020  1.00  0.00     0.031 C 
ATOM     49  C   UNL A   1      37.921  33.955  34.933  1.00  0.00     0.029 A 
ATOM     50  C   UNL A   1      38.967  33.052  35.033  1.00  0.00     0.049 A 
ATOM     51  H   UNL A   1      39.641  31.639  33.617  1.00  0.00     0.167 HD
ATOM     52  C   UNL A   1      40.857  31.918  36.168  1.00  0.00     0.074 A 
ATOM     53  C   UNL A   1      41.766  31.725  37.279  1.00  0.00     0.031 C 
ATOM     54  C   UNL A   1      39.875  32.852  36.136  1.00  0.00     0.037 A 
BRANCH  41  55
ATOM     55  C   UNL A   1      36.630  32.946  30.869  1.00  0.00     0.058 A 
ATOM     56  C   UNL A   1      35.274  32.707  31.141  1.00  0.00     0.135 A 
ATOM     57  C   UNL A   1      36.937  33.866  29.851  1.00  0.00     0.135 A 
ATOM     58  F   UNL A   1      34.921  31.831  32.095  1.00  0.00    -0.206 F 
ATOM     59  C   UNL A   1      34.263  33.332  30.415  1.00  0.00     0.059 A 
ATOM     60  C   UNL A   1      35.943  34.526  29.134  1.00  0.00     0.059 A 
ATOM     61  F   UNL A   1      38.216  34.138  29.550  1.00  0.00    -0.206 F 
ATOM     62  C   UNL A   1      34.608  34.242  29.414  1.00  0.00     0.060 A 
BRANCH  62  63
ATOM     63  S   UNL A   1      33.285  35.051  28.488  1.00  0.00     0.124 S 
ATOM     64  O   UNL A   1      32.515  35.672  29.561  1.00  0.00    -0.237 OA
ATOM     65  O   UNL A   1      34.023  35.967  27.625  1.00  0.00    -0.237 OA
ATOM     66  O   UNL A   1      32.623  33.946  27.802  1.00  0.00    -0.744 OA
ENDBRANCH  62  63
ENDBRANCH  41  55
BRANCH  42  67
ATOM     67  C   UNL A   1      44.148  28.571  35.794  1.00  0.00     0.058 A 
ATOM     68  C   UNL A   1      45.456  29.020  35.565  1.00  0.00     0.135 A 
ATOM     69  C   UNL A   1      43.964  27.542  36.733  1.00  0.00     0.135 A 
ATOM     70  F   UNL A   1      45.683  29.996  34.674  1.00  0.00    -0.206 F 
ATOM     71  C   UNL A   1      46.543  28.463  36.230  1.00  0.00     0.059 A 
ATOM     72  C   UNL A   1      45.032  26.991  37.433  1.00  0.00     0.059 A 
ATOM     73  F   UNL A   1      42.730  27.088  37.001  1.00  0.00    -0.206 F 
ATOM     74  C   UNL A   1      46.320  27.452  37.166  1.00  0.00     0.060 A 
BRANCH  74  75
ATOM     75  S   UNL A   1      47.735  26.771  38.057  1.00  0.00     0.124 S 
ATOM     76  O   UNL A   1      48.004  25.557  37.297  1.00  0.00    -0.237 OA
ATOM     77  O   UNL A   1      48.720  27.839  37.927  1.00  0.00    -0.237 OA
ATOM     78  O   UNL A   1      47.216  26.569  39.407  1.00  0.00    -0.744 OA
ENDBRANCH  74  75
ENDBRANCH  42  67
BRANCH  54  79
ATOM     79  C   UNL A   1      39.705  33.716  37.357  1.00  0.00     0.058 A 
ATOM     80  C   UNL A   1      40.370  34.945  37.494  1.00  0.00     0.135 A 
ATOM     81  C   UNL A   1      38.838  33.324  38.389  1.00  0.00     0.135 A 
ATOM     82  F   UNL A   1      41.221  35.363  36.544  1.00  0.00    -0.206 F 
ATOM     83  C   UNL A   1      40.200  35.742  38.622  1.00  0.00     0.059 A 
ATOM     84  C   UNL A   1      38.628  34.120  39.512  1.00  0.00     0.059 A 
ATOM     85  F   UNL A   1      38.171  32.161  38.308  1.00  0.00    -0.206 F 
ATOM     86  C   UNL A   1      39.324  35.322  39.625  1.00  0.00     0.060 A 
BRANCH  86  87
ATOM     87  S   UNL A   1      39.090  36.381  41.068  1.00  0.00     0.124 S 
ATOM     88  O   UNL A   1      40.421  36.366  41.663  1.00  0.00    -0.237 OA
ATOM     89  O   UNL A   1      38.679  37.644  40.463  1.00  0.00    -0.237 OA
ATOM     90  O   UNL A   1      38.053  35.692  41.831  1.00  0.00    -0.744 OA
ENDBRANCH  86  87
ENDBRANCH  54  79
ENDBRANCH  28  29
ENDBRANCH  21  23
ENDBRANCH  20  21
ENDBRANCH   1  20
TORSDOF 18
ENDMDL
MODEL 2
REMARK VINA RESULT:      -9.7      5.277     12.140
REMARK SMILES [N-]=[N+]=NC[C@H](Nc1ccc(Br)cc1)C(=O)OCCOC(=O)c1ccc(-c2c3nc(c(-c4c(F)cc(S(=O)(=O)[O-])cc4F)c4ccc([nH]4)c(-c4c(F)cc(S(=O)(=O)[O-])cc4F)c4nc(c(-c5c(F)cc(S(=O)(=O)[O-])cc5F)c5ccc2[nH]5)C=C4)C=C3)cc1
REMARK SMILES IDX 18 1 17 2 16 3 14 4 15 5 5 6 4 7 3 8 1 9 2 10 6 11 7 13 8 14
REMARK SMILES IDX 13 15 9 16 12 17 10 18 11 19 19 20 20 21 21 22 22 23 23 24
REMARK SMILES IDX 87 25 24 26 86 27 25 28 26 29 27 30 80 31 28 32 85 33 79 34
REMARK SMILES IDX 81 35 29 36 84 37 78 38 77 39 30 41 64 42 43 43 63 44 44 45
REMARK SMILES IDX 47 46 62 47 82 48 45 49 46 50 61 52 83 53 48 54 31 55 32 56
REMARK SMILES IDX 41 57 33 58 34 59 40 60 42 61 35 62 36 63 37 64 38 65 39 66
REMARK SMILES IDX 65 67 66 68 75 69 67 70 68 71 74 72 76 73 69 74 70 75 71 76
REMARK SMILES IDX 72 77 73 78 49 79 50 80 59 81 51 82 52 83 58 84 60 85 53 86
REMARK SMILES IDX 54 87 55 88 56 89 57 90
REMARK H PARENT 6 12 81 40 47 51
REMARK Flexibility Score: inf
ROOT
ATOM      1  C   UNL A   1      34.556  32.620  27.984  1.00  0.00     0.275 C 
ENDROOT
BRANCH   1   2
ATOM      2  C   UNL A   1      35.042  33.543  29.098  1.00  0.00     0.274 C 
BRANCH   2   3
ATOM      3  O   UNL A   1      34.011  33.760  30.083  1.00  0.00    -0.461 OA
BRANCH   3   4
ATOM      4  C   UNL A   1      34.342  33.391  31.349  1.00  0.00     0.328 C 
ATOM      5  O   UNL A   1      34.353  32.224  31.739  1.00  0.00    -0.250 OA
BRANCH   4   6
ATOM      6  C   UNL A   1      34.658  34.545  32.301  1.00  0.00     0.195 C 
BRANCH   6   7
ATOM      7  C   UNL A   1      33.557  35.595  32.041  1.00  0.00     0.127 C 
BRANCH   7   8
ATOM      8  N   UNL A   1      32.207  35.069  32.316  1.00  0.00    -0.091 NA
ATOM      9  N   UNL A   1      30.669  36.661  33.200  1.00  0.00    -0.003 NA
ATOM     10  N   UNL A   1      31.394  35.899  32.777  1.00  0.00     0.001 N 
ENDBRANCH   7   8
ENDBRANCH   6   7
BRANCH   6  11
ATOM     11  N   UNL A   1      35.993  35.160  32.149  1.00  0.00    -0.372 N 
ATOM     12  H   UNL A   1      36.111  35.940  31.561  1.00  0.00     0.161 HD
BRANCH  11  13
ATOM     13  C   UNL A   1      37.085  34.634  32.836  1.00  0.00     0.035 A 
ATOM     14  C   UNL A   1      36.978  34.146  34.139  1.00  0.00     0.027 A 
ATOM     15  C   UNL A   1      38.353  34.632  32.243  1.00  0.00     0.027 A 
ATOM     16  C   UNL A   1      38.082  33.630  34.826  1.00  0.00     0.018 A 
ATOM     17  C   UNL A   1      39.469  34.122  32.922  1.00  0.00     0.018 A 
ATOM     18  C   UNL A   1      39.325  33.613  34.208  1.00  0.00     0.018 A 
ATOM     19  Br  UNL A   1      40.815  32.875  35.106  1.00  0.00    -0.051 Br
ENDBRANCH  11  13
ENDBRANCH   6  11
ENDBRANCH   4   6
ENDBRANCH   3   4
ENDBRANCH   2   3
ENDBRANCH   1   2
BRANCH   1  20
ATOM     20  O   UNL A   1      34.042  31.396  28.540  1.00  0.00    -0.458 OA
BRANCH  20  21
ATOM     21  C   UNL A   1      34.372  30.279  27.854  1.00  0.00     0.338 C 
ATOM     22  O   UNL A   1      33.676  29.674  27.055  1.00  0.00    -0.246 OA
BRANCH  21  23
ATOM     23  C   UNL A   1      35.745  29.843  28.169  1.00  0.00     0.060 A 
ATOM     24  C   UNL A   1      36.117  29.510  29.473  1.00  0.00     0.016 A 
ATOM     25  C   UNL A   1      36.714  29.947  27.173  1.00  0.00     0.016 A 
ATOM     26  C   UNL A   1      37.463  29.353  29.798  1.00  0.00     0.010 A 
ATOM     27  C   UNL A   1      38.051  29.681  27.479  1.00  0.00     0.010 A 
ATOM     28  C   UNL A   1      38.444  29.397  28.797  1.00  0.00    -0.014 A 
BRANCH  28  29
ATOM     29  C   UNL A   1      39.868  29.083  29.100  1.00  0.00     0.031 A 
ATOM     30  C   UNL A   1      40.799  30.145  29.622  1.00  0.00     0.074 A 
ATOM     31  C   UNL A   1      40.341  27.849  28.833  1.00  0.00     0.049 A 
ATOM     32  N   UNL A   1      42.102  30.114  29.743  1.00  0.00    -0.248 NA
ATOM     33  C   UNL A   1      40.189  31.414  30.049  1.00  0.00     0.031 C 
ATOM     34  C   UNL A   1      39.542  26.723  28.342  1.00  0.00     0.029 A 
ATOM     35  N   UNL A   1      41.613  27.337  28.915  1.00  0.00    -0.354 N 
ATOM     36  C   UNL A   1      42.474  31.364  30.224  1.00  0.00     0.074 A 
ATOM     37  C   UNL A   1      41.257  32.138  30.357  1.00  0.00     0.031 C 
ATOM     38  C   UNL A   1      40.335  25.655  28.177  1.00  0.00     0.029 A 
ATOM     39  C   UNL A   1      41.711  26.041  28.467  1.00  0.00     0.049 A 
ATOM     40  H   UNL A   1      42.379  27.848  29.261  1.00  0.00     0.167 HD
ATOM     41  C   UNL A   1      43.715  31.819  30.527  1.00  0.00     0.037 A 
ATOM     42  C   UNL A   1      42.786  25.259  28.257  1.00  0.00     0.037 A 
ATOM     43  C   UNL A   1      44.917  31.030  30.410  1.00  0.00     0.049 A 
ATOM     44  C   UNL A   1      44.156  25.806  28.544  1.00  0.00     0.074 A 
ATOM     45  C   UNL A   1      46.217  31.391  30.724  1.00  0.00     0.029 A 
ATOM     46  N   UNL A   1      44.972  29.724  29.942  1.00  0.00    -0.354 N 
ATOM     47  N   UNL A   1      44.491  26.989  28.997  1.00  0.00    -0.248 NA
ATOM     48  C   UNL A   1      45.293  24.914  28.283  1.00  0.00     0.031 C 
ATOM     49  C   UNL A   1      47.062  30.326  30.393  1.00  0.00     0.029 A 
ATOM     50  C   UNL A   1      46.284  29.277  29.931  1.00  0.00     0.049 A 
ATOM     51  H   UNL A   1      44.192  29.193  29.660  1.00  0.00     0.167 HD
ATOM     52  C   UNL A   1      45.878  26.976  29.101  1.00  0.00     0.074 A 
ATOM     53  C   UNL A   1      46.314  25.662  28.676  1.00  0.00     0.031 C 
ATOM     54  C   UNL A   1      46.711  27.965  29.509  1.00  0.00     0.037 A 
BRANCH  41  55
ATOM     55  C   UNL A   1      43.850  33.248  30.986  1.00  0.00     0.058 A 
ATOM     56  C   UNL A   1      43.840  33.599  32.346  1.00  0.00     0.135 A 
ATOM     57  C   UNL A   1      44.051  34.278  30.051  1.00  0.00     0.135 A 
ATOM     58  F   UNL A   1      43.642  32.660  33.284  1.00  0.00    -0.206 F 
ATOM     59  C   UNL A   1      43.994  34.919  32.759  1.00  0.00     0.059 A 
ATOM     60  C   UNL A   1      44.238  35.600  30.442  1.00  0.00     0.059 A 
ATOM     61  F   UNL A   1      44.075  34.002  28.737  1.00  0.00    -0.206 F 
ATOM     62  C   UNL A   1      44.195  35.914  31.800  1.00  0.00     0.060 A 
BRANCH  62  63
ATOM     63  S   UNL A   1      44.402  37.620  32.353  1.00  0.00     0.124 S 
ATOM     64  O   UNL A   1      45.784  37.610  32.822  1.00  0.00    -0.237 OA
ATOM     65  O   UNL A   1      44.153  38.377  31.130  1.00  0.00    -0.237 OA
ATOM     66  O   UNL A   1      43.389  37.768  33.394  1.00  0.00    -0.744 OA
ENDBRANCH  62  63
ENDBRANCH  41  55
BRANCH  42  67
ATOM     67  C   UNL A   1      42.607  23.884  27.718  1.00  0.00     0.058 A 
ATOM     68  C   UNL A   1      42.561  22.775  28.575  1.00  0.00     0.135 A 
ATOM     69  C   UNL A   1      42.455  23.653  26.341  1.00  0.00     0.135 A 
ATOM     70  F   UNL A   1      42.709  22.944  29.897  1.00  0.00    -0.206 F 
ATOM     71  C   UNL A   1      42.385  21.485  28.087  1.00  0.00     0.059 A 
ATOM     72  C   UNL A   1      42.246  22.376  25.831  1.00  0.00     0.059 A 
ATOM     73  F   UNL A   1      42.474  24.682  25.479  1.00  0.00    -0.206 F 
ATOM     74  C   UNL A   1      42.223  21.297  26.713  1.00  0.00     0.060 A 
BRANCH  74  75
ATOM     75  S   UNL A   1      41.946  19.622  26.097  1.00  0.00     0.124 S 
ATOM     76  O   UNL A   1      40.510  19.635  25.850  1.00  0.00    -0.237 OA
ATOM     77  O   UNL A   1      42.799  19.588  24.913  1.00  0.00    -0.237 OA
ATOM     78  O   UNL A   1      42.390  18.780  27.204  1.00  0.00    -0.744 OA
ENDBRANCH  74  75
ENDBRANCH  42  67
BRANCH  54  79
ATOM     79  C   UNL A   1      48.183  27.652  29.552  1.00  0.00     0.058 A 
ATOM     80  C   UNL A   1      49.029  27.915  28.464  1.00  0.00     0.135 A 
ATOM     81  C   UNL A   1      48.760  27.112  30.714  1.00  0.00     0.135 A 
ATOM     82  F   UNL A   1      48.529  28.419  27.325  1.00  0.00    -0.206 F 
ATOM     83  C   UNL A   1      50.390  27.632  28.516  1.00  0.00     0.059 A 
ATOM     84  C   UNL A   1      50.124  26.850  30.800  1.00  0.00     0.059 A 
ATOM     85  F   UNL A   1      47.998  26.846  31.787  1.00  0.00    -0.206 F 
ATOM     86  C   UNL A   1      50.929  27.101  29.690  1.00  0.00     0.060 A 
BRANCH  86  87
ATOM     87  S   UNL A   1      52.702  26.767  29.754  1.00  0.00     0.124 S 
ATOM     88  O   UNL A   1      53.244  28.100  29.992  1.00  0.00    -0.237 OA
ATOM     89  O   UNL A   1      52.803  25.833  30.871  1.00  0.00    -0.237 OA
ATOM     90  O   UNL A   1      52.989  26.197  28.441  1.00  0.00    -0.744 OA
ENDBRANCH  86  87
ENDBRANCH  54  79
ENDBRANCH  28  29
ENDBRANCH  21  23
ENDBRANCH  20  21
ENDBRANCH   1  20
TORSDOF 18
ENDMDL
MODEL 3
REMARK VINA RESULT:      -9.7      1.205      8.661
REMARK SMILES [N-]=[N+]=NC[C@H](Nc1ccc(Br)cc1)C(=O)OCCOC(=O)c1ccc(-c2c3nc(c(-c4c(F)cc(S(=O)(=O)[O-])cc4F)c4ccc([nH]4)c(-c4c(F)cc(S(=O)(=O)[O-])cc4F)c4nc(c(-c5c(F)cc(S(=O)(=O)[O-])cc5F)c5ccc2[nH]5)C=C4)C=C3)cc1
REMARK SMILES IDX 18 1 17 2 16 3 14 4 15 5 5 6 4 7 3 8 1 9 2 10 6 11 7 13 8 14
REMARK SMILES IDX 13 15 9 16 12 17 10 18 11 19 19 20 20 21 21 22 22 23 23 24
REMARK SMILES IDX 87 25 24 26 86 27 25 28 26 29 27 30 80 31 28 32 85 33 79 34
REMARK SMILES IDX 81 35 29 36 84 37 78 38 77 39 30 41 64 42 43 43 63 44 44 45
REMARK SMILES IDX 47 46 62 47 82 48 45 49 46 50 61 52 83 53 48 54 31 55 32 56
REMARK SMILES IDX 41 57 33 58 34 59 40 60 42 61 35 62 36 63 37 64 38 65 39 66
REMARK SMILES IDX 65 67 66 68 75 69 67 70 68 71 74 72 76 73 69 74 70 75 71 76
REMARK SMILES IDX 72 77 73 78 49 79 50 80 59 81 51 82 52 83 58 84 60 85 53 86
REMARK SMILES IDX 54 87 55 88 56 89 57 90
REMARK H PARENT 6 12 81 40 47 51
REMARK Flexibility Score: inf
ROOT
ATOM      1  C   UNL A   1      40.051  22.005  26.701  1.00  0.00     0.275 C 
ENDROOT
BRANCH   1   2
ATOM      2  C   UNL A   1      40.848  20.828  27.256  1.00  0.00     0.274 C 
BRANCH   2   3
ATOM      3  O   UNL A   1      42.264  21.096  27.228  1.00  0.00    -0.461 OA
BRANCH   3   4
ATOM      4  C   UNL A   1      42.881  20.795  26.055  1.00  0.00     0.328 C 
ATOM      5  O   UNL A   1      42.605  19.810  25.371  1.00  0.00    -0.250 OA
BRANCH   4   6
ATOM      6  C   UNL A   1      44.007  21.748  25.649  1.00  0.00     0.195 C 
BRANCH   6   7
ATOM      7  C   UNL A   1      44.909  20.926  24.704  1.00  0.00     0.127 C 
BRANCH   7   8
ATOM      8  N   UNL A   1      46.148  20.476  25.364  1.00  0.00    -0.091 NA
ATOM      9  N   UNL A   1      46.484  18.117  25.373  1.00  0.00    -0.003 NA
ATOM     10  N   UNL A   1      46.332  19.240  25.370  1.00  0.00     0.001 N 
ENDBRANCH   7   8
ENDBRANCH   6   7
BRANCH   6  11
ATOM     11  N   UNL A   1      44.809  22.308  26.757  1.00  0.00    -0.372 N 
ATOM     12  H   UNL A   1      45.197  21.709  27.435  1.00  0.00     0.161 HD
BRANCH  11  13
ATOM     13  C   UNL A   1      45.015  23.682  26.843  1.00  0.00     0.035 A 
ATOM     14  C   UNL A   1      45.386  24.305  28.036  1.00  0.00     0.027 A 
ATOM     15  C   UNL A   1      44.798  24.497  25.726  1.00  0.00     0.027 A 
ATOM     16  C   UNL A   1      45.581  25.688  28.117  1.00  0.00     0.018 A 
ATOM     17  C   UNL A   1      44.984  25.885  25.793  1.00  0.00     0.018 A 
ATOM     18  C   UNL A   1      45.385  26.473  26.988  1.00  0.00     0.018 A 
ATOM     19  Br  UNL A   1      45.691  28.336  27.070  1.00  0.00    -0.051 Br
ENDBRANCH  11  13
ENDBRANCH   6  11
ENDBRANCH   4   6
ENDBRANCH   3   4
ENDBRANCH   2   3
ENDBRANCH   1   2
BRANCH   1  20
ATOM     20  O   UNL A   1      40.220  23.162  27.540  1.00  0.00    -0.458 OA
BRANCH  20  21
ATOM     21  C   UNL A   1      40.813  24.218  26.939  1.00  0.00     0.338 C 
ATOM     22  O   UNL A   1      41.298  24.249  25.820  1.00  0.00    -0.246 OA
BRANCH  21  23
ATOM     23  C   UNL A   1      40.801  25.407  27.810  1.00  0.00     0.060 A 
ATOM     24  C   UNL A   1      41.931  26.215  27.945  1.00  0.00     0.016 A 
ATOM     25  C   UNL A   1      39.699  25.606  28.639  1.00  0.00     0.016 A 
ATOM     26  C   UNL A   1      41.990  27.172  28.957  1.00  0.00     0.010 A 
ATOM     27  C   UNL A   1      39.718  26.639  29.579  1.00  0.00     0.010 A 
ATOM     28  C   UNL A   1      40.869  27.424  29.761  1.00  0.00    -0.014 A 
BRANCH  28  29
ATOM     29  C   UNL A   1      40.862  28.542  30.744  1.00  0.00     0.031 A 
ATOM     30  C   UNL A   1      41.775  28.524  31.942  1.00  0.00     0.074 A 
ATOM     31  C   UNL A   1      39.973  29.545  30.593  1.00  0.00     0.049 A 
ATOM     32  N   UNL A   1      41.763  29.294  33.000  1.00  0.00    -0.248 NA
ATOM     33  C   UNL A   1      42.829  27.498  31.960  1.00  0.00     0.031 C 
ATOM     34  C   UNL A   1      39.045  29.693  29.470  1.00  0.00     0.029 A 
ATOM     35  N   UNL A   1      39.688  30.621  31.398  1.00  0.00    -0.354 N 
ATOM     36  C   UNL A   1      42.779  28.827  33.827  1.00  0.00     0.074 A 
ATOM     37  C   UNL A   1      43.377  27.694  33.152  1.00  0.00     0.031 C 
ATOM     38  C   UNL A   1      38.303  30.795  29.650  1.00  0.00     0.029 A 
ATOM     39  C   UNL A   1      38.641  31.385  30.939  1.00  0.00     0.049 A 
ATOM     40  H   UNL A   1      40.184  30.825  32.223  1.00  0.00     0.167 HD
ATOM     41  C   UNL A   1      43.173  29.303  35.034  1.00  0.00     0.037 A 
ATOM     42  C   UNL A   1      37.983  32.413  31.507  1.00  0.00     0.037 A 
ATOM     43  C   UNL A   1      42.582  30.446  35.686  1.00  0.00     0.049 A 
ATOM     44  C   UNL A   1      38.401  32.885  32.871  1.00  0.00     0.074 A 
ATOM     45  C   UNL A   1      42.934  31.025  36.893  1.00  0.00     0.029 A 
ATOM     46  N   UNL A   1      41.517  31.185  35.189  1.00  0.00    -0.354 N 
ATOM     47  N   UNL A   1      39.362  32.433  33.639  1.00  0.00    -0.248 NA
ATOM     48  C   UNL A   1      37.639  34.000  33.448  1.00  0.00     0.031 C 
ATOM     49  C   UNL A   1      42.048  32.075  37.154  1.00  0.00     0.029 A 
ATOM     50  C   UNL A   1      41.181  32.194  36.079  1.00  0.00     0.049 A 
ATOM     51  H   UNL A   1      41.066  31.018  34.330  1.00  0.00     0.167 HD
ATOM     52  C   UNL A   1      39.338  33.226  34.781  1.00  0.00     0.074 A 
ATOM     53  C   UNL A   1      38.276  34.193  34.594  1.00  0.00     0.031 C 
ATOM     54  C   UNL A   1      40.124  33.155  35.884  1.00  0.00     0.037 A 
BRANCH  41  55
ATOM     55  C   UNL A   1      44.279  28.573  35.753  1.00  0.00     0.058 A 
ATOM     56  C   UNL A   1      45.630  28.915  35.587  1.00  0.00     0.135 A 
ATOM     57  C   UNL A   1      43.975  27.551  36.669  1.00  0.00     0.135 A 
ATOM     58  F   UNL A   1      45.981  29.877  34.718  1.00  0.00    -0.206 F 
ATOM     59  C   UNL A   1      46.641  28.253  36.278  1.00  0.00     0.059 A 
ATOM     60  C   UNL A   1      44.966  26.896  37.394  1.00  0.00     0.059 A 
ATOM     61  F   UNL A   1      42.701  27.184  36.873  1.00  0.00    -0.206 F 
ATOM     62  C   UNL A   1      46.299  27.245  37.182  1.00  0.00     0.060 A 
BRANCH  62  63
ATOM     63  S   UNL A   1      47.621  26.402  38.077  1.00  0.00     0.124 S 
ATOM     64  O   UNL A   1      47.664  25.115  37.392  1.00  0.00    -0.237 OA
ATOM     65  O   UNL A   1      48.763  27.280  37.848  1.00  0.00    -0.237 OA
ATOM     66  O   UNL A   1      47.131  26.363  39.452  1.00  0.00    -0.744 OA
ENDBRANCH  62  63
ENDBRANCH  41  55
BRANCH  42  67
ATOM     67  C   UNL A   1      36.841  33.044  30.794  1.00  0.00     0.058 A 
ATOM     68  C   UNL A   1      37.056  33.918  29.719  1.00  0.00     0.135 A 
ATOM     69  C   UNL A   1      35.512  32.769  31.157  1.00  0.00     0.135 A 
ATOM     70  F   UNL A   1      38.307  34.217  29.339  1.00  0.00    -0.206 F 
ATOM     71  C   UNL A   1      35.997  34.508  29.037  1.00  0.00     0.059 A 
ATOM     72  C   UNL A   1      34.436  33.322  30.471  1.00  0.00     0.059 A 
ATOM     73  F   UNL A   1      35.250  31.926  32.168  1.00  0.00    -0.206 F 
ATOM     74  C   UNL A   1      34.690  34.200  29.417  1.00  0.00     0.060 A 
BRANCH  74  75
ATOM     75  S   UNL A   1      33.324  34.934  28.493  1.00  0.00     0.124 S 
ATOM     76  O   UNL A   1      34.027  35.876  27.631  1.00  0.00    -0.237 OA
ATOM     77  O   UNL A   1      32.744  33.771  27.831  1.00  0.00    -0.237 OA
ATOM     78  O   UNL A   1      32.495  35.531  29.536  1.00  0.00    -0.744 OA
ENDBRANCH  74  75
ENDBRANCH  42  67
BRANCH  54  79
ATOM     79  C   UNL A   1      39.890  34.179  36.963  1.00  0.00     0.058 A 
ATOM     80  C   UNL A   1      39.130  33.889  38.108  1.00  0.00     0.135 A 
ATOM     81  C   UNL A   1      40.464  35.456  36.866  1.00  0.00     0.135 A 
ATOM     82  F   UNL A   1      38.548  32.688  38.246  1.00  0.00    -0.206 F 
ATOM     83  C   UNL A   1      38.927  34.838  39.105  1.00  0.00     0.059 A 
ATOM     84  C   UNL A   1      40.301  36.411  37.867  1.00  0.00     0.059 A 
ATOM     85  F   UNL A   1      41.206  35.785  35.797  1.00  0.00    -0.206 F 
ATOM     86  C   UNL A   1      39.519  36.096  38.977  1.00  0.00     0.060 A 
BRANCH  86  87
ATOM     87  S   UNL A   1      39.273  37.306  40.293  1.00  0.00     0.124 S 
ATOM     88  O   UNL A   1      38.560  36.515  41.290  1.00  0.00    -0.237 OA
ATOM     89  O   UNL A   1      40.643  37.675  40.637  1.00  0.00    -0.237 OA
ATOM     90  O   UNL A   1      38.490  38.356  39.648  1.00  0.00    -0.744 OA
ENDBRANCH  86  87
ENDBRANCH  54  79
ENDBRANCH  28  29
ENDBRANCH  21  23
ENDBRANCH  20  21
ENDBRANCH   1  20
TORSDOF 18
ENDMDL
