MODEL 1
REMARK VINA RESULT:     -10.6      0.000      0.000
REMARK SMILES COCCCN1C(=O)CC[C@@H](C(=O)OCCOC(=O)c2ccc(-c3c4nc(c(-c5c(F)cc(S(=O)(=O)[O-])cc5F)c5ccc([nH]5)c(-c5c(F)cc(S(=O)(=O)[O-])cc5F)c5nc(c(-c6c(F)cc(S(=O)(=O)[O-])cc6F)c6ccc3[nH]6)C=C5)C=C4)cc2)[C@@H]1c1ccc(F)cc1
REMARK SMILES IDX 15 1 14 2 12 3 13 4 11 5 6 6 7 7 86 8 8 9 9 10 10 11 5 12
REMARK SMILES IDX 4 13 3 14 2 15 1 16 87 17 88 18 93 19 89 20 92 21 90 22
REMARK SMILES IDX 91 23 16 24 17 25 18 26 19 27 20 28 21 29 85 30 22 31 84 32
REMARK SMILES IDX 23 33 24 34 25 35 78 36 26 37 83 38 77 39 79 40 27 41 82 42
REMARK SMILES IDX 76 43 75 44 28 46 62 47 41 48 61 49 42 50 45 51 60 52 80 53
REMARK SMILES IDX 43 54 44 55 59 57 81 58 46 59 29 60 30 61 39 62 31 63 32 64
REMARK SMILES IDX 38 65 40 66 33 67 34 68 35 69 36 70 37 71 63 72 64 73 73 74
REMARK SMILES IDX 65 75 66 76 72 77 74 78 67 79 68 80 69 81 70 82 71 83 47 84
REMARK SMILES IDX 48 85 57 86 49 87 50 88 56 89 58 90 51 91 52 92 53 93 54 94
REMARK SMILES IDX 55 95
REMARK H PARENT 79 45 45 56
REMARK Flexibility Score: inf
ROOT
ATOM      1  C   UNL A   1      31.626  28.123  26.555  1.00  0.00     0.274 C 
ENDROOT
BRANCH   1   2
ATOM      2  O   UNL A   1      31.993  27.224  25.480  1.00  0.00    -0.462 OA
BRANCH   2   3
ATOM      3  C   UNL A   1      32.186  25.918  25.830  1.00  0.00     0.311 C 
ATOM      4  O   UNL A   1      31.333  25.208  26.339  1.00  0.00    -0.252 OA
BRANCH   3   5
ATOM      5  C   UNL A   1      33.608  25.470  25.519  1.00  0.00     0.127 C 
ATOM      6  N   UNL A   1      32.912  23.729  23.897  1.00  0.00    -0.335 N 
ATOM      7  C   UNL A   1      33.023  24.575  22.801  1.00  0.00     0.223 C 
ATOM      8  C   UNL A   1      33.613  23.980  25.163  1.00  0.00     0.129 C 
ATOM      9  O   UNL A   1      32.589  24.269  21.691  1.00  0.00    -0.275 OA
ATOM     10  C   UNL A   1      33.629  25.951  23.018  1.00  0.00     0.101 C 
ATOM     11  C   UNL A   1      34.252  26.249  24.374  1.00  0.00     0.028 C 
BRANCH   6  12
ATOM     12  C   UNL A   1      31.970  22.610  23.794  1.00  0.00     0.122 C 
BRANCH  12  13
ATOM     13  C   UNL A   1      32.088  21.558  24.895  1.00  0.00     0.050 C 
BRANCH  13  14
ATOM     14  C   UNL A   1      32.668  20.219  24.463  1.00  0.00     0.161 C 
BRANCH  14  15
ATOM     15  O   UNL A   1      32.367  19.178  25.393  1.00  0.00    -0.385 OA
ATOM     16  C   UNL A   1      32.420  17.875  24.834  1.00  0.00     0.194 C 
ENDBRANCH  14  15
ENDBRANCH  13  14
ENDBRANCH  12  13
ENDBRANCH   6  12
BRANCH   8  17
ATOM     17  C   UNL A   1      35.053  23.445  25.174  1.00  0.00    -0.024 A 
ATOM     18  C   UNL A   1      36.009  23.844  26.129  1.00  0.00     0.009 A 
ATOM     19  C   UNL A   1      35.423  22.460  24.239  1.00  0.00     0.009 A 
ATOM     20  C   UNL A   1      37.286  23.282  26.149  1.00  0.00     0.039 A 
ATOM     21  C   UNL A   1      36.701  21.897  24.262  1.00  0.00     0.039 A 
ATOM     22  C   UNL A   1      37.620  22.313  25.216  1.00  0.00     0.123 A 
ATOM     23  F   UNL A   1      38.844  21.769  25.236  1.00  0.00    -0.207 F 
ENDBRANCH   8  17
ENDBRANCH   3   5
ENDBRANCH   2   3
ENDBRANCH   1   2
BRANCH   1  24
ATOM     24  C   UNL A   1      32.730  28.188  27.611  1.00  0.00     0.275 C 
BRANCH  24  25
ATOM     25  O   UNL A   1      33.865  28.844  27.032  1.00  0.00    -0.458 OA
BRANCH  25  26
ATOM     26  C   UNL A   1      34.299  29.970  27.651  1.00  0.00     0.338 C 
ATOM     27  O   UNL A   1      33.640  30.956  27.921  1.00  0.00    -0.246 OA
BRANCH  26  28
ATOM     28  C   UNL A   1      35.724  29.778  28.007  1.00  0.00     0.060 A 
ATOM     29  C   UNL A   1      36.698  29.993  27.034  1.00  0.00     0.016 A 
ATOM     30  C   UNL A   1      36.104  29.316  29.265  1.00  0.00     0.016 A 
ATOM     31  C   UNL A   1      38.033  29.694  27.278  1.00  0.00     0.010 A 
ATOM     32  C   UNL A   1      37.464  29.100  29.541  1.00  0.00     0.010 A 
ATOM     33  C   UNL A   1      38.440  29.269  28.540  1.00  0.00    -0.014 A 
BRANCH  33  34
ATOM     34  C   UNL A   1      39.870  28.927  28.766  1.00  0.00     0.031 A 
ATOM     35  C   UNL A   1      40.782  29.952  29.379  1.00  0.00     0.074 A 
ATOM     36  C   UNL A   1      40.341  27.689  28.511  1.00  0.00     0.049 A 
ATOM     37  N   UNL A   1      42.084  29.941  29.487  1.00  0.00    -0.248 NA
ATOM     38  C   UNL A   1      40.138  31.144  29.953  1.00  0.00     0.031 C 
ATOM     39  C   UNL A   1      39.544  26.552  28.042  1.00  0.00     0.029 A 
ATOM     40  N   UNL A   1      41.609  27.174  28.627  1.00  0.00    -0.354 N 
ATOM     41  C   UNL A   1      42.422  31.147  30.087  1.00  0.00     0.074 A 
ATOM     42  C   UNL A   1      41.187  31.859  30.336  1.00  0.00     0.031 C 
ATOM     43  C   UNL A   1      40.335  25.471  27.937  1.00  0.00     0.029 A 
ATOM     44  C   UNL A   1      41.709  25.858  28.236  1.00  0.00     0.049 A 
ATOM     45  H   UNL A   1      42.374  27.696  28.960  1.00  0.00     0.167 HD
ATOM     46  C   UNL A   1      43.653  31.622  30.387  1.00  0.00     0.037 A 
ATOM     47  C   UNL A   1      42.791  25.069  28.081  1.00  0.00     0.037 A 
ATOM     48  C   UNL A   1      44.873  30.892  30.172  1.00  0.00     0.049 A 
ATOM     49  C   UNL A   1      44.157  25.644  28.337  1.00  0.00     0.074 A 
ATOM     50  C   UNL A   1      46.176  31.304  30.391  1.00  0.00     0.029 A 
ATOM     51  N   UNL A   1      44.938  29.588  29.705  1.00  0.00    -0.354 N 
ATOM     52  N   UNL A   1      44.479  26.836  28.781  1.00  0.00    -0.248 NA
ATOM     53  C   UNL A   1      45.310  24.783  28.035  1.00  0.00     0.031 C 
ATOM     54  C   UNL A   1      47.031  30.256  30.031  1.00  0.00     0.029 A 
ATOM     55  C   UNL A   1      46.259  29.181  29.620  1.00  0.00     0.049 A 
ATOM     56  H   UNL A   1      44.160  29.033  29.470  1.00  0.00     0.167 HD
ATOM     57  C   UNL A   1      45.869  26.866  28.815  1.00  0.00     0.074 A 
ATOM     58  C   UNL A   1      46.326  25.567  28.366  1.00  0.00     0.031 C 
ATOM     59  C   UNL A   1      46.692  27.881  29.177  1.00  0.00     0.037 A 
BRANCH  46  60
ATOM     60  C   UNL A   1      43.735  33.023  30.917  1.00  0.00     0.058 A 
ATOM     61  C   UNL A   1      43.757  34.140  30.069  1.00  0.00     0.135 A 
ATOM     62  C   UNL A   1      43.800  33.245  32.301  1.00  0.00     0.135 A 
ATOM     63  F   UNL A   1      43.724  33.980  28.737  1.00  0.00    -0.206 F 
ATOM     64  C   UNL A   1      43.869  35.432  30.577  1.00  0.00     0.059 A 
ATOM     65  C   UNL A   1      43.892  34.527  32.832  1.00  0.00     0.059 A 
ATOM     66  F   UNL A   1      43.790  32.207  33.153  1.00  0.00    -0.206 F 
ATOM     67  C   UNL A   1      43.943  35.613  31.960  1.00  0.00     0.060 A 
BRANCH  67  68
ATOM     68  S   UNL A   1      44.111  37.289  32.609  1.00  0.00     0.124 S 
ATOM     69  O   UNL A   1      43.074  37.306  33.637  1.00  0.00    -0.237 OA
ATOM     70  O   UNL A   1      45.486  37.303  33.098  1.00  0.00    -0.237 OA
ATOM     71  O   UNL A   1      43.854  38.132  31.445  1.00  0.00    -0.744 OA
ENDBRANCH  67  68
ENDBRANCH  46  60
BRANCH  47  72
ATOM     72  C   UNL A   1      42.636  23.677  27.578  1.00  0.00     0.058 A 
ATOM     73  C   UNL A   1      42.703  23.385  26.209  1.00  0.00     0.135 A 
ATOM     74  C   UNL A   1      42.402  22.610  28.462  1.00  0.00     0.135 A 
ATOM     75  F   UNL A   1      42.905  24.371  25.323  1.00  0.00    -0.206 F 
ATOM     76  C   UNL A   1      42.534  22.088  25.731  1.00  0.00     0.059 A 
ATOM     77  C   UNL A   1      42.256  21.303  28.011  1.00  0.00     0.059 A 
ATOM     78  F   UNL A   1      42.331  22.834  29.783  1.00  0.00    -0.206 F 
ATOM     79  C   UNL A   1      42.309  21.053  26.640  1.00  0.00     0.060 A 
BRANCH  79  80
ATOM     80  S   UNL A   1      42.120  19.366  26.023  1.00  0.00     0.124 S 
ATOM     81  O   UNL A   1      42.996  19.382  24.857  1.00  0.00    -0.237 OA
ATOM     82  O   UNL A   1      42.580  18.564  27.154  1.00  0.00    -0.237 OA
ATOM     83  O   UNL A   1      40.691  19.273  25.740  1.00  0.00    -0.744 OA
ENDBRANCH  79  80
ENDBRANCH  47  72
BRANCH  59  84
ATOM     84  C   UNL A   1      48.169  27.620  29.123  1.00  0.00     0.058 A 
ATOM     85  C   UNL A   1      48.914  27.868  27.961  1.00  0.00     0.135 A 
ATOM     86  C   UNL A   1      48.855  27.174  30.263  1.00  0.00     0.135 A 
ATOM     87  F   UNL A   1      48.301  28.290  26.842  1.00  0.00    -0.206 F 
ATOM     88  C   UNL A   1      50.290  27.670  27.925  1.00  0.00     0.059 A 
ATOM     89  C   UNL A   1      50.234  26.988  30.257  1.00  0.00     0.059 A 
ATOM     90  F   UNL A   1      48.187  26.930  31.402  1.00  0.00    -0.206 F 
ATOM     91  C   UNL A   1      50.942  27.230  29.080  1.00  0.00     0.060 A 
BRANCH  91  92
ATOM     92  S   UNL A   1      52.735  27.022  29.040  1.00  0.00     0.124 S 
ATOM     93  O   UNL A   1      52.968  26.260  30.263  1.00  0.00    -0.237 OA
ATOM     94  O   UNL A   1      52.942  26.296  27.791  1.00  0.00    -0.237 OA
ATOM     95  O   UNL A   1      53.234  28.394  29.050  1.00  0.00    -0.744 OA
ENDBRANCH  91  92
ENDBRANCH  59  84
ENDBRANCH  33  34
ENDBRANCH  26  28
ENDBRANCH  25  26
ENDBRANCH  24  25
ENDBRANCH   1  24
TORSDOF 19
ENDMDL
MODEL 2
REMARK VINA RESULT:     -10.3      3.874      9.795
REMARK SMILES COCCCN1C(=O)CC[C@@H](C(=O)OCCOC(=O)c2ccc(-c3c4nc(c(-c5c(F)cc(S(=O)(=O)[O-])cc5F)c5ccc([nH]5)c(-c5c(F)cc(S(=O)(=O)[O-])cc5F)c5nc(c(-c6c(F)cc(S(=O)(=O)[O-])cc6F)c6ccc3[nH]6)C=C5)C=C4)cc2)[C@@H]1c1ccc(F)cc1
REMARK SMILES IDX 15 1 14 2 12 3 13 4 11 5 6 6 7 7 86 8 8 9 9 10 10 11 5 12
REMARK SMILES IDX 4 13 3 14 2 15 1 16 87 17 88 18 93 19 89 20 92 21 90 22
REMARK SMILES IDX 91 23 16 24 17 25 18 26 19 27 20 28 21 29 85 30 22 31 84 32
REMARK SMILES IDX 23 33 24 34 25 35 78 36 26 37 83 38 77 39 79 40 27 41 82 42
REMARK SMILES IDX 76 43 75 44 28 46 62 47 41 48 61 49 42 50 45 51 60 52 80 53
REMARK SMILES IDX 43 54 44 55 59 57 81 58 46 59 29 60 30 61 39 62 31 63 32 64
REMARK SMILES IDX 38 65 40 66 33 67 34 68 35 69 36 70 37 71 63 72 64 73 73 74
REMARK SMILES IDX 65 75 66 76 72 77 74 78 67 79 68 80 69 81 70 82 71 83 47 84
REMARK SMILES IDX 48 85 57 86 49 87 50 88 56 89 58 90 51 91 52 92 53 93 54 94
REMARK SMILES IDX 55 95
REMARK H PARENT 79 45 45 56
REMARK Flexibility Score: inf
ROOT
ATOM      1  C   UNL A   1      35.244  23.226  24.577  1.00  0.00     0.274 C 
ENDROOT
BRANCH   1   2
ATOM      2  O   UNL A   1      34.514  24.331  23.989  1.00  0.00    -0.462 OA
BRANCH   2   3
ATOM      3  C   UNL A   1      33.688  25.020  24.831  1.00  0.00     0.311 C 
ATOM      4  O   UNL A   1      33.955  25.283  25.994  1.00  0.00    -0.252 OA
BRANCH   3   5
ATOM      5  C   UNL A   1      32.388  25.401  24.137  1.00  0.00     0.127 C 
ATOM      6  N   UNL A   1      33.110  27.719  23.632  1.00  0.00    -0.335 N 
ATOM      7  C   UNL A   1      33.595  27.392  22.373  1.00  0.00     0.223 C 
ATOM      8  C   UNL A   1      32.117  26.897  24.336  1.00  0.00     0.129 C 
ATOM      9  O   UNL A   1      34.280  28.172  21.712  1.00  0.00    -0.275 OA
ATOM     10  C   UNL A   1      33.329  25.993  21.845  1.00  0.00     0.101 C 
ATOM     11  C   UNL A   1      32.388  25.098  22.640  1.00  0.00     0.028 C 
BRANCH   6  12
ATOM     12  C   UNL A   1      33.709  28.876  24.307  1.00  0.00     0.122 C 
BRANCH  12  13
ATOM     13  C   UNL A   1      33.402  28.988  25.799  1.00  0.00     0.050 C 
BRANCH  13  14
ATOM     14  C   UNL A   1      32.481  30.134  26.194  1.00  0.00     0.161 C 
BRANCH  14  15
ATOM     15  O   UNL A   1      32.956  30.831  27.347  1.00  0.00    -0.385 OA
ATOM     16  C   UNL A   1      34.371  30.882  27.444  1.00  0.00     0.194 C 
ENDBRANCH  14  15
ENDBRANCH  13  14
ENDBRANCH  12  13
ENDBRANCH   6  12
BRANCH   8  17
ATOM     17  C   UNL A   1      30.670  27.222  23.936  1.00  0.00    -0.024 A 
ATOM     18  C   UNL A   1      29.591  26.356  24.200  1.00  0.00     0.009 A 
ATOM     19  C   UNL A   1      30.388  28.470  23.347  1.00  0.00     0.009 A 
ATOM     20  C   UNL A   1      28.281  26.719  23.886  1.00  0.00     0.039 A 
ATOM     21  C   UNL A   1      29.076  28.832  23.034  1.00  0.00     0.039 A 
ATOM     22  C   UNL A   1      28.035  27.954  23.306  1.00  0.00     0.123 A 
ATOM     23  F   UNL A   1      26.778  28.307  23.008  1.00  0.00    -0.207 F 
ENDBRANCH   8  17
ENDBRANCH   3   5
ENDBRANCH   2   3
ENDBRANCH   1   2
BRANCH   1  24
ATOM     24  C   UNL A   1      36.254  23.729  25.608  1.00  0.00     0.275 C 
BRANCH  24  25
ATOM     25  O   UNL A   1      37.560  23.673  25.020  1.00  0.00    -0.458 OA
BRANCH  25  26
ATOM     26  C   UNL A   1      38.553  23.162  25.789  1.00  0.00     0.338 C 
ATOM     27  O   UNL A   1      38.971  22.020  25.780  1.00  0.00    -0.246 OA
BRANCH  26  28
ATOM     28  C   UNL A   1      39.101  24.260  26.621  1.00  0.00     0.060 A 
ATOM     29  C   UNL A   1      38.822  24.276  27.986  1.00  0.00     0.016 A 
ATOM     30  C   UNL A   1      39.822  25.310  26.057  1.00  0.00     0.016 A 
ATOM     31  C   UNL A   1      39.195  25.352  28.781  1.00  0.00     0.010 A 
ATOM     32  C   UNL A   1      40.278  26.355  26.878  1.00  0.00     0.010 A 
ATOM     33  C   UNL A   1      39.949  26.394  28.247  1.00  0.00    -0.014 A 
BRANCH  33  34
ATOM     34  C   UNL A   1      40.310  27.549  29.112  1.00  0.00     0.031 A 
ATOM     35  C   UNL A   1      41.626  27.541  29.837  1.00  0.00     0.074 A 
ATOM     36  C   UNL A   1      39.518  28.638  29.188  1.00  0.00     0.049 A 
ATOM     37  N   UNL A   1      42.055  28.336  30.781  1.00  0.00    -0.248 NA
ATOM     38  C   UNL A   1      42.587  26.500  29.441  1.00  0.00     0.031 C 
ATOM     39  C   UNL A   1      38.277  28.848  28.436  1.00  0.00     0.029 A 
ATOM     40  N   UNL A   1      39.649  29.789  29.928  1.00  0.00    -0.354 N 
ATOM     41  C   UNL A   1      43.311  27.859  31.132  1.00  0.00     0.074 A 
ATOM     42  C   UNL A   1      43.583  26.714  30.290  1.00  0.00     0.031 C 
ATOM     43  C   UNL A   1      37.780  30.059  28.733  1.00  0.00     0.029 A 
ATOM     44  C   UNL A   1      38.608  30.673  29.764  1.00  0.00     0.049 A 
ATOM     45  H   UNL A   1      40.417  29.964  30.519  1.00  0.00     0.167 HD
ATOM     46  C   UNL A   1      44.153  28.326  32.084  1.00  0.00     0.037 A 
ATOM     47  C   UNL A   1      38.321  31.819  30.413  1.00  0.00     0.037 A 
ATOM     48  C   UNL A   1      43.892  29.487  32.891  1.00  0.00     0.049 A 
ATOM     49  C   UNL A   1      39.224  32.275  31.527  1.00  0.00     0.074 A 
ATOM     50  C   UNL A   1      44.653  30.012  33.920  1.00  0.00     0.029 A 
ATOM     51  N   UNL A   1      42.789  30.316  32.745  1.00  0.00    -0.354 N 
ATOM     52  N   UNL A   1      40.348  31.743  31.945  1.00  0.00    -0.248 NA
ATOM     53  C   UNL A   1      38.802  33.462  32.283  1.00  0.00     0.031 C 
ATOM     54  C   UNL A   1      43.997  31.146  34.414  1.00  0.00     0.029 A 
ATOM     55  C   UNL A   1      42.845  31.344  33.670  1.00  0.00     0.049 A 
ATOM     56  H   UNL A   1      42.074  30.192  32.081  1.00  0.00     0.167 HD
ATOM     57  C   UNL A   1      40.769  32.533  33.009  1.00  0.00     0.074 A 
ATOM     58  C   UNL A   1      39.790  33.590  33.158  1.00  0.00     0.031 C 
ATOM     59  C   UNL A   1      41.862  32.390  33.798  1.00  0.00     0.037 A 
BRANCH  46  60
ATOM     60  C   UNL A   1      45.399  27.533  32.342  1.00  0.00     0.058 A 
ATOM     61  C   UNL A   1      45.473  26.569  33.359  1.00  0.00     0.135 A 
ATOM     62  C   UNL A   1      46.543  27.753  31.559  1.00  0.00     0.135 A 
ATOM     63  F   UNL A   1      44.415  26.341  34.153  1.00  0.00    -0.206 F 
ATOM     64  C   UNL A   1      46.649  25.868  33.607  1.00  0.00     0.059 A 
ATOM     65  C   UNL A   1      47.723  27.050  31.776  1.00  0.00     0.059 A 
ATOM     66  F   UNL A   1      46.524  28.670  30.578  1.00  0.00    -0.206 F 
ATOM     67  C   UNL A   1      47.771  26.121  32.815  1.00  0.00     0.060 A 
BRANCH  67  68
ATOM     68  S   UNL A   1      49.299  25.224  33.158  1.00  0.00     0.124 S 
ATOM     69  O   UNL A   1      50.032  26.199  33.962  1.00  0.00    -0.237 OA
ATOM     70  O   UNL A   1      48.821  24.046  33.874  1.00  0.00    -0.237 OA
ATOM     71  O   UNL A   1      49.848  24.967  31.830  1.00  0.00    -0.744 OA
ENDBRANCH  67  68
ENDBRANCH  46  60
BRANCH  47  72
ATOM     72  C   UNL A   1      37.080  32.574  30.086  1.00  0.00     0.058 A 
ATOM     73  C   UNL A   1      37.089  33.626  29.160  1.00  0.00     0.135 A 
ATOM     74  C   UNL A   1      35.860  32.263  30.710  1.00  0.00     0.135 A 
ATOM     75  F   UNL A   1      38.233  33.973  28.552  1.00  0.00    -0.206 F 
ATOM     76  C   UNL A   1      35.936  34.351  28.870  1.00  0.00     0.059 A 
ATOM     77  C   UNL A   1      34.690  32.957  30.417  1.00  0.00     0.059 A 
ATOM     78  F   UNL A   1      35.795  31.264  31.602  1.00  0.00    -0.206 F 
ATOM     79  C   UNL A   1      34.741  34.010  29.505  1.00  0.00     0.060 A 
BRANCH  79  80
ATOM     80  S   UNL A   1      33.239  34.931  29.107  1.00  0.00     0.124 S 
ATOM     81  O   UNL A   1      32.573  34.977  30.403  1.00  0.00    -0.237 OA
ATOM     82  O   UNL A   1      33.769  36.200  28.616  1.00  0.00    -0.237 OA
ATOM     83  O   UNL A   1      32.596  34.097  28.095  1.00  0.00    -0.744 OA
ENDBRANCH  79  80
ENDBRANCH  47  72
BRANCH  59  84
ATOM     84  C   UNL A   1      42.070  33.412  34.877  1.00  0.00     0.058 A 
ATOM     85  C   UNL A   1      42.715  34.630  34.616  1.00  0.00     0.135 A 
ATOM     86  C   UNL A   1      41.566  33.196  36.169  1.00  0.00     0.135 A 
ATOM     87  F   UNL A   1      43.220  34.880  33.397  1.00  0.00    -0.206 F 
ATOM     88  C   UNL A   1      42.867  35.597  35.604  1.00  0.00     0.059 A 
ATOM     89  C   UNL A   1      41.689  34.157  37.167  1.00  0.00     0.059 A 
ATOM     90  F   UNL A   1      40.934  32.050  36.465  1.00  0.00    -0.206 F 
ATOM     91  C   UNL A   1      42.349  35.351  36.878  1.00  0.00     0.060 A 
BRANCH  91  92
ATOM     92  S   UNL A   1      42.508  36.630  38.143  1.00  0.00     0.124 S 
ATOM     93  O   UNL A   1      43.102  35.880  39.245  1.00  0.00    -0.237 OA
ATOM     94  O   UNL A   1      43.379  37.607  37.498  1.00  0.00    -0.237 OA
ATOM     95  O   UNL A   1      41.131  37.070  38.352  1.00  0.00    -0.744 OA
ENDBRANCH  91  92
ENDBRANCH  59  84
ENDBRANCH  33  34
ENDBRANCH  26  28
ENDBRANCH  25  26
ENDBRANCH  24  25
ENDBRANCH   1  24
TORSDOF 19
ENDMDL
MODEL 3
REMARK VINA RESULT:     -10.3      2.288      3.282
REMARK SMILES COCCCN1C(=O)CC[C@@H](C(=O)OCCOC(=O)c2ccc(-c3c4nc(c(-c5c(F)cc(S(=O)(=O)[O-])cc5F)c5ccc([nH]5)c(-c5c(F)cc(S(=O)(=O)[O-])cc5F)c5nc(c(-c6c(F)cc(S(=O)(=O)[O-])cc6F)c6ccc3[nH]6)C=C5)C=C4)cc2)[C@@H]1c1ccc(F)cc1
REMARK SMILES IDX 15 1 14 2 12 3 13 4 11 5 6 6 7 7 86 8 8 9 9 10 10 11 5 12
REMARK SMILES IDX 4 13 3 14 2 15 1 16 87 17 88 18 93 19 89 20 92 21 90 22
REMARK SMILES IDX 91 23 16 24 17 25 18 26 19 27 20 28 21 29 85 30 22 31 84 32
REMARK SMILES IDX 23 33 24 34 25 35 78 36 26 37 83 38 77 39 79 40 27 41 82 42
REMARK SMILES IDX 76 43 75 44 28 46 62 47 41 48 61 49 42 50 45 51 60 52 80 53
REMARK SMILES IDX 43 54 44 55 59 57 81 58 46 59 29 60 30 61 39 62 31 63 32 64
REMARK SMILES IDX 38 65 40 66 33 67 34 68 35 69 36 70 37 71 63 72 64 73 73 74
REMARK SMILES IDX 65 75 66 76 72 77 74 78 67 79 68 80 69 81 70 82 71 83 47 84
REMARK SMILES IDX 48 85 57 86 49 87 50 88 56 89 58 90 51 91 52 92 53 93 54 94
REMARK SMILES IDX 55 95
REMARK H PARENT 79 45 45 56
REMARK Flexibility Score: inf
ROOT
ATOM      1  C   UNL A   1      33.115  30.771  27.219  1.00  0.00     0.274 C 
ENDROOT
BRANCH   1   2
ATOM      2  O   UNL A   1      33.534  29.507  26.648  1.00  0.00    -0.462 OA
BRANCH   2   3
ATOM      3  C   UNL A   1      32.937  29.153  25.472  1.00  0.00     0.311 C 
ATOM      4  O   UNL A   1      31.936  29.688  25.019  1.00  0.00    -0.252 OA
BRANCH   3   5
ATOM      5  C   UNL A   1      33.673  27.998  24.808  1.00  0.00     0.127 C 
ATOM      6  N   UNL A   1      31.607  26.897  23.987  1.00  0.00    -0.335 N 
ATOM      7  C   UNL A   1      31.651  27.531  22.752  1.00  0.00     0.223 C 
ATOM      8  C   UNL A   1      32.795  26.742  24.837  1.00  0.00     0.129 C 
ATOM      9  O   UNL A   1      30.705  27.497  21.966  1.00  0.00    -0.275 OA
ATOM     10  C   UNL A   1      32.880  28.355  22.413  1.00  0.00     0.101 C 
ATOM     11  C   UNL A   1      34.070  28.283  23.360  1.00  0.00     0.028 C 
BRANCH   6  12
ATOM     12  C   UNL A   1      30.294  26.473  24.484  1.00  0.00     0.122 C 
BRANCH  12  13
ATOM     13  C   UNL A   1      30.298  25.844  25.876  1.00  0.00     0.050 C 
BRANCH  13  14
ATOM     14  C   UNL A   1      30.623  24.358  25.922  1.00  0.00     0.161 C 
BRANCH  14  15
ATOM     15  O   UNL A   1      31.075  23.947  27.213  1.00  0.00    -0.385 OA
ATOM     16  C   UNL A   1      32.167  23.041  27.178  1.00  0.00     0.194 C 
ENDBRANCH  14  15
ENDBRANCH  13  14
ENDBRANCH  12  13
ENDBRANCH   6  12
BRANCH   8  17
ATOM     17  C   UNL A   1      33.637  25.508  24.479  1.00  0.00    -0.024 A 
ATOM     18  C   UNL A   1      33.449  24.772  23.292  1.00  0.00     0.009 A 
ATOM     19  C   UNL A   1      34.694  25.132  25.330  1.00  0.00     0.009 A 
ATOM     20  C   UNL A   1      34.281  23.700  22.969  1.00  0.00     0.039 A 
ATOM     21  C   UNL A   1      35.528  24.060  25.004  1.00  0.00     0.039 A 
ATOM     22  C   UNL A   1      35.314  23.354  23.827  1.00  0.00     0.123 A 
ATOM     23  F   UNL A   1      36.117  22.329  23.516  1.00  0.00    -0.207 F 
ENDBRANCH   8  17
ENDBRANCH   3   5
ENDBRANCH   2   3
ENDBRANCH   1   2
BRANCH   1  24
ATOM     24  C   UNL A   1      34.296  31.493  27.868  1.00  0.00     0.275 C 
BRANCH  24  25
ATOM     25  O   UNL A   1      35.328  30.530  28.115  1.00  0.00    -0.458 OA
BRANCH  25  26
ATOM     26  C   UNL A   1      36.097  30.729  29.214  1.00  0.00     0.338 C 
ATOM     27  O   UNL A   1      35.762  31.265  30.253  1.00  0.00    -0.246 OA
BRANCH  26  28
ATOM     28  C   UNL A   1      37.424  30.120  28.963  1.00  0.00     0.060 A 
ATOM     29  C   UNL A   1      38.236  29.799  30.049  1.00  0.00     0.016 A 
ATOM     30  C   UNL A   1      37.907  29.934  27.670  1.00  0.00     0.016 A 
ATOM     31  C   UNL A   1      39.540  29.357  29.864  1.00  0.00     0.010 A 
ATOM     32  C   UNL A   1      39.192  29.401  27.481  1.00  0.00     0.010 A 
ATOM     33  C   UNL A   1      40.029  29.127  28.580  1.00  0.00    -0.014 A 
BRANCH  33  34
ATOM     34  C   UNL A   1      41.438  28.682  28.408  1.00  0.00     0.031 A 
ATOM     35  C   UNL A   1      42.551  29.671  28.615  1.00  0.00     0.074 A 
ATOM     36  C   UNL A   1      41.737  27.392  28.154  1.00  0.00     0.049 A 
ATOM     37  N   UNL A   1      43.822  29.557  28.334  1.00  0.00    -0.248 NA
ATOM     38  C   UNL A   1      42.180  30.957  29.228  1.00  0.00     0.031 C 
ATOM     39  C   UNL A   1      40.772  26.293  28.061  1.00  0.00     0.029 A 
ATOM     40  N   UNL A   1      42.950  26.781  27.943  1.00  0.00    -0.354 N 
ATOM     41  C   UNL A   1      44.394  30.774  28.680  1.00  0.00     0.074 A 
ATOM     42  C   UNL A   1      43.335  31.608  29.207  1.00  0.00     0.031 C 
ATOM     43  C   UNL A   1      41.430  25.144  27.839  1.00  0.00     0.029 A 
ATOM     44  C   UNL A   1      42.850  25.434  27.678  1.00  0.00     0.049 A 
ATOM     45  H   UNL A   1      43.808  27.260  27.979  1.00  0.00     0.167 HD
ATOM     46  C   UNL A   1      45.684  31.165  28.552  1.00  0.00     0.037 A 
ATOM     47  C   UNL A   1      43.787  24.545  27.292  1.00  0.00     0.037 A 
ATOM     48  C   UNL A   1      46.738  30.317  28.063  1.00  0.00     0.049 A 
ATOM     49  C   UNL A   1      45.198  25.019  27.072  1.00  0.00     0.074 A 
ATOM     50  C   UNL A   1      48.067  30.631  27.843  1.00  0.00     0.029 A 
ATOM     51  N   UNL A   1      46.583  28.978  27.735  1.00  0.00    -0.354 N 
ATOM     52  N   UNL A   1      45.707  26.211  27.276  1.00  0.00    -0.248 NA
ATOM     53  C   UNL A   1      46.153  24.040  26.534  1.00  0.00     0.031 C 
ATOM     54  C   UNL A   1      48.711  29.488  27.357  1.00  0.00     0.029 A 
ATOM     55  C   UNL A   1      47.790  28.454  27.306  1.00  0.00     0.049 A 
ATOM     56  H   UNL A   1      45.739  28.476  27.798  1.00  0.00     0.167 HD
ATOM     57  C   UNL A   1      47.041  26.123  26.895  1.00  0.00     0.074 A 
ATOM     58  C   UNL A   1      47.266  24.757  26.468  1.00  0.00     0.031 C 
ATOM     59  C   UNL A   1      47.993  27.089  26.891  1.00  0.00     0.037 A 
BRANCH  46  60
ATOM     60  C   UNL A   1      46.002  32.592  28.887  1.00  0.00     0.058 A 
ATOM     61  C   UNL A   1      46.449  32.978  30.159  1.00  0.00     0.135 A 
ATOM     62  C   UNL A   1      45.847  33.589  27.911  1.00  0.00     0.135 A 
ATOM     63  F   UNL A   1      46.587  32.065  31.133  1.00  0.00    -0.206 F 
ATOM     64  C   UNL A   1      46.706  34.312  30.461  1.00  0.00     0.059 A 
ATOM     65  C   UNL A   1      46.117  34.926  28.185  1.00  0.00     0.059 A 
ATOM     66  F   UNL A   1      45.415  33.270  26.681  1.00  0.00    -0.206 F 
ATOM     67  C   UNL A   1      46.529  35.279  29.469  1.00  0.00     0.060 A 
BRANCH  67  68
ATOM     68  S   UNL A   1      46.842  37.010  29.876  1.00  0.00     0.124 S 
ATOM     69  O   UNL A   1      47.022  37.591  28.548  1.00  0.00    -0.237 OA
ATOM     70  O   UNL A   1      45.621  37.396  30.575  1.00  0.00    -0.237 OA
ATOM     71  O   UNL A   1      48.043  36.952  30.703  1.00  0.00    -0.744 OA
ENDBRANCH  67  68
ENDBRANCH  46  60
BRANCH  47  72
ATOM     72  C   UNL A   1      43.407  23.135  27.004  1.00  0.00     0.058 A 
ATOM     73  C   UNL A   1      43.149  22.224  28.038  1.00  0.00     0.135 A 
ATOM     74  C   UNL A   1      43.311  22.667  25.683  1.00  0.00     0.135 A 
ATOM     75  F   UNL A   1      43.247  22.617  29.317  1.00  0.00    -0.206 F 
ATOM     76  C   UNL A   1      42.818  20.897  27.775  1.00  0.00     0.059 A 
ATOM     77  C   UNL A   1      42.957  21.353  25.395  1.00  0.00     0.059 A 
ATOM     78  F   UNL A   1      43.545  23.498  24.656  1.00  0.00    -0.206 F 
ATOM     79  C   UNL A   1      42.726  20.470  26.449  1.00  0.00     0.060 A 
BRANCH  79  80
ATOM     80  S   UNL A   1      42.267  18.757  26.106  1.00  0.00     0.124 S 
ATOM     81  O   UNL A   1      43.199  18.415  25.038  1.00  0.00    -0.237 OA
ATOM     82  O   UNL A   1      42.503  18.106  27.391  1.00  0.00    -0.237 OA
ATOM     83  O   UNL A   1      40.865  18.860  25.713  1.00  0.00    -0.744 OA
ENDBRANCH  79  80
ENDBRANCH  47  72
BRANCH  59  84
ATOM     84  C   UNL A   1      49.367  26.699  26.431  1.00  0.00     0.058 A 
ATOM     85  C   UNL A   1      49.760  26.849  25.092  1.00  0.00     0.135 A 
ATOM     86  C   UNL A   1      50.318  26.227  27.348  1.00  0.00     0.135 A 
ATOM     87  F   UNL A   1      48.884  27.291  24.176  1.00  0.00    -0.206 F 
ATOM     88  C   UNL A   1      51.048  26.530  24.675  1.00  0.00     0.059 A 
ATOM     89  C   UNL A   1      51.617  25.921  26.957  1.00  0.00     0.059 A 
ATOM     90  F   UNL A   1      49.992  26.074  28.641  1.00  0.00    -0.206 F 
ATOM     91  C   UNL A   1      51.971  26.067  25.616  1.00  0.00     0.060 A 
BRANCH  91  92
ATOM     92  S   UNL A   1      53.654  25.702  25.076  1.00  0.00     0.124 S 
ATOM     93  O   UNL A   1      53.545  24.293  24.710  1.00  0.00    -0.237 OA
ATOM     94  O   UNL A   1      53.840  26.632  23.966  1.00  0.00    -0.237 OA
ATOM     95  O   UNL A   1      54.458  25.983  26.262  1.00  0.00    -0.744 OA
ENDBRANCH  91  92
ENDBRANCH  59  84
ENDBRANCH  33  34
ENDBRANCH  26  28
ENDBRANCH  25  26
ENDBRANCH  24  25
ENDBRANCH   1  24
TORSDOF 19
ENDMDL
