MODEL 1
REMARK VINA RESULT:     -11.4      0.000      0.000
REMARK SMILES COc1cccc(C[N@@H+]2C[C@H](C(=O)OCCOC(=O)c3ccc(-c4c5nc(c(-c6c(F)cc(S(=O)(=O)[O-])cc6F)c6ccc([nH]6)c(-c6c(F)cc(S(=O)(=O)[O-])cc6F)c6nc(c(-c7c(F)cc(S(=O)(=O)[O-])cc7F)c7ccc4[nH]7)C=C6)C=C5)cc3)C3(CC[NH+](C)CC3)C2)c1
REMARK SMILES IDX 15 1 14 2 12 3 13 4 11 5 9 6 10 7 93 8 86 10 87 11 92 12
REMARK SMILES IDX 88 13 91 14 89 15 90 16 8 18 7 19 3 20 4 21 94 22 5 23 6 24
REMARK SMILES IDX 2 25 1 26 16 27 17 28 18 29 19 30 20 31 21 32 85 33 22 34
REMARK SMILES IDX 84 35 23 36 24 37 25 38 78 39 26 40 83 41 77 42 79 43 27 44
REMARK SMILES IDX 82 45 76 46 75 47 28 49 62 50 41 51 61 52 42 53 45 54 60 55
REMARK SMILES IDX 80 56 43 57 44 58 59 60 81 61 46 62 29 63 30 64 39 65 31 66
REMARK SMILES IDX 32 67 38 68 40 69 33 70 34 71 35 72 36 73 37 74 63 75 64 76
REMARK SMILES IDX 73 77 65 78 66 79 72 80 74 81 67 82 68 83 69 84 70 85 71 86
REMARK SMILES IDX 47 87 48 88 57 89 49 90 50 91 56 92 58 93 51 94 52 95 53 96
REMARK SMILES IDX 54 97 55 98
REMARK H PARENT 9 9 89 17 79 48 45 59
REMARK Flexibility Score: inf
ROOT
ATOM      1  C   UNL A   1      32.205  27.964  27.538  1.00  0.00     0.274 C 
ENDROOT
BRANCH   1   2
ATOM      2  O   UNL A   1      31.010  27.404  26.949  1.00  0.00    -0.462 OA
BRANCH   2   3
ATOM      3  C   UNL A   1      31.169  26.341  26.138  1.00  0.00     0.315 C 
ATOM      4  O   UNL A   1      30.608  25.264  26.313  1.00  0.00    -0.252 OA
BRANCH   3   5
ATOM      5  C   UNL A   1      32.142  26.562  24.990  1.00  0.00     0.166 C 
ATOM      6  N   UNL A   1      33.365  25.253  23.416  1.00  0.00    -0.330 N 
ATOM      7  C   UNL A   1      32.794  25.202  24.740  1.00  0.00     0.278 C 
ATOM      8  C   UNL A   1      32.806  26.355  22.657  1.00  0.00     0.271 C 
ATOM      9  H   UNL A   1      34.353  25.489  23.515  1.00  0.00     0.348 HD
ATOM     10  C   UNL A   1      31.771  27.102  23.570  1.00  0.00     0.049 C 
ATOM     11  C   UNL A   1      32.059  28.617  23.464  1.00  0.00     0.075 C 
ATOM     12  C   UNL A   1      30.339  26.820  23.032  1.00  0.00     0.075 C 
ATOM     13  C   UNL A   1      30.922  29.475  24.002  1.00  0.00     0.262 C 
ATOM     14  C   UNL A   1      29.247  27.874  23.293  1.00  0.00     0.262 C 
ATOM     15  N   UNL A   1      29.665  29.276  23.281  1.00  0.00    -0.337 N 
ATOM     16  C   UNL A   1      29.691  29.830  21.932  1.00  0.00     0.332 C 
ATOM     17  H   UNL A   1      28.958  29.806  23.789  1.00  0.00     0.347 HD
BRANCH   6  18
ATOM     18  C   UNL A   1      33.555  23.965  22.745  1.00  0.00     0.299 C 
BRANCH  18  19
ATOM     19  C   UNL A   1      34.215  22.833  23.517  1.00  0.00     0.010 A 
ATOM     20  C   UNL A   1      33.988  20.686  24.659  1.00  0.00     0.119 A 
ATOM     21  C   UNL A   1      35.346  20.703  24.974  1.00  0.00     0.046 A 
ATOM     22  C   UNL A   1      33.429  21.746  23.937  1.00  0.00     0.056 A 
ATOM     23  C   UNL A   1      36.152  21.742  24.527  1.00  0.00     0.004 A 
ATOM     24  C   UNL A   1      35.587  22.782  23.792  1.00  0.00     0.010 A 
BRANCH  20  25
ATOM     25  O   UNL A   1      33.317  19.590  25.119  1.00  0.00    -0.497 OA
ATOM     26  C   UNL A   1      33.137  18.523  24.196  1.00  0.00     0.278 C 
ENDBRANCH  20  25
ENDBRANCH  18  19
ENDBRANCH   6  18
ENDBRANCH   3   5
ENDBRANCH   2   3
ENDBRANCH   1   2
BRANCH   1  27
ATOM     27  C   UNL A   1      32.281  29.466  27.271  1.00  0.00     0.275 C 
BRANCH  27  28
ATOM     28  O   UNL A   1      33.633  29.823  26.933  1.00  0.00    -0.458 OA
BRANCH  28  29
ATOM     29  C   UNL A   1      34.282  30.600  27.829  1.00  0.00     0.338 C 
ATOM     30  O   UNL A   1      33.831  31.590  28.393  1.00  0.00    -0.246 OA
BRANCH  29  31
ATOM     31  C   UNL A   1      35.638  30.069  28.099  1.00  0.00     0.060 A 
ATOM     32  C   UNL A   1      35.995  29.636  29.375  1.00  0.00     0.016 A 
ATOM     33  C   UNL A   1      36.612  30.132  27.099  1.00  0.00     0.016 A 
ATOM     34  C   UNL A   1      37.337  29.413  29.686  1.00  0.00     0.010 A 
ATOM     35  C   UNL A   1      37.937  29.778  27.384  1.00  0.00     0.010 A 
ATOM     36  C   UNL A   1      38.330  29.457  28.693  1.00  0.00    -0.014 A 
BRANCH  36  37
ATOM     37  C   UNL A   1      39.751  29.128  29.018  1.00  0.00     0.031 A 
ATOM     38  C   UNL A   1      40.678  30.140  29.650  1.00  0.00     0.074 A 
ATOM     39  C   UNL A   1      40.225  27.895  28.743  1.00  0.00     0.049 A 
ATOM     40  N   UNL A   1      41.954  30.032  29.930  1.00  0.00    -0.248 NA
ATOM     41  C   UNL A   1      40.100  31.437  30.025  1.00  0.00     0.031 C 
ATOM     42  C   UNL A   1      39.448  26.800  28.158  1.00  0.00     0.029 A 
ATOM     43  N   UNL A   1      41.475  27.352  28.917  1.00  0.00    -0.354 N 
ATOM     44  C   UNL A   1      42.326  31.240  30.514  1.00  0.00     0.074 A 
ATOM     45  C   UNL A   1      41.145  32.077  30.533  1.00  0.00     0.031 C 
ATOM     46  C   UNL A   1      40.223  25.714  28.053  1.00  0.00     0.029 A 
ATOM     47  C   UNL A   1      41.578  26.059  28.467  1.00  0.00     0.049 A 
ATOM     48  H   UNL A   1      42.225  27.844  29.326  1.00  0.00     0.167 HD
ATOM     49  C   UNL A   1      43.533  31.618  30.999  1.00  0.00     0.037 A 
ATOM     50  C   UNL A   1      42.645  25.247  28.338  1.00  0.00     0.037 A 
ATOM     51  C   UNL A   1      44.714  30.796  30.984  1.00  0.00     0.049 A 
ATOM     52  C   UNL A   1      44.001  25.740  28.733  1.00  0.00     0.074 A 
ATOM     53  C   UNL A   1      45.969  31.081  31.492  1.00  0.00     0.029 A 
ATOM     54  N   UNL A   1      44.790  29.537  30.411  1.00  0.00    -0.354 N 
ATOM     55  N   UNL A   1      44.327  26.879  29.294  1.00  0.00    -0.248 NA
ATOM     56  C   UNL A   1      45.138  24.855  28.451  1.00  0.00     0.031 C 
ATOM     57  C   UNL A   1      46.819  30.010  31.185  1.00  0.00     0.029 A 
ATOM     58  C   UNL A   1      46.084  29.051  30.508  1.00  0.00     0.049 A 
ATOM     59  H   UNL A   1      44.036  29.059  29.997  1.00  0.00     0.167 HD
ATOM     60  C   UNL A   1      45.708  26.848  29.438  1.00  0.00     0.074 A 
ATOM     61  C   UNL A   1      46.155  25.574  28.912  1.00  0.00     0.031 C 
ATOM     62  C   UNL A   1      46.526  27.792  29.963  1.00  0.00     0.037 A 
BRANCH  49  63
ATOM     63  C   UNL A   1      43.644  32.993  31.590  1.00  0.00     0.058 A 
ATOM     64  C   UNL A   1      44.025  34.089  30.802  1.00  0.00     0.135 A 
ATOM     65  C   UNL A   1      43.336  33.227  32.938  1.00  0.00     0.135 A 
ATOM     66  F   UNL A   1      44.318  33.919  29.503  1.00  0.00    -0.206 F 
ATOM     67  C   UNL A   1      44.131  35.369  31.340  1.00  0.00     0.059 A 
ATOM     68  C   UNL A   1      43.428  34.499  33.495  1.00  0.00     0.059 A 
ATOM     69  F   UNL A   1      42.953  32.212  33.728  1.00  0.00    -0.206 F 
ATOM     70  C   UNL A   1      43.846  35.562  32.691  1.00  0.00     0.060 A 
BRANCH  70  71
ATOM     71  S   UNL A   1      44.007  37.216  33.399  1.00  0.00     0.124 S 
ATOM     72  O   UNL A   1      43.833  38.055  32.219  1.00  0.00    -0.237 OA
ATOM     73  O   UNL A   1      42.919  37.261  34.371  1.00  0.00    -0.237 OA
ATOM     74  O   UNL A   1      45.350  37.201  33.971  1.00  0.00    -0.744 OA
ENDBRANCH  70  71
ENDBRANCH  49  63
BRANCH  50  75
ATOM     75  C   UNL A   1      42.446  23.901  27.742  1.00  0.00     0.058 A 
ATOM     76  C   UNL A   1      42.430  23.720  26.354  1.00  0.00     0.135 A 
ATOM     77  C   UNL A   1      42.392  22.758  28.558  1.00  0.00     0.135 A 
ATOM     78  F   UNL A   1      42.466  24.785  25.538  1.00  0.00    -0.206 F 
ATOM     79  C   UNL A   1      42.406  22.449  25.790  1.00  0.00     0.059 A 
ATOM     80  C   UNL A   1      42.391  21.478  28.017  1.00  0.00     0.059 A 
ATOM     81  F   UNL A   1      42.416  22.884  29.893  1.00  0.00    -0.206 F 
ATOM     82  C   UNL A   1      42.406  21.334  26.631  1.00  0.00     0.060 A 
BRANCH  82  83
ATOM     83  S   UNL A   1      42.531  19.687  25.898  1.00  0.00     0.124 S 
ATOM     84  O   UNL A   1      41.171  19.478  25.414  1.00  0.00    -0.237 OA
ATOM     85  O   UNL A   1      43.552  19.879  24.873  1.00  0.00    -0.237 OA
ATOM     86  O   UNL A   1      42.937  18.851  27.025  1.00  0.00    -0.744 OA
ENDBRANCH  82  83
ENDBRANCH  50  75
BRANCH  62  87
ATOM     87  C   UNL A   1      47.993  27.485  29.993  1.00  0.00     0.058 A 
ATOM     88  C   UNL A   1      48.851  27.937  28.979  1.00  0.00     0.135 A 
ATOM     89  C   UNL A   1      48.550  26.752  31.052  1.00  0.00     0.135 A 
ATOM     90  F   UNL A   1      48.363  28.633  27.941  1.00  0.00    -0.206 F 
ATOM     91  C   UNL A   1      50.212  27.656  29.004  1.00  0.00     0.059 A 
ATOM     92  C   UNL A   1      49.912  26.474  31.106  1.00  0.00     0.059 A 
ATOM     93  F   UNL A   1      47.771  26.304  32.049  1.00  0.00    -0.206 F 
ATOM     94  C   UNL A   1      50.733  26.919  30.070  1.00  0.00     0.060 A 
BRANCH  94  95
ATOM     95  S   UNL A   1      52.504  26.569  30.104  1.00  0.00     0.124 S 
ATOM     96  O   UNL A   1      52.579  25.549  31.145  1.00  0.00    -0.237 OA
ATOM     97  O   UNL A   1      52.763  26.106  28.744  1.00  0.00    -0.237 OA
ATOM     98  O   UNL A   1      53.096  27.860  30.443  1.00  0.00    -0.744 OA
ENDBRANCH  94  95
ENDBRANCH  62  87
ENDBRANCH  36  37
ENDBRANCH  29  31
ENDBRANCH  28  29
ENDBRANCH  27  28
ENDBRANCH   1  27
TORSDOF 17
ENDMDL
MODEL 2
REMARK VINA RESULT:     -11.4      2.450      3.214
REMARK SMILES COc1cccc(C[N@@H+]2C[C@H](C(=O)OCCOC(=O)c3ccc(-c4c5nc(c(-c6c(F)cc(S(=O)(=O)[O-])cc6F)c6ccc([nH]6)c(-c6c(F)cc(S(=O)(=O)[O-])cc6F)c6nc(c(-c7c(F)cc(S(=O)(=O)[O-])cc7F)c7ccc4[nH]7)C=C6)C=C5)cc3)C3(CC[NH+](C)CC3)C2)c1
REMARK SMILES IDX 15 1 14 2 12 3 13 4 11 5 9 6 10 7 93 8 86 10 87 11 92 12
REMARK SMILES IDX 88 13 91 14 89 15 90 16 8 18 7 19 3 20 4 21 94 22 5 23 6 24
REMARK SMILES IDX 2 25 1 26 16 27 17 28 18 29 19 30 20 31 21 32 85 33 22 34
REMARK SMILES IDX 84 35 23 36 24 37 25 38 78 39 26 40 83 41 77 42 79 43 27 44
REMARK SMILES IDX 82 45 76 46 75 47 28 49 62 50 41 51 61 52 42 53 45 54 60 55
REMARK SMILES IDX 80 56 43 57 44 58 59 60 81 61 46 62 29 63 30 64 39 65 31 66
REMARK SMILES IDX 32 67 38 68 40 69 33 70 34 71 35 72 36 73 37 74 63 75 64 76
REMARK SMILES IDX 73 77 65 78 66 79 72 80 74 81 67 82 68 83 69 84 70 85 71 86
REMARK SMILES IDX 47 87 48 88 57 89 49 90 50 91 56 92 58 93 51 94 52 95 53 96
REMARK SMILES IDX 54 97 55 98
REMARK H PARENT 9 9 89 17 79 48 45 59
REMARK Flexibility Score: inf
ROOT
ATOM      1  C   UNL A   1      32.638  29.913  27.325  1.00  0.00     0.274 C 
ENDROOT
BRANCH   1   2
ATOM      2  O   UNL A   1      32.826  28.534  27.715  1.00  0.00    -0.462 OA
BRANCH   2   3
ATOM      3  C   UNL A   1      32.142  27.605  27.021  1.00  0.00     0.315 C 
ATOM      4  O   UNL A   1      31.021  27.215  27.332  1.00  0.00    -0.252 OA
BRANCH   3   5
ATOM      5  C   UNL A   1      32.888  27.033  25.826  1.00  0.00     0.166 C 
ATOM      6  N   UNL A   1      33.598  24.902  25.024  1.00  0.00    -0.330 N 
ATOM      7  C   UNL A   1      33.298  25.619  26.240  1.00  0.00     0.278 C 
ATOM      8  C   UNL A   1      33.043  25.587  23.873  1.00  0.00     0.271 C 
ATOM      9  H   UNL A   1      34.606  24.942  24.882  1.00  0.00     0.348 HD
ATOM     10  C   UNL A   1      32.313  26.881  24.379  1.00  0.00     0.049 C 
ATOM     11  C   UNL A   1      32.765  28.056  23.481  1.00  0.00     0.075 C 
ATOM     12  C   UNL A   1      30.779  26.681  24.218  1.00  0.00     0.075 C 
ATOM     13  C   UNL A   1      31.876  29.284  23.622  1.00  0.00     0.262 C 
ATOM     14  C   UNL A   1      29.904  27.933  24.017  1.00  0.00     0.262 C 
ATOM     15  N   UNL A   1      30.486  29.030  23.244  1.00  0.00    -0.337 N 
ATOM     16  C   UNL A   1      30.314  28.841  21.808  1.00  0.00     0.332 C 
ATOM     17  H   UNL A   1      29.967  29.875  23.481  1.00  0.00     0.347 HD
BRANCH   6  18
ATOM     18  C   UNL A   1      33.485  23.442  25.092  1.00  0.00     0.299 C 
BRANCH  18  19
ATOM     19  C   UNL A   1      34.761  22.617  25.159  1.00  0.00     0.010 A 
ATOM     20  C   UNL A   1      37.162  22.532  25.600  1.00  0.00     0.119 A 
ATOM     21  C   UNL A   1      37.177  21.173  25.288  1.00  0.00     0.046 A 
ATOM     22  C   UNL A   1      35.961  23.247  25.535  1.00  0.00     0.056 A 
ATOM     23  C   UNL A   1      35.996  20.520  24.963  1.00  0.00     0.004 A 
ATOM     24  C   UNL A   1      34.802  21.238  24.920  1.00  0.00     0.010 A 
BRANCH  20  25
ATOM     25  O   UNL A   1      38.380  23.045  25.944  1.00  0.00    -0.497 OA
ATOM     26  C   UNL A   1      39.383  22.106  26.310  1.00  0.00     0.278 C 
ENDBRANCH  20  25
ENDBRANCH  18  19
ENDBRANCH   6  18
ENDBRANCH   3   5
ENDBRANCH   2   3
ENDBRANCH   1   2
BRANCH   1  27
ATOM     27  C   UNL A   1      33.943  30.694  27.473  1.00  0.00     0.275 C 
BRANCH  27  28
ATOM     28  O   UNL A   1      34.973  29.814  27.958  1.00  0.00    -0.458 OA
BRANCH  28  29
ATOM     29  C   UNL A   1      35.843  30.351  28.844  1.00  0.00     0.338 C 
ATOM     30  O   UNL A   1      35.583  31.184  29.703  1.00  0.00    -0.246 OA
BRANCH  29  31
ATOM     31  C   UNL A   1      37.189  29.754  28.683  1.00  0.00     0.060 A 
ATOM     32  C   UNL A   1      37.917  29.325  29.792  1.00  0.00     0.016 A 
ATOM     33  C   UNL A   1      37.792  29.749  27.423  1.00  0.00     0.016 A 
ATOM     34  C   UNL A   1      39.277  29.037  29.664  1.00  0.00     0.010 A 
ATOM     35  C   UNL A   1      39.121  29.332  27.280  1.00  0.00     0.010 A 
ATOM     36  C   UNL A   1      39.899  29.013  28.405  1.00  0.00    -0.014 A 
BRANCH  36  37
ATOM     37  C   UNL A   1      41.334  28.616  28.269  1.00  0.00     0.031 A 
ATOM     38  C   UNL A   1      42.454  29.621  28.399  1.00  0.00     0.074 A 
ATOM     39  C   UNL A   1      41.644  27.325  28.024  1.00  0.00     0.049 A 
ATOM     40  N   UNL A   1      43.744  29.450  28.239  1.00  0.00    -0.248 NA
ATOM     41  C   UNL A   1      42.083  30.995  28.762  1.00  0.00     0.031 C 
ATOM     42  C   UNL A   1      40.677  26.232  27.899  1.00  0.00     0.029 A 
ATOM     43  N   UNL A   1      42.859  26.712  27.836  1.00  0.00    -0.354 N 
ATOM     44  C   UNL A   1      44.333  30.686  28.486  1.00  0.00     0.074 A 
ATOM     45  C   UNL A   1      43.260  31.608  28.789  1.00  0.00     0.031 C 
ATOM     46  C   UNL A   1      41.333  25.084  27.689  1.00  0.00     0.029 A 
ATOM     47  C   UNL A   1      42.758  25.370  27.564  1.00  0.00     0.049 A 
ATOM     48  H   UNL A   1      43.718  27.190  27.892  1.00  0.00     0.167 HD
ATOM     49  C   UNL A   1      45.645  31.024  28.473  1.00  0.00     0.037 A 
ATOM     50  C   UNL A   1      43.687  24.468  27.194  1.00  0.00     0.037 A 
ATOM     51  C   UNL A   1      46.720  30.118  28.171  1.00  0.00     0.049 A 
ATOM     52  C   UNL A   1      45.110  24.898  27.031  1.00  0.00     0.074 A 
ATOM     53  C   UNL A   1      48.082  30.363  28.176  1.00  0.00     0.029 A 
ATOM     54  N   UNL A   1      46.553  28.797  27.790  1.00  0.00    -0.354 N 
ATOM     55  N   UNL A   1      45.647  26.067  27.281  1.00  0.00    -0.248 NA
ATOM     56  C   UNL A   1      46.050  23.900  26.505  1.00  0.00     0.031 C 
ATOM     57  C   UNL A   1      48.738  29.200  27.751  1.00  0.00     0.029 A 
ATOM     58  C   UNL A   1      47.783  28.227  27.506  1.00  0.00     0.049 A 
ATOM     59  H   UNL A   1      45.687  28.332  27.728  1.00  0.00     0.167 HD
ATOM     60  C   UNL A   1      46.990  25.946  26.949  1.00  0.00     0.074 A 
ATOM     61  C   UNL A   1      47.185  24.587  26.487  1.00  0.00     0.031 C 
ATOM     62  C   UNL A   1      47.969  26.881  27.025  1.00  0.00     0.037 A 
BRANCH  49  63
ATOM     63  C   UNL A   1      45.997  32.448  28.791  1.00  0.00     0.058 A 
ATOM     64  C   UNL A   1      46.082  33.415  27.779  1.00  0.00     0.135 A 
ATOM     65  C   UNL A   1      46.217  32.859  30.114  1.00  0.00     0.135 A 
ATOM     66  F   UNL A   1      45.868  33.074  26.499  1.00  0.00    -0.206 F 
ATOM     67  C   UNL A   1      46.408  34.739  28.064  1.00  0.00     0.059 A 
ATOM     68  C   UNL A   1      46.538  34.178  30.422  1.00  0.00     0.059 A 
ATOM     69  F   UNL A   1      46.133  31.972  31.118  1.00  0.00    -0.206 F 
ATOM     70  C   UNL A   1      46.650  35.108  29.386  1.00  0.00     0.060 A 
BRANCH  70  71
ATOM     71  S   UNL A   1      47.099  36.818  29.757  1.00  0.00     0.124 S 
ATOM     72  O   UNL A   1      48.321  36.973  28.976  1.00  0.00    -0.237 OA
ATOM     73  O   UNL A   1      45.944  37.569  29.276  1.00  0.00    -0.237 OA
ATOM     74  O   UNL A   1      47.273  36.807  31.207  1.00  0.00    -0.744 OA
ENDBRANCH  70  71
ENDBRANCH  49  63
BRANCH  50  75
ATOM     75  C   UNL A   1      43.251  23.079  26.897  1.00  0.00     0.058 A 
ATOM     76  C   UNL A   1      43.211  22.601  25.582  1.00  0.00     0.135 A 
ATOM     77  C   UNL A   1      42.987  22.174  27.938  1.00  0.00     0.135 A 
ATOM     78  F   UNL A   1      43.442  23.434  24.557  1.00  0.00    -0.206 F 
ATOM     79  C   UNL A   1      42.960  21.261  25.307  1.00  0.00     0.059 A 
ATOM     80  C   UNL A   1      42.758  20.826  27.690  1.00  0.00     0.059 A 
ATOM     81  F   UNL A   1      43.026  22.587  29.214  1.00  0.00    -0.206 F 
ATOM     82  C   UNL A   1      42.754  20.377  26.370  1.00  0.00     0.060 A 
BRANCH  82  83
ATOM     83  S   UNL A   1      42.583  18.613  26.019  1.00  0.00     0.124 S 
ATOM     84  O   UNL A   1      43.026  18.021  27.276  1.00  0.00    -0.237 OA
ATOM     85  O   UNL A   1      41.159  18.491  25.723  1.00  0.00    -0.237 OA
ATOM     86  O   UNL A   1      43.470  18.413  24.877  1.00  0.00    -0.744 OA
ENDBRANCH  82  83
ENDBRANCH  50  75
BRANCH  62  87
ATOM     87  C   UNL A   1      49.344  26.466  26.597  1.00  0.00     0.058 A 
ATOM     88  C   UNL A   1      50.225  25.838  27.491  1.00  0.00     0.135 A 
ATOM     89  C   UNL A   1      49.778  26.676  25.279  1.00  0.00     0.135 A 
ATOM     90  F   UNL A   1      49.857  25.625  28.763  1.00  0.00    -0.206 F 
ATOM     91  C   UNL A   1      51.500  25.450  27.097  1.00  0.00     0.059 A 
ATOM     92  C   UNL A   1      51.043  26.279  24.859  1.00  0.00     0.059 A 
ATOM     93  F   UNL A   1      48.968  27.265  24.386  1.00  0.00    -0.206 F 
ATOM     94  C   UNL A   1      51.903  25.679  25.780  1.00  0.00     0.060 A 
BRANCH  94  95
ATOM     95  S   UNL A   1      53.555  25.159  25.271  1.00  0.00     0.124 S 
ATOM     96  O   UNL A   1      54.397  25.962  26.152  1.00  0.00    -0.237 OA
ATOM     97  O   UNL A   1      53.536  23.726  25.545  1.00  0.00    -0.237 OA
ATOM     98  O   UNL A   1      53.600  25.520  23.857  1.00  0.00    -0.744 OA
ENDBRANCH  94  95
ENDBRANCH  62  87
ENDBRANCH  36  37
ENDBRANCH  29  31
ENDBRANCH  28  29
ENDBRANCH  27  28
ENDBRANCH   1  27
TORSDOF 17
ENDMDL
MODEL 3
REMARK VINA RESULT:     -11.3      2.774      8.372
REMARK SMILES COc1cccc(C[N@@H+]2C[C@H](C(=O)OCCOC(=O)c3ccc(-c4c5nc(c(-c6c(F)cc(S(=O)(=O)[O-])cc6F)c6ccc([nH]6)c(-c6c(F)cc(S(=O)(=O)[O-])cc6F)c6nc(c(-c7c(F)cc(S(=O)(=O)[O-])cc7F)c7ccc4[nH]7)C=C6)C=C5)cc3)C3(CC[NH+](C)CC3)C2)c1
REMARK SMILES IDX 15 1 14 2 12 3 13 4 11 5 9 6 10 7 93 8 86 10 87 11 92 12
REMARK SMILES IDX 88 13 91 14 89 15 90 16 8 18 7 19 3 20 4 21 94 22 5 23 6 24
REMARK SMILES IDX 2 25 1 26 16 27 17 28 18 29 19 30 20 31 21 32 85 33 22 34
REMARK SMILES IDX 84 35 23 36 24 37 25 38 78 39 26 40 83 41 77 42 79 43 27 44
REMARK SMILES IDX 82 45 76 46 75 47 28 49 62 50 41 51 61 52 42 53 45 54 60 55
REMARK SMILES IDX 80 56 43 57 44 58 59 60 81 61 46 62 29 63 30 64 39 65 31 66
REMARK SMILES IDX 32 67 38 68 40 69 33 70 34 71 35 72 36 73 37 74 63 75 64 76
REMARK SMILES IDX 73 77 65 78 66 79 72 80 74 81 67 82 68 83 69 84 70 85 71 86
REMARK SMILES IDX 47 87 48 88 57 89 49 90 50 91 56 92 58 93 51 94 52 95 53 96
REMARK SMILES IDX 54 97 55 98
REMARK H PARENT 9 9 89 17 79 48 45 59
REMARK Flexibility Score: inf
ROOT
ATOM      1  C   UNL A   1      32.391  27.708  27.347  1.00  0.00     0.274 C 
ENDROOT
BRANCH   1   2
ATOM      2  O   UNL A   1      31.033  27.285  27.092  1.00  0.00    -0.462 OA
BRANCH   2   3
ATOM      3  C   UNL A   1      30.861  26.288  26.203  1.00  0.00     0.315 C 
ATOM      4  O   UNL A   1      30.035  25.392  26.341  1.00  0.00    -0.252 OA
BRANCH   3   5
ATOM      5  C   UNL A   1      31.809  26.331  25.014  1.00  0.00     0.166 C 
ATOM      6  N   UNL A   1      32.759  24.813  23.439  1.00  0.00    -0.330 N 
ATOM      7  C   UNL A   1      32.240  24.883  24.783  1.00  0.00     0.278 C 
ATOM      8  C   UNL A   1      32.338  25.967  22.666  1.00  0.00     0.271 C 
ATOM      9  H   UNL A   1      33.773  24.901  23.493  1.00  0.00     0.348 HD
ATOM     10  C   UNL A   1      31.464  26.883  23.592  1.00  0.00     0.049 C 
ATOM     11  C   UNL A   1      31.969  28.335  23.427  1.00  0.00     0.075 C 
ATOM     12  C   UNL A   1      29.985  26.805  23.116  1.00  0.00     0.075 C 
ATOM     13  C   UNL A   1      30.995  29.367  23.979  1.00  0.00     0.262 C 
ATOM     14  C   UNL A   1      29.074  28.017  23.382  1.00  0.00     0.262 C 
ATOM     15  N   UNL A   1      29.695  29.340  23.311  1.00  0.00    -0.337 N 
ATOM     16  C   UNL A   1      29.748  29.848  21.945  1.00  0.00     0.332 C 
ATOM     17  H   UNL A   1      29.096  29.983  23.827  1.00  0.00     0.347 HD
BRANCH   6  18
ATOM     18  C   UNL A   1      32.728  23.494  22.803  1.00  0.00     0.299 C 
BRANCH  18  19
ATOM     19  C   UNL A   1      33.268  22.301  23.575  1.00  0.00     0.010 A 
ATOM     20  C   UNL A   1      32.877  20.082  24.516  1.00  0.00     0.119 A 
ATOM     21  C   UNL A   1      34.177  20.057  25.017  1.00  0.00     0.046 A 
ATOM     22  C   UNL A   1      32.427  21.197  23.801  1.00  0.00     0.056 A 
ATOM     23  C   UNL A   1      35.040  21.115  24.764  1.00  0.00     0.004 A 
ATOM     24  C   UNL A   1      34.588  22.213  24.034  1.00  0.00     0.010 A 
BRANCH  20  25
ATOM     25  O   UNL A   1      32.143  18.964  24.796  1.00  0.00    -0.497 OA
ATOM     26  C   UNL A   1      32.479  17.787  24.072  1.00  0.00     0.278 C 
ENDBRANCH  20  25
ENDBRANCH  18  19
ENDBRANCH   6  18
ENDBRANCH   3   5
ENDBRANCH   2   3
ENDBRANCH   1   2
BRANCH   1  27
ATOM     27  C   UNL A   1      32.521  29.222  27.178  1.00  0.00     0.275 C 
BRANCH  27  28
ATOM     28  O   UNL A   1      33.844  29.537  26.712  1.00  0.00    -0.458 OA
BRANCH  28  29
ATOM     29  C   UNL A   1      34.479  30.540  27.362  1.00  0.00     0.338 C 
ATOM     30  O   UNL A   1      34.078  31.690  27.489  1.00  0.00    -0.246 OA
BRANCH  29  31
ATOM     31  C   UNL A   1      35.740  30.055  27.969  1.00  0.00     0.060 A 
ATOM     32  C   UNL A   1      35.771  29.610  29.291  1.00  0.00     0.016 A 
ATOM     33  C   UNL A   1      36.936  30.176  27.258  1.00  0.00     0.016 A 
ATOM     34  C   UNL A   1      36.995  29.432  29.938  1.00  0.00     0.010 A 
ATOM     35  C   UNL A   1      38.156  29.867  27.874  1.00  0.00     0.010 A 
ATOM     36  C   UNL A   1      38.208  29.535  29.237  1.00  0.00    -0.014 A 
BRANCH  36  37
ATOM     37  C   UNL A   1      39.509  29.254  29.917  1.00  0.00     0.031 A 
ATOM     38  C   UNL A   1      40.414  28.128  29.473  1.00  0.00     0.074 A 
ATOM     39  C   UNL A   1      39.893  30.025  30.957  1.00  0.00     0.049 A 
ATOM     40  N   UNL A   1      41.540  27.713  30.001  1.00  0.00    -0.248 NA
ATOM     41  C   UNL A   1      40.010  27.376  28.278  1.00  0.00     0.031 C 
ATOM     42  C   UNL A   1      39.143  31.165  31.487  1.00  0.00     0.029 A 
ATOM     43  N   UNL A   1      41.009  29.966  31.756  1.00  0.00    -0.354 N 
ATOM     44  C   UNL A   1      41.976  26.659  29.203  1.00  0.00     0.074 A 
ATOM     45  C   UNL A   1      40.986  26.483  28.163  1.00  0.00     0.031 C 
ATOM     46  C   UNL A   1      39.830  31.716  32.495  1.00  0.00     0.029 A 
ATOM     47  C   UNL A   1      41.019  30.912  32.752  1.00  0.00     0.049 A 
ATOM     48  H   UNL A   1      41.731  29.309  31.626  1.00  0.00     0.167 HD
ATOM     49  C   UNL A   1      43.101  25.912  29.317  1.00  0.00     0.037 A 
ATOM     50  C   UNL A   1      41.849  31.091  33.797  1.00  0.00     0.037 A 
ATOM     51  C   UNL A   1      44.091  26.075  30.347  1.00  0.00     0.049 A 
ATOM     52  C   UNL A   1      42.999  30.154  33.995  1.00  0.00     0.074 A 
ATOM     53  C   UNL A   1      45.282  25.391  30.515  1.00  0.00     0.029 A 
ATOM     54  N   UNL A   1      43.993  26.973  31.397  1.00  0.00    -0.354 N 
ATOM     55  N   UNL A   1      43.400  29.174  33.223  1.00  0.00    -0.248 NA
ATOM     56  C   UNL A   1      43.791  30.325  35.220  1.00  0.00     0.031 C 
ATOM     57  C   UNL A   1      45.884  25.844  31.696  1.00  0.00     0.029 A 
ATOM     58  C   UNL A   1      45.078  26.827  32.247  1.00  0.00     0.049 A 
ATOM     59  H   UNL A   1      43.261  27.619  31.522  1.00  0.00     0.167 HD
ATOM     60  C   UNL A   1      44.496  28.612  33.864  1.00  0.00     0.074 A 
ATOM     61  C   UNL A   1      44.699  29.366  35.084  1.00  0.00     0.031 C 
ATOM     62  C   UNL A   1      45.263  27.565  33.470  1.00  0.00     0.037 A 
BRANCH  49  63
ATOM     63  C   UNL A   1      43.323  24.834  28.296  1.00  0.00     0.058 A 
ATOM     64  C   UNL A   1      43.908  25.123  27.055  1.00  0.00     0.135 A 
ATOM     65  C   UNL A   1      42.982  23.501  28.569  1.00  0.00     0.135 A 
ATOM     66  F   UNL A   1      44.263  26.382  26.752  1.00  0.00    -0.206 F 
ATOM     67  C   UNL A   1      44.118  24.131  26.101  1.00  0.00     0.059 A 
ATOM     68  C   UNL A   1      43.190  22.491  27.632  1.00  0.00     0.059 A 
ATOM     69  F   UNL A   1      42.433  23.173  29.748  1.00  0.00    -0.206 F 
ATOM     70  C   UNL A   1      43.741  22.820  26.392  1.00  0.00     0.060 A 
BRANCH  70  71
ATOM     71  S   UNL A   1      43.988  21.534  25.148  1.00  0.00     0.124 S 
ATOM     72  O   UNL A   1      43.810  22.288  23.912  1.00  0.00    -0.237 OA
ATOM     73  O   UNL A   1      45.348  21.077  25.418  1.00  0.00    -0.237 OA
ATOM     74  O   UNL A   1      42.936  20.570  25.456  1.00  0.00    -0.744 OA
ENDBRANCH  70  71
ENDBRANCH  49  63
BRANCH  50  75
ATOM     75  C   UNL A   1      41.554  32.181  34.761  1.00  0.00     0.058 A 
ATOM     76  C   UNL A   1      42.067  33.470  34.571  1.00  0.00     0.135 A 
ATOM     77  C   UNL A   1      40.653  31.978  35.819  1.00  0.00     0.135 A 
ATOM     78  F   UNL A   1      42.941  33.707  33.582  1.00  0.00    -0.206 F 
ATOM     79  C   UNL A   1      41.668  34.533  35.376  1.00  0.00     0.059 A 
ATOM     80  C   UNL A   1      40.222  33.028  36.620  1.00  0.00     0.059 A 
ATOM     81  F   UNL A   1      40.129  30.761  36.030  1.00  0.00    -0.206 F 
ATOM     82  C   UNL A   1      40.730  34.305  36.385  1.00  0.00     0.060 A 
BRANCH  82  83
ATOM     83  S   UNL A   1      40.097  35.712  37.326  1.00  0.00     0.124 S 
ATOM     84  O   UNL A   1      39.746  36.643  36.259  1.00  0.00    -0.237 OA
ATOM     85  O   UNL A   1      38.978  35.123  38.053  1.00  0.00    -0.237 OA
ATOM     86  O   UNL A   1      41.236  36.098  38.153  1.00  0.00    -0.744 OA
ENDBRANCH  82  83
ENDBRANCH  50  75
BRANCH  62  87
ATOM     87  C   UNL A   1      46.395  27.172  34.370  1.00  0.00     0.058 A 
ATOM     88  C   UNL A   1      46.235  26.175  35.345  1.00  0.00     0.135 A 
ATOM     89  C   UNL A   1      47.655  27.777  34.245  1.00  0.00     0.135 A 
ATOM     90  F   UNL A   1      45.047  25.575  35.509  1.00  0.00    -0.206 F 
ATOM     91  C   UNL A   1      47.283  25.805  36.181  1.00  0.00     0.059 A 
ATOM     92  C   UNL A   1      48.722  27.410  35.058  1.00  0.00     0.059 A 
ATOM     93  F   UNL A   1      47.858  28.730  33.321  1.00  0.00    -0.206 F 
ATOM     94  C   UNL A   1      48.522  26.432  36.033  1.00  0.00     0.060 A 
BRANCH  94  95
ATOM     95  S   UNL A   1      49.883  25.938  37.112  1.00  0.00     0.124 S 
ATOM     96  O   UNL A   1      49.353  26.284  38.426  1.00  0.00    -0.237 OA
ATOM     97  O   UNL A   1      50.006  24.510  36.833  1.00  0.00    -0.237 OA
ATOM     98  O   UNL A   1      50.997  26.759  36.646  1.00  0.00    -0.744 OA
ENDBRANCH  94  95
ENDBRANCH  62  87
ENDBRANCH  36  37
ENDBRANCH  29  31
ENDBRANCH  28  29
ENDBRANCH  27  28
ENDBRANCH   1  27
TORSDOF 17
ENDMDL
