MODEL 1
REMARK VINA RESULT:      -9.6      0.000      0.000
REMARK SMILES O=C(CCNC(=O)C1CCCC1)OCCOC(=O)c1ccc(-c2c3nc(c(-c4c(F)cc(S(=O)(=O)[O-])cc4F)c4ccc([nH]4)c(-c4c(F)cc(S(=O)(=O)[O-])cc4F)c4nc(c(-c5c(F)cc(S(=O)(=O)[O-])cc5F)c5ccc2[nH]5)C=C4)C=C3)cc1
REMARK SMILES IDX 14 1 13 2 2 3 1 4 3 5 4 6 5 7 6 8 7 10 8 11 9 12 12 13 10 14
REMARK SMILES IDX 11 15 15 16 16 17 17 18 18 19 19 20 20 21 84 22 21 23 83 24
REMARK SMILES IDX 22 25 23 26 24 27 77 28 25 29 82 30 76 31 78 32 26 33 81 34
REMARK SMILES IDX 75 35 74 36 27 38 61 39 40 40 60 41 41 42 44 43 59 44 79 45
REMARK SMILES IDX 42 46 43 47 58 49 80 50 45 51 28 52 29 53 38 54 30 55 31 56
REMARK SMILES IDX 37 57 39 58 32 59 33 60 34 61 35 62 36 63 62 64 63 65 72 66
REMARK SMILES IDX 64 67 65 68 71 69 73 70 66 71 67 72 68 73 69 74 70 75 46 76
REMARK SMILES IDX 47 77 56 78 48 79 49 80 55 81 57 82 50 83 51 84 52 85 53 86
REMARK SMILES IDX 54 87
REMARK H PARENT 5 9 78 37 44 48
REMARK Flexibility Score: inf
ROOT
ATOM      1  C   UNL A   1      33.953  34.205  28.525  1.00  0.00     0.274 C 
ENDROOT
BRANCH   1   2
ATOM      2  O   UNL A   1      32.820  34.834  29.162  1.00  0.00    -0.462 OA
BRANCH   2   3
ATOM      3  C   UNL A   1      32.840  36.064  29.732  1.00  0.00     0.307 C 
ATOM      4  O   UNL A   1      33.230  37.038  29.092  1.00  0.00    -0.252 OA
BRANCH   3   5
ATOM      5  C   UNL A   1      32.426  36.209  31.174  1.00  0.00     0.144 C 
BRANCH   5   6
ATOM      6  C   UNL A   1      33.471  35.662  32.138  1.00  0.00     0.127 C 
BRANCH   6   7
ATOM      7  N   UNL A   1      33.718  34.247  31.928  1.00  0.00    -0.355 N 
ATOM      8  C   UNL A   1      34.790  33.477  32.268  1.00  0.00     0.223 C 
ATOM      9  H   UNL A   1      32.995  33.766  31.464  1.00  0.00     0.163 HD
ATOM     10  O   UNL A   1      34.827  32.335  31.803  1.00  0.00    -0.275 OA
BRANCH   8  11
ATOM     11  C   UNL A   1      35.856  34.004  33.222  1.00  0.00     0.078 C 
ATOM     12  C   UNL A   1      36.434  32.872  34.079  1.00  0.00     0.013 C 
ATOM     13  C   UNL A   1      37.122  34.566  32.581  1.00  0.00     0.013 C 
ATOM     14  C   UNL A   1      37.701  33.459  34.680  1.00  0.00     0.001 C 
ATOM     15  C   UNL A   1      38.194  34.485  33.666  1.00  0.00     0.001 C 
ENDBRANCH   8  11
ENDBRANCH   6   7
ENDBRANCH   5   6
ENDBRANCH   3   5
ENDBRANCH   2   3
ENDBRANCH   1   2
BRANCH   1  16
ATOM     16  C   UNL A   1      33.590  32.898  27.821  1.00  0.00     0.275 C 
BRANCH  16  17
ATOM     17  O   UNL A   1      34.100  31.771  28.551  1.00  0.00    -0.458 OA
BRANCH  17  18
ATOM     18  C   UNL A   1      34.490  30.729  27.773  1.00  0.00     0.338 C 
ATOM     19  O   UNL A   1      33.919  30.313  26.783  1.00  0.00    -0.246 OA
BRANCH  18  20
ATOM     20  C   UNL A   1      35.823  30.252  28.204  1.00  0.00     0.060 A 
ATOM     21  C   UNL A   1      35.905  29.626  29.453  1.00  0.00     0.016 A 
ATOM     22  C   UNL A   1      36.974  30.418  27.424  1.00  0.00     0.016 A 
ATOM     23  C   UNL A   1      37.140  29.207  29.943  1.00  0.00     0.010 A 
ATOM     24  C   UNL A   1      38.213  29.993  27.918  1.00  0.00     0.010 A 
ATOM     25  C   UNL A   1      38.306  29.412  29.193  1.00  0.00    -0.014 A 
BRANCH  25  26
ATOM     26  C   UNL A   1      39.621  29.102  29.806  1.00  0.00     0.031 A 
ATOM     27  C   UNL A   1      40.086  29.890  31.001  1.00  0.00     0.074 A 
ATOM     28  C   UNL A   1      40.367  28.082  29.340  1.00  0.00     0.049 A 
ATOM     29  N   UNL A   1      41.152  29.721  31.738  1.00  0.00    -0.248 NA
ATOM     30  C   UNL A   1      39.237  31.017  31.420  1.00  0.00     0.031 C 
ATOM     31  C   UNL A   1      40.028  27.244  28.190  1.00  0.00     0.029 A 
ATOM     32  N   UNL A   1      41.562  27.577  29.784  1.00  0.00    -0.354 N 
ATOM     33  C   UNL A   1      41.091  30.698  32.724  1.00  0.00     0.074 A 
ATOM     34  C   UNL A   1      39.910  31.492  32.458  1.00  0.00     0.031 C 
ATOM     35  C   UNL A   1      40.998  26.330  28.016  1.00  0.00     0.029 A 
ATOM     36  C   UNL A   1      42.027  26.521  29.037  1.00  0.00     0.049 A 
ATOM     37  H   UNL A   1      42.042  27.938  30.563  1.00  0.00     0.167 HD
ATOM     38  C   UNL A   1      41.928  30.901  33.770  1.00  0.00     0.037 A 
ATOM     39  C   UNL A   1      43.151  25.790  29.164  1.00  0.00     0.037 A 
ATOM     40  C   UNL A   1      43.111  30.123  34.031  1.00  0.00     0.049 A 
ATOM     41  C   UNL A   1      44.089  26.064  30.311  1.00  0.00     0.074 A 
ATOM     42  C   UNL A   1      44.016  30.252  35.070  1.00  0.00     0.029 A 
ATOM     43  N   UNL A   1      43.556  29.072  33.242  1.00  0.00    -0.354 N 
ATOM     44  N   UNL A   1      43.989  26.962  31.264  1.00  0.00    -0.248 NA
ATOM     45  C   UNL A   1      45.283  25.214  30.412  1.00  0.00     0.031 C 
ATOM     46  C   UNL A   1      45.029  29.302  34.890  1.00  0.00     0.029 A 
ATOM     47  C   UNL A   1      44.732  28.556  33.762  1.00  0.00     0.049 A 
ATOM     48  H   UNL A   1      43.104  28.743  32.432  1.00  0.00     0.167 HD
ATOM     49  C   UNL A   1      45.095  26.769  32.085  1.00  0.00     0.074 A 
ATOM     50  C   UNL A   1      45.839  25.657  31.530  1.00  0.00     0.031 C 
ATOM     51  C   UNL A   1      45.465  27.451  33.198  1.00  0.00     0.037 A 
BRANCH  38  52
ATOM     52  C   UNL A   1      41.586  32.011  34.723  1.00  0.00     0.058 A 
ATOM     53  C   UNL A   1      41.948  33.341  34.452  1.00  0.00     0.135 A 
ATOM     54  C   UNL A   1      40.850  31.757  35.891  1.00  0.00     0.135 A 
ATOM     55  F   UNL A   1      42.668  33.634  33.358  1.00  0.00    -0.206 F 
ATOM     56  C   UNL A   1      41.605  34.377  35.312  1.00  0.00     0.059 A 
ATOM     57  C   UNL A   1      40.476  32.781  36.755  1.00  0.00     0.059 A 
ATOM     58  F   UNL A   1      40.483  30.502  36.198  1.00  0.00    -0.206 F 
ATOM     59  C   UNL A   1      40.867  34.088  36.462  1.00  0.00     0.060 A 
BRANCH  59  60
ATOM     60  S   UNL A   1      40.412  35.447  37.558  1.00  0.00     0.124 S 
ATOM     61  O   UNL A   1      39.253  34.887  38.249  1.00  0.00    -0.237 OA
ATOM     62  O   UNL A   1      41.613  35.611  38.370  1.00  0.00    -0.237 OA
ATOM     63  O   UNL A   1      40.124  36.544  36.640  1.00  0.00    -0.744 OA
ENDBRANCH  59  60
ENDBRANCH  38  52
BRANCH  39  64
ATOM     64  C   UNL A   1      43.463  24.724  28.177  1.00  0.00     0.058 A 
ATOM     65  C   UNL A   1      44.185  25.000  27.008  1.00  0.00     0.135 A 
ATOM     66  C   UNL A   1      43.015  23.409  28.376  1.00  0.00     0.135 A 
ATOM     67  F   UNL A   1      44.627  26.245  26.770  1.00  0.00    -0.206 F 
ATOM     68  C   UNL A   1      44.430  24.017  26.054  1.00  0.00     0.059 A 
ATOM     69  C   UNL A   1      43.266  22.404  27.449  1.00  0.00     0.059 A 
ATOM     70  F   UNL A   1      42.333  23.091  29.488  1.00  0.00    -0.206 F 
ATOM     71  C   UNL A   1      43.961  22.722  26.282  1.00  0.00     0.060 A 
BRANCH  71  72
ATOM     72  S   UNL A   1      44.299  21.443  25.054  1.00  0.00     0.124 S 
ATOM     73  O   UNL A   1      45.639  21.016  25.439  1.00  0.00    -0.237 OA
ATOM     74  O   UNL A   1      43.226  20.484  25.301  1.00  0.00    -0.237 OA
ATOM     75  O   UNL A   1      44.203  22.163  23.788  1.00  0.00    -0.744 OA
ENDBRANCH  71  72
ENDBRANCH  39  64
BRANCH  51  76
ATOM     76  C   UNL A   1      46.718  27.000  33.896  1.00  0.00     0.058 A 
ATOM     77  C   UNL A   1      47.973  27.543  33.578  1.00  0.00     0.135 A 
ATOM     78  C   UNL A   1      46.664  26.027  34.907  1.00  0.00     0.135 A 
ATOM     79  F   UNL A   1      48.082  28.475  32.617  1.00  0.00    -0.206 F 
ATOM     80  C   UNL A   1      49.134  27.109  34.209  1.00  0.00     0.059 A 
ATOM     81  C   UNL A   1      47.809  25.596  35.569  1.00  0.00     0.059 A 
ATOM     82  F   UNL A   1      45.487  25.485  35.260  1.00  0.00    -0.206 F 
ATOM     83  C   UNL A   1      49.043  26.130  35.199  1.00  0.00     0.060 A 
BRANCH  83  84
ATOM     84  S   UNL A   1      50.555  25.572  36.014  1.00  0.00     0.124 S 
ATOM     85  O   UNL A   1      50.039  25.082  37.286  1.00  0.00    -0.237 OA
ATOM     86  O   UNL A   1      51.050  24.551  35.095  1.00  0.00    -0.237 OA
ATOM     87  O   UNL A   1      51.366  26.784  36.088  1.00  0.00    -0.744 OA
ENDBRANCH  83  84
ENDBRANCH  51  76
ENDBRANCH  25  26
ENDBRANCH  18  20
ENDBRANCH  17  18
ENDBRANCH  16  17
ENDBRANCH   1  16
TORSDOF 17
ENDMDL
MODEL 2
REMARK VINA RESULT:      -9.5      4.605     12.392
REMARK SMILES O=C(CCNC(=O)C1CCCC1)OCCOC(=O)c1ccc(-c2c3nc(c(-c4c(F)cc(S(=O)(=O)[O-])cc4F)c4ccc([nH]4)c(-c4c(F)cc(S(=O)(=O)[O-])cc4F)c4nc(c(-c5c(F)cc(S(=O)(=O)[O-])cc5F)c5ccc2[nH]5)C=C4)C=C3)cc1
REMARK SMILES IDX 14 1 13 2 2 3 1 4 3 5 4 6 5 7 6 8 7 10 8 11 9 12 12 13 10 14
REMARK SMILES IDX 11 15 15 16 16 17 17 18 18 19 19 20 20 21 84 22 21 23 83 24
REMARK SMILES IDX 22 25 23 26 24 27 77 28 25 29 82 30 76 31 78 32 26 33 81 34
REMARK SMILES IDX 75 35 74 36 27 38 61 39 40 40 60 41 41 42 44 43 59 44 79 45
REMARK SMILES IDX 42 46 43 47 58 49 80 50 45 51 28 52 29 53 38 54 30 55 31 56
REMARK SMILES IDX 37 57 39 58 32 59 33 60 34 61 35 62 36 63 62 64 63 65 72 66
REMARK SMILES IDX 64 67 65 68 71 69 73 70 66 71 67 72 68 73 69 74 70 75 46 76
REMARK SMILES IDX 47 77 56 78 48 79 49 80 55 81 57 82 50 83 51 84 52 85 53 86
REMARK SMILES IDX 54 87
REMARK H PARENT 5 9 78 37 44 48
REMARK Flexibility Score: inf
ROOT
ATOM      1  C   UNL A   1      41.876  21.023  25.922  1.00  0.00     0.274 C 
ENDROOT
BRANCH   1   2
ATOM      2  O   UNL A   1      42.813  20.005  26.337  1.00  0.00    -0.462 OA
BRANCH   2   3
ATOM      3  C   UNL A   1      43.112  18.893  25.621  1.00  0.00     0.307 C 
ATOM      4  O   UNL A   1      42.535  17.833  25.852  1.00  0.00    -0.252 OA
BRANCH   3   5
ATOM      5  C   UNL A   1      44.193  18.966  24.574  1.00  0.00     0.144 C 
BRANCH   5   6
ATOM      6  C   UNL A   1      45.286  19.965  24.933  1.00  0.00     0.127 C 
BRANCH   6   7
ATOM      7  N   UNL A   1      45.136  21.216  24.212  1.00  0.00    -0.355 N 
ATOM      8  C   UNL A   1      45.260  22.503  24.642  1.00  0.00     0.223 C 
ATOM      9  H   UNL A   1      44.909  21.120  23.259  1.00  0.00     0.163 HD
ATOM     10  O   UNL A   1      44.895  23.390  23.865  1.00  0.00    -0.275 OA
BRANCH   8  11
ATOM     11  C   UNL A   1      45.869  22.815  26.004  1.00  0.00     0.078 C 
ATOM     12  C   UNL A   1      46.690  24.110  25.956  1.00  0.00     0.013 C 
ATOM     13  C   UNL A   1      44.890  23.127  27.132  1.00  0.00     0.013 C 
ATOM     14  C   UNL A   1      46.905  24.478  27.414  1.00  0.00     0.001 C 
ATOM     15  C   UNL A   1      45.694  23.924  28.157  1.00  0.00     0.001 C 
ENDBRANCH   8  11
ENDBRANCH   6   7
ENDBRANCH   5   6
ENDBRANCH   3   5
ENDBRANCH   2   3
ENDBRANCH   1   2
BRANCH   1  16
ATOM     16  C   UNL A   1      40.426  20.665  26.246  1.00  0.00     0.275 C 
BRANCH  16  17
ATOM     17  O   UNL A   1      39.835  21.664  27.093  1.00  0.00    -0.458 OA
BRANCH  17  18
ATOM     18  C   UNL A   1      39.156  22.632  26.427  1.00  0.00     0.338 C 
ATOM     19  O   UNL A   1      38.268  22.464  25.613  1.00  0.00    -0.246 OA
BRANCH  18  20
ATOM     20  C   UNL A   1      39.534  23.963  26.954  1.00  0.00     0.060 A 
ATOM     21  C   UNL A   1      40.138  24.856  26.061  1.00  0.00     0.016 A 
ATOM     22  C   UNL A   1      39.323  24.337  28.286  1.00  0.00     0.016 A 
ATOM     23  C   UNL A   1      40.571  26.103  26.506  1.00  0.00     0.010 A 
ATOM     24  C   UNL A   1      39.756  25.592  28.731  1.00  0.00     0.010 A 
ATOM     25  C   UNL A   1      40.410  26.469  27.849  1.00  0.00    -0.014 A 
BRANCH  25  26
ATOM     26  C   UNL A   1      41.022  27.733  28.330  1.00  0.00     0.031 A 
ATOM     27  C   UNL A   1      42.508  27.930  28.206  1.00  0.00     0.074 A 
ATOM     28  C   UNL A   1      40.249  28.722  28.815  1.00  0.00     0.049 A 
ATOM     29  N   UNL A   1      43.227  28.987  28.478  1.00  0.00    -0.248 NA
ATOM     30  C   UNL A   1      43.287  26.784  27.710  1.00  0.00     0.031 C 
ATOM     31  C   UNL A   1      38.798  28.655  28.987  1.00  0.00     0.029 A 
ATOM     32  N   UNL A   1      40.580  29.981  29.247  1.00  0.00    -0.354 N 
ATOM     33  C   UNL A   1      44.536  28.648  28.161  1.00  0.00     0.074 A 
ATOM     34  C   UNL A   1      44.521  27.267  27.728  1.00  0.00     0.031 C 
ATOM     35  C   UNL A   1      38.363  29.822  29.493  1.00  0.00     0.029 A 
ATOM     36  C   UNL A   1      39.504  30.716  29.685  1.00  0.00     0.049 A 
ATOM     37  H   UNL A   1      41.502  30.326  29.243  1.00  0.00     0.167 HD
ATOM     38  C   UNL A   1      45.647  29.423  28.203  1.00  0.00     0.037 A 
ATOM     39  C   UNL A   1      39.447  31.967  30.182  1.00  0.00     0.037 A 
ATOM     40  C   UNL A   1      45.669  30.793  28.646  1.00  0.00     0.049 A 
ATOM     41  C   UNL A   1      40.704  32.794  30.260  1.00  0.00     0.074 A 
ATOM     42  C   UNL A   1      46.747  31.659  28.718  1.00  0.00     0.029 A 
ATOM     43  N   UNL A   1      44.562  31.496  29.098  1.00  0.00    -0.354 N 
ATOM     44  N   UNL A   1      41.927  32.473  29.909  1.00  0.00    -0.248 NA
ATOM     45  C   UNL A   1      40.569  34.160  30.784  1.00  0.00     0.031 C 
ATOM     46  C   UNL A   1      46.298  32.875  29.246  1.00  0.00     0.029 A 
ATOM     47  C   UNL A   1      44.935  32.779  29.466  1.00  0.00     0.049 A 
ATOM     48  H   UNL A   1      43.648  31.136  29.151  1.00  0.00     0.167 HD
ATOM     49  C   UNL A   1      42.701  33.603  30.151  1.00  0.00     0.074 A 
ATOM     50  C   UNL A   1      41.805  34.622  30.658  1.00  0.00     0.031 C 
ATOM     51  C   UNL A   1      44.034  33.783  29.973  1.00  0.00     0.037 A 
BRANCH  38  52
ATOM     52  C   UNL A   1      46.938  28.806  27.747  1.00  0.00     0.058 A 
ATOM     53  C   UNL A   1      47.803  28.172  28.654  1.00  0.00     0.135 A 
ATOM     54  C   UNL A   1      47.294  28.801  26.389  1.00  0.00     0.135 A 
ATOM     55  F   UNL A   1      47.518  28.165  29.966  1.00  0.00    -0.206 F 
ATOM     56  C   UNL A   1      48.982  27.568  28.234  1.00  0.00     0.059 A 
ATOM     57  C   UNL A   1      48.459  28.184  25.942  1.00  0.00     0.059 A 
ATOM     58  F   UNL A   1      46.504  29.397  25.482  1.00  0.00    -0.206 F 
ATOM     59  C   UNL A   1      49.302  27.578  26.875  1.00  0.00     0.060 A 
BRANCH  59  60
ATOM     60  S   UNL A   1      50.826  26.772  26.342  1.00  0.00     0.124 S 
ATOM     61  O   UNL A   1      50.488  26.387  24.974  1.00  0.00    -0.237 OA
ATOM     62  O   UNL A   1      51.809  27.842  26.473  1.00  0.00    -0.237 OA
ATOM     63  O   UNL A   1      50.975  25.668  27.284  1.00  0.00    -0.744 OA
ENDBRANCH  59  60
ENDBRANCH  38  52
BRANCH  39  64
ATOM     64  C   UNL A   1      38.151  32.523  30.652  1.00  0.00     0.058 A 
ATOM     65  C   UNL A   1      37.329  33.276  29.804  1.00  0.00     0.135 A 
ATOM     66  C   UNL A   1      37.728  32.334  31.977  1.00  0.00     0.135 A 
ATOM     67  F   UNL A   1      37.697  33.491  28.530  1.00  0.00    -0.206 F 
ATOM     68  C   UNL A   1      36.144  33.848  30.256  1.00  0.00     0.059 A 
ATOM     69  C   UNL A   1      36.537  32.875  32.447  1.00  0.00     0.059 A 
ATOM     70  F   UNL A   1      38.473  31.607  32.825  1.00  0.00    -0.206 F 
ATOM     71  C   UNL A   1      35.759  33.646  31.582  1.00  0.00     0.060 A 
BRANCH  71  72
ATOM     72  S   UNL A   1      34.209  34.368  32.161  1.00  0.00     0.124 S 
ATOM     73  O   UNL A   1      34.687  35.523  32.910  1.00  0.00    -0.237 OA
ATOM     74  O   UNL A   1      33.517  34.659  30.909  1.00  0.00    -0.237 OA
ATOM     75  O   UNL A   1      33.620  33.296  32.958  1.00  0.00    -0.744 OA
ENDBRANCH  71  72
ENDBRANCH  39  64
BRANCH  51  76
ATOM     76  C   UNL A   1      44.596  35.136  30.311  1.00  0.00     0.058 A 
ATOM     77  C   UNL A   1      45.057  35.439  31.601  1.00  0.00     0.135 A 
ATOM     78  C   UNL A   1      44.692  36.136  29.330  1.00  0.00     0.135 A 
ATOM     79  F   UNL A   1      44.986  34.520  32.577  1.00  0.00    -0.206 F 
ATOM     80  C   UNL A   1      45.557  36.698  31.918  1.00  0.00     0.059 A 
ATOM     81  C   UNL A   1      45.212  37.395  29.618  1.00  0.00     0.059 A 
ATOM     82  F   UNL A   1      44.279  35.895  28.075  1.00  0.00    -0.206 F 
ATOM     83  C   UNL A   1      45.624  37.672  30.920  1.00  0.00     0.060 A 
BRANCH  83  84
ATOM     84  S   UNL A   1      46.274  39.304  31.340  1.00  0.00     0.124 S 
ATOM     85  O   UNL A   1      45.341  40.180  30.641  1.00  0.00    -0.237 OA
ATOM     86  O   UNL A   1      46.183  39.315  32.797  1.00  0.00    -0.237 OA
ATOM     87  O   UNL A   1      47.632  39.275  30.805  1.00  0.00    -0.744 OA
ENDBRANCH  83  84
ENDBRANCH  51  76
ENDBRANCH  25  26
ENDBRANCH  18  20
ENDBRANCH  17  18
ENDBRANCH  16  17
ENDBRANCH   1  16
TORSDOF 17
ENDMDL
MODEL 3
REMARK VINA RESULT:      -9.3      4.928      6.510
REMARK SMILES O=C(CCNC(=O)C1CCCC1)OCCOC(=O)c1ccc(-c2c3nc(c(-c4c(F)cc(S(=O)(=O)[O-])cc4F)c4ccc([nH]4)c(-c4c(F)cc(S(=O)(=O)[O-])cc4F)c4nc(c(-c5c(F)cc(S(=O)(=O)[O-])cc5F)c5ccc2[nH]5)C=C4)C=C3)cc1
REMARK SMILES IDX 14 1 13 2 2 3 1 4 3 5 4 6 5 7 6 8 7 10 8 11 9 12 12 13 10 14
REMARK SMILES IDX 11 15 15 16 16 17 17 18 18 19 19 20 20 21 84 22 21 23 83 24
REMARK SMILES IDX 22 25 23 26 24 27 77 28 25 29 82 30 76 31 78 32 26 33 81 34
REMARK SMILES IDX 75 35 74 36 27 38 61 39 40 40 60 41 41 42 44 43 59 44 79 45
REMARK SMILES IDX 42 46 43 47 58 49 80 50 45 51 28 52 29 53 38 54 30 55 31 56
REMARK SMILES IDX 37 57 39 58 32 59 33 60 34 61 35 62 36 63 62 64 63 65 72 66
REMARK SMILES IDX 64 67 65 68 71 69 73 70 66 71 67 72 68 73 69 74 70 75 46 76
REMARK SMILES IDX 47 77 56 78 48 79 49 80 55 81 57 82 50 83 51 84 52 85 53 86
REMARK SMILES IDX 54 87
REMARK H PARENT 5 9 78 37 44 48
REMARK Flexibility Score: inf
ROOT
ATOM      1  C   UNL A   1      37.372  34.504  33.198  1.00  0.00     0.274 C 
ENDROOT
BRANCH   1   2
ATOM      2  O   UNL A   1      36.113  34.919  32.624  1.00  0.00    -0.462 OA
BRANCH   2   3
ATOM      3  C   UNL A   1      35.048  35.360  33.337  1.00  0.00     0.307 C 
ATOM      4  O   UNL A   1      34.775  34.852  34.422  1.00  0.00    -0.252 OA
BRANCH   3   5
ATOM      5  C   UNL A   1      34.178  36.444  32.756  1.00  0.00     0.144 C 
BRANCH   5   6
ATOM      6  C   UNL A   1      32.868  35.905  32.197  1.00  0.00     0.127 C 
BRANCH   6   7
ATOM      7  N   UNL A   1      32.580  36.437  30.877  1.00  0.00    -0.355 N 
ATOM      8  C   UNL A   1      32.963  35.998  29.646  1.00  0.00     0.223 C 
ATOM      9  H   UNL A   1      32.017  37.244  30.871  1.00  0.00     0.163 HD
ATOM     10  O   UNL A   1      32.734  36.745  28.690  1.00  0.00    -0.275 OA
BRANCH   8  11
ATOM     11  C   UNL A   1      33.598  34.623  29.470  1.00  0.00     0.078 C 
ATOM     12  C   UNL A   1      33.111  33.953  28.179  1.00  0.00     0.013 C 
ATOM     13  C   UNL A   1      35.110  34.594  29.267  1.00  0.00     0.013 C 
ATOM     14  C   UNL A   1      34.083  32.807  27.956  1.00  0.00     0.001 C 
ATOM     15  C   UNL A   1      35.399  33.262  28.576  1.00  0.00     0.001 C 
ENDBRANCH   8  11
ENDBRANCH   6   7
ENDBRANCH   5   6
ENDBRANCH   3   5
ENDBRANCH   2   3
ENDBRANCH   1   2
BRANCH   1  16
ATOM     16  C   UNL A   1      37.742  33.065  32.844  1.00  0.00     0.275 C 
BRANCH  16  17
ATOM     17  O   UNL A   1      37.296  32.738  31.519  1.00  0.00    -0.458 OA
BRANCH  17  18
ATOM     18  C   UNL A   1      37.053  31.417  31.318  1.00  0.00     0.338 C 
ATOM     19  O   UNL A   1      36.002  30.837  31.514  1.00  0.00    -0.246 OA
BRANCH  18  20
ATOM     20  C   UNL A   1      38.219  30.787  30.659  1.00  0.00     0.060 A 
ATOM     21  C   UNL A   1      39.199  30.230  31.489  1.00  0.00     0.016 A 
ATOM     22  C   UNL A   1      38.370  30.746  29.267  1.00  0.00     0.016 A 
ATOM     23  C   UNL A   1      40.349  29.674  30.934  1.00  0.00     0.010 A 
ATOM     24  C   UNL A   1      39.526  30.183  28.712  1.00  0.00     0.010 A 
ATOM     25  C   UNL A   1      40.535  29.671  29.545  1.00  0.00    -0.014 A 
BRANCH  25  26
ATOM     26  C   UNL A   1      41.836  29.219  28.992  1.00  0.00     0.031 A 
ATOM     27  C   UNL A   1      42.983  30.189  28.909  1.00  0.00     0.074 A 
ATOM     28  C   UNL A   1      42.011  27.935  28.626  1.00  0.00     0.049 A 
ATOM     29  N   UNL A   1      44.221  29.975  28.548  1.00  0.00    -0.248 NA
ATOM     30  C   UNL A   1      42.698  31.583  29.285  1.00  0.00     0.031 C 
ATOM     31  C   UNL A   1      40.979  26.899  28.657  1.00  0.00     0.029 A 
ATOM     32  N   UNL A   1      43.125  27.286  28.161  1.00  0.00    -0.354 N 
ATOM     33  C   UNL A   1      44.870  31.196  28.678  1.00  0.00     0.074 A 
ATOM     34  C   UNL A   1      43.876  32.160  29.100  1.00  0.00     0.031 C 
ATOM     35  C   UNL A   1      41.509  25.742  28.223  1.00  0.00     0.029 A 
ATOM     36  C   UNL A   1      42.914  25.957  27.881  1.00  0.00     0.049 A 
ATOM     37  H   UNL A   1      43.995  27.730  28.038  1.00  0.00     0.167 HD
ATOM     38  C   UNL A   1      46.181  31.484  28.487  1.00  0.00     0.037 A 
ATOM     39  C   UNL A   1      43.757  25.020  27.405  1.00  0.00     0.037 A 
ATOM     40  C   UNL A   1      47.170  30.532  28.055  1.00  0.00     0.049 A 
ATOM     41  C   UNL A   1      45.200  25.377  27.159  1.00  0.00     0.074 A 
ATOM     42  C   UNL A   1      48.523  30.732  27.840  1.00  0.00     0.029 A 
ATOM     43  N   UNL A   1      46.914  29.201  27.766  1.00  0.00    -0.354 N 
ATOM     44  N   UNL A   1      45.809  26.526  27.335  1.00  0.00    -0.248 NA
ATOM     45  C   UNL A   1      46.076  24.304  26.668  1.00  0.00     0.031 C 
ATOM     46  C   UNL A   1      49.078  29.530  27.387  1.00  0.00     0.029 A 
ATOM     47  C   UNL A   1      48.079  28.572  27.358  1.00  0.00     0.049 A 
ATOM     48  H   UNL A   1      46.033  28.767  27.838  1.00  0.00     0.167 HD
ATOM     49  C   UNL A   1      47.140  26.308  26.995  1.00  0.00     0.074 A 
ATOM     50  C   UNL A   1      47.253  24.912  26.624  1.00  0.00     0.031 C 
ATOM     51  C   UNL A   1      48.177  27.182  26.988  1.00  0.00     0.037 A 
BRANCH  38  52
ATOM     52  C   UNL A   1      46.624  32.895  28.755  1.00  0.00     0.058 A 
ATOM     53  C   UNL A   1      46.611  33.867  27.742  1.00  0.00     0.135 A 
ATOM     54  C   UNL A   1      47.018  33.293  30.042  1.00  0.00     0.135 A 
ATOM     55  F   UNL A   1      46.260  33.533  26.491  1.00  0.00    -0.206 F 
ATOM     56  C   UNL A   1      46.987  35.182  27.992  1.00  0.00     0.059 A 
ATOM     57  C   UNL A   1      47.378  34.608  30.321  1.00  0.00     0.059 A 
ATOM     58  F   UNL A   1      47.052  32.400  31.045  1.00  0.00    -0.206 F 
ATOM     59  C   UNL A   1      47.368  35.544  29.286  1.00  0.00     0.060 A 
BRANCH  59  60
ATOM     60  S   UNL A   1      47.834  37.259  29.599  1.00  0.00     0.124 S 
ATOM     61  O   UNL A   1      46.713  37.979  29.000  1.00  0.00    -0.237 OA
ATOM     62  O   UNL A   1      47.908  37.303  31.056  1.00  0.00    -0.237 OA
ATOM     63  O   UNL A   1      49.110  37.397  28.905  1.00  0.00    -0.744 OA
ENDBRANCH  59  60
ENDBRANCH  38  52
BRANCH  39  64
ATOM     64  C   UNL A   1      43.264  23.647  27.123  1.00  0.00     0.058 A 
ATOM     65  C   UNL A   1      43.058  22.719  28.153  1.00  0.00     0.135 A 
ATOM     66  C   UNL A   1      43.019  23.230  25.806  1.00  0.00     0.135 A 
ATOM     67  F   UNL A   1      43.288  23.071  29.428  1.00  0.00    -0.206 F 
ATOM     68  C   UNL A   1      42.653  21.415  27.889  1.00  0.00     0.059 A 
ATOM     69  C   UNL A   1      42.592  21.938  25.517  1.00  0.00     0.059 A 
ATOM     70  F   UNL A   1      43.187  24.086  24.785  1.00  0.00    -0.206 F 
ATOM     71  C   UNL A   1      42.427  21.032  26.565  1.00  0.00     0.060 A 
BRANCH  71  72
ATOM     72  S   UNL A   1      41.878  19.346  26.225  1.00  0.00     0.124 S 
ATOM     73  O   UNL A   1      42.651  19.022  25.033  1.00  0.00    -0.237 OA
ATOM     74  O   UNL A   1      42.261  18.645  27.446  1.00  0.00    -0.237 OA
ATOM     75  O   UNL A   1      40.440  19.499  26.026  1.00  0.00    -0.744 OA
ENDBRANCH  71  72
ENDBRANCH  39  64
BRANCH  51  76
ATOM     76  C   UNL A   1      49.524  26.649  26.584  1.00  0.00     0.058 A 
ATOM     77  C   UNL A   1      50.398  26.074  27.520  1.00  0.00     0.135 A 
ATOM     78  C   UNL A   1      49.940  26.698  25.244  1.00  0.00     0.135 A 
ATOM     79  F   UNL A   1      50.052  26.006  28.815  1.00  0.00    -0.206 F 
ATOM     80  C   UNL A   1      51.653  25.602  27.148  1.00  0.00     0.059 A 
ATOM     81  C   UNL A   1      51.180  26.208  24.845  1.00  0.00     0.059 A 
ATOM     82  F   UNL A   1      49.136  27.224  24.305  1.00  0.00    -0.206 F 
ATOM     83  C   UNL A   1      52.037  25.679  25.808  1.00  0.00     0.060 A 
BRANCH  83  84
ATOM     84  S   UNL A   1      53.668  25.064  25.334  1.00  0.00     0.124 S 
ATOM     85  O   UNL A   1      53.423  23.629  25.242  1.00  0.00    -0.237 OA
ATOM     86  O   UNL A   1      53.908  25.749  24.067  1.00  0.00    -0.237 OA
ATOM     87  O   UNL A   1      54.523  25.487  26.439  1.00  0.00    -0.744 OA
ENDBRANCH  83  84
ENDBRANCH  51  76
ENDBRANCH  25  26
ENDBRANCH  18  20
ENDBRANCH  17  18
ENDBRANCH  16  17
ENDBRANCH   1  16
TORSDOF 17
ENDMDL
