MODEL 1
REMARK VINA RESULT:     -10.6      0.000      0.000
REMARK SMILES CCOC(=O)NC(=O)C[N@H+]1CC[C@@H](C(=O)OCCOC(=O)c2ccc(-c3c4nc(c(-c5c(F)cc(S(=O)(=O)[O-])cc5F)c5ccc([nH]5)c(-c5c(F)cc(S(=O)(=O)[O-])cc5F)c5nc(c(-c6c(F)cc(S(=O)(=O)[O-])cc6F)c6ccc3[nH]6)C=C5)C=C4)cc2)[C@@H]1C
REMARK SMILES IDX 17 1 16 2 14 3 15 4 13 5 10 6 11 7 88 8 12 10 89 11 9 12
REMARK SMILES IDX 7 13 4 14 5 15 6 16 8 18 3 19 2 20 1 21 18 22 19 23 20 24
REMARK SMILES IDX 21 25 22 26 23 27 87 28 24 29 86 30 25 31 26 32 27 33 80 34
REMARK SMILES IDX 28 35 85 36 79 37 81 38 29 39 84 40 78 41 77 42 30 44 64 45
REMARK SMILES IDX 43 46 63 47 44 48 47 49 62 50 82 51 45 52 46 53 61 55 83 56
REMARK SMILES IDX 48 57 31 58 32 59 41 60 33 61 34 62 40 63 42 64 35 65 36 66
REMARK SMILES IDX 37 67 38 68 39 69 65 70 66 71 75 72 67 73 68 74 74 75 76 76
REMARK SMILES IDX 69 77 70 78 71 79 72 80 73 81 49 82 50 83 59 84 51 85 52 86
REMARK SMILES IDX 58 87 60 88 53 89 54 90 55 91 56 92 57 93
REMARK H PARENT 10 9 6 17 81 43 47 54
REMARK Flexibility Score: inf
ROOT
ATOM      1  C   UNL A   1      33.239  30.711  27.284  1.00  0.00     0.274 C 
ENDROOT
BRANCH   1   2
ATOM      2  O   UNL A   1      33.359  29.651  26.299  1.00  0.00    -0.462 OA
BRANCH   2   3
ATOM      3  C   UNL A   1      32.185  29.199  25.784  1.00  0.00     0.315 C 
ATOM      4  O   UNL A   1      31.355  29.921  25.240  1.00  0.00    -0.252 OA
BRANCH   3   5
ATOM      5  C   UNL A   1      31.898  27.726  26.030  1.00  0.00     0.162 C 
ATOM      6  N   UNL A   1      32.418  25.802  24.665  1.00  0.00    -0.324 N 
ATOM      7  C   UNL A   1      33.227  25.709  25.873  1.00  0.00     0.264 C 
ATOM      8  C   UNL A   1      31.418  26.851  24.870  1.00  0.00     0.195 C 
ATOM      9  H   UNL A   1      31.949  24.905  24.540  1.00  0.00     0.348 HD
ATOM     10  C   UNL A   1      33.186  27.078  26.521  1.00  0.00     0.083 C 
ATOM     11  C   UNL A   1      30.107  26.118  25.192  1.00  0.00     0.076 C 
BRANCH   6  12
ATOM     12  C   UNL A   1      33.128  25.841  23.380  1.00  0.00     0.364 C 
BRANCH  12  13
ATOM     13  C   UNL A   1      32.380  25.241  22.198  1.00  0.00     0.284 C 
ATOM     14  C   UNL A   1      32.601  22.723  22.684  1.00  0.00     0.414 C 
ATOM     15  O   UNL A   1      32.276  21.646  22.193  1.00  0.00    -0.224 OA
ATOM     16  N   UNL A   1      32.385  23.882  21.961  1.00  0.00    -0.256 N 
ATOM     17  H   UNL A   1      32.175  23.683  21.021  1.00  0.00     0.176 HD
ATOM     18  O   UNL A   1      31.759  25.953  21.398  1.00  0.00    -0.268 OA
BRANCH  14  19
ATOM     19  O   UNL A   1      33.101  22.890  23.930  1.00  0.00    -0.450 OA
BRANCH  19  20
ATOM     20  C   UNL A   1      34.418  22.349  24.178  1.00  0.00     0.231 C 
ATOM     21  C   UNL A   1      34.362  21.419  25.377  1.00  0.00     0.049 C 
ENDBRANCH  19  20
ENDBRANCH  14  19
ENDBRANCH  12  13
ENDBRANCH   6  12
ENDBRANCH   3   5
ENDBRANCH   2   3
ENDBRANCH   1   2
BRANCH   1  22
ATOM     22  C   UNL A   1      34.585  31.347  27.634  1.00  0.00     0.275 C 
BRANCH  22  23
ATOM     23  O   UNL A   1      35.429  30.352  28.222  1.00  0.00    -0.458 OA
BRANCH  23  24
ATOM     24  C   UNL A   1      36.157  30.755  29.289  1.00  0.00     0.338 C 
ATOM     25  O   UNL A   1      35.747  31.302  30.297  1.00  0.00    -0.246 OA
BRANCH  24  26
ATOM     26  C   UNL A   1      37.563  30.346  29.093  1.00  0.00     0.060 A 
ATOM     27  C   UNL A   1      38.029  30.020  27.817  1.00  0.00     0.016 A 
ATOM     28  C   UNL A   1      38.395  30.186  30.200  1.00  0.00     0.016 A 
ATOM     29  C   UNL A   1      39.306  29.503  27.643  1.00  0.00     0.010 A 
ATOM     30  C   UNL A   1      39.712  29.754  30.013  1.00  0.00     0.010 A 
ATOM     31  C   UNL A   1      40.178  29.405  28.734  1.00  0.00    -0.014 A 
BRANCH  31  32
ATOM     32  C   UNL A   1      41.592  28.998  28.523  1.00  0.00     0.031 A 
ATOM     33  C   UNL A   1      42.703  30.007  28.587  1.00  0.00     0.074 A 
ATOM     34  C   UNL A   1      41.863  27.708  28.236  1.00  0.00     0.049 A 
ATOM     35  N   UNL A   1      43.968  29.860  28.285  1.00  0.00    -0.248 NA
ATOM     36  C   UNL A   1      42.348  31.363  29.034  1.00  0.00     0.031 C 
ATOM     37  C   UNL A   1      40.871  26.632  28.151  1.00  0.00     0.029 A 
ATOM     38  N   UNL A   1      43.051  27.081  27.959  1.00  0.00    -0.354 N 
ATOM     39  C   UNL A   1      44.553  31.109  28.465  1.00  0.00     0.074 A 
ATOM     40  C   UNL A   1      43.499  32.007  28.892  1.00  0.00     0.031 C 
ATOM     41  C   UNL A   1      41.491  25.478  27.870  1.00  0.00     0.029 A 
ATOM     42  C   UNL A   1      42.910  25.744  27.669  1.00  0.00     0.049 A 
ATOM     43  H   UNL A   1      43.920  27.543  27.964  1.00  0.00     0.167 HD
ATOM     44  C   UNL A   1      45.848  31.468  28.291  1.00  0.00     0.037 A 
ATOM     45  C   UNL A   1      43.809  24.837  27.245  1.00  0.00     0.037 A 
ATOM     46  C   UNL A   1      46.891  30.556  27.885  1.00  0.00     0.049 A 
ATOM     47  C   UNL A   1      45.230  25.268  27.031  1.00  0.00     0.074 A 
ATOM     48  C   UNL A   1      48.240  30.814  27.708  1.00  0.00     0.029 A 
ATOM     49  N   UNL A   1      46.705  29.212  27.590  1.00  0.00    -0.354 N 
ATOM     50  N   UNL A   1      45.766  26.454  27.200  1.00  0.00    -0.248 NA
ATOM     51  C   UNL A   1      46.167  24.241  26.563  1.00  0.00     0.031 C 
ATOM     52  C   UNL A   1      48.859  29.642  27.259  1.00  0.00     0.029 A 
ATOM     53  C   UNL A   1      47.909  28.635  27.213  1.00  0.00     0.049 A 
ATOM     54  H   UNL A   1      45.844  28.737  27.643  1.00  0.00     0.167 HD
ATOM     55  C   UNL A   1      47.108  26.312  26.872  1.00  0.00     0.074 A 
ATOM     56  C   UNL A   1      47.305  24.918  26.524  1.00  0.00     0.031 C 
ATOM     57  C   UNL A   1      48.088  27.250  26.854  1.00  0.00     0.037 A 
BRANCH  44  58
ATOM     58  C   UNL A   1      46.216  32.912  28.510  1.00  0.00     0.058 A 
ATOM     59  C   UNL A   1      46.649  33.392  29.757  1.00  0.00     0.135 A 
ATOM     60  C   UNL A   1      46.184  33.822  27.439  1.00  0.00     0.135 A 
ATOM     61  F   UNL A   1      46.684  32.573  30.820  1.00  0.00    -0.206 F 
ATOM     62  C   UNL A   1      47.016  34.722  29.939  1.00  0.00     0.059 A 
ATOM     63  C   UNL A   1      46.574  35.149  27.591  1.00  0.00     0.059 A 
ATOM     64  F   UNL A   1      45.777  33.422  26.224  1.00  0.00    -0.206 F 
ATOM     65  C   UNL A   1      46.978  35.593  28.849  1.00  0.00     0.060 A 
BRANCH  65  66
ATOM     66  S   UNL A   1      47.472  37.312  29.100  1.00  0.00     0.124 S 
ATOM     67  O   UNL A   1      46.633  37.693  30.232  1.00  0.00    -0.237 OA
ATOM     68  O   UNL A   1      48.898  37.188  29.381  1.00  0.00    -0.237 OA
ATOM     69  O   UNL A   1      47.139  37.952  27.831  1.00  0.00    -0.744 OA
ENDBRANCH  65  66
ENDBRANCH  44  58
BRANCH  45  70
ATOM     70  C   UNL A   1      43.377  23.441  26.970  1.00  0.00     0.058 A 
ATOM     71  C   UNL A   1      43.184  22.990  25.656  1.00  0.00     0.135 A 
ATOM     72  C   UNL A   1      43.171  22.522  28.012  1.00  0.00     0.135 A 
ATOM     73  F   UNL A   1      43.360  23.832  24.626  1.00  0.00    -0.206 F 
ATOM     74  C   UNL A   1      42.788  21.686  25.385  1.00  0.00     0.059 A 
ATOM     75  C   UNL A   1      42.810  21.203  27.766  1.00  0.00     0.059 A 
ATOM     76  F   UNL A   1      43.359  22.899  29.288  1.00  0.00    -0.206 F 
ATOM     77  C   UNL A   1      42.609  20.797  26.447  1.00  0.00     0.060 A 
BRANCH  77  78
ATOM     78  S   UNL A   1      42.148  19.091  26.080  1.00  0.00     0.124 S 
ATOM     79  O   UNL A   1      42.520  18.415  27.317  1.00  0.00    -0.237 OA
ATOM     80  O   UNL A   1      40.716  19.209  25.821  1.00  0.00    -0.237 OA
ATOM     81  O   UNL A   1      42.963  18.767  24.913  1.00  0.00    -0.744 OA
ENDBRANCH  77  78
ENDBRANCH  45  70
BRANCH  57  82
ATOM     82  C   UNL A   1      49.465  26.781  26.470  1.00  0.00     0.058 A 
ATOM     83  C   UNL A   1      49.944  26.891  25.153  1.00  0.00     0.135 A 
ATOM     84  C   UNL A   1      50.309  26.193  27.425  1.00  0.00     0.135 A 
ATOM     85  F   UNL A   1      49.175  27.439  24.199  1.00  0.00    -0.206 F 
ATOM     86  C   UNL A   1      51.187  26.385  24.787  1.00  0.00     0.059 A 
ATOM     87  C   UNL A   1      51.571  25.712  27.089  1.00  0.00     0.059 A 
ATOM     88  F   UNL A   1      49.909  26.074  28.701  1.00  0.00    -0.206 F 
ATOM     89  C   UNL A   1      51.990  25.790  25.761  1.00  0.00     0.060 A 
BRANCH  89  90
ATOM     90  S   UNL A   1      53.591  25.116  25.271  1.00  0.00     0.124 S 
ATOM     91  O   UNL A   1      53.342  23.680  25.355  1.00  0.00    -0.237 OA
ATOM     92  O   UNL A   1      53.757  25.651  23.923  1.00  0.00    -0.237 OA
ATOM     93  O   UNL A   1      54.508  25.655  26.270  1.00  0.00    -0.744 OA
ENDBRANCH  89  90
ENDBRANCH  57  82
ENDBRANCH  31  32
ENDBRANCH  24  26
ENDBRANCH  23  24
ENDBRANCH  22  23
ENDBRANCH   1  22
TORSDOF 18
ENDMDL
MODEL 2
REMARK VINA RESULT:     -10.5      2.613      3.689
REMARK SMILES CCOC(=O)NC(=O)C[N@H+]1CC[C@@H](C(=O)OCCOC(=O)c2ccc(-c3c4nc(c(-c5c(F)cc(S(=O)(=O)[O-])cc5F)c5ccc([nH]5)c(-c5c(F)cc(S(=O)(=O)[O-])cc5F)c5nc(c(-c6c(F)cc(S(=O)(=O)[O-])cc6F)c6ccc3[nH]6)C=C5)C=C4)cc2)[C@@H]1C
REMARK SMILES IDX 17 1 16 2 14 3 15 4 13 5 10 6 11 7 88 8 12 10 89 11 9 12
REMARK SMILES IDX 7 13 4 14 5 15 6 16 8 18 3 19 2 20 1 21 18 22 19 23 20 24
REMARK SMILES IDX 21 25 22 26 23 27 87 28 24 29 86 30 25 31 26 32 27 33 80 34
REMARK SMILES IDX 28 35 85 36 79 37 81 38 29 39 84 40 78 41 77 42 30 44 64 45
REMARK SMILES IDX 43 46 63 47 44 48 47 49 62 50 82 51 45 52 46 53 61 55 83 56
REMARK SMILES IDX 48 57 31 58 32 59 41 60 33 61 34 62 40 63 42 64 35 65 36 66
REMARK SMILES IDX 37 67 38 68 39 69 65 70 66 71 75 72 67 73 68 74 74 75 76 76
REMARK SMILES IDX 69 77 70 78 71 79 72 80 73 81 49 82 50 83 59 84 51 85 52 86
REMARK SMILES IDX 58 87 60 88 53 89 54 90 55 91 56 92 57 93
REMARK H PARENT 10 9 6 17 81 43 47 54
REMARK Flexibility Score: inf
ROOT
ATOM      1  C   UNL A   1      33.808  28.041  25.499  1.00  0.00     0.274 C 
ENDROOT
BRANCH   1   2
ATOM      2  O   UNL A   1      33.030  26.974  24.898  1.00  0.00    -0.462 OA
BRANCH   2   3
ATOM      3  C   UNL A   1      33.076  25.781  25.550  1.00  0.00     0.315 C 
ATOM      4  O   UNL A   1      32.311  25.470  26.458  1.00  0.00    -0.252 OA
BRANCH   3   5
ATOM      5  C   UNL A   1      34.234  24.876  25.158  1.00  0.00     0.162 C 
ATOM      6  N   UNL A   1      34.204  22.650  24.220  1.00  0.00    -0.324 N 
ATOM      7  C   UNL A   1      34.733  23.545  23.199  1.00  0.00     0.264 C 
ATOM      8  C   UNL A   1      34.162  23.383  25.486  1.00  0.00     0.195 C 
ATOM      9  H   UNL A   1      34.849  21.864  24.304  1.00  0.00     0.348 HD
ATOM     10  C   UNL A   1      34.390  24.952  23.645  1.00  0.00     0.083 C 
ATOM     11  C   UNL A   1      35.382  22.901  26.286  1.00  0.00     0.076 C 
BRANCH   6  12
ATOM     12  C   UNL A   1      32.996  21.886  23.886  1.00  0.00     0.364 C 
BRANCH  12  13
ATOM     13  C   UNL A   1      32.128  21.479  25.068  1.00  0.00     0.284 C 
ATOM     14  C   UNL A   1      32.729  18.986  25.300  1.00  0.00     0.414 C 
ATOM     15  O   UNL A   1      32.439  18.018  25.996  1.00  0.00    -0.224 OA
ATOM     16  N   UNL A   1      32.009  20.158  25.448  1.00  0.00    -0.256 N 
ATOM     17  H   UNL A   1      31.186  20.009  25.967  1.00  0.00     0.176 HD
ATOM     18  O   UNL A   1      31.485  22.314  25.716  1.00  0.00    -0.268 OA
BRANCH  14  19
ATOM     19  O   UNL A   1      33.764  19.036  24.430  1.00  0.00    -0.450 OA
BRANCH  19  20
ATOM     20  C   UNL A   1      34.584  17.850  24.332  1.00  0.00     0.231 C 
ATOM     21  C   UNL A   1      34.106  17.003  23.165  1.00  0.00     0.049 C 
ENDBRANCH  19  20
ENDBRANCH  14  19
ENDBRANCH  12  13
ENDBRANCH   6  12
ENDBRANCH   3   5
ENDBRANCH   2   3
ENDBRANCH   1   2
BRANCH   1  22
ATOM     22  C   UNL A   1      32.988  28.903  26.458  1.00  0.00     0.275 C 
BRANCH  22  23
ATOM     23  O   UNL A   1      33.706  29.042  27.688  1.00  0.00    -0.458 OA
BRANCH  23  24
ATOM     24  C   UNL A   1      34.368  30.210  27.854  1.00  0.00     0.338 C 
ATOM     25  O   UNL A   1      33.898  31.332  27.836  1.00  0.00    -0.246 OA
BRANCH  24  26
ATOM     26  C   UNL A   1      35.785  29.921  28.156  1.00  0.00     0.060 A 
ATOM     27  C   UNL A   1      36.760  30.074  27.167  1.00  0.00     0.016 A 
ATOM     28  C   UNL A   1      36.132  29.395  29.399  1.00  0.00     0.016 A 
ATOM     29  C   UNL A   1      38.070  29.673  27.399  1.00  0.00     0.010 A 
ATOM     30  C   UNL A   1      37.468  29.079  29.664  1.00  0.00     0.010 A 
ATOM     31  C   UNL A   1      38.448  29.211  28.666  1.00  0.00    -0.014 A 
BRANCH  31  32
ATOM     32  C   UNL A   1      39.878  28.928  28.958  1.00  0.00     0.031 A 
ATOM     33  C   UNL A   1      40.775  29.995  29.523  1.00  0.00     0.074 A 
ATOM     34  C   UNL A   1      40.372  27.706  28.677  1.00  0.00     0.049 A 
ATOM     35  N   UNL A   1      42.072  29.971  29.700  1.00  0.00    -0.248 NA
ATOM     36  C   UNL A   1      40.138  31.257  29.927  1.00  0.00     0.031 C 
ATOM     37  C   UNL A   1      39.600  26.585  28.132  1.00  0.00     0.029 A 
ATOM     38  N   UNL A   1      41.639  27.198  28.805  1.00  0.00    -0.354 N 
ATOM     39  C   UNL A   1      42.413  31.223  30.197  1.00  0.00     0.074 A 
ATOM     40  C   UNL A   1      41.186  31.989  30.281  1.00  0.00     0.031 C 
ATOM     41  C   UNL A   1      40.401  25.519  27.999  1.00  0.00     0.029 A 
ATOM     42  C   UNL A   1      41.758  25.901  28.364  1.00  0.00     0.049 A 
ATOM     43  H   UNL A   1      42.393  27.713  29.175  1.00  0.00     0.167 HD
ATOM     44  C   UNL A   1      43.636  31.687  30.549  1.00  0.00     0.037 A 
ATOM     45  C   UNL A   1      42.842  25.116  28.223  1.00  0.00     0.037 A 
ATOM     46  C   UNL A   1      44.847  30.905  30.479  1.00  0.00     0.049 A 
ATOM     47  C   UNL A   1      44.189  25.665  28.593  1.00  0.00     0.074 A 
ATOM     48  C   UNL A   1      46.133  31.273  30.840  1.00  0.00     0.029 A 
ATOM     49  N   UNL A   1      44.927  29.598  30.016  1.00  0.00    -0.354 N 
ATOM     50  N   UNL A   1      44.496  26.853  29.056  1.00  0.00    -0.248 NA
ATOM     51  C   UNL A   1      45.336  24.769  28.415  1.00  0.00     0.031 C 
ATOM     52  C   UNL A   1      46.995  30.209  30.549  1.00  0.00     0.029 A 
ATOM     53  C   UNL A   1      46.240  29.155  30.062  1.00  0.00     0.049 A 
ATOM     54  H   UNL A   1      44.162  29.064  29.701  1.00  0.00     0.167 HD
ATOM     55  C   UNL A   1      45.872  26.843  29.238  1.00  0.00     0.074 A 
ATOM     56  C   UNL A   1      46.331  25.520  28.864  1.00  0.00     0.031 C 
ATOM     57  C   UNL A   1      46.685  27.840  29.671  1.00  0.00     0.037 A 
BRANCH  44  58
ATOM     58  C   UNL A   1      43.742  33.115  31.020  1.00  0.00     0.058 A 
ATOM     59  C   UNL A   1      43.608  33.467  32.372  1.00  0.00     0.135 A 
ATOM     60  C   UNL A   1      44.035  34.142  30.106  1.00  0.00     0.135 A 
ATOM     61  F   UNL A   1      43.312  32.531  33.288  1.00  0.00    -0.206 F 
ATOM     62  C   UNL A   1      43.739  34.786  32.798  1.00  0.00     0.059 A 
ATOM     63  C   UNL A   1      44.199  35.463  30.513  1.00  0.00     0.059 A 
ATOM     64  F   UNL A   1      44.173  33.866  28.799  1.00  0.00    -0.206 F 
ATOM     65  C   UNL A   1      44.037  35.777  31.861  1.00  0.00     0.060 A 
BRANCH  65  66
ATOM     66  S   UNL A   1      44.218  37.480  32.434  1.00  0.00     0.124 S 
ATOM     67  O   UNL A   1      43.883  38.230  31.228  1.00  0.00    -0.237 OA
ATOM     68  O   UNL A   1      43.241  37.550  33.516  1.00  0.00    -0.237 OA
ATOM     69  O   UNL A   1      45.616  37.554  32.849  1.00  0.00    -0.744 OA
ENDBRANCH  65  66
ENDBRANCH  44  58
BRANCH  45  70
ATOM     70  C   UNL A   1      42.692  23.739  27.682  1.00  0.00     0.058 A 
ATOM     71  C   UNL A   1      42.514  22.643  28.538  1.00  0.00     0.135 A 
ATOM     72  C   UNL A   1      42.698  23.494  26.299  1.00  0.00     0.135 A 
ATOM     73  F   UNL A   1      42.508  22.824  29.868  1.00  0.00    -0.206 F 
ATOM     74  C   UNL A   1      42.364  21.352  28.045  1.00  0.00     0.059 A 
ATOM     75  C   UNL A   1      42.515  22.218  25.781  1.00  0.00     0.059 A 
ATOM     76  F   UNL A   1      42.848  24.512  25.436  1.00  0.00    -0.206 F 
ATOM     77  C   UNL A   1      42.360  21.150  26.664  1.00  0.00     0.060 A 
BRANCH  77  78
ATOM     78  S   UNL A   1      42.111  19.477  26.035  1.00  0.00     0.124 S 
ATOM     79  O   UNL A   1      40.670  19.460  25.812  1.00  0.00    -0.237 OA
ATOM     80  O   UNL A   1      42.943  19.472  24.836  1.00  0.00    -0.237 OA
ATOM     81  O   UNL A   1      42.591  18.633  27.126  1.00  0.00    -0.744 OA
ENDBRANCH  77  78
ENDBRANCH  45  70
BRANCH  57  82
ATOM     82  C   UNL A   1      48.151  27.515  29.785  1.00  0.00     0.058 A 
ATOM     83  C   UNL A   1      48.714  27.052  30.986  1.00  0.00     0.135 A 
ATOM     84  C   UNL A   1      49.006  27.689  28.686  1.00  0.00     0.135 A 
ATOM     85  F   UNL A   1      47.941  26.874  32.070  1.00  0.00    -0.206 F 
ATOM     86  C   UNL A   1      50.081  26.826  31.109  1.00  0.00     0.059 A 
ATOM     87  C   UNL A   1      50.372  27.436  28.776  1.00  0.00     0.059 A 
ATOM     88  F   UNL A   1      48.520  28.116  27.510  1.00  0.00    -0.206 F 
ATOM     89  C   UNL A   1      50.903  27.029  29.999  1.00  0.00     0.060 A 
BRANCH  89  90
ATOM     90  S   UNL A   1      52.679  26.757  30.175  1.00  0.00     0.124 S 
ATOM     91  O   UNL A   1      52.715  25.690  31.171  1.00  0.00    -0.237 OA
ATOM     92  O   UNL A   1      53.074  26.376  28.823  1.00  0.00    -0.237 OA
ATOM     93  O   UNL A   1      53.178  28.053  30.626  1.00  0.00    -0.744 OA
ENDBRANCH  89  90
ENDBRANCH  57  82
ENDBRANCH  31  32
ENDBRANCH  24  26
ENDBRANCH  23  24
ENDBRANCH  22  23
ENDBRANCH   1  22
TORSDOF 18
ENDMDL
MODEL 3
REMARK VINA RESULT:     -10.4      6.777     12.160
REMARK SMILES CCOC(=O)NC(=O)C[N@H+]1CC[C@@H](C(=O)OCCOC(=O)c2ccc(-c3c4nc(c(-c5c(F)cc(S(=O)(=O)[O-])cc5F)c5ccc([nH]5)c(-c5c(F)cc(S(=O)(=O)[O-])cc5F)c5nc(c(-c6c(F)cc(S(=O)(=O)[O-])cc6F)c6ccc3[nH]6)C=C5)C=C4)cc2)[C@@H]1C
REMARK SMILES IDX 17 1 16 2 14 3 15 4 13 5 10 6 11 7 88 8 12 10 89 11 9 12
REMARK SMILES IDX 7 13 4 14 5 15 6 16 8 18 3 19 2 20 1 21 18 22 19 23 20 24
REMARK SMILES IDX 21 25 22 26 23 27 87 28 24 29 86 30 25 31 26 32 27 33 80 34
REMARK SMILES IDX 28 35 85 36 79 37 81 38 29 39 84 40 78 41 77 42 30 44 64 45
REMARK SMILES IDX 43 46 63 47 44 48 47 49 62 50 82 51 45 52 46 53 61 55 83 56
REMARK SMILES IDX 48 57 31 58 32 59 41 60 33 61 34 62 40 63 42 64 35 65 36 66
REMARK SMILES IDX 37 67 38 68 39 69 65 70 66 71 75 72 67 73 68 74 74 75 76 76
REMARK SMILES IDX 69 77 70 78 71 79 72 80 73 81 49 82 50 83 59 84 51 85 52 86
REMARK SMILES IDX 58 87 60 88 53 89 54 90 55 91 56 92 57 93
REMARK H PARENT 10 9 6 17 81 43 47 54
REMARK Flexibility Score: inf
ROOT
ATOM      1  C   UNL A   1      38.036  22.227  25.424  1.00  0.00     0.274 C 
ENDROOT
BRANCH   1   2
ATOM      2  O   UNL A   1      37.110  21.198  25.862  1.00  0.00    -0.462 OA
BRANCH   2   3
ATOM      3  C   UNL A   1      35.831  21.340  25.423  1.00  0.00     0.315 C 
ATOM      4  O   UNL A   1      35.117  20.399  25.088  1.00  0.00    -0.252 OA
BRANCH   3   5
ATOM      5  C   UNL A   1      35.361  22.777  25.257  1.00  0.00     0.162 C 
ATOM      6  N   UNL A   1      33.118  23.662  25.124  1.00  0.00    -0.324 N 
ATOM      7  C   UNL A   1      33.699  24.137  26.373  1.00  0.00     0.264 C 
ATOM      8  C   UNL A   1      34.192  23.079  24.318  1.00  0.00     0.195 C 
ATOM      9  H   UNL A   1      32.729  24.470  24.639  1.00  0.00     0.348 HD
ATOM     10  C   UNL A   1      34.924  23.282  26.626  1.00  0.00     0.083 C 
ATOM     11  C   UNL A   1      34.545  24.142  23.267  1.00  0.00     0.076 C 
BRANCH   6  12
ATOM     12  C   UNL A   1      31.886  22.868  25.213  1.00  0.00     0.364 C 
BRANCH  12  13
ATOM     13  C   UNL A   1      30.787  23.456  26.085  1.00  0.00     0.284 C 
ATOM     14  C   UNL A   1      30.055  25.484  24.677  1.00  0.00     0.414 C 
ATOM     15  O   UNL A   1      29.255  26.412  24.725  1.00  0.00    -0.224 OA
ATOM     16  N   UNL A   1      30.211  24.674  25.788  1.00  0.00    -0.256 N 
ATOM     17  H   UNL A   1      29.795  25.076  26.584  1.00  0.00     0.176 HD
ATOM     18  O   UNL A   1      30.386  22.874  27.101  1.00  0.00    -0.268 OA
BRANCH  14  19
ATOM     19  O   UNL A   1      30.767  25.127  23.583  1.00  0.00    -0.450 OA
BRANCH  19  20
ATOM     20  C   UNL A   1      31.674  26.118  23.050  1.00  0.00     0.231 C 
ATOM     21  C   UNL A   1      31.737  25.979  21.539  1.00  0.00     0.049 C 
ENDBRANCH  19  20
ENDBRANCH  14  19
ENDBRANCH  12  13
ENDBRANCH   6  12
ENDBRANCH   3   5
ENDBRANCH   2   3
ENDBRANCH   1   2
BRANCH   1  22
ATOM     22  C   UNL A   1      39.244  22.368  26.350  1.00  0.00     0.275 C 
BRANCH  22  23
ATOM     23  O   UNL A   1      39.313  23.719  26.818  1.00  0.00    -0.458 OA
BRANCH  23  24
ATOM     24  C   UNL A   1      40.555  24.252  26.892  1.00  0.00     0.338 C 
ATOM     25  O   UNL A   1      41.520  23.971  26.205  1.00  0.00    -0.246 OA
BRANCH  24  26
ATOM     26  C   UNL A   1      40.556  25.328  27.905  1.00  0.00     0.060 A 
ATOM     27  C   UNL A   1      39.425  25.549  28.696  1.00  0.00     0.016 A 
ATOM     28  C   UNL A   1      41.649  26.186  27.998  1.00  0.00     0.016 A 
ATOM     29  C   UNL A   1      39.366  26.642  29.552  1.00  0.00     0.010 A 
ATOM     30  C   UNL A   1      41.627  27.231  28.927  1.00  0.00     0.010 A 
ATOM     31  C   UNL A   1      40.484  27.471  29.709  1.00  0.00    -0.014 A 
BRANCH  31  32
ATOM     32  C   UNL A   1      40.474  28.546  30.736  1.00  0.00     0.031 A 
ATOM     33  C   UNL A   1      41.397  28.489  31.921  1.00  0.00     0.074 A 
ATOM     34  C   UNL A   1      39.597  29.562  30.608  1.00  0.00     0.049 A 
ATOM     35  N   UNL A   1      41.423  29.254  32.982  1.00  0.00    -0.248 NA
ATOM     36  C   UNL A   1      42.413  27.425  31.925  1.00  0.00     0.031 C 
ATOM     37  C   UNL A   1      38.653  29.732  29.499  1.00  0.00     0.029 A 
ATOM     38  N   UNL A   1      39.350  30.642  31.416  1.00  0.00    -0.354 N 
ATOM     39  C   UNL A   1      42.427  28.745  33.798  1.00  0.00     0.074 A 
ATOM     40  C   UNL A   1      42.979  27.594  33.113  1.00  0.00     0.031 C 
ATOM     41  C   UNL A   1      37.953  30.860  29.683  1.00  0.00     0.029 A 
ATOM     42  C   UNL A   1      38.332  31.447  30.961  1.00  0.00     0.049 A 
ATOM     43  H   UNL A   1      39.852  30.824  32.244  1.00  0.00     0.167 HD
ATOM     44  C   UNL A   1      42.846  29.198  35.004  1.00  0.00     0.037 A 
ATOM     45  C   UNL A   1      37.735  32.512  31.525  1.00  0.00     0.037 A 
ATOM     46  C   UNL A   1      42.299  30.358  35.665  1.00  0.00     0.049 A 
ATOM     47  C   UNL A   1      38.198  32.975  32.875  1.00  0.00     0.074 A 
ATOM     48  C   UNL A   1      42.675  30.917  36.876  1.00  0.00     0.029 A 
ATOM     49  N   UNL A   1      41.261  31.140  35.176  1.00  0.00    -0.354 N 
ATOM     50  N   UNL A   1      39.145  32.478  33.636  1.00  0.00    -0.248 NA
ATOM     51  C   UNL A   1      37.509  34.137  33.446  1.00  0.00     0.031 C 
ATOM     52  C   UNL A   1      41.832  32.003  37.142  1.00  0.00     0.029 A 
ATOM     53  C   UNL A   1      40.969  32.160  36.069  1.00  0.00     0.049 A 
ATOM     54  H   UNL A   1      40.799  30.991  34.319  1.00  0.00     0.167 HD
ATOM     55  C   UNL A   1      39.174  33.277  34.771  1.00  0.00     0.074 A 
ATOM     56  C   UNL A   1      38.171  34.307  34.581  1.00  0.00     0.031 C 
ATOM     57  C   UNL A   1      39.957  33.168  35.875  1.00  0.00     0.037 A 
BRANCH  44  58
ATOM     58  C   UNL A   1      43.932  28.427  35.709  1.00  0.00     0.058 A 
ATOM     59  C   UNL A   1      45.294  28.704  35.509  1.00  0.00     0.135 A 
ATOM     60  C   UNL A   1      43.602  27.429  36.642  1.00  0.00     0.135 A 
ATOM     61  F   UNL A   1      45.671  29.635  34.619  1.00  0.00    -0.206 F 
ATOM     62  C   UNL A   1      46.288  28.005  36.191  1.00  0.00     0.059 A 
ATOM     63  C   UNL A   1      44.577  26.738  37.356  1.00  0.00     0.059 A 
ATOM     64  F   UNL A   1      42.316  27.120  36.874  1.00  0.00    -0.206 F 
ATOM     65  C   UNL A   1      45.918  27.026  37.114  1.00  0.00     0.060 A 
BRANCH  65  66
ATOM     66  S   UNL A   1      47.220  26.141  38.000  1.00  0.00     0.124 S 
ATOM     67  O   UNL A   1      47.375  24.948  37.173  1.00  0.00    -0.237 OA
ATOM     68  O   UNL A   1      48.328  27.090  37.956  1.00  0.00    -0.237 OA
ATOM     69  O   UNL A   1      46.642  25.916  39.321  1.00  0.00    -0.744 OA
ENDBRANCH  65  66
ENDBRANCH  44  58
BRANCH  45  70
ATOM     70  C   UNL A   1      36.615  33.191  30.819  1.00  0.00     0.058 A 
ATOM     71  C   UNL A   1      35.284  32.979  31.206  1.00  0.00     0.135 A 
ATOM     72  C   UNL A   1      36.854  34.083  29.761  1.00  0.00     0.135 A 
ATOM     73  F   UNL A   1      35.004  32.130  32.207  1.00  0.00    -0.206 F 
ATOM     74  C   UNL A   1      34.229  33.613  30.561  1.00  0.00     0.059 A 
ATOM     75  C   UNL A   1      35.819  34.756  29.124  1.00  0.00     0.059 A 
ATOM     76  F   UNL A   1      38.112  34.334  29.364  1.00  0.00    -0.206 F 
ATOM     77  C   UNL A   1      34.507  34.505  29.523  1.00  0.00     0.060 A 
BRANCH  77  78
ATOM     78  S   UNL A   1      33.133  35.364  28.728  1.00  0.00     0.124 S 
ATOM     79  O   UNL A   1      33.835  36.354  27.921  1.00  0.00    -0.237 OA
ATOM     80  O   UNL A   1      32.480  34.285  27.994  1.00  0.00    -0.237 OA
ATOM     81  O   UNL A   1      32.371  35.894  29.856  1.00  0.00    -0.744 OA
ENDBRANCH  77  78
ENDBRANCH  45  70
BRANCH  57  82
ATOM     82  C   UNL A   1      39.767  34.211  36.943  1.00  0.00     0.058 A 
ATOM     83  C   UNL A   1      40.366  35.479  36.853  1.00  0.00     0.135 A 
ATOM     84  C   UNL A   1      38.996  33.932  38.082  1.00  0.00     0.135 A 
ATOM     85  F   UNL A   1      41.120  35.796  35.787  1.00  0.00    -0.206 F 
ATOM     86  C   UNL A   1      40.252  36.412  37.878  1.00  0.00     0.059 A 
ATOM     87  C   UNL A   1      38.839  34.863  39.104  1.00  0.00     0.059 A 
ATOM     88  F   UNL A   1      38.390  32.742  38.214  1.00  0.00    -0.206 F 
ATOM     89  C   UNL A   1      39.492  36.091  39.004  1.00  0.00     0.060 A 
BRANCH  89  90
ATOM     90  S   UNL A   1      39.370  37.298  40.340  1.00  0.00     0.124 S 
ATOM     91  O   UNL A   1      40.777  37.553  40.634  1.00  0.00    -0.237 OA
ATOM     92  O   UNL A   1      38.647  38.396  39.706  1.00  0.00    -0.237 OA
ATOM     93  O   UNL A   1      38.631  36.585  41.377  1.00  0.00    -0.744 OA
ENDBRANCH  89  90
ENDBRANCH  57  82
ENDBRANCH  31  32
ENDBRANCH  24  26
ENDBRANCH  23  24
ENDBRANCH  22  23
ENDBRANCH   1  22
TORSDOF 18
ENDMDL
