MODEL 1
REMARK VINA RESULT:     -10.4      0.000      0.000
REMARK SMILES N#CCSCC(=O)N1Cc2ccccc2C[C@@H]1C(=O)OCCOC(=O)c1ccc(-c2c3nc(c(-c4c(F)cc(S(=O)(=O)[O-])cc4F)c4ccc([nH]4)c(-c4c(F)cc(S(=O)(=O)[O-])cc4F)c4nc(c(-c5c(F)cc(S(=O)(=O)[O-])cc5F)c5ccc2[nH]5)C=C4)C=C3)cc1
REMARK SMILES IDX 21 1 20 2 18 3 19 4 17 5 8 6 9 7 10 8 16 9 11 10 15 11 12 12
REMARK SMILES IDX 14 13 13 14 6 15 7 16 5 17 4 18 3 19 2 20 1 21 22 22 23 23
REMARK SMILES IDX 24 24 25 25 26 26 27 27 91 28 28 29 90 30 29 31 30 32 31 33
REMARK SMILES IDX 84 34 32 35 89 36 83 37 85 38 33 39 88 40 82 41 81 42 34 44
REMARK SMILES IDX 68 45 47 46 67 47 48 48 51 49 66 50 86 51 49 52 50 53 65 55
REMARK SMILES IDX 87 56 52 57 35 58 36 59 45 60 37 61 38 62 44 63 46 64 39 65
REMARK SMILES IDX 40 66 41 67 42 68 43 69 69 70 70 71 79 72 71 73 72 74 78 75
REMARK SMILES IDX 80 76 73 77 74 78 75 79 76 80 77 81 53 82 54 83 63 84 55 85
REMARK SMILES IDX 56 86 62 87 64 88 57 89 58 90 59 91 60 92 61 93
REMARK H PARENT 85 43 51 54
REMARK Flexibility Score: inf
ROOT
ATOM      1  C   UNL A   1      31.966  27.087  26.817  1.00  0.00     0.274 C 
ENDROOT
BRANCH   1   2
ATOM      2  O   UNL A   1      32.411  25.880  26.165  1.00  0.00    -0.461 OA
BRANCH   2   3
ATOM      3  C   UNL A   1      31.515  24.861  26.147  1.00  0.00     0.329 C 
ATOM      4  O   UNL A   1      31.047  24.373  27.171  1.00  0.00    -0.250 OA
BRANCH   3   5
ATOM      5  C   UNL A   1      31.189  24.307  24.740  1.00  0.00     0.199 C 
ATOM      6  N   UNL A   1      32.448  23.929  24.085  1.00  0.00    -0.323 N 
ATOM      7  C   UNL A   1      33.095  24.924  23.209  1.00  0.00     0.156 C 
ATOM      8  C   UNL A   1      32.443  26.289  23.146  1.00  0.00    -0.025 A 
ATOM      9  C   UNL A   1      30.318  25.250  23.912  1.00  0.00     0.073 C 
ATOM     10  C   UNL A   1      33.172  27.413  22.740  1.00  0.00     0.006 A 
ATOM     11  C   UNL A   1      31.095  26.454  23.491  1.00  0.00    -0.040 A 
ATOM     12  C   UNL A   1      32.578  28.679  22.729  1.00  0.00     0.000 A 
ATOM     13  C   UNL A   1      30.498  27.720  23.471  1.00  0.00     0.004 A 
ATOM     14  C   UNL A   1      31.246  28.833  23.104  1.00  0.00     0.000 A 
BRANCH   6  15
ATOM     15  C   UNL A   1      33.160  22.775  24.396  1.00  0.00     0.233 C 
ATOM     16  O   UNL A   1      34.225  22.862  25.022  1.00  0.00    -0.274 OA
BRANCH  15  17
ATOM     17  C   UNL A   1      32.776  21.406  23.824  1.00  0.00     0.170 C 
BRANCH  17  18
ATOM     18  S   UNL A   1      33.450  19.878  24.535  1.00  0.00    -0.137 SA
BRANCH  18  19
ATOM     19  C   UNL A   1      32.477  18.568  23.704  1.00  0.00     0.189 C 
BRANCH  19  20
ATOM     20  C   UNL A   1      33.357  17.383  23.342  1.00  0.00     0.073 C 
ATOM     21  N   UNL A   1      34.088  16.400  23.042  1.00  0.00    -0.197 NA
ENDBRANCH  19  20
ENDBRANCH  18  19
ENDBRANCH  17  18
ENDBRANCH  15  17
ENDBRANCH   6  15
ENDBRANCH   3   5
ENDBRANCH   2   3
ENDBRANCH   1   2
BRANCH   1  22
ATOM     22  C   UNL A   1      32.819  28.319  26.487  1.00  0.00     0.275 C 
BRANCH  22  23
ATOM     23  O   UNL A   1      33.998  28.410  27.313  1.00  0.00    -0.458 OA
BRANCH  23  24
ATOM     24  C   UNL A   1      34.341  29.666  27.688  1.00  0.00     0.338 C 
ATOM     25  O   UNL A   1      33.600  30.630  27.781  1.00  0.00    -0.246 OA
BRANCH  24  26
ATOM     26  C   UNL A   1      35.738  29.720  28.152  1.00  0.00     0.060 A 
ATOM     27  C   UNL A   1      36.720  30.030  27.208  1.00  0.00     0.016 A 
ATOM     28  C   UNL A   1      36.108  29.301  29.429  1.00  0.00     0.016 A 
ATOM     29  C   UNL A   1      38.064  29.904  27.502  1.00  0.00     0.010 A 
ATOM     30  C   UNL A   1      37.469  29.168  29.733  1.00  0.00     0.010 A 
ATOM     31  C   UNL A   1      38.448  29.442  28.758  1.00  0.00    -0.014 A 
BRANCH  31  32
ATOM     32  C   UNL A   1      39.875  29.119  28.956  1.00  0.00     0.031 A 
ATOM     33  C   UNL A   1      40.760  30.128  29.626  1.00  0.00     0.074 A 
ATOM     34  C   UNL A   1      40.328  27.885  28.670  1.00  0.00     0.049 A 
ATOM     35  N   UNL A   1      42.042  30.070  29.867  1.00  0.00    -0.248 NA
ATOM     36  C   UNL A   1      40.111  31.363  30.100  1.00  0.00     0.031 C 
ATOM     37  C   UNL A   1      39.518  26.792  28.129  1.00  0.00     0.029 A 
ATOM     38  N   UNL A   1      41.575  27.339  28.819  1.00  0.00    -0.354 N 
ATOM     39  C   UNL A   1      42.362  31.271  30.489  1.00  0.00     0.074 A 
ATOM     40  C   UNL A   1      41.140  32.037  30.595  1.00  0.00     0.031 C 
ATOM     41  C   UNL A   1      40.292  25.703  27.993  1.00  0.00     0.029 A 
ATOM     42  C   UNL A   1      41.656  26.035  28.392  1.00  0.00     0.049 A 
ATOM     43  H   UNL A   1      42.340  27.832  29.194  1.00  0.00     0.167 HD
ATOM     44  C   UNL A   1      43.572  31.695  30.923  1.00  0.00     0.037 A 
ATOM     45  C   UNL A   1      42.722  25.218  28.305  1.00  0.00     0.037 A 
ATOM     46  C   UNL A   1      44.775  30.913  30.828  1.00  0.00     0.049 A 
ATOM     47  C   UNL A   1      44.066  25.732  28.738  1.00  0.00     0.074 A 
ATOM     48  C   UNL A   1      46.063  31.258  31.199  1.00  0.00     0.029 A 
ATOM     49  N   UNL A   1      44.834  29.619  30.332  1.00  0.00    -0.354 N 
ATOM     50  N   UNL A   1      44.374  26.901  29.249  1.00  0.00    -0.248 NA
ATOM     51  C   UNL A   1      45.209  24.825  28.570  1.00  0.00     0.031 C 
ATOM     52  C   UNL A   1      46.905  30.178  30.904  1.00  0.00     0.029 A 
ATOM     53  C   UNL A   1      46.136  29.151  30.379  1.00  0.00     0.049 A 
ATOM     54  H   UNL A   1      44.062  29.106  29.997  1.00  0.00     0.167 HD
ATOM     55  C   UNL A   1      45.746  26.872  29.463  1.00  0.00     0.074 A 
ATOM     56  C   UNL A   1      46.204  25.560  29.048  1.00  0.00     0.031 C 
ATOM     57  C   UNL A   1      46.559  27.842  29.951  1.00  0.00     0.037 A 
BRANCH  44  58
ATOM     58  C   UNL A   1      43.651  33.085  31.482  1.00  0.00     0.058 A 
ATOM     59  C   UNL A   1      43.819  34.209  30.658  1.00  0.00     0.135 A 
ATOM     60  C   UNL A   1      43.567  33.293  32.868  1.00  0.00     0.135 A 
ATOM     61  F   UNL A   1      43.932  34.061  29.328  1.00  0.00    -0.206 F 
ATOM     62  C   UNL A   1      43.925  35.490  31.191  1.00  0.00     0.059 A 
ATOM     63  C   UNL A   1      43.652  34.565  33.422  1.00  0.00     0.059 A 
ATOM     64  F   UNL A   1      43.417  32.250  33.699  1.00  0.00    -0.206 F 
ATOM     65  C   UNL A   1      43.846  35.657  32.576  1.00  0.00     0.060 A 
BRANCH  65  66
ATOM     66  S   UNL A   1      44.000  37.321  33.262  1.00  0.00     0.124 S 
ATOM     67  O   UNL A   1      44.149  38.121  32.050  1.00  0.00    -0.237 OA
ATOM     68  O   UNL A   1      42.738  37.485  33.978  1.00  0.00    -0.237 OA
ATOM     69  O   UNL A   1      45.187  37.229  34.105  1.00  0.00    -0.744 OA
ENDBRANCH  65  66
ENDBRANCH  44  58
BRANCH  45  70
ATOM     70  C   UNL A   1      42.564  23.852  27.743  1.00  0.00     0.058 A 
ATOM     71  C   UNL A   1      42.588  23.627  26.360  1.00  0.00     0.135 A 
ATOM     72  C   UNL A   1      42.401  22.742  28.587  1.00  0.00     0.135 A 
ATOM     73  F   UNL A   1      42.733  24.658  25.514  1.00  0.00    -0.206 F 
ATOM     74  C   UNL A   1      42.450  22.347  25.830  1.00  0.00     0.059 A 
ATOM     75  C   UNL A   1      42.283  21.452  28.081  1.00  0.00     0.059 A 
ATOM     76  F   UNL A   1      42.381  22.906  29.918  1.00  0.00    -0.206 F 
ATOM     77  C   UNL A   1      42.299  21.266  26.700  1.00  0.00     0.060 A 
BRANCH  77  78
ATOM     78  S   UNL A   1      42.179  19.599  26.014  1.00  0.00     0.124 S 
ATOM     79  O   UNL A   1      40.760  19.518  25.691  1.00  0.00    -0.237 OA
ATOM     80  O   UNL A   1      43.091  19.664  24.876  1.00  0.00    -0.237 OA
ATOM     81  O   UNL A   1      42.628  18.754  27.116  1.00  0.00    -0.744 OA
ENDBRANCH  77  78
ENDBRANCH  45  70
BRANCH  57  82
ATOM     82  C   UNL A   1      48.017  27.508  30.064  1.00  0.00     0.058 A 
ATOM     83  C   UNL A   1      48.910  27.783  29.017  1.00  0.00     0.135 A 
ATOM     84  C   UNL A   1      48.528  26.932  31.237  1.00  0.00     0.135 A 
ATOM     85  F   UNL A   1      48.464  28.328  27.875  1.00  0.00    -0.206 F 
ATOM     86  C   UNL A   1      50.260  27.472  29.119  1.00  0.00     0.059 A 
ATOM     87  C   UNL A   1      49.879  26.630  31.368  1.00  0.00     0.059 A 
ATOM     88  F   UNL A   1      47.712  26.661  32.268  1.00  0.00    -0.206 F 
ATOM     89  C   UNL A   1      50.735  26.891  30.297  1.00  0.00     0.060 A 
BRANCH  89  90
ATOM     90  S   UNL A   1      52.493  26.500  30.430  1.00  0.00     0.124 S 
ATOM     91  O   UNL A   1      52.473  25.386  31.371  1.00  0.00    -0.237 OA
ATOM     92  O   UNL A   1      52.848  26.163  29.055  1.00  0.00    -0.237 OA
ATOM     93  O   UNL A   1      53.074  27.741  30.934  1.00  0.00    -0.744 OA
ENDBRANCH  89  90
ENDBRANCH  57  82
ENDBRANCH  31  32
ENDBRANCH  24  26
ENDBRANCH  23  24
ENDBRANCH  22  23
ENDBRANCH   1  22
TORSDOF 19
ENDMDL
MODEL 2
REMARK VINA RESULT:     -10.3      2.815      8.689
REMARK SMILES N#CCSCC(=O)N1Cc2ccccc2C[C@@H]1C(=O)OCCOC(=O)c1ccc(-c2c3nc(c(-c4c(F)cc(S(=O)(=O)[O-])cc4F)c4ccc([nH]4)c(-c4c(F)cc(S(=O)(=O)[O-])cc4F)c4nc(c(-c5c(F)cc(S(=O)(=O)[O-])cc5F)c5ccc2[nH]5)C=C4)C=C3)cc1
REMARK SMILES IDX 21 1 20 2 18 3 19 4 17 5 8 6 9 7 10 8 16 9 11 10 15 11 12 12
REMARK SMILES IDX 14 13 13 14 6 15 7 16 5 17 4 18 3 19 2 20 1 21 22 22 23 23
REMARK SMILES IDX 24 24 25 25 26 26 27 27 91 28 28 29 90 30 29 31 30 32 31 33
REMARK SMILES IDX 84 34 32 35 89 36 83 37 85 38 33 39 88 40 82 41 81 42 34 44
REMARK SMILES IDX 68 45 47 46 67 47 48 48 51 49 66 50 86 51 49 52 50 53 65 55
REMARK SMILES IDX 87 56 52 57 35 58 36 59 45 60 37 61 38 62 44 63 46 64 39 65
REMARK SMILES IDX 40 66 41 67 42 68 43 69 69 70 70 71 79 72 71 73 72 74 78 75
REMARK SMILES IDX 80 76 73 77 74 78 75 79 76 80 77 81 53 82 54 83 63 84 55 85
REMARK SMILES IDX 56 86 62 87 64 88 57 89 58 90 59 91 60 92 61 93
REMARK H PARENT 85 43 51 54
REMARK Flexibility Score: inf
ROOT
ATOM      1  C   UNL A   1      36.301  21.198  25.568  1.00  0.00     0.274 C 
ENDROOT
BRANCH   1   2
ATOM      2  O   UNL A   1      35.724  22.513  25.696  1.00  0.00    -0.461 OA
BRANCH   2   3
ATOM      3  C   UNL A   1      34.924  22.903  24.671  1.00  0.00     0.329 C 
ATOM      4  O   UNL A   1      35.358  23.158  23.552  1.00  0.00    -0.250 OA
BRANCH   3   5
ATOM      5  C   UNL A   1      33.433  23.077  25.042  1.00  0.00     0.199 C 
ATOM      6  N   UNL A   1      32.617  22.693  23.883  1.00  0.00    -0.323 N 
ATOM      7  C   UNL A   1      32.195  23.757  22.953  1.00  0.00     0.156 C 
ATOM      8  C   UNL A   1      32.731  25.145  23.233  1.00  0.00    -0.025 A 
ATOM      9  C   UNL A   1      33.110  24.464  25.594  1.00  0.00     0.073 C 
ATOM     10  C   UNL A   1      32.786  26.109  22.220  1.00  0.00     0.006 A 
ATOM     11  C   UNL A   1      33.182  25.493  24.513  1.00  0.00    -0.040 A 
ATOM     12  C   UNL A   1      33.325  27.374  22.472  1.00  0.00     0.000 A 
ATOM     13  C   UNL A   1      33.714  26.762  24.767  1.00  0.00     0.004 A 
ATOM     14  C   UNL A   1      33.798  27.696  23.741  1.00  0.00     0.000 A 
BRANCH   6  15
ATOM     15  C   UNL A   1      32.389  21.372  23.507  1.00  0.00     0.233 C 
ATOM     16  O   UNL A   1      32.033  21.118  22.349  1.00  0.00    -0.274 OA
BRANCH  15  17
ATOM     17  C   UNL A   1      32.373  20.229  24.528  1.00  0.00     0.170 C 
BRANCH  17  18
ATOM     18  S   UNL A   1      32.747  18.526  24.023  1.00  0.00    -0.137 SA
BRANCH  18  19
ATOM     19  C   UNL A   1      32.665  17.598  25.600  1.00  0.00     0.189 C 
BRANCH  19  20
ATOM     20  C   UNL A   1      33.267  16.211  25.447  1.00  0.00     0.073 C 
ATOM     21  N   UNL A   1      33.766  15.060  25.320  1.00  0.00    -0.197 NA
ENDBRANCH  19  20
ENDBRANCH  18  19
ENDBRANCH  17  18
ENDBRANCH  15  17
ENDBRANCH   6  15
ENDBRANCH   3   5
ENDBRANCH   2   3
ENDBRANCH   1   2
BRANCH   1  22
ATOM     22  C   UNL A   1      37.741  21.202  25.039  1.00  0.00     0.275 C 
BRANCH  22  23
ATOM     23  O   UNL A   1      38.469  22.385  25.429  1.00  0.00    -0.458 OA
BRANCH  23  24
ATOM     24  C   UNL A   1      39.455  22.179  26.336  1.00  0.00     0.338 C 
ATOM     25  O   UNL A   1      40.116  21.165  26.481  1.00  0.00    -0.246 OA
BRANCH  24  26
ATOM     26  C   UNL A   1      39.776  23.420  27.062  1.00  0.00     0.060 A 
ATOM     27  C   UNL A   1      39.374  24.627  26.485  1.00  0.00     0.016 A 
ATOM     28  C   UNL A   1      40.606  23.426  28.182  1.00  0.00     0.016 A 
ATOM     29  C   UNL A   1      39.806  25.841  26.986  1.00  0.00     0.010 A 
ATOM     30  C   UNL A   1      41.050  24.653  28.693  1.00  0.00     0.010 A 
ATOM     31  C   UNL A   1      40.673  25.861  28.075  1.00  0.00    -0.014 A 
BRANCH  31  32
ATOM     32  C   UNL A   1      41.276  27.159  28.439  1.00  0.00     0.031 A 
ATOM     33  C   UNL A   1      42.739  27.374  28.185  1.00  0.00     0.074 A 
ATOM     34  C   UNL A   1      40.491  28.169  28.853  1.00  0.00     0.049 A 
ATOM     35  N   UNL A   1      43.479  28.415  28.459  1.00  0.00    -0.248 NA
ATOM     36  C   UNL A   1      43.462  26.276  27.523  1.00  0.00     0.031 C 
ATOM     37  C   UNL A   1      39.037  28.097  29.016  1.00  0.00     0.029 A 
ATOM     38  N   UNL A   1      40.804  29.459  29.188  1.00  0.00    -0.354 N 
ATOM     39  C   UNL A   1      44.761  28.086  28.035  1.00  0.00     0.074 A 
ATOM     40  C   UNL A   1      44.698  26.753  27.479  1.00  0.00     0.031 C 
ATOM     41  C   UNL A   1      38.584  29.296  29.418  1.00  0.00     0.029 A 
ATOM     42  C   UNL A   1      39.718  30.201  29.586  1.00  0.00     0.049 A 
ATOM     43  H   UNL A   1      41.718  29.821  29.149  1.00  0.00     0.167 HD
ATOM     44  C   UNL A   1      45.887  28.832  28.113  1.00  0.00     0.037 A 
ATOM     45  C   UNL A   1      39.655  31.458  30.063  1.00  0.00     0.037 A 
ATOM     46  C   UNL A   1      45.929  30.166  28.650  1.00  0.00     0.049 A 
ATOM     47  C   UNL A   1      40.929  32.246  30.195  1.00  0.00     0.074 A 
ATOM     48  C   UNL A   1      47.021  30.998  28.815  1.00  0.00     0.029 A 
ATOM     49  N   UNL A   1      44.819  30.865  29.103  1.00  0.00    -0.354 N 
ATOM     50  N   UNL A   1      42.151  31.896  29.868  1.00  0.00    -0.248 NA
ATOM     51  C   UNL A   1      40.819  33.590  30.774  1.00  0.00     0.031 C 
ATOM     52  C   UNL A   1      46.574  32.194  29.391  1.00  0.00     0.029 A 
ATOM     53  C   UNL A   1      45.200  32.116  29.555  1.00  0.00     0.049 A 
ATOM     54  H   UNL A   1      43.896  30.522  29.103  1.00  0.00     0.167 HD
ATOM     55  C   UNL A   1      42.957  32.976  30.202  1.00  0.00     0.074 A 
ATOM     56  C   UNL A   1      42.080  34.001  30.735  1.00  0.00     0.031 C 
ATOM     57  C   UNL A   1      44.302  33.110  30.087  1.00  0.00     0.037 A 
BRANCH  44  58
ATOM     58  C   UNL A   1      47.165  28.192  27.657  1.00  0.00     0.058 A 
ATOM     59  C   UNL A   1      47.603  28.273  26.326  1.00  0.00     0.135 A 
ATOM     60  C   UNL A   1      47.959  27.477  28.568  1.00  0.00     0.135 A 
ATOM     61  F   UNL A   1      46.866  28.923  25.411  1.00  0.00    -0.206 F 
ATOM     62  C   UNL A   1      48.773  27.646  25.908  1.00  0.00     0.059 A 
ATOM     63  C   UNL A   1      49.141  26.857  28.177  1.00  0.00     0.059 A 
ATOM     64  F   UNL A   1      47.577  27.361  29.849  1.00  0.00    -0.206 F 
ATOM     65  C   UNL A   1      49.532  26.935  26.841  1.00  0.00     0.060 A 
BRANCH  65  66
ATOM     66  S   UNL A   1      51.041  26.110  26.288  1.00  0.00     0.124 S 
ATOM     67  O   UNL A   1      50.866  26.128  24.839  1.00  0.00    -0.237 OA
ATOM     68  O   UNL A   1      52.088  26.984  26.811  1.00  0.00    -0.237 OA
ATOM     69  O   UNL A   1      50.956  24.796  26.916  1.00  0.00    -0.744 OA
ENDBRANCH  65  66
ENDBRANCH  44  58
BRANCH  45  70
ATOM     70  C   UNL A   1      38.351  32.024  30.492  1.00  0.00     0.058 A 
ATOM     71  C   UNL A   1      37.784  31.690  31.728  1.00  0.00     0.135 A 
ATOM     72  C   UNL A   1      37.655  32.926  29.672  1.00  0.00     0.135 A 
ATOM     73  F   UNL A   1      38.409  30.825  32.542  1.00  0.00    -0.206 F 
ATOM     74  C   UNL A   1      36.566  32.226  32.138  1.00  0.00     0.059 A 
ATOM     75  C   UNL A   1      36.448  33.492  30.069  1.00  0.00     0.059 A 
ATOM     76  F   UNL A   1      38.162  33.284  28.483  1.00  0.00    -0.206 F 
ATOM     77  C   UNL A   1      35.907  33.127  31.301  1.00  0.00     0.060 A 
BRANCH  77  78
ATOM     78  S   UNL A   1      34.356  33.868  31.858  1.00  0.00     0.124 S 
ATOM     79  O   UNL A   1      33.802  32.800  32.681  1.00  0.00    -0.237 OA
ATOM     80  O   UNL A   1      34.817  35.053  32.574  1.00  0.00    -0.237 OA
ATOM     81  O   UNL A   1      33.650  34.137  30.609  1.00  0.00    -0.744 OA
ENDBRANCH  77  78
ENDBRANCH  45  70
BRANCH  57  82
ATOM     82  C   UNL A   1      44.892  34.412  30.541  1.00  0.00     0.058 A 
ATOM     83  C   UNL A   1      45.014  35.501  29.663  1.00  0.00     0.135 A 
ATOM     84  C   UNL A   1      45.316  34.580  31.868  1.00  0.00     0.135 A 
ATOM     85  F   UNL A   1      44.627  35.383  28.384  1.00  0.00    -0.206 F 
ATOM     86  C   UNL A   1      45.564  36.707  30.080  1.00  0.00     0.059 A 
ATOM     87  C   UNL A   1      45.851  35.785  32.311  1.00  0.00     0.059 A 
ATOM     88  F   UNL A   1      45.209  33.570  32.744  1.00  0.00    -0.206 F 
ATOM     89  C   UNL A   1      45.984  36.838  31.405  1.00  0.00     0.060 A 
BRANCH  89  90
ATOM     90  S   UNL A   1      46.685  38.412  31.946  1.00  0.00     0.124 S 
ATOM     91  O   UNL A   1      47.420  38.008  33.140  1.00  0.00    -0.237 OA
ATOM     92  O   UNL A   1      47.501  38.806  30.802  1.00  0.00    -0.237 OA
ATOM     93  O   UNL A   1      45.506  39.240  32.181  1.00  0.00    -0.744 OA
ENDBRANCH  89  90
ENDBRANCH  57  82
ENDBRANCH  31  32
ENDBRANCH  24  26
ENDBRANCH  23  24
ENDBRANCH  22  23
ENDBRANCH   1  22
TORSDOF 19
ENDMDL
MODEL 3
REMARK VINA RESULT:     -10.3      2.759      4.209
REMARK SMILES N#CCSCC(=O)N1Cc2ccccc2C[C@@H]1C(=O)OCCOC(=O)c1ccc(-c2c3nc(c(-c4c(F)cc(S(=O)(=O)[O-])cc4F)c4ccc([nH]4)c(-c4c(F)cc(S(=O)(=O)[O-])cc4F)c4nc(c(-c5c(F)cc(S(=O)(=O)[O-])cc5F)c5ccc2[nH]5)C=C4)C=C3)cc1
REMARK SMILES IDX 21 1 20 2 18 3 19 4 17 5 8 6 9 7 10 8 16 9 11 10 15 11 12 12
REMARK SMILES IDX 14 13 13 14 6 15 7 16 5 17 4 18 3 19 2 20 1 21 22 22 23 23
REMARK SMILES IDX 24 24 25 25 26 26 27 27 91 28 28 29 90 30 29 31 30 32 31 33
REMARK SMILES IDX 84 34 32 35 89 36 83 37 85 38 33 39 88 40 82 41 81 42 34 44
REMARK SMILES IDX 68 45 47 46 67 47 48 48 51 49 66 50 86 51 49 52 50 53 65 55
REMARK SMILES IDX 87 56 52 57 35 58 36 59 45 60 37 61 38 62 44 63 46 64 39 65
REMARK SMILES IDX 40 66 41 67 42 68 43 69 69 70 70 71 79 72 71 73 72 74 78 75
REMARK SMILES IDX 80 76 73 77 74 78 75 79 76 80 77 81 53 82 54 83 63 84 55 85
REMARK SMILES IDX 56 86 62 87 64 88 57 89 58 90 59 91 60 92 61 93
REMARK H PARENT 85 43 51 54
REMARK Flexibility Score: inf
ROOT
ATOM      1  C   UNL A   1      33.678  27.444  26.228  1.00  0.00     0.274 C 
ENDROOT
BRANCH   1   2
ATOM      2  O   UNL A   1      33.453  26.731  24.995  1.00  0.00    -0.461 OA
BRANCH   2   3
ATOM      3  C   UNL A   1      33.780  25.414  25.013  1.00  0.00     0.329 C 
ATOM      4  O   UNL A   1      33.564  24.691  25.982  1.00  0.00    -0.250 OA
BRANCH   3   5
ATOM      5  C   UNL A   1      34.518  24.910  23.751  1.00  0.00     0.199 C 
ATOM      6  N   UNL A   1      33.545  24.791  22.658  1.00  0.00    -0.323 N 
ATOM      7  C   UNL A   1      32.910  23.477  22.439  1.00  0.00     0.156 C 
ATOM      8  C   UNL A   1      33.255  22.390  23.435  1.00  0.00    -0.025 A 
ATOM      9  C   UNL A   1      35.330  23.640  23.998  1.00  0.00     0.073 C 
ATOM     10  C   UNL A   1      32.413  21.287  23.611  1.00  0.00     0.006 A 
ATOM     11  C   UNL A   1      34.428  22.466  24.199  1.00  0.00    -0.040 A 
ATOM     12  C   UNL A   1      32.712  20.310  24.565  1.00  0.00     0.000 A 
ATOM     13  C   UNL A   1      34.732  21.484  25.148  1.00  0.00     0.004 A 
ATOM     14  C   UNL A   1      33.865  20.414  25.339  1.00  0.00     0.000 A 
BRANCH   6  15
ATOM     15  C   UNL A   1      33.043  25.881  21.954  1.00  0.00     0.233 C 
ATOM     16  O   UNL A   1      33.823  26.736  21.511  1.00  0.00    -0.274 OA
BRANCH  15  17
ATOM     17  C   UNL A   1      31.541  26.173  21.870  1.00  0.00     0.170 C 
BRANCH  17  18
ATOM     18  S   UNL A   1      30.781  27.451  22.911  1.00  0.00    -0.137 SA
BRANCH  18  19
ATOM     19  C   UNL A   1      29.462  26.537  23.793  1.00  0.00     0.189 C 
BRANCH  19  20
ATOM     20  C   UNL A   1      29.938  26.082  25.163  1.00  0.00     0.073 C 
ATOM     21  N   UNL A   1      30.334  25.705  26.299  1.00  0.00    -0.197 NA
ENDBRANCH  19  20
ENDBRANCH  18  19
ENDBRANCH  17  18
ENDBRANCH  15  17
ENDBRANCH   6  15
ENDBRANCH   3   5
ENDBRANCH   2   3
ENDBRANCH   1   2
BRANCH   1  22
ATOM     22  C   UNL A   1      33.667  28.970  26.071  1.00  0.00     0.275 C 
BRANCH  22  23
ATOM     23  O   UNL A   1      33.476  29.652  27.328  1.00  0.00    -0.458 OA
BRANCH  23  24
ATOM     24  C   UNL A   1      34.394  30.608  27.607  1.00  0.00     0.338 C 
ATOM     25  O   UNL A   1      34.193  31.805  27.726  1.00  0.00    -0.246 OA
BRANCH  24  26
ATOM     26  C   UNL A   1      35.702  30.010  27.930  1.00  0.00     0.060 A 
ATOM     27  C   UNL A   1      35.852  29.427  29.189  1.00  0.00     0.016 A 
ATOM     28  C   UNL A   1      36.811  30.174  27.102  1.00  0.00     0.016 A 
ATOM     29  C   UNL A   1      37.091  29.027  29.653  1.00  0.00     0.010 A 
ATOM     30  C   UNL A   1      38.071  29.773  27.566  1.00  0.00     0.010 A 
ATOM     31  C   UNL A   1      38.215  29.226  28.856  1.00  0.00    -0.014 A 
BRANCH  31  32
ATOM     32  C   UNL A   1      39.535  28.985  29.472  1.00  0.00     0.031 A 
ATOM     33  C   UNL A   1      39.920  29.770  30.691  1.00  0.00     0.074 A 
ATOM     34  C   UNL A   1      40.307  27.977  29.028  1.00  0.00     0.049 A 
ATOM     35  N   UNL A   1      41.037  29.747  31.368  1.00  0.00    -0.248 NA
ATOM     36  C   UNL A   1      38.907  30.696  31.226  1.00  0.00     0.031 C 
ATOM     37  C   UNL A   1      39.967  27.075  27.925  1.00  0.00     0.029 A 
ATOM     38  N   UNL A   1      41.524  27.528  29.466  1.00  0.00    -0.354 N 
ATOM     39  C   UNL A   1      40.877  30.678  32.388  1.00  0.00     0.074 A 
ATOM     40  C   UNL A   1      39.553  31.243  32.247  1.00  0.00     0.031 C 
ATOM     41  C   UNL A   1      40.954  26.177  27.776  1.00  0.00     0.029 A 
ATOM     42  C   UNL A   1      42.013  26.471  28.738  1.00  0.00     0.049 A 
ATOM     43  H   UNL A   1      42.003  27.925  30.228  1.00  0.00     0.167 HD
ATOM     44  C   UNL A   1      41.762  31.029  33.349  1.00  0.00     0.037 A 
ATOM     45  C   UNL A   1      43.197  25.835  28.822  1.00  0.00     0.037 A 
ATOM     46  C   UNL A   1      43.068  30.443  33.488  1.00  0.00     0.049 A 
ATOM     47  C   UNL A   1      44.187  26.284  29.859  1.00  0.00     0.074 A 
ATOM     48  C   UNL A   1      44.061  30.750  34.400  1.00  0.00     0.029 A 
ATOM     49  N   UNL A   1      43.556  29.416  32.694  1.00  0.00    -0.354 N 
ATOM     50  N   UNL A   1      44.058  27.222  30.768  1.00  0.00    -0.248 NA
ATOM     51  C   UNL A   1      45.487  25.602  29.875  1.00  0.00     0.031 C 
ATOM     52  C   UNL A   1      45.162  29.924  34.139  1.00  0.00     0.029 A 
ATOM     53  C   UNL A   1      44.840  29.082  33.087  1.00  0.00     0.049 A 
ATOM     54  H   UNL A   1      43.062  28.986  31.958  1.00  0.00     0.167 HD
ATOM     55  C   UNL A   1      45.260  27.244  31.464  1.00  0.00     0.074 A 
ATOM     56  C   UNL A   1      46.094  26.209  30.886  1.00  0.00     0.031 C 
ATOM     57  C   UNL A   1      45.646  28.050  32.484  1.00  0.00     0.037 A 
BRANCH  44  58
ATOM     58  C   UNL A   1      41.359  32.135  34.279  1.00  0.00     0.058 A 
ATOM     59  C   UNL A   1      40.687  31.885  35.485  1.00  0.00     0.135 A 
ATOM     60  C   UNL A   1      41.643  33.471  33.950  1.00  0.00     0.135 A 
ATOM     61  F   UNL A   1      40.369  30.628  35.832  1.00  0.00    -0.206 F 
ATOM     62  C   UNL A   1      40.289  32.922  36.323  1.00  0.00     0.059 A 
ATOM     63  C   UNL A   1      41.270  34.522  34.780  1.00  0.00     0.059 A 
ATOM     64  F   UNL A   1      42.273  33.764  32.802  1.00  0.00    -0.206 F 
ATOM     65  C   UNL A   1      40.580  34.239  35.958  1.00  0.00     0.060 A 
BRANCH  65  66
ATOM     66  S   UNL A   1      40.045  35.581  37.042  1.00  0.00     0.124 S 
ATOM     67  O   UNL A   1      39.663  36.602  36.071  1.00  0.00    -0.237 OA
ATOM     68  O   UNL A   1      38.947  34.969  37.784  1.00  0.00    -0.237 OA
ATOM     69  O   UNL A   1      41.239  35.876  37.827  1.00  0.00    -0.744 OA
ENDBRANCH  65  66
ENDBRANCH  44  58
BRANCH  45  70
ATOM     70  C   UNL A   1      43.522  24.746  27.866  1.00  0.00     0.058 A 
ATOM     71  C   UNL A   1      44.265  24.995  26.705  1.00  0.00     0.135 A 
ATOM     72  C   UNL A   1      43.105  23.428  28.110  1.00  0.00     0.135 A 
ATOM     73  F   UNL A   1      44.677  26.240  26.425  1.00  0.00    -0.206 F 
ATOM     74  C   UNL A   1      44.580  23.974  25.811  1.00  0.00     0.059 A 
ATOM     75  C   UNL A   1      43.426  22.388  27.244  1.00  0.00     0.059 A 
ATOM     76  F   UNL A   1      42.400  23.139  29.213  1.00  0.00    -0.206 F 
ATOM     77  C   UNL A   1      44.157  22.674  26.091  1.00  0.00     0.060 A 
BRANCH  77  78
ATOM     78  S   UNL A   1      44.616  21.340  24.963  1.00  0.00     0.124 S 
ATOM     79  O   UNL A   1      44.456  21.987  23.666  1.00  0.00    -0.237 OA
ATOM     80  O   UNL A   1      45.988  21.050  25.367  1.00  0.00    -0.237 OA
ATOM     81  O   UNL A   1      43.647  20.294  25.274  1.00  0.00    -0.744 OA
ENDBRANCH  77  78
ENDBRANCH  45  70
BRANCH  57  82
ATOM     82  C   UNL A   1      47.024  27.831  33.034  1.00  0.00     0.058 A 
ATOM     83  C   UNL A   1      47.255  26.922  34.078  1.00  0.00     0.135 A 
ATOM     84  C   UNL A   1      48.124  28.517  32.497  1.00  0.00     0.135 A 
ATOM     85  F   UNL A   1      46.232  26.249  34.626  1.00  0.00    -0.206 F 
ATOM     86  C   UNL A   1      48.530  26.720  34.591  1.00  0.00     0.059 A 
ATOM     87  C   UNL A   1      49.412  28.315  32.983  1.00  0.00     0.059 A 
ATOM     88  F   UNL A   1      47.953  29.388  31.491  1.00  0.00    -0.206 F 
ATOM     89  C   UNL A   1      49.602  27.425  34.041  1.00  0.00     0.060 A 
BRANCH  89  90
ATOM     90  S   UNL A   1      51.260  27.149  34.701  1.00  0.00     0.124 S 
ATOM     91  O   UNL A   1      52.089  27.424  33.533  1.00  0.00    -0.237 OA
ATOM     92  O   UNL A   1      51.338  28.130  35.780  1.00  0.00    -0.237 OA
ATOM     93  O   UNL A   1      51.221  25.755  35.134  1.00  0.00    -0.744 OA
ENDBRANCH  89  90
ENDBRANCH  57  82
ENDBRANCH  31  32
ENDBRANCH  24  26
ENDBRANCH  23  24
ENDBRANCH  22  23
ENDBRANCH   1  22
TORSDOF 19
ENDMDL
