MODEL 1
REMARK VINA RESULT:     -10.8      0.000      0.000
REMARK SMILES COC(=O)c1cncc(N2CC[C@H](C(=O)OCCOC(=O)c3ccc(-c4c5nc(c(-c6c(F)cc(S(=O)(=O)[O-])cc6F)c6ccc([nH]6)c(-c6c(F)cc(S(=O)(=O)[O-])cc6F)c6nc(c(-c7c(F)cc(S(=O)(=O)[O-])cc7F)c7ccc4[nH]7)C=C6)C=C5)cc3)C2)n1
REMARK SMILES IDX 17 1 16 2 14 3 15 4 13 5 10 6 11 7 88 8 12 9 9 10 5 11 6 12
REMARK SMILES IDX 89 13 7 14 8 15 3 16 4 17 2 18 1 19 18 20 19 21 20 22 21 23
REMARK SMILES IDX 22 24 23 25 87 26 24 27 86 28 25 29 26 30 27 31 80 32 28 33
REMARK SMILES IDX 85 34 79 35 81 36 29 37 84 38 78 39 77 40 30 42 64 43 43 44
REMARK SMILES IDX 63 45 44 46 47 47 62 48 82 49 45 50 46 51 61 53 83 54 48 55
REMARK SMILES IDX 31 56 32 57 41 58 33 59 34 60 40 61 42 62 35 63 36 64 37 65
REMARK SMILES IDX 38 66 39 67 65 68 66 69 75 70 67 71 68 72 74 73 76 74 69 75
REMARK SMILES IDX 70 76 71 77 72 78 73 79 49 80 50 81 59 82 51 83 52 84 58 85
REMARK SMILES IDX 60 86 53 87 54 88 55 89 56 90 57 91
REMARK H PARENT 81 41 47 52
REMARK Flexibility Score: inf
ROOT
ATOM      1  C   UNL A   1      39.655  21.572  26.551  1.00  0.00     0.274 C 
ENDROOT
BRANCH   1   2
ATOM      2  O   UNL A   1      38.636  21.837  25.569  1.00  0.00    -0.462 OA
BRANCH   2   3
ATOM      3  C   UNL A   1      37.802  22.879  25.809  1.00  0.00     0.310 C 
ATOM      4  O   UNL A   1      38.093  24.059  25.650  1.00  0.00    -0.252 OA
BRANCH   3   5
ATOM      5  C   UNL A   1      36.445  22.446  26.295  1.00  0.00     0.120 C 
ATOM      6  N   UNL A   1      34.601  21.079  25.791  1.00  0.00    -0.354 N 
ATOM      7  C   UNL A   1      34.075  22.402  26.131  1.00  0.00     0.119 C 
ATOM      8  C   UNL A   1      36.063  21.108  25.677  1.00  0.00     0.133 C 
ATOM      9  C   UNL A   1      35.260  23.338  25.944  1.00  0.00     0.038 C 
BRANCH   6  10
ATOM     10  C   UNL A   1      33.943  20.305  24.856  1.00  0.00     0.148 A 
ATOM     11  C   UNL A   1      33.588  18.277  23.822  1.00  0.00     0.169 A 
ATOM     12  C   UNL A   1      32.559  18.819  23.069  1.00  0.00     0.147 A 
ATOM     13  N   UNL A   1      34.292  19.011  24.720  1.00  0.00    -0.221 NA
ATOM     14  N   UNL A   1      32.181  20.113  23.185  1.00  0.00    -0.258 NA
ATOM     15  C   UNL A   1      32.893  20.830  24.094  1.00  0.00     0.157 A 
BRANCH  11  16
ATOM     16  C   UNL A   1      33.938  16.837  23.736  1.00  0.00     0.358 C 
ATOM     17  O   UNL A   1      34.110  16.221  22.696  1.00  0.00    -0.244 OA
BRANCH  16  18
ATOM     18  O   UNL A   1      34.016  16.307  24.987  1.00  0.00    -0.464 OA
ATOM     19  C   UNL A   1      35.323  15.851  25.335  1.00  0.00     0.282 C 
ENDBRANCH  16  18
ENDBRANCH  11  16
ENDBRANCH   6  10
ENDBRANCH   3   5
ENDBRANCH   2   3
ENDBRANCH   1   2
BRANCH   1  20
ATOM     20  C   UNL A   1      40.991  22.173  26.110  1.00  0.00     0.275 C 
BRANCH  20  21
ATOM     21  O   UNL A   1      41.475  23.140  27.062  1.00  0.00    -0.458 OA
BRANCH  21  22
ATOM     22  C   UNL A   1      41.791  24.349  26.540  1.00  0.00     0.338 C 
ATOM     23  O   UNL A   1      42.171  24.588  25.407  1.00  0.00    -0.246 OA
BRANCH  22  24
ATOM     24  C   UNL A   1      41.472  25.406  27.511  1.00  0.00     0.060 A 
ATOM     25  C   UNL A   1      42.388  26.450  27.659  1.00  0.00     0.016 A 
ATOM     26  C   UNL A   1      40.344  25.330  28.327  1.00  0.00     0.016 A 
ATOM     27  C   UNL A   1      42.186  27.425  28.630  1.00  0.00     0.010 A 
ATOM     28  C   UNL A   1      40.142  26.312  29.304  1.00  0.00     0.010 A 
ATOM     29  C   UNL A   1      41.068  27.357  29.467  1.00  0.00    -0.014 A 
BRANCH  29  30
ATOM     30  C   UNL A   1      40.909  28.358  30.548  1.00  0.00     0.031 A 
ATOM     31  C   UNL A   1      41.815  28.314  31.744  1.00  0.00     0.074 A 
ATOM     32  C   UNL A   1      39.978  29.323  30.432  1.00  0.00     0.049 A 
ATOM     33  N   UNL A   1      41.795  29.054  32.822  1.00  0.00    -0.248 NA
ATOM     34  C   UNL A   1      42.886  27.306  31.724  1.00  0.00     0.031 C 
ATOM     35  C   UNL A   1      39.076  29.493  29.291  1.00  0.00     0.029 A 
ATOM     36  N   UNL A   1      39.638  30.344  31.282  1.00  0.00    -0.354 N 
ATOM     37  C   UNL A   1      42.831  28.588  33.621  1.00  0.00     0.074 A 
ATOM     38  C   UNL A   1      43.456  27.494  32.907  1.00  0.00     0.031 C 
ATOM     39  C   UNL A   1      38.286  30.556  29.513  1.00  0.00     0.029 A 
ATOM     40  C   UNL A   1      38.596  31.115  30.827  1.00  0.00     0.049 A 
ATOM     41  H   UNL A   1      40.097  30.508  32.138  1.00  0.00     0.167 HD
ATOM     42  C   UNL A   1      43.225  29.034  34.837  1.00  0.00     0.037 A 
ATOM     43  C   UNL A   1      37.947  32.138  31.414  1.00  0.00     0.037 A 
ATOM     44  C   UNL A   1      42.609  30.134  35.533  1.00  0.00     0.049 A 
ATOM     45  C   UNL A   1      38.376  32.588  32.783  1.00  0.00     0.074 A 
ATOM     46  C   UNL A   1      42.937  30.664  36.768  1.00  0.00     0.029 A 
ATOM     47  N   UNL A   1      41.540  30.875  35.049  1.00  0.00    -0.354 N 
ATOM     48  N   UNL A   1      39.345  32.126  33.536  1.00  0.00    -0.248 NA
ATOM     49  C   UNL A   1      37.620  33.694  33.387  1.00  0.00     0.031 C 
ATOM     50  C   UNL A   1      42.045  31.708  37.045  1.00  0.00     0.029 A 
ATOM     51  C   UNL A   1      41.187  31.850  35.967  1.00  0.00     0.049 A 
ATOM     52  H   UNL A   1      41.099  30.730  34.181  1.00  0.00     0.167 HD
ATOM     53  C   UNL A   1      39.326  32.892  34.696  1.00  0.00     0.074 A 
ATOM     54  C   UNL A   1      38.256  33.857  34.540  1.00  0.00     0.031 C 
ATOM     55  C   UNL A   1      40.120  32.804  35.790  1.00  0.00     0.037 A 
BRANCH  42  56
ATOM     56  C   UNL A   1      44.357  28.308  35.507  1.00  0.00     0.058 A 
ATOM     57  C   UNL A   1      45.692  28.705  35.339  1.00  0.00     0.135 A 
ATOM     58  C   UNL A   1      44.098  27.211  36.345  1.00  0.00     0.135 A 
ATOM     59  F   UNL A   1      45.994  29.736  34.533  1.00  0.00    -0.206 F 
ATOM     60  C   UNL A   1      46.736  28.024  35.958  1.00  0.00     0.059 A 
ATOM     61  C   UNL A   1      45.125  26.528  36.991  1.00  0.00     0.059 A 
ATOM     62  F   UNL A   1      42.838  26.790  36.537  1.00  0.00    -0.206 F 
ATOM     63  C   UNL A   1      46.441  26.933  36.778  1.00  0.00     0.060 A 
BRANCH  63  64
ATOM     64  S   UNL A   1      47.804  26.052  37.571  1.00  0.00     0.124 S 
ATOM     65  O   UNL A   1      47.516  24.672  37.191  1.00  0.00    -0.237 OA
ATOM     66  O   UNL A   1      48.976  26.650  36.942  1.00  0.00    -0.237 OA
ATOM     67  O   UNL A   1      47.629  26.363  38.987  1.00  0.00    -0.744 OA
ENDBRANCH  63  64
ENDBRANCH  42  56
BRANCH  43  68
ATOM     68  C   UNL A   1      36.810  32.789  30.715  1.00  0.00     0.058 A 
ATOM     69  C   UNL A   1      35.488  32.394  30.959  1.00  0.00     0.135 A 
ATOM     70  C   UNL A   1      37.025  33.835  29.803  1.00  0.00     0.135 A 
ATOM     71  F   UNL A   1      35.234  31.392  31.815  1.00  0.00    -0.206 F 
ATOM     72  C   UNL A   1      34.415  33.008  30.320  1.00  0.00     0.059 A 
ATOM     73  C   UNL A   1      35.969  34.479  29.168  1.00  0.00     0.059 A 
ATOM     74  F   UNL A   1      38.273  34.257  29.545  1.00  0.00    -0.206 F 
ATOM     75  C   UNL A   1      34.667  34.052  29.426  1.00  0.00     0.060 A 
BRANCH  75  76
ATOM     76  S   UNL A   1      33.268  34.886  28.645  1.00  0.00     0.124 S 
ATOM     77  O   UNL A   1      33.933  35.984  27.953  1.00  0.00    -0.237 OA
ATOM     78  O   UNL A   1      32.715  33.836  27.795  1.00  0.00    -0.237 OA
ATOM     79  O   UNL A   1      32.432  35.267  29.779  1.00  0.00    -0.744 OA
ENDBRANCH  75  76
ENDBRANCH  43  68
BRANCH  55  80
ATOM     80  C   UNL A   1      39.878  33.790  36.896  1.00  0.00     0.058 A 
ATOM     81  C   UNL A   1      39.146  33.442  38.041  1.00  0.00     0.135 A 
ATOM     82  C   UNL A   1      40.426  35.080  36.830  1.00  0.00     0.135 A 
ATOM     83  F   UNL A   1      38.596  32.222  38.147  1.00  0.00    -0.206 F 
ATOM     84  C   UNL A   1      38.951  34.346  39.079  1.00  0.00     0.059 A 
ATOM     85  C   UNL A   1      40.261  35.995  37.865  1.00  0.00     0.059 A 
ATOM     86  F   UNL A   1      41.141  35.458  35.759  1.00  0.00    -0.206 F 
ATOM     87  C   UNL A   1      39.513  35.621  38.982  1.00  0.00     0.060 A 
BRANCH  87  88
ATOM     88  S   UNL A   1      39.289  36.778  40.351  1.00  0.00     0.124 S 
ATOM     89  O   UNL A   1      40.636  36.838  40.907  1.00  0.00    -0.237 OA
ATOM     90  O   UNL A   1      38.829  37.985  39.672  1.00  0.00    -0.237 OA
ATOM     91  O   UNL A   1      38.290  36.120  41.190  1.00  0.00    -0.744 OA
ENDBRANCH  87  88
ENDBRANCH  55  80
ENDBRANCH  29  30
ENDBRANCH  22  24
ENDBRANCH  21  22
ENDBRANCH  20  21
ENDBRANCH   1  20
TORSDOF 17
ENDMDL
MODEL 2
REMARK VINA RESULT:     -10.6      7.190     12.722
REMARK SMILES COC(=O)c1cncc(N2CC[C@H](C(=O)OCCOC(=O)c3ccc(-c4c5nc(c(-c6c(F)cc(S(=O)(=O)[O-])cc6F)c6ccc([nH]6)c(-c6c(F)cc(S(=O)(=O)[O-])cc6F)c6nc(c(-c7c(F)cc(S(=O)(=O)[O-])cc7F)c7ccc4[nH]7)C=C6)C=C5)cc3)C2)n1
REMARK SMILES IDX 17 1 16 2 14 3 15 4 13 5 10 6 11 7 88 8 12 9 9 10 5 11 6 12
REMARK SMILES IDX 89 13 7 14 8 15 3 16 4 17 2 18 1 19 18 20 19 21 20 22 21 23
REMARK SMILES IDX 22 24 23 25 87 26 24 27 86 28 25 29 26 30 27 31 80 32 28 33
REMARK SMILES IDX 85 34 79 35 81 36 29 37 84 38 78 39 77 40 30 42 64 43 43 44
REMARK SMILES IDX 63 45 44 46 47 47 62 48 82 49 45 50 46 51 61 53 83 54 48 55
REMARK SMILES IDX 31 56 32 57 41 58 33 59 34 60 40 61 42 62 35 63 36 64 37 65
REMARK SMILES IDX 38 66 39 67 65 68 66 69 75 70 67 71 68 72 74 73 76 74 69 75
REMARK SMILES IDX 70 76 71 77 72 78 73 79 49 80 50 81 59 82 51 83 52 84 58 85
REMARK SMILES IDX 60 86 53 87 54 88 55 89 56 90 57 91
REMARK H PARENT 81 41 47 52
REMARK Flexibility Score: inf
ROOT
ATOM      1  C   UNL A   1      33.856  31.776  27.882  1.00  0.00     0.274 C 
ENDROOT
BRANCH   1   2
ATOM      2  O   UNL A   1      34.520  30.766  27.100  1.00  0.00    -0.462 OA
BRANCH   2   3
ATOM      3  C   UNL A   1      33.941  29.541  27.053  1.00  0.00     0.310 C 
ATOM      4  O   UNL A   1      33.655  28.862  28.032  1.00  0.00    -0.252 OA
BRANCH   3   5
ATOM      5  C   UNL A   1      33.666  29.076  25.647  1.00  0.00     0.120 C 
ATOM      6  N   UNL A   1      31.979  28.839  24.028  1.00  0.00    -0.354 N 
ATOM      7  C   UNL A   1      32.696  27.563  24.091  1.00  0.00     0.119 C 
ATOM      8  C   UNL A   1      32.404  29.734  25.109  1.00  0.00     0.133 C 
ATOM      9  C   UNL A   1      33.391  27.590  25.445  1.00  0.00     0.038 C 
BRANCH   6  10
ATOM     10  C   UNL A   1      30.630  28.846  23.739  1.00  0.00     0.148 A 
ATOM     11  C   UNL A   1      28.682  29.989  23.279  1.00  0.00     0.169 A 
ATOM     12  C   UNL A   1      28.004  28.796  23.088  1.00  0.00     0.147 A 
ATOM     13  N   UNL A   1      29.998  30.029  23.607  1.00  0.00    -0.221 NA
ATOM     14  N   UNL A   1      28.610  27.592  23.209  1.00  0.00    -0.258 NA
ATOM     15  C   UNL A   1      29.929  27.653  23.532  1.00  0.00     0.157 A 
BRANCH  11  16
ATOM     16  C   UNL A   1      28.021  31.301  23.067  1.00  0.00     0.358 C 
ATOM     17  O   UNL A   1      27.016  31.677  23.649  1.00  0.00    -0.244 OA
BRANCH  16  18
ATOM     18  O   UNL A   1      28.690  32.005  22.115  1.00  0.00    -0.464 OA
ATOM     19  C   UNL A   1      28.174  31.816  20.796  1.00  0.00     0.282 C 
ENDBRANCH  16  18
ENDBRANCH  11  16
ENDBRANCH   6  10
ENDBRANCH   3   5
ENDBRANCH   2   3
ENDBRANCH   1   2
BRANCH   1  20
ATOM     20  C   UNL A   1      34.701  32.145  29.104  1.00  0.00     0.275 C 
BRANCH  20  21
ATOM     21  O   UNL A   1      36.068  31.719  28.949  1.00  0.00    -0.458 OA
BRANCH  21  22
ATOM     22  C   UNL A   1      36.566  31.005  29.987  1.00  0.00     0.338 C 
ATOM     23  O   UNL A   1      36.020  30.770  31.051  1.00  0.00    -0.246 OA
BRANCH  22  24
ATOM     24  C   UNL A   1      37.852  30.406  29.604  1.00  0.00     0.060 A 
ATOM     25  C   UNL A   1      38.802  30.207  30.608  1.00  0.00     0.016 A 
ATOM     26  C   UNL A   1      38.159  30.126  28.272  1.00  0.00     0.016 A 
ATOM     27  C   UNL A   1      40.070  29.734  30.289  1.00  0.00     0.010 A 
ATOM     28  C   UNL A   1      39.435  29.650  27.951  1.00  0.00     0.010 A 
ATOM     29  C   UNL A   1      40.400  29.463  28.957  1.00  0.00    -0.014 A 
BRANCH  29  30
ATOM     30  C   UNL A   1      41.778  29.034  28.623  1.00  0.00     0.031 A 
ATOM     31  C   UNL A   1      42.901  30.030  28.674  1.00  0.00     0.074 A 
ATOM     32  C   UNL A   1      42.021  27.747  28.314  1.00  0.00     0.049 A 
ATOM     33  N   UNL A   1      44.159  29.872  28.355  1.00  0.00    -0.248 NA
ATOM     34  C   UNL A   1      42.563  31.382  29.147  1.00  0.00     0.031 C 
ATOM     35  C   UNL A   1      41.016  26.683  28.283  1.00  0.00     0.029 A 
ATOM     36  N   UNL A   1      43.189  27.116  27.970  1.00  0.00    -0.354 N 
ATOM     37  C   UNL A   1      44.761  31.106  28.563  1.00  0.00     0.074 A 
ATOM     38  C   UNL A   1      43.727  32.007  29.029  1.00  0.00     0.031 C 
ATOM     39  C   UNL A   1      41.612  25.529  27.940  1.00  0.00     0.029 A 
ATOM     40  C   UNL A   1      43.029  25.781  27.685  1.00  0.00     0.049 A 
ATOM     41  H   UNL A   1      44.059  27.575  27.931  1.00  0.00     0.167 HD
ATOM     42  C   UNL A   1      46.057  31.454  28.384  1.00  0.00     0.037 A 
ATOM     43  C   UNL A   1      43.917  24.871  27.244  1.00  0.00     0.037 A 
ATOM     44  C   UNL A   1      47.083  30.547  27.939  1.00  0.00     0.049 A 
ATOM     45  C   UNL A   1      45.343  25.292  27.013  1.00  0.00     0.074 A 
ATOM     46  C   UNL A   1      48.426  30.801  27.729  1.00  0.00     0.029 A 
ATOM     47  N   UNL A   1      46.877  29.208  27.637  1.00  0.00    -0.354 N 
ATOM     48  N   UNL A   1      45.894  26.467  27.195  1.00  0.00    -0.248 NA
ATOM     49  C   UNL A   1      46.266  24.265  26.509  1.00  0.00     0.031 C 
ATOM     50  C   UNL A   1      49.028  29.622  27.271  1.00  0.00     0.029 A 
ATOM     51  C   UNL A   1      48.065  28.626  27.231  1.00  0.00     0.049 A 
ATOM     52  H   UNL A   1      46.013  28.741  27.704  1.00  0.00     0.167 HD
ATOM     53  C   UNL A   1      47.231  26.320  26.843  1.00  0.00     0.074 A 
ATOM     54  C   UNL A   1      47.408  24.937  26.448  1.00  0.00     0.031 C 
ATOM     55  C   UNL A   1      48.221  27.246  26.846  1.00  0.00     0.037 A 
BRANCH  42  56
ATOM     56  C   UNL A   1      46.432  32.886  28.642  1.00  0.00     0.058 A 
ATOM     57  C   UNL A   1      46.362  33.860  27.634  1.00  0.00     0.135 A 
ATOM     58  C   UNL A   1      46.848  33.291  29.920  1.00  0.00     0.135 A 
ATOM     59  F   UNL A   1      45.988  33.521  26.390  1.00  0.00    -0.206 F 
ATOM     60  C   UNL A   1      46.716  35.184  27.879  1.00  0.00     0.059 A 
ATOM     61  C   UNL A   1      47.187  34.613  30.192  1.00  0.00     0.059 A 
ATOM     62  F   UNL A   1      46.934  32.396  30.917  1.00  0.00    -0.206 F 
ATOM     63  C   UNL A   1      47.133  35.549  29.160  1.00  0.00     0.060 A 
BRANCH  63  64
ATOM     64  S   UNL A   1      47.598  37.267  29.464  1.00  0.00     0.124 S 
ATOM     65  O   UNL A   1      47.584  37.317  30.923  1.00  0.00    -0.237 OA
ATOM     66  O   UNL A   1      48.914  37.353  28.840  1.00  0.00    -0.237 OA
ATOM     67  O   UNL A   1      46.542  38.026  28.799  1.00  0.00    -0.744 OA
ENDBRANCH  63  64
ENDBRANCH  42  56
BRANCH  43  68
ATOM     68  C   UNL A   1      43.475  23.479  26.971  1.00  0.00     0.058 A 
ATOM     69  C   UNL A   1      43.215  22.585  28.017  1.00  0.00     0.135 A 
ATOM     70  C   UNL A   1      43.286  23.026  25.656  1.00  0.00     0.135 A 
ATOM     71  F   UNL A   1      43.391  22.970  29.290  1.00  0.00    -0.206 F 
ATOM     72  C   UNL A   1      42.786  21.283  27.771  1.00  0.00     0.059 A 
ATOM     73  C   UNL A   1      42.838  21.738  25.385  1.00  0.00     0.059 A 
ATOM     74  F   UNL A   1      43.512  23.850  24.620  1.00  0.00    -0.206 F 
ATOM     75  C   UNL A   1      42.599  20.870  26.450  1.00  0.00     0.060 A 
BRANCH  75  76
ATOM     76  S   UNL A   1      41.985  19.201  26.139  1.00  0.00     0.124 S 
ATOM     77  O   UNL A   1      40.556  19.441  25.975  1.00  0.00    -0.237 OA
ATOM     78  O   UNL A   1      42.711  18.822  24.930  1.00  0.00    -0.237 OA
ATOM     79  O   UNL A   1      42.370  18.473  27.344  1.00  0.00    -0.744 OA
ENDBRANCH  75  76
ENDBRANCH  43  68
BRANCH  55  80
ATOM     80  C   UNL A   1      49.589  26.789  26.430  1.00  0.00     0.058 A 
ATOM     81  C   UNL A   1      50.023  26.890  25.099  1.00  0.00     0.135 A 
ATOM     82  C   UNL A   1      50.492  26.290  27.381  1.00  0.00     0.135 A 
ATOM     83  F   UNL A   1      49.193  27.354  24.152  1.00  0.00    -0.206 F 
ATOM     84  C   UNL A   1      51.303  26.497  24.722  1.00  0.00     0.059 A 
ATOM     85  C   UNL A   1      51.783  25.910  27.030  1.00  0.00     0.059 A 
ATOM     86  F   UNL A   1      50.126  26.181  28.668  1.00  0.00    -0.206 F 
ATOM     87  C   UNL A   1      52.176  26.008  25.696  1.00  0.00     0.060 A 
BRANCH  87  88
ATOM     88  S   UNL A   1      53.849  25.536  25.206  1.00  0.00     0.124 S 
ATOM     89  O   UNL A   1      54.195  26.606  24.277  1.00  0.00    -0.237 OA
ATOM     90  O   UNL A   1      54.565  25.545  26.478  1.00  0.00    -0.237 OA
ATOM     91  O   UNL A   1      53.667  24.217  24.607  1.00  0.00    -0.744 OA
ENDBRANCH  87  88
ENDBRANCH  55  80
ENDBRANCH  29  30
ENDBRANCH  22  24
ENDBRANCH  21  22
ENDBRANCH  20  21
ENDBRANCH   1  20
TORSDOF 17
ENDMDL
MODEL 3
REMARK VINA RESULT:     -10.5      1.832      3.201
REMARK SMILES COC(=O)c1cncc(N2CC[C@H](C(=O)OCCOC(=O)c3ccc(-c4c5nc(c(-c6c(F)cc(S(=O)(=O)[O-])cc6F)c6ccc([nH]6)c(-c6c(F)cc(S(=O)(=O)[O-])cc6F)c6nc(c(-c7c(F)cc(S(=O)(=O)[O-])cc7F)c7ccc4[nH]7)C=C6)C=C5)cc3)C2)n1
REMARK SMILES IDX 17 1 16 2 14 3 15 4 13 5 10 6 11 7 88 8 12 9 9 10 5 11 6 12
REMARK SMILES IDX 89 13 7 14 8 15 3 16 4 17 2 18 1 19 18 20 19 21 20 22 21 23
REMARK SMILES IDX 22 24 23 25 87 26 24 27 86 28 25 29 26 30 27 31 80 32 28 33
REMARK SMILES IDX 85 34 79 35 81 36 29 37 84 38 78 39 77 40 30 42 64 43 43 44
REMARK SMILES IDX 63 45 44 46 47 47 62 48 82 49 45 50 46 51 61 53 83 54 48 55
REMARK SMILES IDX 31 56 32 57 41 58 33 59 34 60 40 61 42 62 35 63 36 64 37 65
REMARK SMILES IDX 38 66 39 67 65 68 66 69 75 70 67 71 68 72 74 73 76 74 69 75
REMARK SMILES IDX 70 76 71 77 72 78 73 79 49 80 50 81 59 82 51 83 52 84 58 85
REMARK SMILES IDX 60 86 53 87 54 88 55 89 56 90 57 91
REMARK H PARENT 81 41 47 52
REMARK Flexibility Score: inf
ROOT
ATOM      1  C   UNL A   1      39.600  21.257  26.152  1.00  0.00     0.274 C 
ENDROOT
BRANCH   1   2
ATOM      2  O   UNL A   1      38.528  21.881  25.422  1.00  0.00    -0.462 OA
BRANCH   2   3
ATOM      3  C   UNL A   1      37.437  21.122  25.157  1.00  0.00     0.310 C 
ATOM      4  O   UNL A   1      37.467  20.000  24.665  1.00  0.00    -0.252 OA
BRANCH   3   5
ATOM      5  C   UNL A   1      36.145  21.796  25.537  1.00  0.00     0.120 C 
ATOM      6  N   UNL A   1      34.391  23.127  24.716  1.00  0.00    -0.354 N 
ATOM      7  C   UNL A   1      34.840  23.735  25.970  1.00  0.00     0.119 C 
ATOM      8  C   UNL A   1      35.296  22.050  24.300  1.00  0.00     0.133 C 
ATOM      9  C   UNL A   1      36.241  23.176  26.178  1.00  0.00     0.038 C 
BRANCH   6  10
ATOM     10  C   UNL A   1      33.914  23.933  23.702  1.00  0.00     0.148 A 
ATOM     11  C   UNL A   1      33.289  26.006  22.913  1.00  0.00     0.169 A 
ATOM     12  C   UNL A   1      33.060  25.478  21.652  1.00  0.00     0.147 A 
ATOM     13  N   UNL A   1      33.716  25.243  23.951  1.00  0.00    -0.221 NA
ATOM     14  N   UNL A   1      33.253  24.170  21.370  1.00  0.00    -0.258 NA
ATOM     15  C   UNL A   1      33.687  23.423  22.419  1.00  0.00     0.157 A 
BRANCH  11  16
ATOM     16  C   UNL A   1      33.144  27.458  23.186  1.00  0.00     0.358 C 
ATOM     17  O   UNL A   1      33.296  28.342  22.358  1.00  0.00    -0.244 OA
BRANCH  16  18
ATOM     18  O   UNL A   1      32.841  27.651  24.498  1.00  0.00    -0.464 OA
ATOM     19  C   UNL A   1      33.671  28.620  25.140  1.00  0.00     0.282 C 
ENDBRANCH  16  18
ENDBRANCH  11  16
ENDBRANCH   6  10
ENDBRANCH   3   5
ENDBRANCH   2   3
ENDBRANCH   1   2
BRANCH   1  20
ATOM     20  C   UNL A   1      40.743  22.251  26.376  1.00  0.00     0.275 C 
BRANCH  20  21
ATOM     21  O   UNL A   1      40.243  23.573  26.658  1.00  0.00    -0.458 OA
BRANCH  21  22
ATOM     22  C   UNL A   1      41.142  24.572  26.486  1.00  0.00     0.338 C 
ATOM     23  O   UNL A   1      41.970  24.677  25.598  1.00  0.00    -0.246 OA
BRANCH  22  24
ATOM     24  C   UNL A   1      40.894  25.635  27.471  1.00  0.00     0.060 A 
ATOM     25  C   UNL A   1      41.833  26.664  27.567  1.00  0.00     0.016 A 
ATOM     26  C   UNL A   1      39.810  25.579  28.347  1.00  0.00     0.016 A 
ATOM     27  C   UNL A   1      41.701  27.643  28.546  1.00  0.00     0.010 A 
ATOM     28  C   UNL A   1      39.678  26.565  29.332  1.00  0.00     0.010 A 
ATOM     29  C   UNL A   1      40.629  27.594  29.443  1.00  0.00    -0.014 A 
BRANCH  29  30
ATOM     30  C   UNL A   1      40.545  28.599  30.529  1.00  0.00     0.031 A 
ATOM     31  C   UNL A   1      41.502  28.530  31.683  1.00  0.00     0.074 A 
ATOM     32  C   UNL A   1      39.636  29.589  30.453  1.00  0.00     0.049 A 
ATOM     33  N   UNL A   1      41.550  29.270  32.761  1.00  0.00    -0.248 NA
ATOM     34  C   UNL A   1      42.543  27.493  31.616  1.00  0.00     0.031 C 
ATOM     35  C   UNL A   1      38.689  29.784  29.353  1.00  0.00     0.029 A 
ATOM     36  N   UNL A   1      39.362  30.618  31.317  1.00  0.00    -0.354 N 
ATOM     37  C   UNL A   1      42.607  28.776  33.513  1.00  0.00     0.074 A 
ATOM     38  C   UNL A   1      43.170  27.666  32.773  1.00  0.00     0.031 C 
ATOM     39  C   UNL A   1      37.939  30.868  29.609  1.00  0.00     0.029 A 
ATOM     40  C   UNL A   1      38.322  31.417  30.908  1.00  0.00     0.049 A 
ATOM     41  H   UNL A   1      39.863  30.770  32.151  1.00  0.00     0.167 HD
ATOM     42  C   UNL A   1      43.066  29.210  34.710  1.00  0.00     0.037 A 
ATOM     43  C   UNL A   1      37.728  32.458  31.522  1.00  0.00     0.037 A 
ATOM     44  C   UNL A   1      42.513  30.327  35.431  1.00  0.00     0.049 A 
ATOM     45  C   UNL A   1      38.229  32.896  32.871  1.00  0.00     0.074 A 
ATOM     46  C   UNL A   1      42.909  30.847  36.650  1.00  0.00     0.029 A 
ATOM     47  N   UNL A   1      41.444  31.097  34.995  1.00  0.00    -0.354 N 
ATOM     48  N   UNL A   1      39.218  32.407  33.580  1.00  0.00    -0.248 NA
ATOM     49  C   UNL A   1      37.531  34.022  33.506  1.00  0.00     0.031 C 
ATOM     50  C   UNL A   1      42.059  31.916  36.966  1.00  0.00     0.029 A 
ATOM     51  C   UNL A   1      41.158  32.080  35.926  1.00  0.00     0.049 A 
ATOM     52  H   UNL A   1      40.961  30.964  34.148  1.00  0.00     0.167 HD
ATOM     53  C   UNL A   1      39.271  33.173  34.739  1.00  0.00     0.074 A 
ATOM     54  C   UNL A   1      38.222  34.166  34.630  1.00  0.00     0.031 C 
ATOM     55  C   UNL A   1      40.111  33.063  35.797  1.00  0.00     0.037 A 
BRANCH  42  56
ATOM     56  C   UNL A   1      44.207  28.454  35.330  1.00  0.00     0.058 A 
ATOM     57  C   UNL A   1      45.544  28.747  35.018  1.00  0.00     0.135 A 
ATOM     58  C   UNL A   1      43.958  27.435  36.263  1.00  0.00     0.135 A 
ATOM     59  F   UNL A   1      45.835  29.699  34.118  1.00  0.00    -0.206 F 
ATOM     60  C   UNL A   1      46.595  28.037  35.593  1.00  0.00     0.059 A 
ATOM     61  C   UNL A   1      44.994  26.727  36.864  1.00  0.00     0.059 A 
ATOM     62  F   UNL A   1      42.697  27.114  36.592  1.00  0.00    -0.206 F 
ATOM     63  C   UNL A   1      46.309  27.026  36.511  1.00  0.00     0.060 A 
BRANCH  63  64
ATOM     64  S   UNL A   1      47.680  26.106  37.243  1.00  0.00     0.124 S 
ATOM     65  O   UNL A   1      46.986  24.953  37.807  1.00  0.00    -0.237 OA
ATOM     66  O   UNL A   1      48.530  25.833  36.089  1.00  0.00    -0.237 OA
ATOM     67  O   UNL A   1      48.234  27.044  38.216  1.00  0.00    -0.744 OA
ENDBRANCH  63  64
ENDBRANCH  42  56
BRANCH  43  68
ATOM     68  C   UNL A   1      36.579  33.140  30.874  1.00  0.00     0.058 A 
ATOM     69  C   UNL A   1      35.278  32.999  31.374  1.00  0.00     0.135 A 
ATOM     70  C   UNL A   1      36.766  33.962  29.752  1.00  0.00     0.135 A 
ATOM     71  F   UNL A   1      35.049  32.216  32.439  1.00  0.00    -0.206 F 
ATOM     72  C   UNL A   1      34.197  33.646  30.782  1.00  0.00     0.059 A 
ATOM     73  C   UNL A   1      35.706  34.636  29.155  1.00  0.00     0.059 A 
ATOM     74  F   UNL A   1      37.995  34.137  29.242  1.00  0.00    -0.206 F 
ATOM     75  C   UNL A   1      34.422  34.465  29.673  1.00  0.00     0.060 A 
BRANCH  75  76
ATOM     76  S   UNL A   1      33.026  35.349  28.945  1.00  0.00     0.124 S 
ATOM     77  O   UNL A   1      32.196  35.599  30.118  1.00  0.00    -0.237 OA
ATOM     78  O   UNL A   1      33.671  36.520  28.358  1.00  0.00    -0.237 OA
ATOM     79  O   UNL A   1      32.490  34.392  27.982  1.00  0.00    -0.744 OA
ENDBRANCH  75  76
ENDBRANCH  43  68
BRANCH  55  80
ATOM     80  C   UNL A   1      39.945  34.055  36.911  1.00  0.00     0.058 A 
ATOM     81  C   UNL A   1      40.566  35.313  36.872  1.00  0.00     0.135 A 
ATOM     82  C   UNL A   1      39.118  33.762  38.006  1.00  0.00     0.135 A 
ATOM     83  F   UNL A   1      41.372  35.636  35.848  1.00  0.00    -0.206 F 
ATOM     84  C   UNL A   1      40.384  36.243  37.889  1.00  0.00     0.059 A 
ATOM     85  C   UNL A   1      38.906  34.685  39.025  1.00  0.00     0.059 A 
ATOM     86  F   UNL A   1      38.496  32.575  38.086  1.00  0.00    -0.206 F 
ATOM     87  C   UNL A   1      39.552  35.920  38.962  1.00  0.00     0.060 A 
BRANCH  87  88
ATOM     88  S   UNL A   1      39.290  37.147  40.261  1.00  0.00     0.124 S 
ATOM     89  O   UNL A   1      38.522  38.165  39.551  1.00  0.00    -0.237 OA
ATOM     90  O   UNL A   1      38.556  36.389  41.269  1.00  0.00    -0.237 OA
ATOM     91  O   UNL A   1      40.645  37.533  40.641  1.00  0.00    -0.744 OA
ENDBRANCH  87  88
ENDBRANCH  55  80
ENDBRANCH  29  30
ENDBRANCH  22  24
ENDBRANCH  21  22
ENDBRANCH  20  21
ENDBRANCH   1  20
TORSDOF 17
ENDMDL
