MODEL 1
REMARK VINA RESULT:     -10.2      0.000      0.000
REMARK SMILES C#CCN(CC(=O)OCCOC(=O)c1ccc(-c2c3nc(c(-c4c(F)cc(S(=O)(=O)[O-])cc4F)c4ccc([nH]4)c(-c4c(F)cc(S(=O)(=O)[O-])cc4F)c4nc(c(-c5c(F)cc(S(=O)(=O)[O-])cc5F)c5ccc2[nH]5)C=C4)C=C3)cc1)C(=O)[C@H](c1ccc(Cl)cc1)C(C)C
REMARK SMILES IDX 9 1 8 2 6 3 7 4 5 5 4 6 3 7 2 8 1 9 80 10 81 11 82 12 90 13
REMARK SMILES IDX 91 14 92 15 83 16 84 17 89 18 85 19 88 20 86 21 87 22 10 23
REMARK SMILES IDX 11 24 12 25 13 26 14 27 15 28 79 29 16 30 78 31 17 32 18 33
REMARK SMILES IDX 19 34 72 35 20 36 77 37 71 38 73 39 21 40 76 41 70 42 69 43
REMARK SMILES IDX 22 45 56 46 35 47 55 48 36 49 39 50 54 51 74 52 37 53 38 54
REMARK SMILES IDX 53 56 75 57 40 58 23 59 24 60 33 61 25 62 26 63 32 64 34 65
REMARK SMILES IDX 27 66 28 67 29 68 30 69 31 70 57 71 58 72 67 73 59 74 60 75
REMARK SMILES IDX 66 76 68 77 61 78 62 79 63 80 64 81 65 82 41 83 42 84 51 85
REMARK SMILES IDX 43 86 44 87 50 88 52 89 45 90 46 91 47 92 48 93 49 94
REMARK H PARENT 73 44 39 55
REMARK Flexibility Score: inf
ROOT
ATOM      1  C   UNL A   1      36.103  21.680  24.658  1.00  0.00     0.274 C 
ENDROOT
BRANCH   1   2
ATOM      2  O   UNL A   1      35.460  22.027  25.927  1.00  0.00    -0.461 OA
BRANCH   2   3
ATOM      3  C   UNL A   1      34.818  23.238  25.967  1.00  0.00     0.325 C 
ATOM      4  O   UNL A   1      35.021  24.135  25.150  1.00  0.00    -0.250 OA
BRANCH   3   5
ATOM      5  C   UNL A   1      33.628  23.300  26.965  1.00  0.00     0.243 C 
BRANCH   5   6
ATOM      6  N   UNL A   1      32.222  23.128  26.544  1.00  0.00    -0.320 N 
BRANCH   6   7
ATOM      7  C   UNL A   1      32.013  21.943  25.825  1.00  0.00     0.210 C 
BRANCH   7   8
ATOM      8  C   UNL A   1      32.234  21.904  24.321  1.00  0.00    -0.085 C 
ATOM      9  C   UNL A   1      32.423  21.870  23.032  1.00  0.00     0.006 C 
ENDBRANCH   7   8
ENDBRANCH   6   7
BRANCH   6  10
ATOM     10  C   UNL A   1      31.334  24.134  26.215  1.00  0.00     0.231 C 
ATOM     11  O   UNL A   1      30.228  24.164  26.774  1.00  0.00    -0.274 OA
BRANCH  10  12
ATOM     12  C   UNL A   1      31.681  25.209  25.184  1.00  0.00     0.111 C 
BRANCH  12  13
ATOM     13  C   UNL A   1      30.746  25.226  23.931  1.00  0.00    -0.000 C 
ATOM     14  C   UNL A   1      29.744  26.371  24.094  1.00  0.00     0.008 C 
ATOM     15  C   UNL A   1      31.403  25.466  22.562  1.00  0.00     0.008 C 
ENDBRANCH  12  13
BRANCH  12  16
ATOM     16  C   UNL A   1      32.091  26.542  25.813  1.00  0.00    -0.035 A 
ATOM     17  C   UNL A   1      31.557  27.212  26.905  1.00  0.00     0.006 A 
ATOM     18  C   UNL A   1      33.277  27.072  25.300  1.00  0.00     0.006 A 
ATOM     19  C   UNL A   1      32.231  28.344  27.435  1.00  0.00     0.021 A 
ATOM     20  C   UNL A   1      33.997  28.137  25.832  1.00  0.00     0.021 A 
ATOM     21  C   UNL A   1      33.450  28.790  26.908  1.00  0.00     0.041 A 
ATOM     22  Cl  UNL A   1      34.289  30.135  27.563  1.00  0.00    -0.084 Cl
ENDBRANCH  12  16
ENDBRANCH  10  12
ENDBRANCH   6  10
ENDBRANCH   5   6
ENDBRANCH   3   5
ENDBRANCH   2   3
ENDBRANCH   1   2
BRANCH   1  23
ATOM     23  C   UNL A   1      37.676  21.701  24.739  1.00  0.00     0.275 C 
BRANCH  23  24
ATOM     24  O   UNL A   1      38.237  21.848  26.097  1.00  0.00    -0.458 OA
BRANCH  24  25
ATOM     25  C   UNL A   1      39.487  22.418  26.210  1.00  0.00     0.338 C 
ATOM     26  O   UNL A   1      40.507  21.880  25.787  1.00  0.00    -0.246 OA
BRANCH  25  27
ATOM     27  C   UNL A   1      39.513  23.846  26.743  1.00  0.00     0.060 A 
ATOM     28  C   UNL A   1      40.482  24.750  26.360  1.00  0.00     0.016 A 
ATOM     29  C   UNL A   1      38.685  24.270  27.792  1.00  0.00     0.016 A 
ATOM     30  C   UNL A   1      40.842  25.834  27.190  1.00  0.00     0.010 A 
ATOM     31  C   UNL A   1      38.915  25.501  28.489  1.00  0.00     0.010 A 
ATOM     32  C   UNL A   1      40.061  26.286  28.259  1.00  0.00    -0.014 A 
BRANCH  32  33
ATOM     33  C   UNL A   1      40.449  27.518  29.084  1.00  0.00     0.031 A 
ATOM     34  C   UNL A   1      41.734  27.561  29.919  1.00  0.00     0.074 A 
ATOM     35  C   UNL A   1      39.714  28.662  29.085  1.00  0.00     0.049 A 
ATOM     36  N   UNL A   1      42.075  28.346  30.917  1.00  0.00    -0.248 NA
ATOM     37  C   UNL A   1      42.792  26.615  29.553  1.00  0.00     0.031 C 
ATOM     38  C   UNL A   1      38.545  28.953  28.252  1.00  0.00     0.029 A 
ATOM     39  N   UNL A   1      39.843  29.818  29.838  1.00  0.00    -0.354 N 
ATOM     40  C   UNL A   1      43.348  27.937  31.331  1.00  0.00     0.074 A 
ATOM     41  C   UNL A   1      43.742  26.868  30.443  1.00  0.00     0.031 C 
ATOM     42  C   UNL A   1      38.105  30.193  28.489  1.00  0.00     0.029 A 
ATOM     43  C   UNL A   1      38.817  30.721  29.639  1.00  0.00     0.049 A 
ATOM     44  H   UNL A   1      40.593  29.982  30.455  1.00  0.00     0.167 HD
ATOM     45  C   UNL A   1      44.103  28.380  32.372  1.00  0.00     0.037 A 
ATOM     46  C   UNL A   1      38.384  31.782  30.352  1.00  0.00     0.037 A 
ATOM     47  C   UNL A   1      43.708  29.459  33.246  1.00  0.00     0.049 A 
ATOM     48  C   UNL A   1      39.094  32.146  31.621  1.00  0.00     0.074 A 
ATOM     49  C   UNL A   1      44.335  29.928  34.390  1.00  0.00     0.029 A 
ATOM     50  N   UNL A   1      42.580  30.245  33.064  1.00  0.00    -0.354 N 
ATOM     51  N   UNL A   1      40.186  31.628  32.126  1.00  0.00    -0.248 NA
ATOM     52  C   UNL A   1      38.496  33.211  32.435  1.00  0.00     0.031 C 
ATOM     53  C   UNL A   1      43.552  30.956  34.929  1.00  0.00     0.029 A 
ATOM     54  C   UNL A   1      42.475  31.175  34.086  1.00  0.00     0.049 A 
ATOM     55  H   UNL A   1      41.945  30.156  32.316  1.00  0.00     0.167 HD
ATOM     56  C   UNL A   1      40.419  32.318  33.309  1.00  0.00     0.074 A 
ATOM     57  C   UNL A   1      39.360  33.297  33.437  1.00  0.00     0.031 C 
ATOM     58  C   UNL A   1      41.423  32.153  34.205  1.00  0.00     0.037 A 
BRANCH  45  59
ATOM     59  C   UNL A   1      45.373  27.625  32.704  1.00  0.00     0.058 A 
ATOM     60  C   UNL A   1      46.636  27.989  32.211  1.00  0.00     0.135 A 
ATOM     61  C   UNL A   1      45.315  26.500  33.551  1.00  0.00     0.135 A 
ATOM     62  F   UNL A   1      46.763  29.049  31.398  1.00  0.00    -0.206 F 
ATOM     63  C   UNL A   1      47.780  27.242  32.502  1.00  0.00     0.059 A 
ATOM     64  C   UNL A   1      46.446  25.756  33.876  1.00  0.00     0.059 A 
ATOM     65  F   UNL A   1      44.141  26.106  34.068  1.00  0.00    -0.206 F 
ATOM     66  C   UNL A   1      47.673  26.119  33.325  1.00  0.00     0.060 A 
BRANCH  66  67
ATOM     67  S   UNL A   1      49.147  25.120  33.642  1.00  0.00     0.124 S 
ATOM     68  O   UNL A   1      49.849  25.944  34.623  1.00  0.00    -0.237 OA
ATOM     69  O   UNL A   1      48.580  23.876  34.150  1.00  0.00    -0.237 OA
ATOM     70  O   UNL A   1      49.785  25.026  32.333  1.00  0.00    -0.744 OA
ENDBRANCH  66  67
ENDBRANCH  45  59
BRANCH  46  71
ATOM     71  C   UNL A   1      37.129  32.489  29.946  1.00  0.00     0.058 A 
ATOM     72  C   UNL A   1      35.868  32.027  30.347  1.00  0.00     0.135 A 
ATOM     73  C   UNL A   1      37.171  33.667  29.174  1.00  0.00     0.135 A 
ATOM     74  F   UNL A   1      35.765  30.895  31.059  1.00  0.00    -0.206 F 
ATOM     75  C   UNL A   1      34.701  32.710  30.014  1.00  0.00     0.059 A 
ATOM     76  C   UNL A   1      36.023  34.387  28.864  1.00  0.00     0.059 A 
ATOM     77  F   UNL A   1      38.350  34.157  28.757  1.00  0.00    -0.206 F 
ATOM     78  C   UNL A   1      34.789  33.898  29.284  1.00  0.00     0.060 A 
BRANCH  78  79
ATOM     79  S   UNL A   1      33.277  34.821  28.933  1.00  0.00     0.124 S 
ATOM     80  O   UNL A   1      33.809  36.051  28.359  1.00  0.00    -0.237 OA
ATOM     81  O   UNL A   1      32.584  33.930  28.007  1.00  0.00    -0.237 OA
ATOM     82  O   UNL A   1      32.652  34.955  30.245  1.00  0.00    -0.744 OA
ENDBRANCH  78  79
ENDBRANCH  46  71
BRANCH  58  83
ATOM     83  C   UNL A   1      41.461  33.091  35.377  1.00  0.00     0.058 A 
ATOM     84  C   UNL A   1      42.138  34.319  35.324  1.00  0.00     0.135 A 
ATOM     85  C   UNL A   1      40.775  32.768  36.559  1.00  0.00     0.135 A 
ATOM     86  F   UNL A   1      42.821  34.668  34.222  1.00  0.00    -0.206 F 
ATOM     87  C   UNL A   1      42.151  35.186  36.411  1.00  0.00     0.059 A 
ATOM     88  C   UNL A   1      40.750  33.633  37.647  1.00  0.00     0.059 A 
ATOM     89  F   UNL A   1      40.109  31.607  36.660  1.00  0.00    -0.206 F 
ATOM     90  C   UNL A   1      41.450  34.836  37.567  1.00  0.00     0.060 A 
BRANCH  90  91
ATOM     91  S   UNL A   1      41.442  35.988  38.956  1.00  0.00     0.124 S 
ATOM     92  O   UNL A   1      42.854  36.341  39.055  1.00  0.00    -0.237 OA
ATOM     93  O   UNL A   1      40.556  37.045  38.479  1.00  0.00    -0.237 OA
ATOM     94  O   UNL A   1      40.916  35.189  40.059  1.00  0.00    -0.744 OA
ENDBRANCH  90  91
ENDBRANCH  58  83
ENDBRANCH  32  33
ENDBRANCH  25  27
ENDBRANCH  24  25
ENDBRANCH  23  24
ENDBRANCH   1  23
TORSDOF 21
ENDMDL
MODEL 2
REMARK VINA RESULT:     -10.2      4.430     10.179
REMARK SMILES C#CCN(CC(=O)OCCOC(=O)c1ccc(-c2c3nc(c(-c4c(F)cc(S(=O)(=O)[O-])cc4F)c4ccc([nH]4)c(-c4c(F)cc(S(=O)(=O)[O-])cc4F)c4nc(c(-c5c(F)cc(S(=O)(=O)[O-])cc5F)c5ccc2[nH]5)C=C4)C=C3)cc1)C(=O)[C@H](c1ccc(Cl)cc1)C(C)C
REMARK SMILES IDX 9 1 8 2 6 3 7 4 5 5 4 6 3 7 2 8 1 9 80 10 81 11 82 12 90 13
REMARK SMILES IDX 91 14 92 15 83 16 84 17 89 18 85 19 88 20 86 21 87 22 10 23
REMARK SMILES IDX 11 24 12 25 13 26 14 27 15 28 79 29 16 30 78 31 17 32 18 33
REMARK SMILES IDX 19 34 72 35 20 36 77 37 71 38 73 39 21 40 76 41 70 42 69 43
REMARK SMILES IDX 22 45 56 46 35 47 55 48 36 49 39 50 54 51 74 52 37 53 38 54
REMARK SMILES IDX 53 56 75 57 40 58 23 59 24 60 33 61 25 62 26 63 32 64 34 65
REMARK SMILES IDX 27 66 28 67 29 68 30 69 31 70 57 71 58 72 67 73 59 74 60 75
REMARK SMILES IDX 66 76 68 77 61 78 62 79 63 80 64 81 65 82 41 83 42 84 51 85
REMARK SMILES IDX 43 86 44 87 50 88 52 89 45 90 46 91 47 92 48 93 49 94
REMARK H PARENT 73 44 39 55
REMARK Flexibility Score: inf
ROOT
ATOM      1  C   UNL A   1      31.418  27.909  26.534  1.00  0.00     0.274 C 
ENDROOT
BRANCH   1   2
ATOM      2  O   UNL A   1      30.741  27.169  25.466  1.00  0.00    -0.461 OA
BRANCH   2   3
ATOM      3  C   UNL A   1      30.409  25.869  25.751  1.00  0.00     0.325 C 
ATOM      4  O   UNL A   1      29.480  25.558  26.493  1.00  0.00    -0.250 OA
BRANCH   3   5
ATOM      5  C   UNL A   1      31.130  24.815  24.863  1.00  0.00     0.243 C 
BRANCH   5   6
ATOM      6  N   UNL A   1      32.543  24.431  25.067  1.00  0.00    -0.320 N 
BRANCH   6   7
ATOM      7  C   UNL A   1      32.941  24.526  26.409  1.00  0.00     0.210 C 
BRANCH   7   8
ATOM      8  C   UNL A   1      33.056  23.278  27.269  1.00  0.00    -0.085 C 
ATOM      9  C   UNL A   1      33.153  22.208  28.007  1.00  0.00     0.006 C 
ENDBRANCH   7   8
ENDBRANCH   6   7
BRANCH   6  10
ATOM     10  C   UNL A   1      33.580  24.606  24.173  1.00  0.00     0.231 C 
ATOM     11  O   UNL A   1      33.876  25.756  23.816  1.00  0.00    -0.274 OA
BRANCH  10  12
ATOM     12  C   UNL A   1      34.373  23.422  23.616  1.00  0.00     0.111 C 
BRANCH  12  13
ATOM     13  C   UNL A   1      35.913  23.500  23.876  1.00  0.00    -0.000 C 
ATOM     14  C   UNL A   1      36.134  23.950  25.322  1.00  0.00     0.008 C 
ATOM     15  C   UNL A   1      36.719  22.198  23.739  1.00  0.00     0.008 C 
ENDBRANCH  12  13
BRANCH  12  16
ATOM     16  C   UNL A   1      33.664  22.079  23.796  1.00  0.00    -0.035 A 
ATOM     17  C   UNL A   1      32.599  21.535  23.092  1.00  0.00     0.006 A 
ATOM     18  C   UNL A   1      34.293  21.221  24.700  1.00  0.00     0.006 A 
ATOM     19  C   UNL A   1      32.234  20.178  23.305  1.00  0.00     0.021 A 
ATOM     20  C   UNL A   1      34.004  19.872  24.886  1.00  0.00     0.021 A 
ATOM     21  C   UNL A   1      32.945  19.353  24.186  1.00  0.00     0.041 A 
ATOM     22  Cl  UNL A   1      32.534  17.706  24.424  1.00  0.00    -0.084 Cl
ENDBRANCH  12  16
ENDBRANCH  10  12
ENDBRANCH   6  10
ENDBRANCH   5   6
ENDBRANCH   3   5
ENDBRANCH   2   3
ENDBRANCH   1   2
BRANCH   1  23
ATOM     23  C   UNL A   1      32.873  28.365  26.138  1.00  0.00     0.275 C 
BRANCH  23  24
ATOM     24  O   UNL A   1      33.834  28.450  27.256  1.00  0.00    -0.458 OA
BRANCH  24  25
ATOM     25  C   UNL A   1      34.281  29.703  27.617  1.00  0.00     0.338 C 
ATOM     26  O   UNL A   1      33.535  30.674  27.717  1.00  0.00    -0.246 OA
BRANCH  25  27
ATOM     27  C   UNL A   1      35.739  29.782  28.055  1.00  0.00     0.060 A 
ATOM     28  C   UNL A   1      36.747  30.125  27.179  1.00  0.00     0.016 A 
ATOM     29  C   UNL A   1      36.170  29.325  29.308  1.00  0.00     0.016 A 
ATOM     30  C   UNL A   1      38.077  29.704  27.390  1.00  0.00     0.010 A 
ATOM     31  C   UNL A   1      37.558  29.118  29.603  1.00  0.00     0.010 A 
ATOM     32  C   UNL A   1      38.554  29.225  28.614  1.00  0.00    -0.014 A 
BRANCH  32  33
ATOM     33  C   UNL A   1      40.026  28.854  28.823  1.00  0.00     0.031 A 
ATOM     34  C   UNL A   1      41.060  29.880  29.303  1.00  0.00     0.074 A 
ATOM     35  C   UNL A   1      40.497  27.589  28.654  1.00  0.00     0.049 A 
ATOM     36  N   UNL A   1      42.372  29.865  29.229  1.00  0.00    -0.248 NA
ATOM     37  C   UNL A   1      40.543  31.067  29.992  1.00  0.00     0.031 C 
ATOM     38  C   UNL A   1      39.703  26.391  28.369  1.00  0.00     0.029 A 
ATOM     39  N   UNL A   1      41.790  27.093  28.688  1.00  0.00    -0.354 N 
ATOM     40  C   UNL A   1      42.819  31.063  29.798  1.00  0.00     0.074 A 
ATOM     41  C   UNL A   1      41.641  31.760  30.258  1.00  0.00     0.031 C 
ATOM     42  C   UNL A   1      40.495  25.315  28.310  1.00  0.00     0.029 A 
ATOM     43  C   UNL A   1      41.876  25.760  28.340  1.00  0.00     0.049 A 
ATOM     44  H   UNL A   1      42.572  27.637  28.938  1.00  0.00     0.167 HD
ATOM     45  C   UNL A   1      44.083  31.556  29.894  1.00  0.00     0.037 A 
ATOM     46  C   UNL A   1      42.910  24.983  27.950  1.00  0.00     0.037 A 
ATOM     47  C   UNL A   1      45.257  30.847  29.445  1.00  0.00     0.049 A 
ATOM     48  C   UNL A   1      44.279  25.587  27.854  1.00  0.00     0.074 A 
ATOM     49  C   UNL A   1      46.572  31.281  29.394  1.00  0.00     0.029 A 
ATOM     50  N   UNL A   1      45.253  29.543  28.972  1.00  0.00    -0.354 N 
ATOM     51  N   UNL A   1      44.670  26.789  28.198  1.00  0.00    -0.248 NA
ATOM     52  C   UNL A   1      45.337  24.745  27.283  1.00  0.00     0.031 C 
ATOM     53  C   UNL A   1      47.350  30.260  28.835  1.00  0.00     0.029 A 
ATOM     54  C   UNL A   1      46.534  29.166  28.601  1.00  0.00     0.049 A 
ATOM     55  H   UNL A   1      44.457  28.968  28.909  1.00  0.00     0.167 HD
ATOM     56  C   UNL A   1      46.027  26.842  27.906  1.00  0.00     0.074 A 
ATOM     57  C   UNL A   1      46.390  25.548  27.367  1.00  0.00     0.031 C 
ATOM     58  C   UNL A   1      46.892  27.873  28.073  1.00  0.00     0.037 A 
BRANCH  45  59
ATOM     59  C   UNL A   1      44.258  32.975  30.394  1.00  0.00     0.058 A 
ATOM     60  C   UNL A   1      44.587  33.288  31.723  1.00  0.00     0.135 A 
ATOM     61  C   UNL A   1      44.094  34.054  29.504  1.00  0.00     0.135 A 
ATOM     62  F   UNL A   1      44.756  32.308  32.625  1.00  0.00    -0.206 F 
ATOM     63  C   UNL A   1      44.697  34.610  32.160  1.00  0.00     0.059 A 
ATOM     64  C   UNL A   1      44.225  35.380  29.911  1.00  0.00     0.059 A 
ATOM     65  F   UNL A   1      43.793  33.825  28.216  1.00  0.00    -0.206 F 
ATOM     66  C   UNL A   1      44.500  35.650  31.250  1.00  0.00     0.060 A 
BRANCH  66  67
ATOM     67  S   UNL A   1      44.578  37.358  31.838  1.00  0.00     0.124 S 
ATOM     68  O   UNL A   1      44.439  38.102  30.589  1.00  0.00    -0.237 OA
ATOM     69  O   UNL A   1      43.440  37.430  32.748  1.00  0.00    -0.237 OA
ATOM     70  O   UNL A   1      45.890  37.442  32.473  1.00  0.00    -0.744 OA
ENDBRANCH  66  67
ENDBRANCH  45  59
BRANCH  46  71
ATOM     71  C   UNL A   1      42.656  23.583  27.488  1.00  0.00     0.058 A 
ATOM     72  C   UNL A   1      42.545  23.272  26.126  1.00  0.00     0.135 A 
ATOM     73  C   UNL A   1      42.554  22.519  28.405  1.00  0.00     0.135 A 
ATOM     74  F   UNL A   1      42.606  24.248  25.209  1.00  0.00    -0.206 F 
ATOM     75  C   UNL A   1      42.359  21.962  25.689  1.00  0.00     0.059 A 
ATOM     76  C   UNL A   1      42.408  21.199  27.992  1.00  0.00     0.059 A 
ATOM     77  F   UNL A   1      42.648  22.755  29.724  1.00  0.00    -0.206 F 
ATOM     78  C   UNL A   1      42.307  20.930  26.630  1.00  0.00     0.060 A 
BRANCH  78  79
ATOM     79  S   UNL A   1      42.153  19.227  26.047  1.00  0.00     0.124 S 
ATOM     80  O   UNL A   1      43.027  19.236  24.880  1.00  0.00    -0.237 OA
ATOM     81  O   UNL A   1      42.630  18.467  27.198  1.00  0.00    -0.237 OA
ATOM     82  O   UNL A   1      40.726  19.095  25.766  1.00  0.00    -0.744 OA
ENDBRANCH  78  79
ENDBRANCH  46  71
BRANCH  58  83
ATOM     83  C   UNL A   1      48.331  27.627  27.723  1.00  0.00     0.058 A 
ATOM     84  C   UNL A   1      49.257  27.166  28.671  1.00  0.00     0.135 A 
ATOM     85  C   UNL A   1      48.779  27.822  26.406  1.00  0.00     0.135 A 
ATOM     86  F   UNL A   1      48.884  26.978  29.947  1.00  0.00    -0.206 F 
ATOM     87  C   UNL A   1      50.584  26.926  28.330  1.00  0.00     0.059 A 
ATOM     88  C   UNL A   1      50.093  27.561  26.037  1.00  0.00     0.059 A 
ATOM     89  F   UNL A   1      47.932  28.258  25.461  1.00  0.00    -0.206 F 
ATOM     90  C   UNL A   1      50.992  27.122  27.009  1.00  0.00     0.060 A 
BRANCH  90  91
ATOM     91  S   UNL A   1      52.706  26.769  26.571  1.00  0.00     0.124 S 
ATOM     92  O   UNL A   1      52.668  25.325  26.370  1.00  0.00    -0.237 OA
ATOM     93  O   UNL A   1      52.891  27.573  25.366  1.00  0.00    -0.237 OA
ATOM     94  O   UNL A   1      53.457  27.222  27.738  1.00  0.00    -0.744 OA
ENDBRANCH  90  91
ENDBRANCH  58  83
ENDBRANCH  32  33
ENDBRANCH  25  27
ENDBRANCH  24  25
ENDBRANCH  23  24
ENDBRANCH   1  23
TORSDOF 21
ENDMDL
MODEL 3
REMARK VINA RESULT:     -10.1      4.397     10.079
REMARK SMILES C#CCN(CC(=O)OCCOC(=O)c1ccc(-c2c3nc(c(-c4c(F)cc(S(=O)(=O)[O-])cc4F)c4ccc([nH]4)c(-c4c(F)cc(S(=O)(=O)[O-])cc4F)c4nc(c(-c5c(F)cc(S(=O)(=O)[O-])cc5F)c5ccc2[nH]5)C=C4)C=C3)cc1)C(=O)[C@H](c1ccc(Cl)cc1)C(C)C
REMARK SMILES IDX 9 1 8 2 6 3 7 4 5 5 4 6 3 7 2 8 1 9 80 10 81 11 82 12 90 13
REMARK SMILES IDX 91 14 92 15 83 16 84 17 89 18 85 19 88 20 86 21 87 22 10 23
REMARK SMILES IDX 11 24 12 25 13 26 14 27 15 28 79 29 16 30 78 31 17 32 18 33
REMARK SMILES IDX 19 34 72 35 20 36 77 37 71 38 73 39 21 40 76 41 70 42 69 43
REMARK SMILES IDX 22 45 56 46 35 47 55 48 36 49 39 50 54 51 74 52 37 53 38 54
REMARK SMILES IDX 53 56 75 57 40 58 23 59 24 60 33 61 25 62 26 63 32 64 34 65
REMARK SMILES IDX 27 66 28 67 29 68 30 69 31 70 57 71 58 72 67 73 59 74 60 75
REMARK SMILES IDX 66 76 68 77 61 78 62 79 63 80 64 81 65 82 41 83 42 84 51 85
REMARK SMILES IDX 43 86 44 87 50 88 52 89 45 90 46 91 47 92 48 93 49 94
REMARK H PARENT 73 44 39 55
REMARK Flexibility Score: inf
ROOT
ATOM      1  C   UNL A   1      32.414  27.692  25.099  1.00  0.00     0.274 C 
ENDROOT
BRANCH   1   2
ATOM      2  O   UNL A   1      32.548  26.263  24.806  1.00  0.00    -0.461 OA
BRANCH   2   3
ATOM      3  C   UNL A   1      32.560  25.917  23.479  1.00  0.00     0.325 C 
ATOM      4  O   UNL A   1      31.805  26.416  22.647  1.00  0.00    -0.250 OA
BRANCH   3   5
ATOM      5  C   UNL A   1      33.772  25.039  23.057  1.00  0.00     0.243 C 
BRANCH   5   6
ATOM      6  N   UNL A   1      34.194  23.842  23.816  1.00  0.00    -0.320 N 
BRANCH   6   7
ATOM      7  C   UNL A   1      35.536  23.504  23.590  1.00  0.00     0.210 C 
BRANCH   7   8
ATOM      8  C   UNL A   1      36.553  23.593  24.716  1.00  0.00    -0.085 C 
ATOM      9  C   UNL A   1      37.427  23.670  25.681  1.00  0.00     0.006 C 
ENDBRANCH   7   8
ENDBRANCH   6   7
BRANCH   6  10
ATOM     10  C   UNL A   1      33.404  22.761  24.151  1.00  0.00     0.231 C 
ATOM     11  O   UNL A   1      32.372  22.547  23.499  1.00  0.00    -0.274 OA
BRANCH  10  12
ATOM     12  C   UNL A   1      33.771  21.820  25.300  1.00  0.00     0.111 C 
BRANCH  12  13
ATOM     13  C   UNL A   1      33.096  22.177  26.665  1.00  0.00    -0.000 C 
ATOM     14  C   UNL A   1      34.188  22.631  27.637  1.00  0.00     0.008 C 
ATOM     15  C   UNL A   1      32.065  23.318  26.666  1.00  0.00     0.008 C 
ENDBRANCH  12  13
BRANCH  12  16
ATOM     16  C   UNL A   1      33.849  20.351  24.881  1.00  0.00    -0.035 A 
ATOM     17  C   UNL A   1      34.953  19.522  24.746  1.00  0.00     0.006 A 
ATOM     18  C   UNL A   1      32.606  19.724  24.774  1.00  0.00     0.006 A 
ATOM     19  C   UNL A   1      34.767  18.129  24.538  1.00  0.00     0.021 A 
ATOM     20  C   UNL A   1      32.387  18.357  24.635  1.00  0.00     0.021 A 
ATOM     21  C   UNL A   1      33.490  17.554  24.499  1.00  0.00     0.041 A 
ATOM     22  Cl  UNL A   1      33.256  15.869  24.282  1.00  0.00    -0.084 Cl
ENDBRANCH  12  16
ENDBRANCH  10  12
ENDBRANCH   6  10
ENDBRANCH   5   6
ENDBRANCH   3   5
ENDBRANCH   2   3
ENDBRANCH   1   2
BRANCH   1  23
ATOM     23  C   UNL A   1      33.723  28.320  25.708  1.00  0.00     0.275 C 
BRANCH  23  24
ATOM     24  O   UNL A   1      33.676  28.599  27.157  1.00  0.00    -0.458 OA
BRANCH  24  25
ATOM     25  C   UNL A   1      34.096  29.842  27.579  1.00  0.00     0.338 C 
ATOM     26  O   UNL A   1      33.332  30.796  27.708  1.00  0.00    -0.246 OA
BRANCH  25  27
ATOM     27  C   UNL A   1      35.545  29.924  28.046  1.00  0.00     0.060 A 
ATOM     28  C   UNL A   1      36.566  30.289  27.195  1.00  0.00     0.016 A 
ATOM     29  C   UNL A   1      35.956  29.451  29.300  1.00  0.00     0.016 A 
ATOM     30  C   UNL A   1      37.896  29.874  27.424  1.00  0.00     0.010 A 
ATOM     31  C   UNL A   1      37.339  29.250  29.618  1.00  0.00     0.010 A 
ATOM     32  C   UNL A   1      38.353  29.379  28.650  1.00  0.00    -0.014 A 
BRANCH  32  33
ATOM     33  C   UNL A   1      39.824  29.016  28.881  1.00  0.00     0.031 A 
ATOM     34  C   UNL A   1      40.843  30.045  29.385  1.00  0.00     0.074 A 
ATOM     35  C   UNL A   1      40.305  27.756  28.711  1.00  0.00     0.049 A 
ATOM     36  N   UNL A   1      42.157  30.039  29.333  1.00  0.00    -0.248 NA
ATOM     37  C   UNL A   1      40.307  31.224  30.072  1.00  0.00     0.031 C 
ATOM     38  C   UNL A   1      39.523  26.554  28.405  1.00  0.00     0.029 A 
ATOM     39  N   UNL A   1      41.600  27.267  28.764  1.00  0.00    -0.354 N 
ATOM     40  C   UNL A   1      42.586  31.236  29.917  1.00  0.00     0.074 A 
ATOM     41  C   UNL A   1      41.397  31.923  30.362  1.00  0.00     0.031 C 
ATOM     42  C   UNL A   1      40.323  25.483  28.353  1.00  0.00     0.029 A 
ATOM     43  C   UNL A   1      41.701  25.937  28.408  1.00  0.00     0.049 A 
ATOM     44  H   UNL A   1      42.374  27.814  29.030  1.00  0.00     0.167 HD
ATOM     45  C   UNL A   1      43.845  31.736  30.037  1.00  0.00     0.037 A 
ATOM     46  C   UNL A   1      42.745  25.169  28.030  1.00  0.00     0.037 A 
ATOM     47  C   UNL A   1      45.031  31.037  29.602  1.00  0.00     0.049 A 
ATOM     48  C   UNL A   1      44.112  25.782  27.962  1.00  0.00     0.074 A 
ATOM     49  C   UNL A   1      46.344  31.479  29.577  1.00  0.00     0.029 A 
ATOM     50  N   UNL A   1      45.043  29.736  29.121  1.00  0.00    -0.354 N 
ATOM     51  N   UNL A   1      44.490  26.984  28.320  1.00  0.00    -0.248 NA
ATOM     52  C   UNL A   1      45.185  24.950  27.403  1.00  0.00     0.031 C 
ATOM     53  C   UNL A   1      47.138  30.467  29.024  1.00  0.00     0.029 A 
ATOM     54  C   UNL A   1      46.333  29.369  28.770  1.00  0.00     0.049 A 
ATOM     55  H   UNL A   1      44.251  29.157  29.042  1.00  0.00     0.167 HD
ATOM     56  C   UNL A   1      45.852  27.047  28.051  1.00  0.00     0.074 A 
ATOM     57  C   UNL A   1      46.231  25.759  27.509  1.00  0.00     0.031 C 
ATOM     58  C   UNL A   1      46.707  28.082  28.239  1.00  0.00     0.037 A 
BRANCH  45  59
ATOM     59  C   UNL A   1      44.004  33.153  30.549  1.00  0.00     0.058 A 
ATOM     60  C   UNL A   1      43.866  34.286  29.732  1.00  0.00     0.135 A 
ATOM     61  C   UNL A   1      44.300  33.375  31.908  1.00  0.00     0.135 A 
ATOM     62  F   UNL A   1      43.586  34.147  28.427  1.00  0.00    -0.206 F 
ATOM     63  C   UNL A   1      44.063  35.577  30.229  1.00  0.00     0.059 A 
ATOM     64  C   UNL A   1      44.474  34.654  32.432  1.00  0.00     0.059 A 
ATOM     65  F   UNL A   1      44.431  32.335  32.748  1.00  0.00    -0.206 F 
ATOM     66  C   UNL A   1      44.381  35.750  31.577  1.00  0.00     0.060 A 
BRANCH  66  67
ATOM     67  S   UNL A   1      44.700  37.419  32.196  1.00  0.00     0.124 S 
ATOM     68  O   UNL A   1      44.506  38.217  30.989  1.00  0.00    -0.237 OA
ATOM     69  O   UNL A   1      43.679  37.572  33.227  1.00  0.00    -0.237 OA
ATOM     70  O   UNL A   1      46.073  37.347  32.684  1.00  0.00    -0.744 OA
ENDBRANCH  66  67
ENDBRANCH  45  59
BRANCH  46  71
ATOM     71  C   UNL A   1      42.508  23.771  27.555  1.00  0.00     0.058 A 
ATOM     72  C   UNL A   1      42.316  23.483  26.198  1.00  0.00     0.135 A 
ATOM     73  C   UNL A   1      42.504  22.685  28.453  1.00  0.00     0.135 A 
ATOM     74  F   UNL A   1      42.282  24.479  25.300  1.00  0.00    -0.206 F 
ATOM     75  C   UNL A   1      42.144  22.176  25.745  1.00  0.00     0.059 A 
ATOM     76  C   UNL A   1      42.375  21.370  28.021  1.00  0.00     0.059 A 
ATOM     77  F   UNL A   1      42.679  22.898  29.768  1.00  0.00    -0.206 F 
ATOM     78  C   UNL A   1      42.190  21.125  26.663  1.00  0.00     0.060 A 
BRANCH  78  79
ATOM     79  S   UNL A   1      42.054  19.429  26.054  1.00  0.00     0.124 S 
ATOM     80  O   UNL A   1      42.953  19.457  24.906  1.00  0.00    -0.237 OA
ATOM     81  O   UNL A   1      42.509  18.655  27.205  1.00  0.00    -0.237 OA
ATOM     82  O   UNL A   1      40.635  19.297  25.741  1.00  0.00    -0.744 OA
ENDBRANCH  78  79
ENDBRANCH  46  71
BRANCH  58  83
ATOM     83  C   UNL A   1      48.153  27.847  27.912  1.00  0.00     0.058 A 
ATOM     84  C   UNL A   1      48.674  28.088  26.632  1.00  0.00     0.135 A 
ATOM     85  C   UNL A   1      49.038  27.406  28.910  1.00  0.00     0.135 A 
ATOM     86  F   UNL A   1      47.868  28.495  25.639  1.00  0.00    -0.206 F 
ATOM     87  C   UNL A   1      50.019  27.882  26.346  1.00  0.00     0.059 A 
ATOM     88  C   UNL A   1      50.392  27.222  28.655  1.00  0.00     0.059 A 
ATOM     89  F   UNL A   1      48.591  27.164  30.152  1.00  0.00    -0.206 F 
ATOM     90  C   UNL A   1      50.872  27.452  27.366  1.00  0.00     0.060 A 
BRANCH  90  91
ATOM     91  S   UNL A   1      52.623  27.226  26.992  1.00  0.00     0.124 S 
ATOM     92  O   UNL A   1      52.636  27.375  25.542  1.00  0.00    -0.237 OA
ATOM     93  O   UNL A   1      53.244  28.310  27.747  1.00  0.00    -0.237 OA
ATOM     94  O   UNL A   1      52.906  25.883  27.489  1.00  0.00    -0.744 OA
ENDBRANCH  90  91
ENDBRANCH  58  83
ENDBRANCH  32  33
ENDBRANCH  25  27
ENDBRANCH  24  25
ENDBRANCH  23  24
ENDBRANCH   1  23
TORSDOF 21
ENDMDL
