MODEL 1
REMARK VINA RESULT:     -10.3      0.000      0.000
REMARK SMILES Nc1ccccc1C(=O)NCc1ccc(C(=O)OCCOC(=O)c2ccc(-c3c4nc(c(-c5c(F)cc(S(=O)(=O)[O-])cc5F)c5ccc([nH]5)c(-c5c(F)cc(S(=O)(=O)[O-])cc5F)c5nc(c(-c6c(F)cc(S(=O)(=O)[O-])cc6F)c6ccc3[nH]6)C=C5)C=C4)cc2)o1
REMARK SMILES IDX 19 1 18 2 16 3 17 4 15 5 12 6 13 7 90 8 14 9 11 10 10 11
REMARK SMILES IDX 8 12 9 13 7 15 2 16 3 17 4 18 6 19 5 20 1 21 20 24 21 25
REMARK SMILES IDX 22 26 23 27 24 28 25 29 89 30 26 31 88 32 27 33 28 34 29 35
REMARK SMILES IDX 82 36 30 37 87 38 81 39 83 40 31 41 86 42 80 43 79 44 32 46
REMARK SMILES IDX 66 47 45 48 65 49 46 50 49 51 64 52 84 53 47 54 48 55 63 57
REMARK SMILES IDX 85 58 50 59 33 60 34 61 43 62 35 63 36 64 42 65 44 66 37 67
REMARK SMILES IDX 38 68 39 69 40 70 41 71 67 72 68 73 77 74 69 75 70 76 76 77
REMARK SMILES IDX 78 78 71 79 72 80 73 81 74 82 75 83 51 84 52 85 61 86 53 87
REMARK SMILES IDX 54 88 60 89 62 90 55 91 56 92 57 93 58 94 59 95
REMARK H PARENT 10 14 1 22 1 23 83 45 49 56
REMARK Flexibility Score: inf
ROOT
ATOM      1  C   UNL A   1      33.547  34.158  28.121  1.00  0.00     0.275 C 
ENDROOT
BRANCH   1   2
ATOM      2  O   UNL A   1      33.719  34.546  29.497  1.00  0.00    -0.456 OA
BRANCH   2   3
ATOM      3  C   UNL A   1      33.093  35.708  29.848  1.00  0.00     0.374 C 
ATOM      4  O   UNL A   1      32.314  36.313  29.120  1.00  0.00    -0.242 OA
BRANCH   3   5
ATOM      5  C   UNL A   1      33.390  36.055  31.217  1.00  0.00     0.211 A 
ATOM      6  C   UNL A   1      34.207  35.544  33.208  1.00  0.00     0.124 A 
ATOM      7  C   UNL A   1      33.980  36.903  33.223  1.00  0.00     0.048 A 
ATOM      8  O   UNL A   1      33.775  35.027  32.027  1.00  0.00    -0.452 OA
ATOM      9  C   UNL A   1      33.464  37.235  31.935  1.00  0.00     0.058 A 
BRANCH   6  10
ATOM     10  C   UNL A   1      34.913  34.559  34.063  1.00  0.00     0.191 C 
BRANCH  10  11
ATOM     11  N   UNL A   1      34.945  33.233  33.496  1.00  0.00    -0.345 N 
ATOM     12  C   UNL A   1      36.015  32.601  32.905  1.00  0.00     0.253 C 
ATOM     13  O   UNL A   1      35.877  31.442  32.517  1.00  0.00    -0.269 OA
ATOM     14  H   UNL A   1      34.105  32.723  33.536  1.00  0.00     0.164 HD
BRANCH  12  15
ATOM     15  C   UNL A   1      37.292  33.320  32.633  1.00  0.00     0.062 A 
ATOM     16  C   UNL A   1      37.539  34.146  31.517  1.00  0.00     0.044 A 
ATOM     17  C   UNL A   1      38.847  34.623  31.326  1.00  0.00     0.026 A 
ATOM     18  C   UNL A   1      39.842  34.420  32.287  1.00  0.00     0.002 A 
ATOM     19  C   UNL A   1      38.288  33.151  33.613  1.00  0.00     0.016 A 
ATOM     20  C   UNL A   1      39.554  33.708  33.445  1.00  0.00     0.001 A 
BRANCH  16  21
ATOM     21  N   UNL A   1      36.597  34.414  30.520  1.00  0.00    -0.398 N 
ATOM     22  H   UNL A   1      36.729  35.177  29.910  1.00  0.00     0.156 HD
ATOM     23  H   UNL A   1      35.801  33.842  30.428  1.00  0.00     0.156 HD
ENDBRANCH  16  21
ENDBRANCH  12  15
ENDBRANCH  10  11
ENDBRANCH   6  10
ENDBRANCH   3   5
ENDBRANCH   2   3
ENDBRANCH   1   2
BRANCH   1  24
ATOM     24  C   UNL A   1      33.372  32.642  27.969  1.00  0.00     0.275 C 
BRANCH  24  25
ATOM     25  O   UNL A   1      34.503  31.892  28.455  1.00  0.00    -0.458 OA
BRANCH  25  26
ATOM     26  C   UNL A   1      34.511  30.580  28.113  1.00  0.00     0.338 C 
ATOM     27  O   UNL A   1      33.559  29.937  27.697  1.00  0.00    -0.246 OA
BRANCH  26  28
ATOM     28  C   UNL A   1      35.869  30.009  28.217  1.00  0.00     0.060 A 
ATOM     29  C   UNL A   1      36.273  29.532  29.466  1.00  0.00     0.016 A 
ATOM     30  C   UNL A   1      36.777  30.044  27.155  1.00  0.00     0.016 A 
ATOM     31  C   UNL A   1      37.588  29.119  29.671  1.00  0.00     0.010 A 
ATOM     32  C   UNL A   1      38.100  29.626  27.362  1.00  0.00     0.010 A 
ATOM     33  C   UNL A   1      38.524  29.187  28.629  1.00  0.00    -0.014 A 
BRANCH  33  34
ATOM     34  C   UNL A   1      39.948  28.871  28.915  1.00  0.00     0.031 A 
ATOM     35  C   UNL A   1      40.812  29.872  29.639  1.00  0.00     0.074 A 
ATOM     36  C   UNL A   1      40.453  27.666  28.591  1.00  0.00     0.049 A 
ATOM     37  N   UNL A   1      42.061  29.766  30.019  1.00  0.00    -0.248 NA
ATOM     38  C   UNL A   1      40.188  31.158  29.983  1.00  0.00     0.031 C 
ATOM     39  C   UNL A   1      39.722  26.602  27.903  1.00  0.00     0.029 A 
ATOM     40  N   UNL A   1      41.700  27.131  28.803  1.00  0.00    -0.354 N 
ATOM     41  C   UNL A   1      42.375  30.971  30.637  1.00  0.00     0.074 A 
ATOM     42  C   UNL A   1      41.194  31.803  30.557  1.00  0.00     0.031 C 
ATOM     43  C   UNL A   1      40.529  25.538  27.758  1.00  0.00     0.029 A 
ATOM     44  C   UNL A   1      41.842  25.853  28.320  1.00  0.00     0.049 A 
ATOM     45  H   UNL A   1      42.424  27.618  29.260  1.00  0.00     0.167 HD
ATOM     46  C   UNL A   1      43.536  31.348  31.227  1.00  0.00     0.037 A 
ATOM     47  C   UNL A   1      42.908  25.028  28.323  1.00  0.00     0.037 A 
ATOM     48  C   UNL A   1      44.711  30.519  31.318  1.00  0.00     0.049 A 
ATOM     49  C   UNL A   1      44.193  25.476  28.968  1.00  0.00     0.074 A 
ATOM     50  C   UNL A   1      45.930  30.812  31.908  1.00  0.00     0.029 A 
ATOM     51  N   UNL A   1      44.817  29.235  30.806  1.00  0.00    -0.354 N 
ATOM     52  N   UNL A   1      44.465  26.612  29.564  1.00  0.00    -0.248 NA
ATOM     53  C   UNL A   1      45.312  24.522  28.950  1.00  0.00     0.031 C 
ATOM     54  C   UNL A   1      46.782  29.717  31.727  1.00  0.00     0.029 A 
ATOM     55  C   UNL A   1      46.082  28.726  31.059  1.00  0.00     0.049 A 
ATOM     56  H   UNL A   1      44.100  28.755  30.332  1.00  0.00     0.167 HD
ATOM     57  C   UNL A   1      45.778  26.501  30.011  1.00  0.00     0.074 A 
ATOM     58  C   UNL A   1      46.240  25.183  29.629  1.00  0.00     0.031 C 
ATOM     59  C   UNL A   1      46.530  27.410  30.680  1.00  0.00     0.037 A 
BRANCH  46  60
ATOM     60  C   UNL A   1      43.596  32.732  31.811  1.00  0.00     0.058 A 
ATOM     61  C   UNL A   1      43.905  33.852  31.024  1.00  0.00     0.135 A 
ATOM     62  C   UNL A   1      43.317  32.944  33.172  1.00  0.00     0.135 A 
ATOM     63  F   UNL A   1      44.195  33.702  29.721  1.00  0.00    -0.206 F 
ATOM     64  C   UNL A   1      43.965  35.130  31.570  1.00  0.00     0.059 A 
ATOM     65  C   UNL A   1      43.348  34.217  33.733  1.00  0.00     0.059 A 
ATOM     66  F   UNL A   1      43.013  31.907  33.969  1.00  0.00    -0.206 F 
ATOM     67  C   UNL A   1      43.690  35.302  32.928  1.00  0.00     0.060 A 
BRANCH  67  68
ATOM     68  S   UNL A   1      43.783  36.964  33.627  1.00  0.00     0.124 S 
ATOM     69  O   UNL A   1      44.022  37.767  32.432  1.00  0.00    -0.237 OA
ATOM     70  O   UNL A   1      42.470  37.121  34.243  1.00  0.00    -0.237 OA
ATOM     71  O   UNL A   1      44.903  36.877  34.559  1.00  0.00    -0.744 OA
ENDBRANCH  67  68
ENDBRANCH  46  60
BRANCH  47  72
ATOM     72  C   UNL A   1      42.803  23.684  27.701  1.00  0.00     0.058 A 
ATOM     73  C   UNL A   1      42.484  22.554  28.469  1.00  0.00     0.135 A 
ATOM     74  C   UNL A   1      43.015  23.504  26.325  1.00  0.00     0.135 A 
ATOM     75  F   UNL A   1      42.278  22.678  29.789  1.00  0.00    -0.206 F 
ATOM     76  C   UNL A   1      42.392  21.289  27.898  1.00  0.00     0.059 A 
ATOM     77  C   UNL A   1      42.906  22.253  25.728  1.00  0.00     0.059 A 
ATOM     78  F   UNL A   1      43.312  24.556  25.548  1.00  0.00    -0.206 F 
ATOM     79  C   UNL A   1      42.603  21.149  26.524  1.00  0.00     0.060 A 
BRANCH  79  80
ATOM     80  S   UNL A   1      42.426  19.513  25.780  1.00  0.00     0.124 S 
ATOM     81  O   UNL A   1      43.362  19.595  24.666  1.00  0.00    -0.237 OA
ATOM     82  O   UNL A   1      42.814  18.633  26.878  1.00  0.00    -0.237 OA
ATOM     83  O   UNL A   1      41.013  19.464  25.419  1.00  0.00    -0.744 OA
ENDBRANCH  79  80
ENDBRANCH  47  72
BRANCH  59  84
ATOM     84  C   UNL A   1      47.921  26.996  31.075  1.00  0.00     0.058 A 
ATOM     85  C   UNL A   1      49.043  27.351  30.310  1.00  0.00     0.135 A 
ATOM     86  C   UNL A   1      48.135  26.257  32.250  1.00  0.00     0.135 A 
ATOM     87  F   UNL A   1      48.893  28.052  29.176  1.00  0.00    -0.206 F 
ATOM     88  C   UNL A   1      50.327  26.959  30.679  1.00  0.00     0.059 A 
ATOM     89  C   UNL A   1      49.412  25.876  32.650  1.00  0.00     0.059 A 
ATOM     90  F   UNL A   1      47.098  25.903  33.025  1.00  0.00    -0.206 F 
ATOM     91  C   UNL A   1      50.501  26.218  31.849  1.00  0.00     0.060 A 
BRANCH  91  92
ATOM     92  S   UNL A   1      52.171  25.724  32.327  1.00  0.00     0.124 S 
ATOM     93  O   UNL A   1      52.509  26.747  33.310  1.00  0.00    -0.237 OA
ATOM     94  O   UNL A   1      51.964  24.379  32.857  1.00  0.00    -0.237 OA
ATOM     95  O   UNL A   1      52.915  25.787  31.072  1.00  0.00    -0.744 OA
ENDBRANCH  91  92
ENDBRANCH  59  84
ENDBRANCH  33  34
ENDBRANCH  26  28
ENDBRANCH  25  26
ENDBRANCH  24  25
ENDBRANCH   1  24
TORSDOF 18
ENDMDL
MODEL 2
REMARK VINA RESULT:     -10.2      0.665      8.321
REMARK SMILES Nc1ccccc1C(=O)NCc1ccc(C(=O)OCCOC(=O)c2ccc(-c3c4nc(c(-c5c(F)cc(S(=O)(=O)[O-])cc5F)c5ccc([nH]5)c(-c5c(F)cc(S(=O)(=O)[O-])cc5F)c5nc(c(-c6c(F)cc(S(=O)(=O)[O-])cc6F)c6ccc3[nH]6)C=C5)C=C4)cc2)o1
REMARK SMILES IDX 19 1 18 2 16 3 17 4 15 5 12 6 13 7 90 8 14 9 11 10 10 11
REMARK SMILES IDX 8 12 9 13 7 15 2 16 3 17 4 18 6 19 5 20 1 21 20 24 21 25
REMARK SMILES IDX 22 26 23 27 24 28 25 29 89 30 26 31 88 32 27 33 28 34 29 35
REMARK SMILES IDX 82 36 30 37 87 38 81 39 83 40 31 41 86 42 80 43 79 44 32 46
REMARK SMILES IDX 66 47 45 48 65 49 46 50 49 51 64 52 84 53 47 54 48 55 63 57
REMARK SMILES IDX 85 58 50 59 33 60 34 61 43 62 35 63 36 64 42 65 44 66 37 67
REMARK SMILES IDX 38 68 39 69 40 70 41 71 67 72 68 73 77 74 69 75 70 76 76 77
REMARK SMILES IDX 78 78 71 79 72 80 73 81 74 82 75 83 51 84 52 85 61 86 53 87
REMARK SMILES IDX 54 88 60 89 62 90 55 91 56 92 57 93 58 94 59 95
REMARK H PARENT 10 14 1 22 1 23 83 45 49 56
REMARK Flexibility Score: inf
ROOT
ATOM      1  C   UNL A   1      33.820  34.004  28.331  1.00  0.00     0.275 C 
ENDROOT
BRANCH   1   2
ATOM      2  O   UNL A   1      33.482  34.291  29.702  1.00  0.00    -0.456 OA
BRANCH   2   3
ATOM      3  C   UNL A   1      33.062  35.570  29.933  1.00  0.00     0.374 C 
ATOM      4  O   UNL A   1      32.426  36.238  29.126  1.00  0.00    -0.242 OA
BRANCH   3   5
ATOM      5  C   UNL A   1      33.371  35.973  31.283  1.00  0.00     0.211 A 
ATOM      6  C   UNL A   1      34.285  35.576  33.259  1.00  0.00     0.124 A 
ATOM      7  C   UNL A   1      33.954  36.914  33.250  1.00  0.00     0.048 A 
ATOM      8  O   UNL A   1      33.859  34.998  32.104  1.00  0.00    -0.452 OA
ATOM      9  C   UNL A   1      33.376  37.172  31.972  1.00  0.00     0.058 A 
BRANCH   6  10
ATOM     10  C   UNL A   1      35.091  34.670  34.113  1.00  0.00     0.191 C 
BRANCH  10  11
ATOM     11  N   UNL A   1      35.107  33.308  33.640  1.00  0.00    -0.345 N 
ATOM     12  C   UNL A   1      36.157  32.637  33.055  1.00  0.00     0.253 C 
ATOM     13  O   UNL A   1      36.009  31.453  32.755  1.00  0.00    -0.269 OA
ATOM     14  H   UNL A   1      34.271  32.800  33.749  1.00  0.00     0.164 HD
BRANCH  12  15
ATOM     15  C   UNL A   1      37.420  33.336  32.685  1.00  0.00     0.062 A 
ATOM     16  C   UNL A   1      37.599  34.140  31.540  1.00  0.00     0.044 A 
ATOM     17  C   UNL A   1      38.896  34.598  31.253  1.00  0.00     0.026 A 
ATOM     18  C   UNL A   1      39.951  34.402  32.148  1.00  0.00     0.002 A 
ATOM     19  C   UNL A   1      38.477  33.174  33.600  1.00  0.00     0.016 A 
ATOM     20  C   UNL A   1      39.735  33.715  33.337  1.00  0.00     0.001 A 
BRANCH  16  21
ATOM     21  N   UNL A   1      36.595  34.400  30.603  1.00  0.00    -0.398 N 
ATOM     22  H   UNL A   1      36.834  34.690  29.692  1.00  0.00     0.156 HD
ATOM     23  H   UNL A   1      35.649  34.294  30.854  1.00  0.00     0.156 HD
ENDBRANCH  16  21
ENDBRANCH  12  15
ENDBRANCH  10  11
ENDBRANCH   6  10
ENDBRANCH   3   5
ENDBRANCH   2   3
ENDBRANCH   1   2
BRANCH   1  24
ATOM     24  C   UNL A   1      33.632  32.520  27.993  1.00  0.00     0.275 C 
BRANCH  24  25
ATOM     25  O   UNL A   1      34.585  31.665  28.657  1.00  0.00    -0.458 OA
BRANCH  25  26
ATOM     26  C   UNL A   1      34.689  30.415  28.144  1.00  0.00     0.338 C 
ATOM     27  O   UNL A   1      33.806  29.794  27.572  1.00  0.00    -0.246 OA
BRANCH  26  28
ATOM     28  C   UNL A   1      36.065  29.895  28.279  1.00  0.00     0.060 A 
ATOM     29  C   UNL A   1      36.464  29.448  29.540  1.00  0.00     0.016 A 
ATOM     30  C   UNL A   1      36.989  29.950  27.231  1.00  0.00     0.016 A 
ATOM     31  C   UNL A   1      37.790  29.085  29.772  1.00  0.00     0.010 A 
ATOM     32  C   UNL A   1      38.322  29.584  27.466  1.00  0.00     0.010 A 
ATOM     33  C   UNL A   1      38.740  29.175  28.745  1.00  0.00    -0.014 A 
BRANCH  33  34
ATOM     34  C   UNL A   1      40.170  28.914  29.059  1.00  0.00     0.031 A 
ATOM     35  C   UNL A   1      40.789  27.587  28.706  1.00  0.00     0.074 A 
ATOM     36  C   UNL A   1      40.933  29.884  29.597  1.00  0.00     0.049 A 
ATOM     37  N   UNL A   1      42.026  27.184  28.857  1.00  0.00    -0.248 NA
ATOM     38  C   UNL A   1      39.902  26.582  28.102  1.00  0.00     0.031 C 
ATOM     39  C   UNL A   1      40.463  31.218  29.972  1.00  0.00     0.029 A 
ATOM     40  N   UNL A   1      42.269  29.899  29.915  1.00  0.00    -0.354 N 
ATOM     41  C   UNL A   1      42.065  25.880  28.377  1.00  0.00     0.074 A 
ATOM     42  C   UNL A   1      40.720  25.550  27.954  1.00  0.00     0.031 C 
ATOM     43  C   UNL A   1      41.495  31.925  30.460  1.00  0.00     0.029 A 
ATOM     44  C   UNL A   1      42.694  31.089  30.455  1.00  0.00     0.049 A 
ATOM     45  H   UNL A   1      42.866  29.131  29.767  1.00  0.00     0.167 HD
ATOM     46  C   UNL A   1      43.123  25.037  28.285  1.00  0.00     0.037 A 
ATOM     47  C   UNL A   1      43.909  31.463  30.903  1.00  0.00     0.037 A 
ATOM     48  C   UNL A   1      44.465  25.365  28.695  1.00  0.00     0.049 A 
ATOM     49  C   UNL A   1      45.066  30.503  30.808  1.00  0.00     0.074 A 
ATOM     50  C   UNL A   1      45.603  24.578  28.628  1.00  0.00     0.029 A 
ATOM     51  N   UNL A   1      44.851  26.576  29.248  1.00  0.00    -0.354 N 
ATOM     52  N   UNL A   1      45.086  29.281  30.332  1.00  0.00    -0.248 NA
ATOM     53  C   UNL A   1      46.367  30.980  31.300  1.00  0.00     0.031 C 
ATOM     54  C   UNL A   1      46.672  25.303  29.169  1.00  0.00     0.029 A 
ATOM     55  C   UNL A   1      46.207  26.556  29.535  1.00  0.00     0.049 A 
ATOM     56  H   UNL A   1      44.250  27.339  29.413  1.00  0.00     0.167 HD
ATOM     57  C   UNL A   1      46.404  28.851  30.447  1.00  0.00     0.074 A 
ATOM     58  C   UNL A   1      47.153  29.948  31.024  1.00  0.00     0.031 C 
ATOM     59  C   UNL A   1      46.945  27.655  30.104  1.00  0.00     0.037 A 
BRANCH  46  60
ATOM     60  C   UNL A   1      42.866  23.664  27.728  1.00  0.00     0.058 A 
ATOM     61  C   UNL A   1      42.499  22.591  28.553  1.00  0.00     0.135 A 
ATOM     62  C   UNL A   1      42.962  23.426  26.347  1.00  0.00     0.135 A 
ATOM     63  F   UNL A   1      42.408  22.761  29.883  1.00  0.00    -0.206 F 
ATOM     64  C   UNL A   1      42.268  21.321  28.035  1.00  0.00     0.059 A 
ATOM     65  C   UNL A   1      42.712  22.169  25.804  1.00  0.00     0.059 A 
ATOM     66  F   UNL A   1      43.306  24.420  25.511  1.00  0.00    -0.206 F 
ATOM     67  C   UNL A   1      42.382  21.119  26.658  1.00  0.00     0.060 A 
BRANCH  67  68
ATOM     68  S   UNL A   1      42.091  19.463  25.999  1.00  0.00     0.124 S 
ATOM     69  O   UNL A   1      42.914  19.483  24.793  1.00  0.00    -0.237 OA
ATOM     70  O   UNL A   1      42.570  18.605  27.077  1.00  0.00    -0.237 OA
ATOM     71  O   UNL A   1      40.649  19.437  25.774  1.00  0.00    -0.744 OA
ENDBRANCH  67  68
ENDBRANCH  46  60
BRANCH  47  72
ATOM     72  C   UNL A   1      44.099  32.820  31.476  1.00  0.00     0.058 A 
ATOM     73  C   UNL A   1      43.838  33.078  32.830  1.00  0.00     0.135 A 
ATOM     74  C   UNL A   1      44.550  33.885  30.680  1.00  0.00     0.135 A 
ATOM     75  F   UNL A   1      43.400  32.091  33.627  1.00  0.00    -0.206 F 
ATOM     76  C   UNL A   1      44.004  34.347  33.374  1.00  0.00     0.059 A 
ATOM     77  C   UNL A   1      44.746  35.157  31.207  1.00  0.00     0.059 A 
ATOM     78  F   UNL A   1      44.823  33.684  29.382  1.00  0.00    -0.206 F 
ATOM     79  C   UNL A   1      44.461  35.380  32.553  1.00  0.00     0.060 A 
BRANCH  79  80
ATOM     80  S   UNL A   1      44.729  37.012  33.279  1.00  0.00     0.124 S 
ATOM     81  O   UNL A   1      44.203  36.823  34.626  1.00  0.00    -0.237 OA
ATOM     82  O   UNL A   1      46.177  37.162  33.173  1.00  0.00    -0.237 OA
ATOM     83  O   UNL A   1      43.951  37.893  32.413  1.00  0.00    -0.744 OA
ENDBRANCH  79  80
ENDBRANCH  47  72
BRANCH  59  84
ATOM     84  C   UNL A   1      48.424  27.484  30.307  1.00  0.00     0.058 A 
ATOM     85  C   UNL A   1      49.352  27.832  29.313  1.00  0.00     0.135 A 
ATOM     86  C   UNL A   1      48.922  26.989  31.524  1.00  0.00     0.135 A 
ATOM     87  F   UNL A   1      48.930  28.304  28.130  1.00  0.00    -0.206 F 
ATOM     88  C   UNL A   1      50.721  27.665  29.506  1.00  0.00     0.059 A 
ATOM     89  C   UNL A   1      50.287  26.837  31.747  1.00  0.00     0.059 A 
ATOM     90  F   UNL A   1      48.078  26.653  32.513  1.00  0.00    -0.206 F 
ATOM     91  C   UNL A   1      51.178  27.163  30.726  1.00  0.00     0.060 A 
BRANCH  91  92
ATOM     92  S   UNL A   1      52.956  26.961  30.973  1.00  0.00     0.124 S 
ATOM     93  O   UNL A   1      53.025  25.604  31.505  1.00  0.00    -0.237 OA
ATOM     94  O   UNL A   1      53.486  27.140  29.624  1.00  0.00    -0.237 OA
ATOM     95  O   UNL A   1      53.289  28.024  31.916  1.00  0.00    -0.744 OA
ENDBRANCH  91  92
ENDBRANCH  59  84
ENDBRANCH  33  34
ENDBRANCH  26  28
ENDBRANCH  25  26
ENDBRANCH  24  25
ENDBRANCH   1  24
TORSDOF 18
ENDMDL
MODEL 3
REMARK VINA RESULT:     -10.1      3.326     12.244
REMARK SMILES Nc1ccccc1C(=O)NCc1ccc(C(=O)OCCOC(=O)c2ccc(-c3c4nc(c(-c5c(F)cc(S(=O)(=O)[O-])cc5F)c5ccc([nH]5)c(-c5c(F)cc(S(=O)(=O)[O-])cc5F)c5nc(c(-c6c(F)cc(S(=O)(=O)[O-])cc6F)c6ccc3[nH]6)C=C5)C=C4)cc2)o1
REMARK SMILES IDX 19 1 18 2 16 3 17 4 15 5 12 6 13 7 90 8 14 9 11 10 10 11
REMARK SMILES IDX 8 12 9 13 7 15 2 16 3 17 4 18 6 19 5 20 1 21 20 24 21 25
REMARK SMILES IDX 22 26 23 27 24 28 25 29 89 30 26 31 88 32 27 33 28 34 29 35
REMARK SMILES IDX 82 36 30 37 87 38 81 39 83 40 31 41 86 42 80 43 79 44 32 46
REMARK SMILES IDX 66 47 45 48 65 49 46 50 49 51 64 52 84 53 47 54 48 55 63 57
REMARK SMILES IDX 85 58 50 59 33 60 34 61 43 62 35 63 36 64 42 65 44 66 37 67
REMARK SMILES IDX 38 68 39 69 40 70 41 71 67 72 68 73 77 74 69 75 70 76 76 77
REMARK SMILES IDX 78 78 71 79 72 80 73 81 74 82 75 83 51 84 52 85 61 86 53 87
REMARK SMILES IDX 54 88 60 89 62 90 55 91 56 92 57 93 58 94 59 95
REMARK H PARENT 10 14 1 22 1 23 83 45 49 56
REMARK Flexibility Score: inf
ROOT
ATOM      1  C   UNL A   1      41.387  19.942  26.644  1.00  0.00     0.275 C 
ENDROOT
BRANCH   1   2
ATOM      2  O   UNL A   1      42.021  19.217  25.573  1.00  0.00    -0.456 OA
BRANCH   2   3
ATOM      3  C   UNL A   1      43.079  18.441  25.954  1.00  0.00     0.374 C 
ATOM      4  O   UNL A   1      42.973  17.417  26.619  1.00  0.00    -0.242 OA
BRANCH   3   5
ATOM      5  C   UNL A   1      44.307  18.931  25.375  1.00  0.00     0.211 A 
ATOM      6  C   UNL A   1      45.487  20.540  24.418  1.00  0.00     0.124 A 
ATOM      7  C   UNL A   1      46.386  19.550  24.754  1.00  0.00     0.048 A 
ATOM      8  O   UNL A   1      44.227  20.126  24.723  1.00  0.00    -0.452 OA
ATOM      9  C   UNL A   1      45.627  18.519  25.381  1.00  0.00     0.058 A 
BRANCH   6  10
ATOM     10  C   UNL A   1      45.554  21.950  23.964  1.00  0.00     0.191 C 
BRANCH  10  11
ATOM     11  N   UNL A   1      44.291  22.638  24.054  1.00  0.00    -0.345 N 
ATOM     12  C   UNL A   1      43.938  23.628  24.943  1.00  0.00     0.253 C 
ATOM     13  O   UNL A   1      42.825  24.142  24.845  1.00  0.00    -0.269 OA
ATOM     14  H   UNL A   1      43.601  22.368  23.406  1.00  0.00     0.164 HD
BRANCH  12  15
ATOM     15  C   UNL A   1      44.827  24.012  26.076  1.00  0.00     0.062 A 
ATOM     16  C   UNL A   1      45.969  24.832  25.971  1.00  0.00     0.044 A 
ATOM     17  C   UNL A   1      46.789  24.969  27.104  1.00  0.00     0.026 A 
ATOM     18  C   UNL A   1      46.412  24.440  28.342  1.00  0.00     0.002 A 
ATOM     19  C   UNL A   1      44.435  23.514  27.333  1.00  0.00     0.016 A 
ATOM     20  C   UNL A   1      45.219  23.737  28.463  1.00  0.00     0.001 A 
BRANCH  16  21
ATOM     21  N   UNL A   1      46.407  25.413  24.777  1.00  0.00    -0.398 N 
ATOM     22  H   UNL A   1      45.980  25.166  23.925  1.00  0.00     0.156 HD
ATOM     23  H   UNL A   1      47.142  26.068  24.789  1.00  0.00     0.156 HD
ENDBRANCH  16  21
ENDBRANCH  12  15
ENDBRANCH  10  11
ENDBRANCH   6  10
ENDBRANCH   3   5
ENDBRANCH   2   3
ENDBRANCH   1   2
BRANCH   1  24
ATOM     24  C   UNL A   1      40.823  21.287  26.171  1.00  0.00     0.275 C 
BRANCH  24  25
ATOM     25  O   UNL A   1      39.814  21.818  27.054  1.00  0.00    -0.458 OA
BRANCH  25  26
ATOM     26  C   UNL A   1      38.993  22.742  26.498  1.00  0.00     0.338 C 
ATOM     27  O   UNL A   1      38.055  22.516  25.750  1.00  0.00    -0.246 OA
BRANCH  26  28
ATOM     28  C   UNL A   1      39.314  24.100  26.980  1.00  0.00     0.060 A 
ATOM     29  C   UNL A   1      39.905  24.983  26.074  1.00  0.00     0.016 A 
ATOM     30  C   UNL A   1      39.155  24.474  28.318  1.00  0.00     0.016 A 
ATOM     31  C   UNL A   1      40.368  26.227  26.501  1.00  0.00     0.010 A 
ATOM     32  C   UNL A   1      39.620  25.726  28.746  1.00  0.00     0.010 A 
ATOM     33  C   UNL A   1      40.256  26.601  27.847  1.00  0.00    -0.014 A 
BRANCH  33  34
ATOM     34  C   UNL A   1      40.882  27.872  28.298  1.00  0.00     0.031 A 
ATOM     35  C   UNL A   1      42.366  28.080  28.137  1.00  0.00     0.074 A 
ATOM     36  C   UNL A   1      40.120  28.867  28.789  1.00  0.00     0.049 A 
ATOM     37  N   UNL A   1      43.091  29.131  28.426  1.00  0.00    -0.248 NA
ATOM     38  C   UNL A   1      43.134  26.959  27.574  1.00  0.00     0.031 C 
ATOM     39  C   UNL A   1      38.670  28.802  28.982  1.00  0.00     0.029 A 
ATOM     40  N   UNL A   1      40.456  30.130  29.207  1.00  0.00    -0.354 N 
ATOM     41  C   UNL A   1      44.399  28.798  28.091  1.00  0.00     0.074 A 
ATOM     42  C   UNL A   1      44.371  27.436  27.601  1.00  0.00     0.031 C 
ATOM     43  C   UNL A   1      38.241  29.977  29.473  1.00  0.00     0.029 A 
ATOM     44  C   UNL A   1      39.386  30.869  29.651  1.00  0.00     0.049 A 
ATOM     45  H   UNL A   1      41.378  30.475  29.189  1.00  0.00     0.167 HD
ATOM     46  C   UNL A   1      45.519  29.558  28.172  1.00  0.00     0.037 A 
ATOM     47  C   UNL A   1      39.331  32.119  30.151  1.00  0.00     0.037 A 
ATOM     48  C   UNL A   1      45.550  30.917  28.649  1.00  0.00     0.049 A 
ATOM     49  C   UNL A   1      40.591  32.938  30.248  1.00  0.00     0.074 A 
ATOM     50  C   UNL A   1      46.637  31.769  28.755  1.00  0.00     0.029 A 
ATOM     51  N   UNL A   1      44.446  31.624  29.100  1.00  0.00    -0.354 N 
ATOM     52  N   UNL A   1      41.815  32.612  29.908  1.00  0.00    -0.248 NA
ATOM     53  C   UNL A   1      40.459  34.299  30.788  1.00  0.00     0.031 C 
ATOM     54  C   UNL A   1      46.195  32.981  29.299  1.00  0.00     0.029 A 
ATOM     55  C   UNL A   1      44.826  32.898  29.493  1.00  0.00     0.049 A 
ATOM     56  H   UNL A   1      43.526  31.273  29.136  1.00  0.00     0.167 HD
ATOM     57  C   UNL A   1      42.594  33.734  30.171  1.00  0.00     0.074 A 
ATOM     58  C   UNL A   1      41.701  34.751  30.686  1.00  0.00     0.031 C 
ATOM     59  C   UNL A   1      43.928  33.905  29.999  1.00  0.00     0.037 A 
BRANCH  46  60
ATOM     60  C   UNL A   1      46.814  28.925  27.744  1.00  0.00     0.058 A 
ATOM     61  C   UNL A   1      47.691  28.342  28.672  1.00  0.00     0.135 A 
ATOM     62  C   UNL A   1      47.171  28.880  26.386  1.00  0.00     0.135 A 
ATOM     63  F   UNL A   1      47.404  28.372  29.984  1.00  0.00    -0.206 F 
ATOM     64  C   UNL A   1      48.891  27.763  28.273  1.00  0.00     0.059 A 
ATOM     65  C   UNL A   1      48.356  28.285  25.963  1.00  0.00     0.059 A 
ATOM     66  F   UNL A   1      46.367  29.421  25.457  1.00  0.00    -0.206 F 
ATOM     67  C   UNL A   1      49.218  27.744  26.915  1.00  0.00     0.060 A 
BRANCH  67  68
ATOM     68  S   UNL A   1      50.784  27.001  26.412  1.00  0.00     0.124 S 
ATOM     69  O   UNL A   1      51.203  27.904  25.345  1.00  0.00    -0.237 OA
ATOM     70  O   UNL A   1      51.571  27.062  27.639  1.00  0.00    -0.237 OA
ATOM     71  O   UNL A   1      50.400  25.659  25.983  1.00  0.00    -0.744 OA
ENDBRANCH  67  68
ENDBRANCH  46  60
BRANCH  47  72
ATOM     72  C   UNL A   1      38.028  32.682  30.590  1.00  0.00     0.058 A 
ATOM     73  C   UNL A   1      37.638  32.639  31.937  1.00  0.00     0.135 A 
ATOM     74  C   UNL A   1      37.151  33.278  29.671  1.00  0.00     0.135 A 
ATOM     75  F   UNL A   1      38.443  32.073  32.850  1.00  0.00    -0.206 F 
ATOM     76  C   UNL A   1      36.417  33.155  32.357  1.00  0.00     0.059 A 
ATOM     77  C   UNL A   1      35.935  33.822  30.071  1.00  0.00     0.059 A 
ATOM     78  F   UNL A   1      37.485  33.353  28.374  1.00  0.00    -0.206 F 
ATOM     79  C   UNL A   1      35.573  33.747  31.415  1.00  0.00     0.060 A 
BRANCH  79  80
ATOM     80  S   UNL A   1      34.014  34.466  31.977  1.00  0.00     0.124 S 
ATOM     81  O   UNL A   1      33.521  33.431  32.877  1.00  0.00    -0.237 OA
ATOM     82  O   UNL A   1      34.458  35.705  32.609  1.00  0.00    -0.237 OA
ATOM     83  O   UNL A   1      33.262  34.639  30.738  1.00  0.00    -0.744 OA
ENDBRANCH  79  80
ENDBRANCH  47  72
BRANCH  59  84
ATOM     84  C   UNL A   1      44.499  35.255  30.335  1.00  0.00     0.058 A 
ATOM     85  C   UNL A   1      44.557  36.290  29.388  1.00  0.00     0.135 A 
ATOM     86  C   UNL A   1      44.969  35.526  31.631  1.00  0.00     0.135 A 
ATOM     87  F   UNL A   1      44.125  36.082  28.134  1.00  0.00    -0.206 F 
ATOM     88  C   UNL A   1      45.091  37.536  29.705  1.00  0.00     0.059 A 
ATOM     89  C   UNL A   1      45.485  36.771  31.975  1.00  0.00     0.059 A 
ATOM     90  F   UNL A   1      44.925  34.575  32.578  1.00  0.00    -0.206 F 
ATOM     91  C   UNL A   1      45.557  37.765  31.000  1.00  0.00     0.060 A 
BRANCH  91  92
ATOM     92  S   UNL A   1      46.238  39.388  31.406  1.00  0.00     0.124 S 
ATOM     93  O   UNL A   1      45.032  40.137  31.739  1.00  0.00    -0.237 OA
ATOM     94  O   UNL A   1      47.127  39.087  32.525  1.00  0.00    -0.237 OA
ATOM     95  O   UNL A   1      46.909  39.791  30.174  1.00  0.00    -0.744 OA
ENDBRANCH  91  92
ENDBRANCH  59  84
ENDBRANCH  33  34
ENDBRANCH  26  28
ENDBRANCH  25  26
ENDBRANCH  24  25
ENDBRANCH   1  24
TORSDOF 18
ENDMDL
