MODEL 1
REMARK VINA RESULT:     -12.0      0.000      0.000
REMARK SMILES Cn1c(=O)[nH]c(=O)c2c1nc(NC1CCCC1)n2CC(=O)OCCOC(=O)c1ccc(-c2c3nc(c(-c4c(F)cc(S(=O)(=O)[O-])cc4F)c4ccc([nH]4)c(-c4c(F)cc(S(=O)(=O)[O-])cc4F)c4nc(c(-c5c(F)cc(S(=O)(=O)[O-])cc5F)c5ccc2[nH]5)C=C4)C=C3)cc1
REMARK SMILES IDX 23 1 22 2 20 3 21 4 19 5 18 6 1 7 2 8 3 9 9 10 4 11 5 12
REMARK SMILES IDX 8 13 10 14 6 15 11 17 7 18 12 19 13 21 14 22 17 23 15 24
REMARK SMILES IDX 16 25 24 26 25 27 26 28 27 29 28 30 29 31 93 32 30 33 92 34
REMARK SMILES IDX 31 35 32 36 33 37 86 38 34 39 91 40 85 41 87 42 35 43 90 44
REMARK SMILES IDX 84 45 83 46 36 48 70 49 49 50 69 51 50 52 53 53 68 54 88 55
REMARK SMILES IDX 51 56 52 57 67 59 89 60 54 61 37 62 38 63 47 64 39 65 40 66
REMARK SMILES IDX 46 67 48 68 41 69 42 70 43 71 44 72 45 73 71 74 72 75 81 76
REMARK SMILES IDX 73 77 74 78 80 79 82 80 75 81 76 82 77 83 78 84 79 85 55 86
REMARK SMILES IDX 56 87 65 88 57 89 58 90 64 91 66 92 59 93 60 94 61 95 62 96
REMARK SMILES IDX 63 97
REMARK H PARENT 5 16 12 20 87 47 53 58
REMARK Flexibility Score: inf
ROOT
ATOM      1  C   UNL A   1      33.461  28.448  26.171  1.00  0.00     0.274 C 
ENDROOT
BRANCH   1   2
ATOM      2  O   UNL A   1      32.124  27.941  26.390  1.00  0.00    -0.461 OA
BRANCH   2   3
ATOM      3  C   UNL A   1      32.000  26.588  26.503  1.00  0.00     0.326 C 
ATOM      4  O   UNL A   1      30.953  26.023  26.819  1.00  0.00    -0.250 OA
BRANCH   3   5
ATOM      5  C   UNL A   1      33.229  25.808  26.085  1.00  0.00     0.248 C 
BRANCH   5   6
ATOM      6  N   UNL A   1      33.072  24.841  25.005  1.00  0.00    -0.293 N 
ATOM      7  C   UNL A   1      31.997  21.227  22.380  1.00  0.00     0.157 C 
ATOM      8  N   UNL A   1      32.280  21.685  23.727  1.00  0.00    -0.279 N 
ATOM      9  C   UNL A   1      32.256  20.823  24.813  1.00  0.00     0.329 A 
ATOM     10  C   UNL A   1      32.559  23.014  23.953  1.00  0.00     0.170 A 
ATOM     11  O   UNL A   1      31.994  19.621  24.738  1.00  0.00    -0.248 OA
ATOM     12  N   UNL A   1      32.546  21.364  26.053  1.00  0.00    -0.272 N 
ATOM     13  C   UNL A   1      32.859  23.498  25.187  1.00  0.00     0.154 A 
ATOM     14  N   UNL A   1      32.557  23.980  23.015  1.00  0.00    -0.194 NA
ATOM     15  C   UNL A   1      32.881  22.673  26.345  1.00  0.00     0.279 A 
ATOM     16  H   UNL A   1      32.509  20.744  26.817  1.00  0.00     0.175 HD
ATOM     17  C   UNL A   1      32.875  25.087  23.650  1.00  0.00     0.206 A 
ATOM     18  O   UNL A   1      33.156  23.039  27.472  1.00  0.00    -0.267 OA
BRANCH  17  19
ATOM     19  N   UNL A   1      33.020  26.306  23.099  1.00  0.00    -0.353 N 
ATOM     20  H   UNL A   1      33.931  26.665  22.995  1.00  0.00     0.163 HD
BRANCH  19  21
ATOM     21  C   UNL A   1      31.898  27.124  22.645  1.00  0.00     0.082 C 
ATOM     22  C   UNL A   1      30.568  26.834  23.326  1.00  0.00     0.025 C 
ATOM     23  C   UNL A   1      32.067  28.633  22.773  1.00  0.00     0.025 C 
ATOM     24  C   UNL A   1      29.692  27.996  22.877  1.00  0.00     0.002 C 
ATOM     25  C   UNL A   1      30.639  29.185  22.694  1.00  0.00     0.002 C 
ENDBRANCH  19  21
ENDBRANCH  17  19
ENDBRANCH   5   6
ENDBRANCH   3   5
ENDBRANCH   2   3
ENDBRANCH   1   2
BRANCH   1  26
ATOM     26  C   UNL A   1      33.497  29.970  26.345  1.00  0.00     0.275 C 
BRANCH  26  27
ATOM     27  O   UNL A   1      33.750  30.435  27.686  1.00  0.00    -0.458 OA
BRANCH  27  28
ATOM     28  C   UNL A   1      34.764  31.312  27.811  1.00  0.00     0.338 C 
ATOM     29  O   UNL A   1      34.864  32.403  27.278  1.00  0.00    -0.246 OA
BRANCH  28  30
ATOM     30  C   UNL A   1      35.959  30.725  28.413  1.00  0.00     0.060 A 
ATOM     31  C   UNL A   1      36.935  31.647  28.813  1.00  0.00     0.016 A 
ATOM     32  C   UNL A   1      36.239  29.365  28.299  1.00  0.00     0.016 A 
ATOM     33  C   UNL A   1      38.243  31.242  28.880  1.00  0.00     0.010 A 
ATOM     34  C   UNL A   1      37.548  28.946  28.441  1.00  0.00     0.010 A 
ATOM     35  C   UNL A   1      38.549  29.898  28.644  1.00  0.00    -0.014 A 
BRANCH  35  36
ATOM     36  C   UNL A   1      39.942  29.520  28.824  1.00  0.00     0.031 A 
ATOM     37  C   UNL A   1      40.334  29.508  30.262  1.00  0.00     0.074 A 
ATOM     38  C   UNL A   1      40.733  29.105  27.818  1.00  0.00     0.049 A 
ATOM     39  N   UNL A   1      41.238  30.214  30.857  1.00  0.00    -0.248 NA
ATOM     40  C   UNL A   1      39.447  28.770  31.184  1.00  0.00     0.031 C 
ATOM     41  C   UNL A   1      40.359  28.847  26.426  1.00  0.00     0.029 A 
ATOM     42  N   UNL A   1      42.025  28.689  27.865  1.00  0.00    -0.354 N 
ATOM     43  C   UNL A   1      41.179  29.833  32.197  1.00  0.00     0.074 A 
ATOM     44  C   UNL A   1      39.938  29.128  32.368  1.00  0.00     0.031 C 
ATOM     45  C   UNL A   1      41.305  28.069  25.854  1.00  0.00     0.029 A 
ATOM     46  C   UNL A   1      42.399  27.888  26.793  1.00  0.00     0.049 A 
ATOM     47  H   UNL A   1      42.641  28.933  28.593  1.00  0.00     0.167 HD
ATOM     48  C   UNL A   1      42.275  29.877  32.998  1.00  0.00     0.037 A 
ATOM     49  C   UNL A   1      43.476  27.062  26.747  1.00  0.00     0.037 A 
ATOM     50  C   UNL A   1      43.272  30.772  32.472  1.00  0.00     0.049 A 
ATOM     51  C   UNL A   1      44.411  27.509  27.815  1.00  0.00     0.074 A 
ATOM     52  C   UNL A   1      43.313  32.123  32.187  1.00  0.00     0.029 A 
ATOM     53  N   UNL A   1      44.344  30.215  31.820  1.00  0.00    -0.354 N 
ATOM     54  N   UNL A   1      45.038  28.654  27.806  1.00  0.00    -0.248 NA
ATOM     55  C   UNL A   1      44.313  26.867  29.119  1.00  0.00     0.031 C 
ATOM     56  C   UNL A   1      44.124  32.233  31.022  1.00  0.00     0.029 A 
ATOM     57  C   UNL A   1      44.572  30.954  30.688  1.00  0.00     0.049 A 
ATOM     58  H   UNL A   1      44.857  29.427  32.113  1.00  0.00     0.167 HD
ATOM     59  C   UNL A   1      45.040  29.072  29.129  1.00  0.00     0.074 A 
ATOM     60  C   UNL A   1      44.667  27.890  29.902  1.00  0.00     0.031 C 
ATOM     61  C   UNL A   1      45.068  30.399  29.449  1.00  0.00     0.037 A 
BRANCH  48  62
ATOM     62  C   UNL A   1      42.599  28.801  34.011  1.00  0.00     0.058 A 
ATOM     63  C   UNL A   1      42.744  27.469  33.574  1.00  0.00     0.135 A 
ATOM     64  C   UNL A   1      42.475  28.969  35.411  1.00  0.00     0.135 A 
ATOM     65  F   UNL A   1      42.871  27.189  32.267  1.00  0.00    -0.206 F 
ATOM     66  C   UNL A   1      42.672  26.384  34.449  1.00  0.00     0.059 A 
ATOM     67  C   UNL A   1      42.459  27.907  36.304  1.00  0.00     0.059 A 
ATOM     68  F   UNL A   1      42.257  30.158  35.983  1.00  0.00    -0.206 F 
ATOM     69  C   UNL A   1      42.508  26.616  35.811  1.00  0.00     0.060 A 
BRANCH  69  70
ATOM     70  S   UNL A   1      42.278  25.227  36.929  1.00  0.00     0.124 S 
ATOM     71  O   UNL A   1      41.053  25.613  37.620  1.00  0.00    -0.237 OA
ATOM     72  O   UNL A   1      42.167  24.109  35.998  1.00  0.00    -0.237 OA
ATOM     73  O   UNL A   1      43.494  25.243  37.738  1.00  0.00    -0.744 OA
ENDBRANCH  69  70
ENDBRANCH  48  62
BRANCH  49  74
ATOM     74  C   UNL A   1      43.574  25.714  26.122  1.00  0.00     0.058 A 
ATOM     75  C   UNL A   1      44.641  25.395  25.261  1.00  0.00     0.135 A 
ATOM     76  C   UNL A   1      42.798  24.623  26.570  1.00  0.00     0.135 A 
ATOM     77  F   UNL A   1      45.443  26.365  24.795  1.00  0.00    -0.206 F 
ATOM     78  C   UNL A   1      44.958  24.076  24.916  1.00  0.00     0.059 A 
ATOM     79  C   UNL A   1      43.085  23.303  26.229  1.00  0.00     0.059 A 
ATOM     80  F   UNL A   1      41.788  24.797  27.435  1.00  0.00    -0.206 F 
ATOM     81  C   UNL A   1      44.186  23.033  25.426  1.00  0.00     0.060 A 
BRANCH  81  82
ATOM     82  S   UNL A   1      44.699  21.322  25.139  1.00  0.00     0.124 S 
ATOM     83  O   UNL A   1      46.066  21.327  25.647  1.00  0.00    -0.237 OA
ATOM     84  O   UNL A   1      43.727  20.574  25.929  1.00  0.00    -0.237 OA
ATOM     85  O   UNL A   1      44.572  21.169  23.691  1.00  0.00    -0.744 OA
ENDBRANCH  81  82
ENDBRANCH  49  74
BRANCH  61  86
ATOM     86  C   UNL A   1      45.420  31.385  28.367  1.00  0.00     0.058 A 
ATOM     87  C   UNL A   1      44.541  31.801  27.352  1.00  0.00     0.135 A 
ATOM     88  C   UNL A   1      46.647  32.058  28.471  1.00  0.00     0.135 A 
ATOM     89  F   UNL A   1      43.311  31.280  27.247  1.00  0.00    -0.206 F 
ATOM     90  C   UNL A   1      44.882  32.820  26.460  1.00  0.00     0.059 A 
ATOM     91  C   UNL A   1      46.994  33.096  27.612  1.00  0.00     0.059 A 
ATOM     92  F   UNL A   1      47.504  31.746  29.457  1.00  0.00    -0.206 F 
ATOM     93  C   UNL A   1      46.109  33.467  26.603  1.00  0.00     0.060 A 
BRANCH  93  94
ATOM     94  S   UNL A   1      46.509  34.845  25.507  1.00  0.00     0.124 S 
ATOM     95  O   UNL A   1      46.205  36.001  26.342  1.00  0.00    -0.237 OA
ATOM     96  O   UNL A   1      47.925  34.622  25.223  1.00  0.00    -0.237 OA
ATOM     97  O   UNL A   1      45.616  34.647  24.367  1.00  0.00    -0.744 OA
ENDBRANCH  93  94
ENDBRANCH  61  86
ENDBRANCH  35  36
ENDBRANCH  28  30
ENDBRANCH  27  28
ENDBRANCH  26  27
ENDBRANCH   1  26
TORSDOF 17
ENDMDL
MODEL 2
REMARK VINA RESULT:     -11.9      0.925      1.529
REMARK SMILES Cn1c(=O)[nH]c(=O)c2c1nc(NC1CCCC1)n2CC(=O)OCCOC(=O)c1ccc(-c2c3nc(c(-c4c(F)cc(S(=O)(=O)[O-])cc4F)c4ccc([nH]4)c(-c4c(F)cc(S(=O)(=O)[O-])cc4F)c4nc(c(-c5c(F)cc(S(=O)(=O)[O-])cc5F)c5ccc2[nH]5)C=C4)C=C3)cc1
REMARK SMILES IDX 23 1 22 2 20 3 21 4 19 5 18 6 1 7 2 8 3 9 9 10 4 11 5 12
REMARK SMILES IDX 8 13 10 14 6 15 11 17 7 18 12 19 13 21 14 22 17 23 15 24
REMARK SMILES IDX 16 25 24 26 25 27 26 28 27 29 28 30 29 31 93 32 30 33 92 34
REMARK SMILES IDX 31 35 32 36 33 37 86 38 34 39 91 40 85 41 87 42 35 43 90 44
REMARK SMILES IDX 84 45 83 46 36 48 70 49 49 50 69 51 50 52 53 53 68 54 88 55
REMARK SMILES IDX 51 56 52 57 67 59 89 60 54 61 37 62 38 63 47 64 39 65 40 66
REMARK SMILES IDX 46 67 48 68 41 69 42 70 43 71 44 72 45 73 71 74 72 75 81 76
REMARK SMILES IDX 73 77 74 78 80 79 82 80 75 81 76 82 77 83 78 84 79 85 55 86
REMARK SMILES IDX 56 87 65 88 57 89 58 90 64 91 66 92 59 93 60 94 61 95 62 96
REMARK SMILES IDX 63 97
REMARK H PARENT 5 16 12 20 87 47 53 58
REMARK Flexibility Score: inf
ROOT
ATOM      1  C   UNL A   1      31.968  29.732  26.860  1.00  0.00     0.274 C 
ENDROOT
BRANCH   1   2
ATOM      2  O   UNL A   1      32.219  28.466  27.515  1.00  0.00    -0.461 OA
BRANCH   2   3
ATOM      3  C   UNL A   1      32.593  27.431  26.711  1.00  0.00     0.326 C 
ATOM      4  O   UNL A   1      33.761  27.191  26.407  1.00  0.00    -0.250 OA
BRANCH   3   5
ATOM      5  C   UNL A   1      31.462  26.507  26.309  1.00  0.00     0.248 C 
BRANCH   5   6
ATOM      6  N   UNL A   1      31.729  25.545  25.248  1.00  0.00    -0.293 N 
ATOM      7  C   UNL A   1      32.003  21.815  22.579  1.00  0.00     0.157 C 
ATOM      8  N   UNL A   1      31.928  22.309  23.941  1.00  0.00    -0.279 N 
ATOM      9  C   UNL A   1      31.908  21.450  25.029  1.00  0.00     0.329 A 
ATOM     10  C   UNL A   1      31.847  23.663  24.174  1.00  0.00     0.170 A 
ATOM     11  O   UNL A   1      31.948  20.222  24.943  1.00  0.00    -0.248 OA
ATOM     12  N   UNL A   1      31.839  22.027  26.285  1.00  0.00    -0.272 N 
ATOM     13  C   UNL A   1      31.801  24.187  25.428  1.00  0.00     0.154 A 
ATOM     14  N   UNL A   1      31.791  24.615  23.223  1.00  0.00    -0.194 NA
ATOM     15  C   UNL A   1      31.805  23.374  26.594  1.00  0.00     0.279 A 
ATOM     16  H   UNL A   1      31.810  21.405  27.048  1.00  0.00     0.175 HD
ATOM     17  C   UNL A   1      31.727  25.756  23.872  1.00  0.00     0.206 A 
ATOM     18  O   UNL A   1      31.782  23.778  27.741  1.00  0.00    -0.267 OA
BRANCH  17  19
ATOM     19  N   UNL A   1      31.683  26.984  23.320  1.00  0.00    -0.353 N 
ATOM     20  H   UNL A   1      32.472  27.300  22.825  1.00  0.00     0.163 HD
BRANCH  19  21
ATOM     21  C   UNL A   1      30.526  27.870  23.417  1.00  0.00     0.082 C 
ATOM     22  C   UNL A   1      30.404  28.900  22.303  1.00  0.00     0.025 C 
ATOM     23  C   UNL A   1      29.160  27.195  23.460  1.00  0.00     0.025 C 
ATOM     24  C   UNL A   1      29.001  29.458  22.504  1.00  0.00     0.002 C 
ATOM     25  C   UNL A   1      28.173  28.307  23.082  1.00  0.00     0.002 C 
ENDBRANCH  19  21
ENDBRANCH  17  19
ENDBRANCH   5   6
ENDBRANCH   3   5
ENDBRANCH   2   3
ENDBRANCH   1   2
BRANCH   1  26
ATOM     26  C   UNL A   1      33.235  30.594  26.848  1.00  0.00     0.275 C 
BRANCH  26  27
ATOM     27  O   UNL A   1      33.934  30.688  28.106  1.00  0.00    -0.458 OA
BRANCH  27  28
ATOM     28  C   UNL A   1      35.046  31.448  28.093  1.00  0.00     0.338 C 
ATOM     29  O   UNL A   1      35.218  32.489  27.483  1.00  0.00    -0.246 OA
BRANCH  28  30
ATOM     30  C   UNL A   1      36.216  30.764  28.635  1.00  0.00     0.060 A 
ATOM     31  C   UNL A   1      37.195  31.606  29.179  1.00  0.00     0.016 A 
ATOM     32  C   UNL A   1      36.479  29.427  28.343  1.00  0.00     0.016 A 
ATOM     33  C   UNL A   1      38.496  31.171  29.219  1.00  0.00     0.010 A 
ATOM     34  C   UNL A   1      37.778  28.970  28.456  1.00  0.00     0.010 A 
ATOM     35  C   UNL A   1      38.788  29.867  28.809  1.00  0.00    -0.014 A 
BRANCH  35  36
ATOM     36  C   UNL A   1      40.170  29.443  28.967  1.00  0.00     0.031 A 
ATOM     37  C   UNL A   1      40.573  29.382  30.401  1.00  0.00     0.074 A 
ATOM     38  C   UNL A   1      40.939  29.030  27.944  1.00  0.00     0.049 A 
ATOM     39  N   UNL A   1      41.503  30.045  31.005  1.00  0.00    -0.248 NA
ATOM     40  C   UNL A   1      39.672  28.648  31.311  1.00  0.00     0.031 C 
ATOM     41  C   UNL A   1      40.546  28.819  26.549  1.00  0.00     0.029 A 
ATOM     42  N   UNL A   1      42.219  28.575  27.968  1.00  0.00    -0.354 N 
ATOM     43  C   UNL A   1      41.443  29.631  32.335  1.00  0.00     0.074 A 
ATOM     44  C   UNL A   1      40.183  28.960  32.499  1.00  0.00     0.031 C 
ATOM     45  C   UNL A   1      41.464  28.029  25.949  1.00  0.00     0.029 A 
ATOM     46  C   UNL A   1      42.560  27.791  26.873  1.00  0.00     0.049 A 
ATOM     47  H   UNL A   1      42.848  28.781  28.697  1.00  0.00     0.167 HD
ATOM     48  C   UNL A   1      42.547  29.622  33.128  1.00  0.00     0.037 A 
ATOM     49  C   UNL A   1      43.611  26.934  26.797  1.00  0.00     0.037 A 
ATOM     50  C   UNL A   1      43.566  30.500  32.616  1.00  0.00     0.049 A 
ATOM     51  C   UNL A   1      44.568  27.325  27.867  1.00  0.00     0.074 A 
ATOM     52  C   UNL A   1      43.645  31.856  32.365  1.00  0.00     0.029 A 
ATOM     53  N   UNL A   1      44.616  29.928  31.940  1.00  0.00    -0.354 N 
ATOM     54  N   UNL A   1      45.229  28.451  27.881  1.00  0.00    -0.248 NA
ATOM     55  C   UNL A   1      44.461  26.653  29.155  1.00  0.00     0.031 C 
ATOM     56  C   UNL A   1      44.450  31.972  31.196  1.00  0.00     0.029 A 
ATOM     57  C   UNL A   1      44.856  30.688  30.826  1.00  0.00     0.049 A 
ATOM     58  H   UNL A   1      45.107  29.117  32.208  1.00  0.00     0.167 HD
ATOM     59  C   UNL A   1      45.255  28.835  29.215  1.00  0.00     0.074 A 
ATOM     60  C   UNL A   1      44.852  27.644  29.960  1.00  0.00     0.031 C 
ATOM     61  C   UNL A   1      45.325  30.151  29.568  1.00  0.00     0.037 A 
BRANCH  48  62
ATOM     62  C   UNL A   1      42.847  28.511  34.110  1.00  0.00     0.058 A 
ATOM     63  C   UNL A   1      43.071  28.836  35.463  1.00  0.00     0.135 A 
ATOM     64  C   UNL A   1      43.219  27.199  33.732  1.00  0.00     0.135 A 
ATOM     65  F   UNL A   1      42.755  30.053  35.935  1.00  0.00    -0.206 F 
ATOM     66  C   UNL A   1      43.704  27.960  36.346  1.00  0.00     0.059 A 
ATOM     67  C   UNL A   1      43.797  26.292  34.609  1.00  0.00     0.059 A 
ATOM     68  F   UNL A   1      43.141  26.757  32.472  1.00  0.00    -0.206 F 
ATOM     69  C   UNL A   1      44.082  26.697  35.899  1.00  0.00     0.060 A 
BRANCH  69  70
ATOM     70  S   UNL A   1      45.018  25.612  36.986  1.00  0.00     0.124 S 
ATOM     71  O   UNL A   1      46.043  26.521  37.487  1.00  0.00    -0.237 OA
ATOM     72  O   UNL A   1      44.000  25.198  37.946  1.00  0.00    -0.237 OA
ATOM     73  O   UNL A   1      45.488  24.562  36.088  1.00  0.00    -0.744 OA
ENDBRANCH  69  70
ENDBRANCH  48  62
BRANCH  49  74
ATOM     74  C   UNL A   1      43.663  25.600  26.136  1.00  0.00     0.058 A 
ATOM     75  C   UNL A   1      44.686  25.289  25.221  1.00  0.00     0.135 A 
ATOM     76  C   UNL A   1      42.893  24.509  26.593  1.00  0.00     0.135 A 
ATOM     77  F   UNL A   1      45.480  26.259  24.743  1.00  0.00    -0.206 F 
ATOM     78  C   UNL A   1      44.970  23.975  24.832  1.00  0.00     0.059 A 
ATOM     79  C   UNL A   1      43.147  23.193  26.209  1.00  0.00     0.059 A 
ATOM     80  F   UNL A   1      41.925  24.674  27.507  1.00  0.00    -0.206 F 
ATOM     81  C   UNL A   1      44.207  22.929  25.351  1.00  0.00     0.060 A 
BRANCH  81  82
ATOM     82  S   UNL A   1      44.684  21.220  25.002  1.00  0.00     0.124 S 
ATOM     83  O   UNL A   1      43.663  20.467  25.723  1.00  0.00    -0.237 OA
ATOM     84  O   UNL A   1      44.603  21.171  23.546  1.00  0.00    -0.237 OA
ATOM     85  O   UNL A   1      46.034  21.125  25.552  1.00  0.00    -0.744 OA
ENDBRANCH  81  82
ENDBRANCH  49  74
BRANCH  61  86
ATOM     86  C   UNL A   1      45.698  31.154  28.509  1.00  0.00     0.058 A 
ATOM     87  C   UNL A   1      44.798  31.699  27.577  1.00  0.00     0.135 A 
ATOM     88  C   UNL A   1      46.987  31.705  28.556  1.00  0.00     0.135 A 
ATOM     89  F   UNL A   1      43.520  31.299  27.535  1.00  0.00    -0.206 F 
ATOM     90  C   UNL A   1      45.175  32.726  26.708  1.00  0.00     0.059 A 
ATOM     91  C   UNL A   1      47.375  32.749  27.721  1.00  0.00     0.059 A 
ATOM     92  F   UNL A   1      47.873  31.267  29.465  1.00  0.00    -0.206 F 
ATOM     93  C   UNL A   1      46.465  33.249  26.793  1.00  0.00     0.060 A 
BRANCH  93  94
ATOM     94  S   UNL A   1      46.922  34.638  25.734  1.00  0.00     0.124 S 
ATOM     95  O   UNL A   1      46.834  35.768  26.652  1.00  0.00    -0.237 OA
ATOM     96  O   UNL A   1      48.269  34.276  25.301  1.00  0.00    -0.237 OA
ATOM     97  O   UNL A   1      45.911  34.611  24.679  1.00  0.00    -0.744 OA
ENDBRANCH  93  94
ENDBRANCH  61  86
ENDBRANCH  35  36
ENDBRANCH  28  30
ENDBRANCH  27  28
ENDBRANCH  26  27
ENDBRANCH   1  26
TORSDOF 17
ENDMDL
MODEL 3
REMARK VINA RESULT:     -11.9      2.632      9.302
REMARK SMILES Cn1c(=O)[nH]c(=O)c2c1nc(NC1CCCC1)n2CC(=O)OCCOC(=O)c1ccc(-c2c3nc(c(-c4c(F)cc(S(=O)(=O)[O-])cc4F)c4ccc([nH]4)c(-c4c(F)cc(S(=O)(=O)[O-])cc4F)c4nc(c(-c5c(F)cc(S(=O)(=O)[O-])cc5F)c5ccc2[nH]5)C=C4)C=C3)cc1
REMARK SMILES IDX 23 1 22 2 20 3 21 4 19 5 18 6 1 7 2 8 3 9 9 10 4 11 5 12
REMARK SMILES IDX 8 13 10 14 6 15 11 17 7 18 12 19 13 21 14 22 17 23 15 24
REMARK SMILES IDX 16 25 24 26 25 27 26 28 27 29 28 30 29 31 93 32 30 33 92 34
REMARK SMILES IDX 31 35 32 36 33 37 86 38 34 39 91 40 85 41 87 42 35 43 90 44
REMARK SMILES IDX 84 45 83 46 36 48 70 49 49 50 69 51 50 52 53 53 68 54 88 55
REMARK SMILES IDX 51 56 52 57 67 59 89 60 54 61 37 62 38 63 47 64 39 65 40 66
REMARK SMILES IDX 46 67 48 68 41 69 42 70 43 71 44 72 45 73 71 74 72 75 81 76
REMARK SMILES IDX 73 77 74 78 80 79 82 80 75 81 76 82 77 83 78 84 79 85 55 86
REMARK SMILES IDX 56 87 65 88 57 89 58 90 64 91 66 92 59 93 60 94 61 95 62 96
REMARK SMILES IDX 63 97
REMARK H PARENT 5 16 12 20 87 47 53 58
REMARK Flexibility Score: inf
ROOT
ATOM      1  C   UNL A   1      39.209  21.113  25.804  1.00  0.00     0.274 C 
ENDROOT
BRANCH   1   2
ATOM      2  O   UNL A   1      38.034  20.549  25.176  1.00  0.00    -0.461 OA
BRANCH   2   3
ATOM      3  C   UNL A   1      37.038  21.423  24.856  1.00  0.00     0.326 C 
ATOM      4  O   UNL A   1      36.904  21.926  23.742  1.00  0.00    -0.250 OA
BRANCH   3   5
ATOM      5  C   UNL A   1      36.018  21.641  25.955  1.00  0.00     0.248 C 
BRANCH   5   6
ATOM      6  N   UNL A   1      34.645  21.911  25.548  1.00  0.00    -0.293 N 
ATOM      7  C   UNL A   1      30.807  23.531  23.610  1.00  0.00     0.157 C 
ATOM      8  N   UNL A   1      32.155  23.848  24.043  1.00  0.00    -0.279 N 
ATOM      9  C   UNL A   1      32.696  25.115  23.879  1.00  0.00     0.329 A 
ATOM     10  C   UNL A   1      32.940  22.870  24.610  1.00  0.00     0.170 A 
ATOM     11  O   UNL A   1      32.100  26.061  23.362  1.00  0.00    -0.248 OA
ATOM     12  N   UNL A   1      33.989  25.310  24.332  1.00  0.00    -0.272 N 
ATOM     13  C   UNL A   1      34.199  23.113  25.059  1.00  0.00     0.154 A 
ATOM     14  N   UNL A   1      32.580  21.583  24.776  1.00  0.00    -0.194 NA
ATOM     15  C   UNL A   1      34.814  24.391  24.952  1.00  0.00     0.279 A 
ATOM     16  H   UNL A   1      34.366  26.209  24.194  1.00  0.00     0.175 HD
ATOM     17  C   UNL A   1      33.609  21.002  25.351  1.00  0.00     0.206 A 
ATOM     18  O   UNL A   1      35.928  24.677  25.347  1.00  0.00    -0.267 OA
BRANCH  17  19
ATOM     19  N   UNL A   1      33.685  19.713  25.731  1.00  0.00    -0.353 N 
ATOM     20  H   UNL A   1      33.881  19.517  26.676  1.00  0.00     0.163 HD
BRANCH  19  21
ATOM     21  C   UNL A   1      33.493  18.590  24.817  1.00  0.00     0.082 C 
ATOM     22  C   UNL A   1      34.773  17.963  24.284  1.00  0.00     0.025 C 
ATOM     23  C   UNL A   1      32.689  17.412  25.354  1.00  0.00     0.025 C 
ATOM     24  C   UNL A   1      34.277  16.684  23.621  1.00  0.00     0.002 C 
ATOM     25  C   UNL A   1      33.047  16.249  24.421  1.00  0.00     0.002 C 
ENDBRANCH  19  21
ENDBRANCH  17  19
ENDBRANCH   5   6
ENDBRANCH   3   5
ENDBRANCH   2   3
ENDBRANCH   1   2
BRANCH   1  26
ATOM     26  C   UNL A   1      40.214  20.012  26.158  1.00  0.00     0.275 C 
BRANCH  26  27
ATOM     27  O   UNL A   1      41.408  20.456  26.833  1.00  0.00    -0.458 OA
BRANCH  27  28
ATOM     28  C   UNL A   1      42.354  20.994  26.040  1.00  0.00     0.338 C 
ATOM     29  O   UNL A   1      43.114  20.401  25.295  1.00  0.00    -0.246 OA
BRANCH  28  30
ATOM     30  C   UNL A   1      42.652  22.386  26.365  1.00  0.00     0.060 A 
ATOM     31  C   UNL A   1      43.223  22.591  27.627  1.00  0.00     0.016 A 
ATOM     32  C   UNL A   1      42.117  23.438  25.622  1.00  0.00     0.016 A 
ATOM     33  C   UNL A   1      43.056  23.806  28.242  1.00  0.00     0.010 A 
ATOM     34  C   UNL A   1      42.019  24.681  26.217  1.00  0.00     0.010 A 
ATOM     35  C   UNL A   1      42.409  24.833  27.549  1.00  0.00    -0.014 A 
BRANCH  35  36
ATOM     36  C   UNL A   1      42.351  26.120  28.224  1.00  0.00     0.031 A 
ATOM     37  C   UNL A   1      43.509  26.988  27.868  1.00  0.00     0.074 A 
ATOM     38  C   UNL A   1      41.305  26.518  28.971  1.00  0.00     0.049 A 
ATOM     39  N   UNL A   1      44.420  27.476  28.644  1.00  0.00    -0.248 NA
ATOM     40  C   UNL A   1      43.804  27.142  26.429  1.00  0.00     0.031 C 
ATOM     41  C   UNL A   1      40.025  25.835  29.165  1.00  0.00     0.029 A 
ATOM     42  N   UNL A   1      41.116  27.700  29.613  1.00  0.00    -0.354 N 
ATOM     43  C   UNL A   1      45.274  28.190  27.805  1.00  0.00     0.074 A 
ATOM     44  C   UNL A   1      44.977  27.768  26.463  1.00  0.00     0.031 C 
ATOM     45  C   UNL A   1      39.118  26.725  29.626  1.00  0.00     0.029 A 
ATOM     46  C   UNL A   1      39.784  27.991  29.878  1.00  0.00     0.049 A 
ATOM     47  H   UNL A   1      41.857  28.297  29.866  1.00  0.00     0.167 HD
ATOM     48  C   UNL A   1      45.962  29.274  28.246  1.00  0.00     0.037 A 
ATOM     49  C   UNL A   1      39.275  29.215  30.174  1.00  0.00     0.037 A 
ATOM     50  C   UNL A   1      46.082  29.270  29.681  1.00  0.00     0.049 A 
ATOM     51  C   UNL A   1      40.414  30.063  30.619  1.00  0.00     0.074 A 
ATOM     52  C   UNL A   1      46.651  28.418  30.606  1.00  0.00     0.029 A 
ATOM     53  N   UNL A   1      45.242  30.093  30.390  1.00  0.00    -0.354 N 
ATOM     54  N   UNL A   1      41.092  29.859  31.716  1.00  0.00    -0.248 NA
ATOM     55  C   UNL A   1      41.084  30.882  29.619  1.00  0.00     0.031 C 
ATOM     56  C   UNL A   1      45.788  28.468  31.739  1.00  0.00     0.029 A 
ATOM     57  C   UNL A   1      44.769  29.381  31.462  1.00  0.00     0.049 A 
ATOM     58  H   UNL A   1      45.019  31.027  30.169  1.00  0.00     0.167 HD
ATOM     59  C   UNL A   1      42.406  30.157  31.384  1.00  0.00     0.074 A 
ATOM     60  C   UNL A   1      42.325  30.871  30.113  1.00  0.00     0.031 C 
ATOM     61  C   UNL A   1      43.449  29.552  32.025  1.00  0.00     0.037 A 
BRANCH  48  62
ATOM     62  C   UNL A   1      46.148  30.526  27.417  1.00  0.00     0.058 A 
ATOM     63  C   UNL A   1      47.438  31.080  27.292  1.00  0.00     0.135 A 
ATOM     64  C   UNL A   1      45.087  31.364  26.999  1.00  0.00     0.135 A 
ATOM     65  F   UNL A   1      48.522  30.376  27.658  1.00  0.00    -0.206 F 
ATOM     66  C   UNL A   1      47.649  32.395  26.877  1.00  0.00     0.059 A 
ATOM     67  C   UNL A   1      45.279  32.655  26.529  1.00  0.00     0.059 A 
ATOM     68  F   UNL A   1      43.800  31.020  27.120  1.00  0.00    -0.206 F 
ATOM     69  C   UNL A   1      46.557  33.180  26.519  1.00  0.00     0.060 A 
BRANCH  69  70
ATOM     70  S   UNL A   1      46.804  34.915  26.114  1.00  0.00     0.124 S 
ATOM     71  O   UNL A   1      47.342  35.430  27.367  1.00  0.00    -0.237 OA
ATOM     72  O   UNL A   1      47.740  34.832  24.997  1.00  0.00    -0.237 OA
ATOM     73  O   UNL A   1      45.461  35.372  25.765  1.00  0.00    -0.744 OA
ENDBRANCH  69  70
ENDBRANCH  48  62
BRANCH  49  74
ATOM     74  C   UNL A   1      37.975  29.798  29.739  1.00  0.00     0.058 A 
ATOM     75  C   UNL A   1      37.102  30.389  30.674  1.00  0.00     0.135 A 
ATOM     76  C   UNL A   1      37.684  30.051  28.382  1.00  0.00     0.135 A 
ATOM     77  F   UNL A   1      37.308  30.217  31.989  1.00  0.00    -0.206 F 
ATOM     78  C   UNL A   1      36.049  31.226  30.291  1.00  0.00     0.059 A 
ATOM     79  C   UNL A   1      36.632  30.869  27.975  1.00  0.00     0.059 A 
ATOM     80  F   UNL A   1      38.474  29.586  27.403  1.00  0.00    -0.206 F 
ATOM     81  C   UNL A   1      35.836  31.480  28.936  1.00  0.00     0.060 A 
BRANCH  81  82
ATOM     82  S   UNL A   1      34.600  32.704  28.442  1.00  0.00     0.124 S 
ATOM     83  O   UNL A   1      35.388  33.617  27.622  1.00  0.00    -0.237 OA
ATOM     84  O   UNL A   1      33.626  31.885  27.729  1.00  0.00    -0.237 OA
ATOM     85  O   UNL A   1      34.138  33.251  29.715  1.00  0.00    -0.744 OA
ENDBRANCH  81  82
ENDBRANCH  49  74
BRANCH  61  86
ATOM     86  C   UNL A   1      43.165  28.810  33.303  1.00  0.00     0.058 A 
ATOM     87  C   UNL A   1      42.928  29.424  34.545  1.00  0.00     0.135 A 
ATOM     88  C   UNL A   1      42.959  27.424  33.223  1.00  0.00     0.135 A 
ATOM     89  F   UNL A   1      43.005  30.756  34.683  1.00  0.00    -0.206 F 
ATOM     90  C   UNL A   1      42.535  28.688  35.665  1.00  0.00     0.059 A 
ATOM     91  C   UNL A   1      42.538  26.675  34.317  1.00  0.00     0.059 A 
ATOM     92  F   UNL A   1      43.111  26.790  32.049  1.00  0.00    -0.206 F 
ATOM     93  C   UNL A   1      42.337  27.313  35.539  1.00  0.00     0.060 A 
BRANCH  93  94
ATOM     94  S   UNL A   1      41.740  26.377  36.963  1.00  0.00     0.124 S 
ATOM     95  O   UNL A   1      41.456  25.072  36.377  1.00  0.00    -0.237 OA
ATOM     96  O   UNL A   1      42.880  26.429  37.875  1.00  0.00    -0.237 OA
ATOM     97  O   UNL A   1      40.568  27.131  37.402  1.00  0.00    -0.744 OA
ENDBRANCH  93  94
ENDBRANCH  61  86
ENDBRANCH  35  36
ENDBRANCH  28  30
ENDBRANCH  27  28
ENDBRANCH  26  27
ENDBRANCH   1  26
TORSDOF 17
ENDMDL
