MODEL 1
REMARK VINA RESULT:     -13.0      0.000      0.000
REMARK SMILES O=C1NC(=O)/C(=C/c2ccc(OCc3cn(-c4ccc(C(=O)OCCOC(=O)c5ccc(-c6c7nc(c(-c8c(F)cc(S(=O)(=O)[O-])cc8F)c8ccc([nH]8)c(-c8c(F)cc(S(=O)(=O)[O-])cc8F)c8nc(c(-c9c(F)cc(S(=O)(=O)[O-])cc9F)c9ccc6[nH]9)C=C8)C=C7)cc5)cc4)nn3)cc2)S1
REMARK SMILES IDX 24 1 23 2 21 3 22 4 20 5 17 6 18 7 96 8 19 9 95 10 16 11
REMARK SMILES IDX 14 12 15 13 98 14 97 15 13 16 12 17 11 18 8 19 9 20 100 21
REMARK SMILES IDX 10 22 99 23 7 24 1 25 2 26 3 27 101 28 4 29 6 31 5 32 25 33
REMARK SMILES IDX 26 34 27 35 28 36 29 37 30 38 94 39 31 40 93 41 32 42 33 43
REMARK SMILES IDX 34 44 87 45 35 46 92 47 86 48 88 49 36 50 91 51 85 52 84 53
REMARK SMILES IDX 37 55 71 56 50 57 70 58 51 59 54 60 69 61 89 62 52 63 53 64
REMARK SMILES IDX 68 66 90 67 55 68 38 69 39 70 48 71 40 72 41 73 47 74 49 75
REMARK SMILES IDX 42 76 43 77 44 78 45 79 46 80 72 81 73 82 82 83 74 84 75 85
REMARK SMILES IDX 81 86 83 87 76 88 77 89 78 90 79 91 80 92 56 93 57 94 66 95
REMARK SMILES IDX 58 96 59 97 65 98 67 99 60 100 61 101 62 102 63 103 64 104
REMARK H PARENT 3 30 88 54 54 65
REMARK Flexibility Score: inf
ROOT
ATOM      1  C   UNL A   1      42.323  19.261  26.494  1.00  0.00     0.275 C 
ENDROOT
BRANCH   1   2
ATOM      2  O   UNL A   1      41.395  20.124  25.820  1.00  0.00    -0.458 OA
BRANCH   2   3
ATOM      3  C   UNL A   1      40.861  21.099  26.596  1.00  0.00     0.338 C 
ATOM      4  O   UNL A   1      41.401  21.657  27.539  1.00  0.00    -0.246 OA
BRANCH   3   5
ATOM      5  C   UNL A   1      39.517  21.474  26.103  1.00  0.00     0.060 A 
ATOM      6  C   UNL A   1      37.062  22.136  24.966  1.00  0.00     0.066 A 
ATOM      7  C   UNL A   1      37.554  20.828  24.849  1.00  0.00     0.029 A 
ATOM      8  C   UNL A   1      37.759  23.092  25.716  1.00  0.00     0.029 A 
ATOM      9  C   UNL A   1      38.795  20.509  25.391  1.00  0.00     0.018 A 
ATOM     10  C   UNL A   1      38.979  22.750  26.306  1.00  0.00     0.018 A 
BRANCH   6  11
ATOM     11  N   UNL A   1      35.893  22.482  24.255  1.00  0.00    -0.220 N 
ATOM     12  C   UNL A   1      33.874  23.096  23.691  1.00  0.00     0.120 A 
ATOM     13  C   UNL A   1      34.588  22.492  24.705  1.00  0.00     0.144 A 
ATOM     14  N   UNL A   1      34.735  23.396  22.672  1.00  0.00    -0.131 NA
ATOM     15  N   UNL A   1      35.953  23.030  23.024  1.00  0.00    -0.062 NA
BRANCH  12  16
ATOM     16  C   UNL A   1      32.451  23.541  23.623  1.00  0.00     0.289 C 
BRANCH  16  17
ATOM     17  O   UNL A   1      32.113  24.372  22.501  1.00  0.00    -0.487 OA
BRANCH  17  18
ATOM     18  C   UNL A   1      31.506  25.574  22.746  1.00  0.00     0.119 A 
ATOM     19  C   UNL A   1      30.617  28.162  23.391  1.00  0.00    -0.024 A 
ATOM     20  C   UNL A   1      31.776  27.986  22.631  1.00  0.00     0.012 A 
ATOM     21  C   UNL A   1      29.861  27.042  23.745  1.00  0.00     0.012 A 
ATOM     22  C   UNL A   1      32.218  26.696  22.316  1.00  0.00     0.047 A 
ATOM     23  C   UNL A   1      30.289  25.759  23.398  1.00  0.00     0.047 A 
BRANCH  19  24
ATOM     24  C   UNL A   1      30.186  29.501  23.804  1.00  0.00     0.029 C 
ATOM     25  O   UNL A   1      27.474  32.132  20.476  1.00  0.00    -0.261 OA
ATOM     26  C   UNL A   1      28.086  31.682  21.436  1.00  0.00     0.290 C 
ATOM     27  N   UNL A   1      28.383  32.356  22.573  1.00  0.00    -0.282 N 
ATOM     28  S   UNL A   1      28.733  30.059  21.519  1.00  0.00    -0.022 SA
ATOM     29  C   UNL A   1      29.116  31.714  23.526  1.00  0.00     0.265 C 
ATOM     30  H   UNL A   1      28.078  33.283  22.706  1.00  0.00     0.174 HD
ATOM     31  C   UNL A   1      29.437  30.335  23.069  1.00  0.00     0.083 C 
ATOM     32  O   UNL A   1      29.478  32.204  24.584  1.00  0.00    -0.268 OA
ENDBRANCH  19  24
ENDBRANCH  17  18
ENDBRANCH  16  17
ENDBRANCH  12  16
ENDBRANCH   6  11
ENDBRANCH   3   5
ENDBRANCH   2   3
ENDBRANCH   1   2
BRANCH   1  33
ATOM     33  C   UNL A   1      43.443  18.818  25.563  1.00  0.00     0.275 C 
BRANCH  33  34
ATOM     34  O   UNL A   1      44.525  19.751  25.515  1.00  0.00    -0.458 OA
BRANCH  34  35
ATOM     35  C   UNL A   1      44.444  20.657  24.512  1.00  0.00     0.338 C 
ATOM     36  O   UNL A   1      44.582  20.447  23.319  1.00  0.00    -0.246 OA
BRANCH  35  37
ATOM     37  C   UNL A   1      44.398  22.010  25.080  1.00  0.00     0.060 A 
ATOM     38  C   UNL A   1      45.197  22.291  26.191  1.00  0.00     0.016 A 
ATOM     39  C   UNL A   1      43.400  22.898  24.653  1.00  0.00     0.016 A 
ATOM     40  C   UNL A   1      44.923  23.424  26.936  1.00  0.00     0.010 A 
ATOM     41  C   UNL A   1      43.121  24.020  25.404  1.00  0.00     0.010 A 
ATOM     42  C   UNL A   1      43.852  24.252  26.567  1.00  0.00    -0.014 A 
BRANCH  42  43
ATOM     43  C   UNL A   1      43.656  25.501  27.289  1.00  0.00     0.031 A 
ATOM     44  C   UNL A   1      44.740  26.474  26.999  1.00  0.00     0.074 A 
ATOM     45  C   UNL A   1      42.546  25.792  28.000  1.00  0.00     0.049 A 
ATOM     46  N   UNL A   1      45.637  26.915  27.817  1.00  0.00    -0.248 NA
ATOM     47  C   UNL A   1      44.989  26.841  25.592  1.00  0.00     0.031 C 
ATOM     48  C   UNL A   1      41.328  24.987  28.116  1.00  0.00     0.029 A 
ATOM     49  N   UNL A   1      42.220  26.922  28.693  1.00  0.00    -0.354 N 
ATOM     50  C   UNL A   1      46.381  27.833  27.085  1.00  0.00     0.074 A 
ATOM     51  C   UNL A   1      46.100  27.573  25.700  1.00  0.00     0.031 C 
ATOM     52  C   UNL A   1      40.331  25.747  28.624  1.00  0.00     0.029 A 
ATOM     53  C   UNL A   1      40.861  27.052  28.983  1.00  0.00     0.049 A 
ATOM     54  H   UNL A   1      42.889  27.591  28.966  1.00  0.00     0.167 HD
ATOM     55  C   UNL A   1      46.896  28.935  27.693  1.00  0.00     0.037 A 
ATOM     56  C   UNL A   1      40.215  28.165  29.429  1.00  0.00     0.037 A 
ATOM     57  C   UNL A   1      46.977  28.742  29.121  1.00  0.00     0.049 A 
ATOM     58  C   UNL A   1      41.243  29.055  30.024  1.00  0.00     0.074 A 
ATOM     59  C   UNL A   1      47.580  27.814  29.949  1.00  0.00     0.029 A 
ATOM     60  N   UNL A   1      46.030  29.373  29.887  1.00  0.00    -0.354 N 
ATOM     61  N   UNL A   1      41.905  28.775  31.113  1.00  0.00    -0.248 NA
ATOM     62  C   UNL A   1      41.858  30.052  29.163  1.00  0.00     0.031 C 
ATOM     63  C   UNL A   1      46.666  27.623  31.025  1.00  0.00     0.029 A 
ATOM     64  C   UNL A   1      45.595  28.501  30.848  1.00  0.00     0.049 A 
ATOM     65  H   UNL A   1      45.716  30.298  29.765  1.00  0.00     0.167 HD
ATOM     66  C   UNL A   1      43.203  29.182  30.845  1.00  0.00     0.074 A 
ATOM     67  C   UNL A   1      43.089  30.056  29.679  1.00  0.00     0.031 C 
ATOM     68  C   UNL A   1      44.264  28.537  31.414  1.00  0.00     0.037 A 
BRANCH  55  69
ATOM     69  C   UNL A   1      46.876  30.312  27.064  1.00  0.00     0.058 A 
ATOM     70  C   UNL A   1      48.045  31.100  27.104  1.00  0.00     0.135 A 
ATOM     71  C   UNL A   1      45.696  31.000  26.694  1.00  0.00     0.135 A 
ATOM     72  F   UNL A   1      49.219  30.558  27.465  1.00  0.00    -0.206 F 
ATOM     73  C   UNL A   1      48.029  32.475  26.864  1.00  0.00     0.059 A 
ATOM     74  C   UNL A   1      45.669  32.357  26.396  1.00  0.00     0.059 A 
ATOM     75  F   UNL A   1      44.490  30.424  26.696  1.00  0.00    -0.206 F 
ATOM     76  C   UNL A   1      46.832  33.094  26.518  1.00  0.00     0.060 A 
BRANCH  76  77
ATOM     77  S   UNL A   1      46.794  34.875  26.259  1.00  0.00     0.124 S 
ATOM     78  O   UNL A   1      47.512  35.354  27.434  1.00  0.00    -0.237 OA
ATOM     79  O   UNL A   1      47.489  35.006  24.983  1.00  0.00    -0.237 OA
ATOM     80  O   UNL A   1      45.367  35.177  26.222  1.00  0.00    -0.744 OA
ENDBRANCH  76  77
ENDBRANCH  55  69
BRANCH  56  81
ATOM     81  C   UNL A   1      38.854  28.672  29.076  1.00  0.00     0.058 A 
ATOM     82  C   UNL A   1      37.854  28.827  30.058  1.00  0.00     0.135 A 
ATOM     83  C   UNL A   1      38.600  29.302  27.842  1.00  0.00     0.135 A 
ATOM     84  F   UNL A   1      38.006  28.275  31.272  1.00  0.00    -0.206 F 
ATOM     85  C   UNL A   1      36.713  29.616  29.854  1.00  0.00     0.059 A 
ATOM     86  C   UNL A   1      37.467  30.082  27.611  1.00  0.00     0.059 A 
ATOM     87  F   UNL A   1      39.497  29.260  26.845  1.00  0.00    -0.206 F 
ATOM     88  C   UNL A   1      36.541  30.263  28.632  1.00  0.00     0.060 A 
BRANCH  88  89
ATOM     89  S   UNL A   1      35.184  31.443  28.421  1.00  0.00     0.124 S 
ATOM     90  O   UNL A   1      34.168  30.623  27.770  1.00  0.00    -0.237 OA
ATOM     91  O   UNL A   1      34.899  31.839  29.796  1.00  0.00    -0.237 OA
ATOM     92  O   UNL A   1      35.771  32.488  27.585  1.00  0.00    -0.744 OA
ENDBRANCH  88  89
ENDBRANCH  56  81
BRANCH  68  93
ATOM     93  C   UNL A   1      44.005  27.672  32.621  1.00  0.00     0.058 A 
ATOM     94  C   UNL A   1      43.829  28.130  33.940  1.00  0.00     0.135 A 
ATOM     95  C   UNL A   1      43.846  26.294  32.399  1.00  0.00     0.135 A 
ATOM     96  F   UNL A   1      43.854  29.440  34.227  1.00  0.00    -0.206 F 
ATOM     97  C   UNL A   1      43.576  27.249  34.995  1.00  0.00     0.059 A 
ATOM     98  C   UNL A   1      43.556  25.405  33.427  1.00  0.00     0.059 A 
ATOM     99  F   UNL A   1      43.941  25.797  31.155  1.00  0.00    -0.206 F 
ATOM    100  C   UNL A   1      43.450  25.885  34.730  1.00  0.00     0.060 A 
BRANCH 100 101
ATOM    101  S   UNL A   1      43.125  24.740  36.086  1.00  0.00     0.124 S 
ATOM    102  O   UNL A   1      44.050  25.209  37.113  1.00  0.00    -0.237 OA
ATOM    103  O   UNL A   1      41.708  24.963  36.360  1.00  0.00    -0.237 OA
ATOM    104  O   UNL A   1      43.441  23.433  35.515  1.00  0.00    -0.744 OA
ENDBRANCH 100 101
ENDBRANCH  68  93
ENDBRANCH  42  43
ENDBRANCH  35  37
ENDBRANCH  34  35
ENDBRANCH  33  34
ENDBRANCH   1  33
TORSDOF 19
ENDMDL
MODEL 2
REMARK VINA RESULT:     -12.9      1.681      2.592
REMARK SMILES O=C1NC(=O)/C(=C/c2ccc(OCc3cn(-c4ccc(C(=O)OCCOC(=O)c5ccc(-c6c7nc(c(-c8c(F)cc(S(=O)(=O)[O-])cc8F)c8ccc([nH]8)c(-c8c(F)cc(S(=O)(=O)[O-])cc8F)c8nc(c(-c9c(F)cc(S(=O)(=O)[O-])cc9F)c9ccc6[nH]9)C=C8)C=C7)cc5)cc4)nn3)cc2)S1
REMARK SMILES IDX 24 1 23 2 21 3 22 4 20 5 17 6 18 7 96 8 19 9 95 10 16 11
REMARK SMILES IDX 14 12 15 13 98 14 97 15 13 16 12 17 11 18 8 19 9 20 100 21
REMARK SMILES IDX 10 22 99 23 7 24 1 25 2 26 3 27 101 28 4 29 6 31 5 32 25 33
REMARK SMILES IDX 26 34 27 35 28 36 29 37 30 38 94 39 31 40 93 41 32 42 33 43
REMARK SMILES IDX 34 44 87 45 35 46 92 47 86 48 88 49 36 50 91 51 85 52 84 53
REMARK SMILES IDX 37 55 71 56 50 57 70 58 51 59 54 60 69 61 89 62 52 63 53 64
REMARK SMILES IDX 68 66 90 67 55 68 38 69 39 70 48 71 40 72 41 73 47 74 49 75
REMARK SMILES IDX 42 76 43 77 44 78 45 79 46 80 72 81 73 82 82 83 74 84 75 85
REMARK SMILES IDX 81 86 83 87 76 88 77 89 78 90 79 91 80 92 56 93 57 94 66 95
REMARK SMILES IDX 58 96 59 97 65 98 67 99 60 100 61 101 62 102 63 103 64 104
REMARK H PARENT 3 30 88 54 54 65
REMARK Flexibility Score: inf
ROOT
ATOM      1  C   UNL A   1      45.541  18.652  25.373  1.00  0.00     0.275 C 
ENDROOT
BRANCH   1   2
ATOM      2  O   UNL A   1      44.142  18.672  25.053  1.00  0.00    -0.458 OA
BRANCH   2   3
ATOM      3  C   UNL A   1      43.319  18.367  26.086  1.00  0.00     0.338 C 
ATOM      4  O   UNL A   1      43.440  17.432  26.862  1.00  0.00    -0.246 OA
BRANCH   3   5
ATOM      5  C   UNL A   1      42.251  19.384  26.212  1.00  0.00     0.060 A 
ATOM      6  C   UNL A   1      40.186  21.253  26.235  1.00  0.00     0.066 A 
ATOM      7  C   UNL A   1      39.894  19.894  26.048  1.00  0.00     0.029 A 
ATOM      8  C   UNL A   1      41.499  21.668  26.488  1.00  0.00     0.029 A 
ATOM      9  C   UNL A   1      40.931  18.967  26.005  1.00  0.00     0.018 A 
ATOM     10  C   UNL A   1      42.530  20.725  26.500  1.00  0.00     0.018 A 
BRANCH   6  11
ATOM     11  N   UNL A   1      39.141  22.191  26.092  1.00  0.00    -0.220 N 
ATOM     12  C   UNL A   1      37.195  23.166  25.909  1.00  0.00     0.120 A 
ATOM     13  C   UNL A   1      37.845  21.972  25.673  1.00  0.00     0.144 A 
ATOM     14  N   UNL A   1      38.097  24.058  26.421  1.00  0.00    -0.131 NA
ATOM     15  N   UNL A   1      39.266  23.459  26.536  1.00  0.00    -0.062 NA
BRANCH  12  16
ATOM     16  C   UNL A   1      35.751  23.532  25.816  1.00  0.00     0.289 C 
BRANCH  16  17
ATOM     17  O   UNL A   1      35.133  23.302  24.539  1.00  0.00    -0.487 OA
BRANCH  17  18
ATOM     18  C   UNL A   1      34.459  24.337  23.951  1.00  0.00     0.119 A 
ATOM     19  C   UNL A   1      32.883  26.504  23.098  1.00  0.00    -0.024 A 
ATOM     20  C   UNL A   1      33.611  26.590  24.287  1.00  0.00     0.012 A 
ATOM     21  C   UNL A   1      33.023  25.368  22.297  1.00  0.00     0.012 A 
ATOM     22  C   UNL A   1      34.390  25.507  24.712  1.00  0.00     0.047 A 
ATOM     23  C   UNL A   1      33.829  24.305  22.709  1.00  0.00     0.047 A 
BRANCH  19  24
ATOM     24  C   UNL A   1      31.994  27.593  22.681  1.00  0.00     0.029 C 
ATOM     25  O   UNL A   1      27.140  27.158  23.947  1.00  0.00    -0.261 OA
ATOM     26  C   UNL A   1      28.253  27.487  23.557  1.00  0.00     0.290 C 
ATOM     27  N   UNL A   1      28.538  28.574  22.801  1.00  0.00    -0.282 N 
ATOM     28  S   UNL A   1      29.717  26.586  23.883  1.00  0.00    -0.022 SA
ATOM     29  C   UNL A   1      29.832  28.764  22.415  1.00  0.00     0.265 C 
ATOM     30  H   UNL A   1      27.832  29.207  22.538  1.00  0.00     0.174 HD
ATOM     31  C   UNL A   1      30.683  27.668  22.950  1.00  0.00     0.083 C 
ATOM     32  O   UNL A   1      30.229  29.682  21.714  1.00  0.00    -0.268 OA
ENDBRANCH  19  24
ENDBRANCH  17  18
ENDBRANCH  16  17
ENDBRANCH  12  16
ENDBRANCH   6  11
ENDBRANCH   3   5
ENDBRANCH   2   3
ENDBRANCH   1   2
BRANCH   1  33
ATOM     33  C   UNL A   1      46.284  19.787  24.682  1.00  0.00     0.275 C 
BRANCH  33  34
ATOM     34  O   UNL A   1      46.023  21.062  25.274  1.00  0.00    -0.458 OA
BRANCH  34  35
ATOM     35  C   UNL A   1      45.123  21.820  24.604  1.00  0.00     0.338 C 
ATOM     36  O   UNL A   1      44.653  21.600  23.501  1.00  0.00    -0.246 OA
BRANCH  35  37
ATOM     37  C   UNL A   1      44.956  23.104  25.296  1.00  0.00     0.060 A 
ATOM     38  C   UNL A   1      45.561  23.268  26.545  1.00  0.00     0.016 A 
ATOM     39  C   UNL A   1      44.020  24.027  24.810  1.00  0.00     0.016 A 
ATOM     40  C   UNL A   1      45.146  24.313  27.352  1.00  0.00     0.010 A 
ATOM     41  C   UNL A   1      43.598  25.060  25.621  1.00  0.00     0.010 A 
ATOM     42  C   UNL A   1      44.129  25.169  26.904  1.00  0.00    -0.014 A 
BRANCH  42  43
ATOM     43  C   UNL A   1      43.792  26.332  27.713  1.00  0.00     0.031 A 
ATOM     44  C   UNL A   1      44.836  27.385  27.616  1.00  0.00     0.074 A 
ATOM     45  C   UNL A   1      42.606  26.497  28.336  1.00  0.00     0.049 A 
ATOM     46  N   UNL A   1      45.626  27.793  28.553  1.00  0.00    -0.248 NA
ATOM     47  C   UNL A   1      45.189  27.896  26.278  1.00  0.00     0.031 C 
ATOM     48  C   UNL A   1      41.434  25.620  28.262  1.00  0.00     0.029 A 
ATOM     49  N   UNL A   1      42.149  27.537  29.093  1.00  0.00    -0.354 N 
ATOM     50  C   UNL A   1      46.375  28.814  27.980  1.00  0.00     0.074 A 
ATOM     51  C   UNL A   1      46.238  28.672  26.557  1.00  0.00     0.031 C 
ATOM     52  C   UNL A   1      40.350  26.276  28.738  1.00  0.00     0.029 A 
ATOM     53  C   UNL A   1      40.764  27.567  29.261  1.00  0.00     0.049 A 
ATOM     54  H   UNL A   1      42.749  28.211  29.488  1.00  0.00     0.167 HD
ATOM     55  C   UNL A   1      46.764  29.879  28.732  1.00  0.00     0.037 A 
ATOM     56  C   UNL A   1      40.013  28.597  29.741  1.00  0.00     0.037 A 
ATOM     57  C   UNL A   1      46.727  29.556  30.137  1.00  0.00     0.049 A 
ATOM     58  C   UNL A   1      40.927  29.479  30.509  1.00  0.00     0.074 A 
ATOM     59  C   UNL A   1      47.308  28.587  30.934  1.00  0.00     0.029 A 
ATOM     60  N   UNL A   1      45.677  30.061  30.862  1.00  0.00    -0.354 N 
ATOM     61  N   UNL A   1      41.502  29.133  31.627  1.00  0.00    -0.248 NA
ATOM     62  C   UNL A   1      41.555  30.584  29.803  1.00  0.00     0.031 C 
ATOM     63  C   UNL A   1      46.313  28.247  31.896  1.00  0.00     0.029 A 
ATOM     64  C   UNL A   1      45.211  29.080  31.695  1.00  0.00     0.049 A 
ATOM     65  H   UNL A   1      45.319  30.976  30.793  1.00  0.00     0.167 HD
ATOM     66  C   UNL A   1      42.792  29.631  31.523  1.00  0.00     0.074 A 
ATOM     67  C   UNL A   1      42.731  30.605  30.434  1.00  0.00     0.031 C 
ATOM     68  C   UNL A   1      43.835  28.993  32.131  1.00  0.00     0.037 A 
BRANCH  55  69
ATOM     69  C   UNL A   1      46.717  31.307  28.229  1.00  0.00     0.058 A 
ATOM     70  C   UNL A   1      45.518  31.796  27.670  1.00  0.00     0.135 A 
ATOM     71  C   UNL A   1      47.861  32.107  27.999  1.00  0.00     0.135 A 
ATOM     72  F   UNL A   1      44.373  31.107  27.805  1.00  0.00    -0.206 F 
ATOM     73  C   UNL A   1      45.473  32.951  26.888  1.00  0.00     0.059 A 
ATOM     74  C   UNL A   1      47.827  33.290  27.271  1.00  0.00     0.059 A 
ATOM     75  F   UNL A   1      49.090  31.742  28.379  1.00  0.00    -0.206 F 
ATOM     76  C   UNL A   1      46.637  33.687  26.689  1.00  0.00     0.060 A 
BRANCH  76  77
ATOM     77  S   UNL A   1      46.598  35.147  25.638  1.00  0.00     0.124 S 
ATOM     78  O   UNL A   1      46.584  36.217  26.628  1.00  0.00    -0.237 OA
ATOM     79  O   UNL A   1      47.831  34.996  24.871  1.00  0.00    -0.237 OA
ATOM     80  O   UNL A   1      45.367  34.976  24.873  1.00  0.00    -0.744 OA
ENDBRANCH  76  77
ENDBRANCH  55  69
BRANCH  56  81
ATOM     81  C   UNL A   1      38.662  29.062  29.304  1.00  0.00     0.058 A 
ATOM     82  C   UNL A   1      37.647  29.344  30.243  1.00  0.00     0.135 A 
ATOM     83  C   UNL A   1      38.432  29.534  27.997  1.00  0.00     0.135 A 
ATOM     84  F   UNL A   1      37.777  28.946  31.518  1.00  0.00    -0.206 F 
ATOM     85  C   UNL A   1      36.515  30.107  29.923  1.00  0.00     0.059 A 
ATOM     86  C   UNL A   1      37.308  30.286  27.653  1.00  0.00     0.059 A 
ATOM     87  F   UNL A   1      39.343  29.365  27.029  1.00  0.00    -0.206 F 
ATOM     88  C   UNL A   1      36.367  30.597  28.628  1.00  0.00     0.060 A 
BRANCH  88  89
ATOM     89  S   UNL A   1      35.022  31.748  28.249  1.00  0.00     0.124 S 
ATOM     90  O   UNL A   1      34.137  30.923  27.434  1.00  0.00    -0.237 OA
ATOM     91  O   UNL A   1      34.526  32.096  29.577  1.00  0.00    -0.237 OA
ATOM     92  O   UNL A   1      35.694  32.833  27.537  1.00  0.00    -0.744 OA
ENDBRANCH  88  89
ENDBRANCH  56  81
BRANCH  68  93
ATOM     93  C   UNL A   1      43.520  28.004  33.226  1.00  0.00     0.058 A 
ATOM     94  C   UNL A   1      43.491  26.604  33.087  1.00  0.00     0.135 A 
ATOM     95  C   UNL A   1      43.318  28.520  34.516  1.00  0.00     0.135 A 
ATOM     96  F   UNL A   1      43.782  26.017  31.916  1.00  0.00    -0.206 F 
ATOM     97  C   UNL A   1      43.204  25.765  34.167  1.00  0.00     0.059 A 
ATOM     98  C   UNL A   1      43.069  27.703  35.612  1.00  0.00     0.059 A 
ATOM     99  F   UNL A   1      43.392  29.844  34.731  1.00  0.00    -0.206 F 
ATOM    100  C   UNL A   1      42.985  26.326  35.426  1.00  0.00     0.060 A 
BRANCH 100 101
ATOM    101  S   UNL A   1      42.613  25.251  36.828  1.00  0.00     0.124 S 
ATOM    102  O   UNL A   1      42.203  26.210  37.849  1.00  0.00    -0.237 OA
ATOM    103  O   UNL A   1      41.555  24.394  36.301  1.00  0.00    -0.237 OA
ATOM    104  O   UNL A   1      43.881  24.573  37.085  1.00  0.00    -0.744 OA
ENDBRANCH 100 101
ENDBRANCH  68  93
ENDBRANCH  42  43
ENDBRANCH  35  37
ENDBRANCH  34  35
ENDBRANCH  33  34
ENDBRANCH   1  33
TORSDOF 19
ENDMDL
MODEL 3
REMARK VINA RESULT:     -12.4      3.805     10.602
REMARK SMILES O=C1NC(=O)/C(=C/c2ccc(OCc3cn(-c4ccc(C(=O)OCCOC(=O)c5ccc(-c6c7nc(c(-c8c(F)cc(S(=O)(=O)[O-])cc8F)c8ccc([nH]8)c(-c8c(F)cc(S(=O)(=O)[O-])cc8F)c8nc(c(-c9c(F)cc(S(=O)(=O)[O-])cc9F)c9ccc6[nH]9)C=C8)C=C7)cc5)cc4)nn3)cc2)S1
REMARK SMILES IDX 24 1 23 2 21 3 22 4 20 5 17 6 18 7 96 8 19 9 95 10 16 11
REMARK SMILES IDX 14 12 15 13 98 14 97 15 13 16 12 17 11 18 8 19 9 20 100 21
REMARK SMILES IDX 10 22 99 23 7 24 1 25 2 26 3 27 101 28 4 29 6 31 5 32 25 33
REMARK SMILES IDX 26 34 27 35 28 36 29 37 30 38 94 39 31 40 93 41 32 42 33 43
REMARK SMILES IDX 34 44 87 45 35 46 92 47 86 48 88 49 36 50 91 51 85 52 84 53
REMARK SMILES IDX 37 55 71 56 50 57 70 58 51 59 54 60 69 61 89 62 52 63 53 64
REMARK SMILES IDX 68 66 90 67 55 68 38 69 39 70 48 71 40 72 41 73 47 74 49 75
REMARK SMILES IDX 42 76 43 77 44 78 45 79 46 80 72 81 73 82 82 83 74 84 75 85
REMARK SMILES IDX 81 86 83 87 76 88 77 89 78 90 79 91 80 92 56 93 57 94 66 95
REMARK SMILES IDX 58 96 59 97 65 98 67 99 60 100 61 101 62 102 63 103 64 104
REMARK H PARENT 3 30 88 54 54 65
REMARK Flexibility Score: inf
ROOT
ATOM      1  C   UNL A   1      34.310  34.887  29.178  1.00  0.00     0.275 C 
ENDROOT
BRANCH   1   2
ATOM      2  O   UNL A   1      33.896  33.555  28.839  1.00  0.00    -0.458 OA
BRANCH   2   3
ATOM      3  C   UNL A   1      34.907  32.715  28.505  1.00  0.00     0.338 C 
ATOM      4  O   UNL A   1      36.092  32.865  28.757  1.00  0.00    -0.246 OA
BRANCH   3   5
ATOM      5  C   UNL A   1      34.374  31.510  27.831  1.00  0.00     0.060 A 
ATOM      6  C   UNL A   1      33.203  29.243  26.712  1.00  0.00     0.066 A 
ATOM      7  C   UNL A   1      32.512  30.464  26.700  1.00  0.00     0.029 A 
ATOM      8  C   UNL A   1      34.509  29.173  27.213  1.00  0.00     0.029 A 
ATOM      9  C   UNL A   1      33.086  31.586  27.288  1.00  0.00     0.018 A 
ATOM     10  C   UNL A   1      35.103  30.317  27.752  1.00  0.00     0.018 A 
BRANCH   6  11
ATOM     11  N   UNL A   1      32.528  28.083  26.277  1.00  0.00    -0.220 N 
ATOM     12  C   UNL A   1      31.768  26.047  26.051  1.00  0.00     0.120 A 
ATOM     13  C   UNL A   1      32.851  26.763  26.519  1.00  0.00     0.144 A 
ATOM     14  N   UNL A   1      30.861  26.925  25.526  1.00  0.00    -0.131 NA
ATOM     15  N   UNL A   1      31.323  28.152  25.675  1.00  0.00    -0.062 NA
BRANCH  12  16
ATOM     16  C   UNL A   1      31.432  24.597  26.154  1.00  0.00     0.289 C 
BRANCH  16  17
ATOM     17  O   UNL A   1      32.464  23.758  26.700  1.00  0.00    -0.487 OA
BRANCH  17  18
ATOM     18  C   UNL A   1      32.873  22.677  25.968  1.00  0.00     0.119 A 
ATOM     19  C   UNL A   1      33.353  20.296  24.550  1.00  0.00    -0.024 A 
ATOM     20  C   UNL A   1      32.181  21.023  24.327  1.00  0.00     0.012 A 
ATOM     21  C   UNL A   1      34.319  20.816  25.414  1.00  0.00     0.012 A 
ATOM     22  C   UNL A   1      31.943  22.205  25.038  1.00  0.00     0.047 A 
ATOM     23  C   UNL A   1      34.091  22.014  26.095  1.00  0.00     0.047 A 
BRANCH  19  24
ATOM     24  C   UNL A   1      33.580  19.013  23.880  1.00  0.00     0.029 C 
ATOM     25  O   UNL A   1      32.207  14.873  26.397  1.00  0.00    -0.261 OA
ATOM     26  C   UNL A   1      32.588  15.721  25.601  1.00  0.00     0.290 C 
ATOM     27  N   UNL A   1      33.195  15.479  24.415  1.00  0.00    -0.282 N 
ATOM     28  S   UNL A   1      32.446  17.446  25.857  1.00  0.00    -0.022 SA
ATOM     29  C   UNL A   1      33.599  16.548  23.671  1.00  0.00     0.265 C 
ATOM     30  H   UNL A   1      33.341  14.558  24.099  1.00  0.00     0.174 HD
ATOM     31  C   UNL A   1      33.255  17.811  24.377  1.00  0.00     0.083 C 
ATOM     32  O   UNL A   1      34.179  16.480  22.599  1.00  0.00    -0.268 OA
ENDBRANCH  19  24
ENDBRANCH  17  18
ENDBRANCH  16  17
ENDBRANCH  12  16
ENDBRANCH   6  11
ENDBRANCH   3   5
ENDBRANCH   2   3
ENDBRANCH   1   2
BRANCH   1  33
ATOM     33  C   UNL A   1      33.764  35.309  30.534  1.00  0.00     0.275 C 
BRANCH  33  34
ATOM     34  O   UNL A   1      34.666  35.030  31.607  1.00  0.00    -0.458 OA
BRANCH  34  35
ATOM     35  C   UNL A   1      34.420  33.871  32.263  1.00  0.00     0.338 C 
ATOM     36  O   UNL A   1      33.423  33.588  32.906  1.00  0.00    -0.246 OA
BRANCH  35  37
ATOM     37  C   UNL A   1      35.644  33.063  32.301  1.00  0.00     0.060 A 
ATOM     38  C   UNL A   1      36.876  33.723  32.307  1.00  0.00     0.016 A 
ATOM     39  C   UNL A   1      35.557  31.679  32.092  1.00  0.00     0.016 A 
ATOM     40  C   UNL A   1      38.018  33.002  32.003  1.00  0.00     0.010 A 
ATOM     41  C   UNL A   1      36.694  30.965  31.776  1.00  0.00     0.010 A 
ATOM     42  C   UNL A   1      37.910  31.639  31.687  1.00  0.00    -0.014 A 
BRANCH  42  43
ATOM     43  C   UNL A   1      39.132  30.872  31.489  1.00  0.00     0.031 A 
ATOM     44  C   UNL A   1      39.851  30.651  32.769  1.00  0.00     0.074 A 
ATOM     45  C   UNL A   1      39.477  30.297  30.317  1.00  0.00     0.049 A 
ATOM     46  N   UNL A   1      40.999  31.131  33.116  1.00  0.00    -0.248 NA
ATOM     47  C   UNL A   1      39.123  29.998  33.874  1.00  0.00     0.031 C 
ATOM     48  C   UNL A   1      38.690  30.254  29.082  1.00  0.00     0.029 A 
ATOM     49  N   UNL A   1      40.564  29.535  30.001  1.00  0.00    -0.354 N 
ATOM     50  C   UNL A   1      41.254  30.597  34.374  1.00  0.00     0.074 A 
ATOM     51  C   UNL A   1      39.996  30.119  34.876  1.00  0.00     0.031 C 
ATOM     52  C   UNL A   1      39.207  29.320  28.250  1.00  0.00     0.029 A 
ATOM     53  C   UNL A   1      40.426  28.784  28.832  1.00  0.00     0.049 A 
ATOM     54  H   UNL A   1      41.380  29.516  30.552  1.00  0.00     0.167 HD
ATOM     55  C   UNL A   1      42.528  30.295  34.742  1.00  0.00     0.037 A 
ATOM     56  C   UNL A   1      41.221  27.763  28.408  1.00  0.00     0.037 A 
ATOM     57  C   UNL A   1      43.480  31.013  33.930  1.00  0.00     0.049 A 
ATOM     58  C   UNL A   1      42.519  27.902  29.115  1.00  0.00     0.074 A 
ATOM     59  C   UNL A   1      43.715  32.345  33.645  1.00  0.00     0.029 A 
ATOM     60  N   UNL A   1      44.123  30.299  32.950  1.00  0.00    -0.354 N 
ATOM     61  N   UNL A   1      43.354  28.883  28.915  1.00  0.00    -0.248 NA
ATOM     62  C   UNL A   1      42.686  27.189  30.371  1.00  0.00     0.031 C 
ATOM     63  C   UNL A   1      44.097  32.373  32.272  1.00  0.00     0.029 A 
ATOM     64  C   UNL A   1      44.160  31.057  31.812  1.00  0.00     0.049 A 
ATOM     65  H   UNL A   1      44.494  29.392  33.051  1.00  0.00     0.167 HD
ATOM     66  C   UNL A   1      43.815  29.210  30.181  1.00  0.00     0.074 A 
ATOM     67  C   UNL A   1      43.456  28.067  31.019  1.00  0.00     0.031 C 
ATOM     68  C   UNL A   1      44.176  30.494  30.479  1.00  0.00     0.037 A 
BRANCH  55  69
ATOM     69  C   UNL A   1      42.895  29.031  35.491  1.00  0.00     0.058 A 
ATOM     70  C   UNL A   1      43.780  29.116  36.585  1.00  0.00     0.135 A 
ATOM     71  C   UNL A   1      42.658  27.723  35.006  1.00  0.00     0.135 A 
ATOM     72  F   UNL A   1      44.096  30.309  37.114  1.00  0.00    -0.206 F 
ATOM     73  C   UNL A   1      44.430  27.999  37.111  1.00  0.00     0.059 A 
ATOM     74  C   UNL A   1      43.252  26.591  35.551  1.00  0.00     0.059 A 
ATOM     75  F   UNL A   1      41.920  27.475  33.919  1.00  0.00    -0.206 F 
ATOM     76  C   UNL A   1      44.163  26.741  36.580  1.00  0.00     0.060 A 
BRANCH  76  77
ATOM     77  S   UNL A   1      45.038  25.302  37.216  1.00  0.00     0.124 S 
ATOM     78  O   UNL A   1      44.580  25.273  38.600  1.00  0.00    -0.237 OA
ATOM     79  O   UNL A   1      44.536  24.241  36.350  1.00  0.00    -0.237 OA
ATOM     80  O   UNL A   1      46.442  25.651  37.021  1.00  0.00    -0.744 OA
ENDBRANCH  76  77
ENDBRANCH  55  69
BRANCH  56  81
ATOM     81  C   UNL A   1      40.840  26.494  27.718  1.00  0.00     0.058 A 
ATOM     82  C   UNL A   1      41.688  25.899  26.761  1.00  0.00     0.135 A 
ATOM     83  C   UNL A   1      39.794  25.680  28.196  1.00  0.00     0.135 A 
ATOM     84  F   UNL A   1      42.721  26.587  26.251  1.00  0.00    -0.206 F 
ATOM     85  C   UNL A   1      41.553  24.561  26.362  1.00  0.00     0.059 A 
ATOM     86  C   UNL A   1      39.633  24.351  27.806  1.00  0.00     0.059 A 
ATOM     87  F   UNL A   1      38.949  26.122  29.139  1.00  0.00    -0.206 F 
ATOM     88  C   UNL A   1      40.535  23.786  26.912  1.00  0.00     0.060 A 
BRANCH  88  89
ATOM     89  S   UNL A   1      40.469  22.009  26.564  1.00  0.00     0.124 S 
ATOM     90  O   UNL A   1      41.560  21.847  25.610  1.00  0.00    -0.237 OA
ATOM     91  O   UNL A   1      40.683  21.426  27.884  1.00  0.00    -0.237 OA
ATOM     92  O   UNL A   1      39.127  21.822  26.015  1.00  0.00    -0.744 OA
ENDBRANCH  88  89
ENDBRANCH  56  81
BRANCH  68  93
ATOM     93  C   UNL A   1      44.453  31.437  29.336  1.00  0.00     0.058 A 
ATOM     94  C   UNL A   1      43.555  32.389  28.819  1.00  0.00     0.135 A 
ATOM     95  C   UNL A   1      45.747  31.420  28.791  1.00  0.00     0.135 A 
ATOM     96  F   UNL A   1      42.334  32.552  29.351  1.00  0.00    -0.206 F 
ATOM     97  C   UNL A   1      43.909  33.233  27.762  1.00  0.00     0.059 A 
ATOM     98  C   UNL A   1      46.132  32.277  27.767  1.00  0.00     0.059 A 
ATOM     99  F   UNL A   1      46.672  30.577  29.280  1.00  0.00    -0.206 F 
ATOM    100  C   UNL A   1      45.199  33.163  27.237  1.00  0.00     0.060 A 
BRANCH 100 101
ATOM    101  S   UNL A   1      45.666  34.249  25.873  1.00  0.00     0.124 S 
ATOM    102  O   UNL A   1      47.099  33.999  25.757  1.00  0.00    -0.237 OA
ATOM    103  O   UNL A   1      44.845  33.752  24.773  1.00  0.00    -0.237 OA
ATOM    104  O   UNL A   1      45.305  35.580  26.355  1.00  0.00    -0.744 OA
ENDBRANCH 100 101
ENDBRANCH  68  93
ENDBRANCH  42  43
ENDBRANCH  35  37
ENDBRANCH  34  35
ENDBRANCH  33  34
ENDBRANCH   1  33
TORSDOF 19
ENDMDL
