MODEL 1
REMARK VINA RESULT:     -10.3      0.000      0.000
REMARK SMILES C=CCN(CC(=O)OCCOC(=O)c1ccc(-c2c3nc(c(-c4c(F)cc(S(=O)(=O)[O-])cc4F)c4ccc([nH]4)c(-c4c(F)cc(S(=O)(=O)[O-])cc4F)c4nc(c(-c5c(F)cc(S(=O)(=O)[O-])cc5F)c5ccc2[nH]5)C=C4)C=C3)cc1)C(=O)N1CC[N@H+](C)C(C)(C)C1
REMARK SMILES IDX 9 1 8 2 6 3 7 4 5 5 4 6 3 7 2 8 1 9 80 10 81 11 82 12 83 13
REMARK SMILES IDX 90 14 84 15 87 16 85 17 88 18 89 19 86 20 10 22 11 23 12 24
REMARK SMILES IDX 13 25 14 26 15 27 79 28 16 29 78 30 17 31 18 32 19 33 72 34
REMARK SMILES IDX 20 35 77 36 71 37 73 38 21 39 76 40 70 41 69 42 22 44 56 45
REMARK SMILES IDX 35 46 55 47 36 48 39 49 54 50 74 51 37 52 38 53 53 55 75 56
REMARK SMILES IDX 40 57 23 58 24 59 33 60 25 61 26 62 32 63 34 64 27 65 28 66
REMARK SMILES IDX 29 67 30 68 31 69 57 70 58 71 67 72 59 73 60 74 66 75 68 76
REMARK SMILES IDX 61 77 62 78 63 79 64 80 65 81 41 82 42 83 51 84 43 85 44 86
REMARK SMILES IDX 50 87 52 88 45 89 46 90 47 91 48 92 49 93
REMARK H PARENT 85 21 73 43 39 54
REMARK Flexibility Score: inf
ROOT
ATOM      1  C   UNL A   1      39.734  21.962  26.270  1.00  0.00     0.274 C 
ENDROOT
BRANCH   1   2
ATOM      2  O   UNL A   1      38.677  22.907  26.074  1.00  0.00    -0.461 OA
BRANCH   2   3
ATOM      3  C   UNL A   1      37.537  22.458  25.491  1.00  0.00     0.325 C 
ATOM      4  O   UNL A   1      37.461  21.472  24.770  1.00  0.00    -0.250 OA
BRANCH   3   5
ATOM      5  C   UNL A   1      36.386  23.421  25.792  1.00  0.00     0.244 C 
BRANCH   5   6
ATOM      6  N   UNL A   1      35.202  23.168  24.972  1.00  0.00    -0.310 N 
BRANCH   6   7
ATOM      7  C   UNL A   1      34.194  22.313  25.598  1.00  0.00     0.149 C 
BRANCH   7   8
ATOM      8  C   UNL A   1      33.801  22.912  26.921  1.00  0.00    -0.013 C 
ATOM      9  C   UNL A   1      33.469  22.188  27.999  1.00  0.00     0.006 C 
ENDBRANCH   7   8
ENDBRANCH   6   7
BRANCH   6  10
ATOM     10  C   UNL A   1      34.856  23.751  23.758  1.00  0.00     0.321 C 
ATOM     11  O   UNL A   1      35.309  23.312  22.696  1.00  0.00    -0.248 OA
BRANCH  10  12
ATOM     12  N   UNL A   1      33.916  24.763  23.718  1.00  0.00    -0.313 N 
ATOM     13  C   UNL A   1      33.351  25.084  22.401  1.00  0.00     0.183 C 
ATOM     14  C   UNL A   1      33.932  25.931  24.593  1.00  0.00     0.189 C 
ATOM     15  C   UNL A   1      31.988  25.807  22.466  1.00  0.00     0.284 C 
ATOM     16  C   UNL A   1      32.525  26.576  24.734  1.00  0.00     0.110 C 
ATOM     17  N   UNL A   1      31.869  26.909  23.446  1.00  0.00    -0.330 N 
ATOM     18  C   UNL A   1      31.610  25.553  25.402  1.00  0.00     0.080 C 
ATOM     19  C   UNL A   1      32.615  27.784  25.693  1.00  0.00     0.080 C 
ATOM     20  C   UNL A   1      32.226  28.200  22.878  1.00  0.00     0.333 C 
ATOM     21  H   UNL A   1      30.883  27.015  23.684  1.00  0.00     0.348 HD
ENDBRANCH  10  12
ENDBRANCH   6  10
ENDBRANCH   5   6
ENDBRANCH   3   5
ENDBRANCH   2   3
ENDBRANCH   1   2
BRANCH   1  22
ATOM     22  C   UNL A   1      40.462  22.365  27.557  1.00  0.00     0.275 C 
BRANCH  22  23
ATOM     23  O   UNL A   1      41.712  23.073  27.368  1.00  0.00    -0.458 OA
BRANCH  23  24
ATOM     24  C   UNL A   1      41.719  24.254  26.706  1.00  0.00     0.338 C 
ATOM     25  O   UNL A   1      41.992  24.427  25.531  1.00  0.00    -0.246 OA
BRANCH  24  26
ATOM     26  C   UNL A   1      41.568  25.352  27.694  1.00  0.00     0.060 A 
ATOM     27  C   UNL A   1      40.370  25.420  28.418  1.00  0.00     0.016 A 
ATOM     28  C   UNL A   1      42.533  26.359  27.846  1.00  0.00     0.016 A 
ATOM     29  C   UNL A   1      40.122  26.516  29.254  1.00  0.00     0.010 A 
ATOM     30  C   UNL A   1      42.309  27.425  28.731  1.00  0.00     0.010 A 
ATOM     31  C   UNL A   1      41.100  27.516  29.445  1.00  0.00    -0.014 A 
BRANCH  31  32
ATOM     32  C   UNL A   1      40.990  28.397  30.638  1.00  0.00     0.031 A 
ATOM     33  C   UNL A   1      41.841  28.309  31.879  1.00  0.00     0.074 A 
ATOM     34  C   UNL A   1      40.034  29.340  30.528  1.00  0.00     0.049 A 
ATOM     35  N   UNL A   1      41.820  29.088  32.936  1.00  0.00    -0.248 NA
ATOM     36  C   UNL A   1      42.836  27.234  31.968  1.00  0.00     0.031 C 
ATOM     37  C   UNL A   1      39.145  29.486  29.367  1.00  0.00     0.029 A 
ATOM     38  N   UNL A   1      39.649  30.346  31.367  1.00  0.00    -0.354 N 
ATOM     39  C   UNL A   1      42.797  28.606  33.806  1.00  0.00     0.074 A 
ATOM     40  C   UNL A   1      43.391  27.458  33.158  1.00  0.00     0.031 C 
ATOM     41  C   UNL A   1      38.341  30.533  29.555  1.00  0.00     0.029 A 
ATOM     42  C   UNL A   1      38.607  31.090  30.872  1.00  0.00     0.049 A 
ATOM     43  H   UNL A   1      40.074  30.520  32.238  1.00  0.00     0.167 HD
ATOM     44  C   UNL A   1      43.146  29.078  35.031  1.00  0.00     0.037 A 
ATOM     45  C   UNL A   1      37.909  32.097  31.418  1.00  0.00     0.037 A 
ATOM     46  C   UNL A   1      42.513  30.216  35.665  1.00  0.00     0.049 A 
ATOM     47  C   UNL A   1      38.312  32.590  32.762  1.00  0.00     0.074 A 
ATOM     48  C   UNL A   1      42.818  30.807  36.882  1.00  0.00     0.029 A 
ATOM     49  N   UNL A   1      41.437  30.923  35.144  1.00  0.00    -0.354 N 
ATOM     50  N   UNL A   1      39.258  32.136  33.548  1.00  0.00    -0.248 NA
ATOM     51  C   UNL A   1      37.568  33.735  33.292  1.00  0.00     0.031 C 
ATOM     52  C   UNL A   1      41.895  31.833  37.119  1.00  0.00     0.029 A 
ATOM     53  C   UNL A   1      41.047  31.920  36.027  1.00  0.00     0.049 A 
ATOM     54  H   UNL A   1      41.013  30.742  34.275  1.00  0.00     0.167 HD
ATOM     55  C   UNL A   1      39.218  32.932  34.679  1.00  0.00     0.074 A 
ATOM     56  C   UNL A   1      38.179  33.921  34.454  1.00  0.00     0.031 C 
ATOM     57  C   UNL A   1      39.970  32.850  35.806  1.00  0.00     0.037 A 
BRANCH  44  58
ATOM     58  C   UNL A   1      44.244  28.383  35.805  1.00  0.00     0.058 A 
ATOM     59  C   UNL A   1      45.581  28.807  35.745  1.00  0.00     0.135 A 
ATOM     60  C   UNL A   1      43.930  27.375  36.735  1.00  0.00     0.135 A 
ATOM     61  F   UNL A   1      45.947  29.764  34.877  1.00  0.00    -0.206 F 
ATOM     62  C   UNL A   1      46.562  28.266  36.577  1.00  0.00     0.059 A 
ATOM     63  C   UNL A   1      44.890  26.832  37.591  1.00  0.00     0.059 A 
ATOM     64  F   UNL A   1      42.669  26.929  36.846  1.00  0.00    -0.206 F 
ATOM     65  C   UNL A   1      46.205  27.284  37.504  1.00  0.00     0.060 A 
BRANCH  65  66
ATOM     66  S   UNL A   1      47.473  26.636  38.621  1.00  0.00     0.124 S 
ATOM     67  O   UNL A   1      46.749  26.583  39.887  1.00  0.00    -0.237 OA
ATOM     68  O   UNL A   1      47.790  25.344  38.019  1.00  0.00    -0.237 OA
ATOM     69  O   UNL A   1      48.535  27.633  38.548  1.00  0.00    -0.744 OA
ENDBRANCH  65  66
ENDBRANCH  44  58
BRANCH  45  70
ATOM     70  C   UNL A   1      36.768  32.654  30.652  1.00  0.00     0.058 A 
ATOM     71  C   UNL A   1      35.448  32.406  31.042  1.00  0.00     0.135 A 
ATOM     72  C   UNL A   1      36.994  33.592  29.630  1.00  0.00     0.135 A 
ATOM     73  F   UNL A   1      35.190  31.526  32.022  1.00  0.00    -0.206 F 
ATOM     74  C   UNL A   1      34.384  33.089  30.462  1.00  0.00     0.059 A 
ATOM     75  C   UNL A   1      35.951  34.306  29.056  1.00  0.00     0.059 A 
ATOM     76  F   UNL A   1      38.248  33.887  29.253  1.00  0.00    -0.206 F 
ATOM     77  C   UNL A   1      34.649  34.050  29.483  1.00  0.00     0.060 A 
BRANCH  77  78
ATOM     78  S   UNL A   1      33.282  35.041  28.842  1.00  0.00     0.124 S 
ATOM     79  O   UNL A   1      33.984  36.220  28.348  1.00  0.00    -0.237 OA
ATOM     80  O   UNL A   1      32.710  34.163  27.826  1.00  0.00    -0.237 OA
ATOM     81  O   UNL A   1      32.443  35.250  30.019  1.00  0.00    -0.744 OA
ENDBRANCH  77  78
ENDBRANCH  45  70
BRANCH  57  82
ATOM     82  C   UNL A   1      39.645  33.854  36.871  1.00  0.00     0.058 A 
ATOM     83  C   UNL A   1      40.233  35.129  36.866  1.00  0.00     0.135 A 
ATOM     84  C   UNL A   1      38.810  33.514  37.945  1.00  0.00     0.135 A 
ATOM     85  F   UNL A   1      41.047  35.494  35.863  1.00  0.00    -0.206 F 
ATOM     86  C   UNL A   1      40.057  36.009  37.926  1.00  0.00     0.059 A 
ATOM     87  C   UNL A   1      38.601  34.388  39.004  1.00  0.00     0.059 A 
ATOM     88  F   UNL A   1      38.218  32.309  37.988  1.00  0.00    -0.206 F 
ATOM     89  C   UNL A   1      39.256  35.620  39.001  1.00  0.00     0.060 A 
BRANCH  89  90
ATOM     90  S   UNL A   1      39.096  36.735  40.411  1.00  0.00     0.124 S 
ATOM     91  O   UNL A   1      38.150  36.007  41.250  1.00  0.00    -0.237 OA
ATOM     92  O   UNL A   1      40.464  36.807  40.914  1.00  0.00    -0.237 OA
ATOM     93  O   UNL A   1      38.588  37.965  39.812  1.00  0.00    -0.744 OA
ENDBRANCH  89  90
ENDBRANCH  57  82
ENDBRANCH  31  32
ENDBRANCH  24  26
ENDBRANCH  23  24
ENDBRANCH  22  23
ENDBRANCH   1  22
TORSDOF 19
ENDMDL
MODEL 2
REMARK VINA RESULT:     -10.2      4.970     10.124
REMARK SMILES C=CCN(CC(=O)OCCOC(=O)c1ccc(-c2c3nc(c(-c4c(F)cc(S(=O)(=O)[O-])cc4F)c4ccc([nH]4)c(-c4c(F)cc(S(=O)(=O)[O-])cc4F)c4nc(c(-c5c(F)cc(S(=O)(=O)[O-])cc5F)c5ccc2[nH]5)C=C4)C=C3)cc1)C(=O)N1CC[N@H+](C)C(C)(C)C1
REMARK SMILES IDX 9 1 8 2 6 3 7 4 5 5 4 6 3 7 2 8 1 9 80 10 81 11 82 12 83 13
REMARK SMILES IDX 90 14 84 15 87 16 85 17 88 18 89 19 86 20 10 22 11 23 12 24
REMARK SMILES IDX 13 25 14 26 15 27 79 28 16 29 78 30 17 31 18 32 19 33 72 34
REMARK SMILES IDX 20 35 77 36 71 37 73 38 21 39 76 40 70 41 69 42 22 44 56 45
REMARK SMILES IDX 35 46 55 47 36 48 39 49 54 50 74 51 37 52 38 53 53 55 75 56
REMARK SMILES IDX 40 57 23 58 24 59 33 60 25 61 26 62 32 63 34 64 27 65 28 66
REMARK SMILES IDX 29 67 30 68 31 69 57 70 58 71 67 72 59 73 60 74 66 75 68 76
REMARK SMILES IDX 61 77 62 78 63 79 64 80 65 81 41 82 42 83 51 84 43 85 44 86
REMARK SMILES IDX 50 87 52 88 45 89 46 90 47 91 48 92 49 93
REMARK H PARENT 85 21 73 43 39 54
REMARK Flexibility Score: inf
ROOT
ATOM      1  C   UNL A   1      31.802  30.362  26.378  1.00  0.00     0.274 C 
ENDROOT
BRANCH   1   2
ATOM      2  O   UNL A   1      32.550  29.141  26.368  1.00  0.00    -0.461 OA
BRANCH   2   3
ATOM      3  C   UNL A   1      32.003  28.069  26.994  1.00  0.00     0.325 C 
ATOM      4  O   UNL A   1      31.165  28.129  27.884  1.00  0.00    -0.250 OA
BRANCH   3   5
ATOM      5  C   UNL A   1      32.660  26.782  26.486  1.00  0.00     0.244 C 
BRANCH   5   6
ATOM      6  N   UNL A   1      32.399  26.530  25.069  1.00  0.00    -0.310 N 
BRANCH   6   7
ATOM      7  C   UNL A   1      31.171  27.137  24.556  1.00  0.00     0.149 C 
BRANCH   7   8
ATOM      8  C   UNL A   1      30.077  26.104  24.565  1.00  0.00    -0.013 C 
ATOM      9  C   UNL A   1      29.674  25.453  25.665  1.00  0.00     0.006 C 
ENDBRANCH   7   8
ENDBRANCH   6   7
BRANCH   6  10
ATOM     10  C   UNL A   1      33.233  25.926  24.136  1.00  0.00     0.321 C 
ATOM     11  O   UNL A   1      33.502  26.492  23.071  1.00  0.00    -0.248 OA
BRANCH  10  12
ATOM     12  N   UNL A   1      33.858  24.730  24.435  1.00  0.00    -0.313 N 
ATOM     13  C   UNL A   1      32.984  23.591  24.743  1.00  0.00     0.183 C 
ATOM     14  C   UNL A   1      35.138  24.626  25.128  1.00  0.00     0.189 C 
ATOM     15  C   UNL A   1      33.662  22.216  24.553  1.00  0.00     0.284 C 
ATOM     16  C   UNL A   1      35.856  23.280  24.831  1.00  0.00     0.110 C 
ATOM     17  N   UNL A   1      35.033  22.074  25.091  1.00  0.00    -0.330 N 
ATOM     18  C   UNL A   1      36.172  23.240  23.339  1.00  0.00     0.080 C 
ATOM     19  C   UNL A   1      37.211  23.255  25.573  1.00  0.00     0.080 C 
ATOM     20  C   UNL A   1      35.045  21.592  26.464  1.00  0.00     0.333 C 
ATOM     21  H   UNL A   1      35.501  21.331  24.571  1.00  0.00     0.348 HD
ENDBRANCH  10  12
ENDBRANCH   6  10
ENDBRANCH   5   6
ENDBRANCH   3   5
ENDBRANCH   2   3
ENDBRANCH   1   2
BRANCH   1  22
ATOM     22  C   UNL A   1      32.591  31.363  27.228  1.00  0.00     0.275 C 
BRANCH  22  23
ATOM     23  O   UNL A   1      33.962  30.990  27.514  1.00  0.00    -0.458 OA
BRANCH  23  24
ATOM     24  C   UNL A   1      34.560  31.448  28.639  1.00  0.00     0.338 C 
ATOM     25  O   UNL A   1      34.196  32.386  29.326  1.00  0.00    -0.246 OA
BRANCH  24  26
ATOM     26  C   UNL A   1      35.874  30.772  28.785  1.00  0.00     0.060 A 
ATOM     27  C   UNL A   1      36.620  30.533  27.623  1.00  0.00     0.016 A 
ATOM     28  C   UNL A   1      36.333  30.289  30.020  1.00  0.00     0.016 A 
ATOM     29  C   UNL A   1      37.794  29.773  27.691  1.00  0.00     0.010 A 
ATOM     30  C   UNL A   1      37.543  29.580  30.096  1.00  0.00     0.010 A 
ATOM     31  C   UNL A   1      38.287  29.314  28.932  1.00  0.00    -0.014 A 
BRANCH  31  32
ATOM     32  C   UNL A   1      39.716  28.912  29.023  1.00  0.00     0.031 A 
ATOM     33  C   UNL A   1      40.282  27.573  28.624  1.00  0.00     0.074 A 
ATOM     34  C   UNL A   1      40.520  29.881  29.501  1.00  0.00     0.049 A 
ATOM     35  N   UNL A   1      41.536  27.184  28.638  1.00  0.00    -0.248 NA
ATOM     36  C   UNL A   1      39.355  26.535  28.155  1.00  0.00     0.031 C 
ATOM     37  C   UNL A   1      40.054  31.207  29.932  1.00  0.00     0.029 A 
ATOM     38  N   UNL A   1      41.871  29.927  29.698  1.00  0.00    -0.354 N 
ATOM     39  C   UNL A   1      41.551  25.869  28.174  1.00  0.00     0.074 A 
ATOM     40  C   UNL A   1      40.175  25.520  27.893  1.00  0.00     0.031 C 
ATOM     41  C   UNL A   1      41.100  31.940  30.316  1.00  0.00     0.029 A 
ATOM     42  C   UNL A   1      42.298  31.121  30.222  1.00  0.00     0.049 A 
ATOM     43  H   UNL A   1      42.477  29.180  29.486  1.00  0.00     0.167 HD
ATOM     44  C   UNL A   1      42.615  25.041  28.014  1.00  0.00     0.037 A 
ATOM     45  C   UNL A   1      43.515  31.521  30.621  1.00  0.00     0.037 A 
ATOM     46  C   UNL A   1      43.978  25.413  28.329  1.00  0.00     0.049 A 
ATOM     47  C   UNL A   1      44.661  30.590  30.437  1.00  0.00     0.074 A 
ATOM     48  C   UNL A   1      45.137  24.669  28.163  1.00  0.00     0.029 A 
ATOM     49  N   UNL A   1      44.366  26.622  28.891  1.00  0.00    -0.354 N 
ATOM     50  N   UNL A   1      44.650  29.365  29.968  1.00  0.00    -0.248 NA
ATOM     51  C   UNL A   1      45.982  31.091  30.820  1.00  0.00     0.031 C 
ATOM     52  C   UNL A   1      46.213  25.406  28.672  1.00  0.00     0.029 A 
ATOM     53  C   UNL A   1      45.737  26.632  29.108  1.00  0.00     0.049 A 
ATOM     54  H   UNL A   1      43.756  27.364  29.106  1.00  0.00     0.167 HD
ATOM     55  C   UNL A   1      45.966  28.938  30.011  1.00  0.00     0.074 A 
ATOM     56  C   UNL A   1      46.747  30.053  30.516  1.00  0.00     0.031 C 
ATOM     57  C   UNL A   1      46.480  27.730  29.669  1.00  0.00     0.037 A 
BRANCH  44  58
ATOM     58  C   UNL A   1      42.388  23.638  27.494  1.00  0.00     0.058 A 
ATOM     59  C   UNL A   1      42.424  23.337  26.124  1.00  0.00     0.135 A 
ATOM     60  C   UNL A   1      42.282  22.557  28.388  1.00  0.00     0.135 A 
ATOM     61  F   UNL A   1      42.521  24.324  25.218  1.00  0.00    -0.206 F 
ATOM     62  C   UNL A   1      42.371  22.022  25.659  1.00  0.00     0.059 A 
ATOM     63  C   UNL A   1      42.246  21.233  27.948  1.00  0.00     0.059 A 
ATOM     64  F   UNL A   1      42.248  22.778  29.712  1.00  0.00    -0.206 F 
ATOM     65  C   UNL A   1      42.290  20.975  26.580  1.00  0.00     0.060 A 
BRANCH  65  66
ATOM     66  S   UNL A   1      42.285  19.272  25.967  1.00  0.00     0.124 S 
ATOM     67  O   UNL A   1      43.199  19.367  24.833  1.00  0.00    -0.237 OA
ATOM     68  O   UNL A   1      42.781  18.523  27.118  1.00  0.00    -0.237 OA
ATOM     69  O   UNL A   1      40.887  19.036  25.626  1.00  0.00    -0.744 OA
ENDBRANCH  65  66
ENDBRANCH  44  58
BRANCH  45  70
ATOM     70  C   UNL A   1      43.645  32.865  31.231  1.00  0.00     0.058 A 
ATOM     71  C   UNL A   1      43.665  33.028  32.620  1.00  0.00     0.135 A 
ATOM     72  C   UNL A   1      43.936  33.981  30.428  1.00  0.00     0.135 A 
ATOM     73  F   UNL A   1      43.403  31.985  33.423  1.00  0.00    -0.206 F 
ATOM     74  C   UNL A   1      43.995  34.249  33.199  1.00  0.00     0.059 A 
ATOM     75  C   UNL A   1      44.296  35.202  30.982  1.00  0.00     0.059 A 
ATOM     76  F   UNL A   1      43.966  33.858  29.091  1.00  0.00    -0.206 F 
ATOM     77  C   UNL A   1      44.327  35.324  32.371  1.00  0.00     0.060 A 
BRANCH  77  78
ATOM     78  S   UNL A   1      44.902  36.861  33.125  1.00  0.00     0.124 S 
ATOM     79  O   UNL A   1      45.858  36.364  34.108  1.00  0.00    -0.237 OA
ATOM     80  O   UNL A   1      45.469  37.574  31.985  1.00  0.00    -0.237 OA
ATOM     81  O   UNL A   1      43.677  37.442  33.668  1.00  0.00    -0.744 OA
ENDBRANCH  77  78
ENDBRANCH  45  70
BRANCH  57  82
ATOM     82  C   UNL A   1      47.958  27.579  29.873  1.00  0.00     0.058 A 
ATOM     83  C   UNL A   1      48.866  27.916  28.856  1.00  0.00     0.135 A 
ATOM     84  C   UNL A   1      48.465  27.019  31.055  1.00  0.00     0.135 A 
ATOM     85  F   UNL A   1      48.425  28.446  27.704  1.00  0.00    -0.206 F 
ATOM     86  C   UNL A   1      50.222  27.639  28.978  1.00  0.00     0.059 A 
ATOM     87  C   UNL A   1      49.820  26.755  31.207  1.00  0.00     0.059 A 
ATOM     88  F   UNL A   1      47.635  26.689  32.058  1.00  0.00    -0.206 F 
ATOM     89  C   UNL A   1      50.686  27.038  30.150  1.00  0.00     0.060 A 
BRANCH  89  90
ATOM     90  S   UNL A   1      52.434  26.608  30.270  1.00  0.00     0.124 S 
ATOM     91  O   UNL A   1      52.394  25.495  31.213  1.00  0.00    -0.237 OA
ATOM     92  O   UNL A   1      52.769  26.260  28.893  1.00  0.00    -0.237 OA
ATOM     93  O   UNL A   1      53.049  27.833  30.769  1.00  0.00    -0.744 OA
ENDBRANCH  89  90
ENDBRANCH  57  82
ENDBRANCH  31  32
ENDBRANCH  24  26
ENDBRANCH  23  24
ENDBRANCH  22  23
ENDBRANCH   1  22
TORSDOF 19
ENDMDL
MODEL 3
REMARK VINA RESULT:     -10.2      5.320      9.478
REMARK SMILES C=CCN(CC(=O)OCCOC(=O)c1ccc(-c2c3nc(c(-c4c(F)cc(S(=O)(=O)[O-])cc4F)c4ccc([nH]4)c(-c4c(F)cc(S(=O)(=O)[O-])cc4F)c4nc(c(-c5c(F)cc(S(=O)(=O)[O-])cc5F)c5ccc2[nH]5)C=C4)C=C3)cc1)C(=O)N1CC[N@H+](C)C(C)(C)C1
REMARK SMILES IDX 9 1 8 2 6 3 7 4 5 5 4 6 3 7 2 8 1 9 80 10 81 11 82 12 83 13
REMARK SMILES IDX 90 14 84 15 87 16 85 17 88 18 89 19 86 20 10 22 11 23 12 24
REMARK SMILES IDX 13 25 14 26 15 27 79 28 16 29 78 30 17 31 18 32 19 33 72 34
REMARK SMILES IDX 20 35 77 36 71 37 73 38 21 39 76 40 70 41 69 42 22 44 56 45
REMARK SMILES IDX 35 46 55 47 36 48 39 49 54 50 74 51 37 52 38 53 53 55 75 56
REMARK SMILES IDX 40 57 23 58 24 59 33 60 25 61 26 62 32 63 34 64 27 65 28 66
REMARK SMILES IDX 29 67 30 68 31 69 57 70 58 71 67 72 59 73 60 74 66 75 68 76
REMARK SMILES IDX 61 77 62 78 63 79 64 80 65 81 41 82 42 83 51 84 43 85 44 86
REMARK SMILES IDX 50 87 52 88 45 89 46 90 47 91 48 92 49 93
REMARK H PARENT 85 21 73 43 39 54
REMARK Flexibility Score: inf
ROOT
ATOM      1  C   UNL A   1      36.422  20.805  24.714  1.00  0.00     0.274 C 
ENDROOT
BRANCH   1   2
ATOM      2  O   UNL A   1      35.488  21.006  25.782  1.00  0.00    -0.461 OA
BRANCH   2   3
ATOM      3  C   UNL A   1      35.170  22.285  26.102  1.00  0.00     0.325 C 
ATOM      4  O   UNL A   1      35.902  23.252  25.937  1.00  0.00    -0.250 OA
BRANCH   3   5
ATOM      5  C   UNL A   1      33.799  22.323  26.784  1.00  0.00     0.244 C 
BRANCH   5   6
ATOM      6  N   UNL A   1      32.764  22.929  25.947  1.00  0.00    -0.310 N 
BRANCH   6   7
ATOM      7  C   UNL A   1      32.608  22.318  24.627  1.00  0.00     0.149 C 
BRANCH   7   8
ATOM      8  C   UNL A   1      32.101  20.912  24.799  1.00  0.00    -0.013 C 
ATOM      9  C   UNL A   1      32.564  19.862  24.108  1.00  0.00     0.006 C 
ENDBRANCH   7   8
ENDBRANCH   6   7
BRANCH   6  10
ATOM     10  C   UNL A   1      31.829  23.894  26.301  1.00  0.00     0.321 C 
ATOM     11  O   UNL A   1      31.082  23.724  27.269  1.00  0.00    -0.248 OA
BRANCH  10  12
ATOM     12  N   UNL A   1      31.796  25.106  25.635  1.00  0.00    -0.313 N 
ATOM     13  C   UNL A   1      32.835  26.080  25.992  1.00  0.00     0.183 C 
ATOM     14  C   UNL A   1      30.571  25.765  25.195  1.00  0.00     0.189 C 
ATOM     15  C   UNL A   1      33.084  27.152  24.909  1.00  0.00     0.284 C 
ATOM     16  C   UNL A   1      30.828  26.757  24.026  1.00  0.00     0.110 C 
ATOM     17  N   UNL A   1      31.884  27.763  24.293  1.00  0.00    -0.330 N 
ATOM     18  C   UNL A   1      31.331  25.948  22.833  1.00  0.00     0.080 C 
ATOM     19  C   UNL A   1      29.487  27.392  23.597  1.00  0.00     0.080 C 
ATOM     20  C   UNL A   1      31.446  28.959  24.997  1.00  0.00     0.333 C 
ATOM     21  H   UNL A   1      32.144  28.109  23.370  1.00  0.00     0.348 HD
ENDBRANCH  10  12
ENDBRANCH   6  10
ENDBRANCH   5   6
ENDBRANCH   3   5
ENDBRANCH   2   3
ENDBRANCH   1   2
BRANCH   1  22
ATOM     22  C   UNL A   1      37.764  20.438  25.357  1.00  0.00     0.275 C 
BRANCH  22  23
ATOM     23  O   UNL A   1      38.709  21.529  25.486  1.00  0.00    -0.458 OA
BRANCH  23  24
ATOM     24  C   UNL A   1      39.662  21.479  26.447  1.00  0.00     0.338 C 
ATOM     25  O   UNL A   1      40.079  20.481  27.006  1.00  0.00    -0.246 OA
BRANCH  24  26
ATOM     26  C   UNL A   1      39.964  22.865  26.886  1.00  0.00     0.060 A 
ATOM     27  C   UNL A   1      41.009  23.048  27.802  1.00  0.00     0.016 A 
ATOM     28  C   UNL A   1      39.182  23.961  26.493  1.00  0.00     0.016 A 
ATOM     29  C   UNL A   1      41.238  24.313  28.356  1.00  0.00     0.010 A 
ATOM     30  C   UNL A   1      39.452  25.242  27.001  1.00  0.00     0.010 A 
ATOM     31  C   UNL A   1      40.483  25.432  27.940  1.00  0.00    -0.014 A 
BRANCH  31  32
ATOM     32  C   UNL A   1      41.027  26.792  28.200  1.00  0.00     0.031 A 
ATOM     33  C   UNL A   1      40.300  27.912  28.897  1.00  0.00     0.074 A 
ATOM     34  C   UNL A   1      42.288  26.963  27.758  1.00  0.00     0.049 A 
ATOM     35  N   UNL A   1      40.748  29.110  29.196  1.00  0.00    -0.248 NA
ATOM     36  C   UNL A   1      38.911  27.690  29.317  1.00  0.00     0.031 C 
ATOM     37  C   UNL A   1      43.065  25.934  27.051  1.00  0.00     0.029 A 
ATOM     38  N   UNL A   1      43.142  28.027  27.835  1.00  0.00    -0.354 N 
ATOM     39  C   UNL A   1      39.707  29.776  29.842  1.00  0.00     0.074 A 
ATOM     40  C   UNL A   1      38.596  28.851  29.886  1.00  0.00     0.031 C 
ATOM     41  C   UNL A   1      44.283  26.407  26.784  1.00  0.00     0.029 A 
ATOM     42  C   UNL A   1      44.354  27.786  27.237  1.00  0.00     0.049 A 
ATOM     43  H   UNL A   1      42.912  28.878  28.272  1.00  0.00     0.167 HD
ATOM     44  C   UNL A   1      39.689  31.042  30.334  1.00  0.00     0.037 A 
ATOM     45  C   UNL A   1      45.411  28.590  27.039  1.00  0.00     0.037 A 
ATOM     46  C   UNL A   1      40.811  31.953  30.251  1.00  0.00     0.049 A 
ATOM     47  C   UNL A   1      45.360  29.973  27.586  1.00  0.00     0.074 A 
ATOM     48  C   UNL A   1      40.918  33.240  30.755  1.00  0.00     0.029 A 
ATOM     49  N   UNL A   1      42.011  31.684  29.607  1.00  0.00    -0.354 N 
ATOM     50  N   UNL A   1      44.375  30.565  28.219  1.00  0.00    -0.248 NA
ATOM     51  C   UNL A   1      46.560  30.793  27.410  1.00  0.00     0.031 C 
ATOM     52  C   UNL A   1      42.158  33.765  30.372  1.00  0.00     0.029 A 
ATOM     53  C   UNL A   1      42.849  32.789  29.673  1.00  0.00     0.049 A 
ATOM     54  H   UNL A   1      42.236  30.833  29.166  1.00  0.00     0.167 HD
ATOM     55  C   UNL A   1      44.830  31.840  28.507  1.00  0.00     0.074 A 
ATOM     56  C   UNL A   1      46.193  31.915  28.013  1.00  0.00     0.031 C 
ATOM     57  C   UNL A   1      44.177  32.859  29.119  1.00  0.00     0.037 A 
BRANCH  44  58
ATOM     58  C   UNL A   1      38.432  31.559  30.997  1.00  0.00     0.058 A 
ATOM     59  C   UNL A   1      38.170  31.352  32.361  1.00  0.00     0.135 A 
ATOM     60  C   UNL A   1      37.550  32.401  30.293  1.00  0.00     0.135 A 
ATOM     61  F   UNL A   1      38.971  30.557  33.088  1.00  0.00    -0.206 F 
ATOM     62  C   UNL A   1      37.090  31.961  33.003  1.00  0.00     0.059 A 
ATOM     63  C   UNL A   1      36.476  33.036  30.917  1.00  0.00     0.059 A 
ATOM     64  F   UNL A   1      37.749  32.643  28.988  1.00  0.00    -0.206 F 
ATOM     65  C   UNL A   1      36.253  32.809  32.274  1.00  0.00     0.060 A 
BRANCH  65  66
ATOM     66  S   UNL A   1      34.895  33.643  33.132  1.00  0.00     0.124 S 
ATOM     67  O   UNL A   1      35.244  33.409  34.529  1.00  0.00    -0.237 OA
ATOM     68  O   UNL A   1      35.031  35.021  32.668  1.00  0.00    -0.237 OA
ATOM     69  O   UNL A   1      33.708  32.940  32.657  1.00  0.00    -0.744 OA
ENDBRANCH  65  66
ENDBRANCH  44  58
BRANCH  45  70
ATOM     70  C   UNL A   1      46.563  28.055  26.277  1.00  0.00     0.058 A 
ATOM     71  C   UNL A   1      46.528  27.967  24.882  1.00  0.00     0.135 A 
ATOM     72  C   UNL A   1      47.783  27.799  26.927  1.00  0.00     0.135 A 
ATOM     73  F   UNL A   1      45.385  28.214  24.222  1.00  0.00    -0.206 F 
ATOM     74  C   UNL A   1      47.670  27.668  24.148  1.00  0.00     0.059 A 
ATOM     75  C   UNL A   1      48.943  27.527  26.215  1.00  0.00     0.059 A 
ATOM     76  F   UNL A   1      47.870  27.911  28.262  1.00  0.00    -0.206 F 
ATOM     77  C   UNL A   1      48.877  27.467  24.824  1.00  0.00     0.060 A 
BRANCH  77  78
ATOM     78  S   UNL A   1      50.386  27.230  23.862  1.00  0.00     0.124 S 
ATOM     79  O   UNL A   1      49.860  26.652  22.631  1.00  0.00    -0.237 OA
ATOM     80  O   UNL A   1      50.907  28.589  23.759  1.00  0.00    -0.237 OA
ATOM     81  O   UNL A   1      51.175  26.330  24.699  1.00  0.00    -0.744 OA
ENDBRANCH  77  78
ENDBRANCH  45  70
BRANCH  57  82
ATOM     82  C   UNL A   1      44.951  34.137  29.243  1.00  0.00     0.058 A 
ATOM     83  C   UNL A   1      45.733  34.400  30.379  1.00  0.00     0.135 A 
ATOM     84  C   UNL A   1      44.844  35.137  28.266  1.00  0.00     0.135 A 
ATOM     85  F   UNL A   1      45.856  33.476  31.346  1.00  0.00    -0.206 F 
ATOM     86  C   UNL A   1      46.330  35.640  30.573  1.00  0.00     0.059 A 
ATOM     87  C   UNL A   1      45.453  36.375  28.428  1.00  0.00     0.059 A 
ATOM     88  F   UNL A   1      44.114  34.926  27.159  1.00  0.00    -0.206 F 
ATOM     89  C   UNL A   1      46.166  36.628  29.600  1.00  0.00     0.060 A 
BRANCH  89  90
ATOM     90  S   UNL A   1      46.877  38.260  29.895  1.00  0.00     0.124 S 
ATOM     91  O   UNL A   1      46.384  38.551  31.237  1.00  0.00    -0.237 OA
ATOM     92  O   UNL A   1      48.309  38.006  29.787  1.00  0.00    -0.237 OA
ATOM     93  O   UNL A   1      46.307  39.073  28.826  1.00  0.00    -0.744 OA
ENDBRANCH  89  90
ENDBRANCH  57  82
ENDBRANCH  31  32
ENDBRANCH  24  26
ENDBRANCH  23  24
ENDBRANCH  22  23
ENDBRANCH   1  22
TORSDOF 19
ENDMDL
