MODEL 1
REMARK VINA RESULT:     -12.8      0.000      0.000
REMARK SMILES Cc1ccccc1CC(=O)Oc1cccc(C(=O)OCCOC(=O)c2ccc(-c3c4nc(c(-c5c(F)cc(S(=O)(=O)[O-])cc5F)c5ccc([nH]5)c(-c5c(F)cc(S(=O)(=O)[O-])cc5F)c5nc(c(-c6c(F)cc(S(=O)(=O)[O-])cc6F)c6ccc3[nH]6)C=C5)C=C4)cc2)c1
REMARK SMILES IDX 20 1 19 2 17 3 18 4 16 5 12 6 13 7 91 8 14 9 15 10 11 11
REMARK SMILES IDX 9 12 10 13 8 14 7 15 1 16 2 17 3 18 4 19 6 20 5 21 21 22
REMARK SMILES IDX 22 23 23 24 24 25 25 26 26 27 90 28 27 29 89 30 28 31 29 32
REMARK SMILES IDX 30 33 83 34 31 35 88 36 82 37 84 38 32 39 87 40 81 41 80 42
REMARK SMILES IDX 33 44 67 45 46 46 66 47 47 48 50 49 65 50 85 51 48 52 49 53
REMARK SMILES IDX 64 55 86 56 51 57 34 58 35 59 44 60 36 61 37 62 43 63 45 64
REMARK SMILES IDX 38 65 39 66 40 67 41 68 42 69 68 70 69 71 78 72 70 73 71 74
REMARK SMILES IDX 77 75 79 76 72 77 73 78 74 79 75 80 76 81 52 82 53 83 62 84
REMARK SMILES IDX 54 85 55 86 61 87 63 88 56 89 57 90 58 91 59 92 60 93
REMARK H PARENT 84 43 50 54
REMARK Flexibility Score: inf
ROOT
ATOM      1  C   UNL A   1      33.294  28.879  25.923  1.00  0.00     0.275 C 
ENDROOT
BRANCH   1   2
ATOM      2  O   UNL A   1      31.855  28.815  25.894  1.00  0.00    -0.458 OA
BRANCH   2   3
ATOM      3  C   UNL A   1      31.386  27.728  26.562  1.00  0.00     0.338 C 
ATOM      4  O   UNL A   1      31.335  27.630  27.783  1.00  0.00    -0.246 OA
BRANCH   3   5
ATOM      5  C   UNL A   1      31.034  26.578  25.693  1.00  0.00     0.063 A 
ATOM      6  C   UNL A   1      30.898  24.231  25.157  1.00  0.00     0.131 A 
ATOM      7  C   UNL A   1      30.669  24.534  23.812  1.00  0.00     0.047 A 
ATOM      8  C   UNL A   1      31.014  25.244  26.116  1.00  0.00     0.062 A 
ATOM      9  C   UNL A   1      30.640  25.861  23.400  1.00  0.00     0.005 A 
ATOM     10  C   UNL A   1      30.848  26.876  24.333  1.00  0.00     0.016 A 
BRANCH   6  11
ATOM     11  O   UNL A   1      30.966  22.883  25.561  1.00  0.00    -0.426 OA
BRANCH  11  12
ATOM     12  C   UNL A   1      32.178  22.241  25.281  1.00  0.00     0.315 C 
ATOM     13  O   UNL A   1      32.379  21.447  24.366  1.00  0.00    -0.251 OA
BRANCH  12  14
ATOM     14  C   UNL A   1      33.206  22.559  26.348  1.00  0.00     0.158 C 
BRANCH  14  15
ATOM     15  C   UNL A   1      34.646  22.639  25.896  1.00  0.00    -0.034 A 
ATOM     16  C   UNL A   1      34.481  25.152  25.372  1.00  0.00     0.044 C 
ATOM     17  C   UNL A   1      35.228  23.850  25.458  1.00  0.00    -0.047 A 
ATOM     18  C   UNL A   1      36.564  23.850  25.014  1.00  0.00     0.004 A 
ATOM     19  C   UNL A   1      37.341  22.696  25.069  1.00  0.00     0.000 A 
ATOM     20  C   UNL A   1      35.463  21.496  25.986  1.00  0.00     0.004 A 
ATOM     21  C   UNL A   1      36.797  21.524  25.576  1.00  0.00     0.000 A 
ENDBRANCH  14  15
ENDBRANCH  12  14
ENDBRANCH  11  12
ENDBRANCH   6  11
ENDBRANCH   3   5
ENDBRANCH   2   3
ENDBRANCH   1   2
BRANCH   1  22
ATOM     22  C   UNL A   1      33.859  29.915  26.914  1.00  0.00     0.275 C 
BRANCH  22  23
ATOM     23  O   UNL A   1      34.968  29.560  27.768  1.00  0.00    -0.458 OA
BRANCH  23  24
ATOM     24  C   UNL A   1      35.682  30.579  28.311  1.00  0.00     0.338 C 
ATOM     25  O   UNL A   1      35.181  31.644  28.651  1.00  0.00    -0.246 OA
BRANCH  24  26
ATOM     26  C   UNL A   1      37.036  30.071  28.661  1.00  0.00     0.060 A 
ATOM     27  C   UNL A   1      37.167  29.137  29.694  1.00  0.00     0.016 A 
ATOM     28  C   UNL A   1      38.089  30.278  27.761  1.00  0.00     0.016 A 
ATOM     29  C   UNL A   1      38.268  28.282  29.727  1.00  0.00     0.010 A 
ATOM     30  C   UNL A   1      39.145  29.395  27.752  1.00  0.00     0.010 A 
ATOM     31  C   UNL A   1      39.234  28.386  28.724  1.00  0.00    -0.014 A 
BRANCH  31  32
ATOM     32  C   UNL A   1      40.521  27.701  28.771  1.00  0.00     0.031 A 
ATOM     33  C   UNL A   1      40.753  26.301  28.359  1.00  0.00     0.074 A 
ATOM     34  C   UNL A   1      41.516  28.495  29.215  1.00  0.00     0.049 A 
ATOM     35  N   UNL A   1      41.757  25.596  28.764  1.00  0.00    -0.248 NA
ATOM     36  C   UNL A   1      39.869  25.559  27.465  1.00  0.00     0.031 C 
ATOM     37  C   UNL A   1      42.952  28.288  29.219  1.00  0.00     0.029 A 
ATOM     38  N   UNL A   1      41.331  29.649  29.976  1.00  0.00    -0.354 N 
ATOM     39  C   UNL A   1      41.797  24.428  28.028  1.00  0.00     0.074 A 
ATOM     40  C   UNL A   1      40.564  24.427  27.275  1.00  0.00     0.031 C 
ATOM     41  C   UNL A   1      43.493  29.114  30.137  1.00  0.00     0.029 A 
ATOM     42  C   UNL A   1      42.392  29.748  30.861  1.00  0.00     0.049 A 
ATOM     43  H   UNL A   1      40.580  30.280  29.899  1.00  0.00     0.167 HD
ATOM     44  C   UNL A   1      42.936  23.669  28.043  1.00  0.00     0.037 A 
ATOM     45  C   UNL A   1      42.143  29.603  32.197  1.00  0.00     0.037 A 
ATOM     46  C   UNL A   1      43.914  24.242  28.966  1.00  0.00     0.049 A 
ATOM     47  C   UNL A   1      42.865  28.410  32.763  1.00  0.00     0.074 A 
ATOM     48  C   UNL A   1      44.935  25.155  28.758  1.00  0.00     0.029 A 
ATOM     49  N   UNL A   1      43.698  24.187  30.340  1.00  0.00    -0.354 N 
ATOM     50  N   UNL A   1      43.122  27.320  32.092  1.00  0.00    -0.248 NA
ATOM     51  C   UNL A   1      43.405  28.393  34.117  1.00  0.00     0.031 C 
ATOM     52  C   UNL A   1      45.259  25.734  30.006  1.00  0.00     0.029 A 
ATOM     53  C   UNL A   1      44.466  25.144  30.977  1.00  0.00     0.049 A 
ATOM     54  H   UNL A   1      43.090  23.560  30.791  1.00  0.00     0.167 HD
ATOM     55  C   UNL A   1      43.897  26.500  32.866  1.00  0.00     0.074 A 
ATOM     56  C   UNL A   1      44.031  27.204  34.129  1.00  0.00     0.031 C 
ATOM     57  C   UNL A   1      44.419  25.322  32.415  1.00  0.00     0.037 A 
BRANCH  44  58
ATOM     58  C   UNL A   1      43.297  22.624  26.999  1.00  0.00     0.058 A 
ATOM     59  C   UNL A   1      42.615  21.382  26.960  1.00  0.00     0.135 A 
ATOM     60  C   UNL A   1      44.329  22.751  26.050  1.00  0.00     0.135 A 
ATOM     61  F   UNL A   1      41.553  21.138  27.738  1.00  0.00    -0.206 F 
ATOM     62  C   UNL A   1      43.000  20.320  26.140  1.00  0.00     0.059 A 
ATOM     63  C   UNL A   1      44.755  21.687  25.236  1.00  0.00     0.059 A 
ATOM     64  F   UNL A   1      44.945  23.926  25.856  1.00  0.00    -0.206 F 
ATOM     65  C   UNL A   1      44.096  20.465  25.305  1.00  0.00     0.060 A 
BRANCH  65  66
ATOM     66  S   UNL A   1      44.635  19.037  24.340  1.00  0.00     0.124 S 
ATOM     67  O   UNL A   1      44.446  19.505  22.970  1.00  0.00    -0.237 OA
ATOM     68  O   UNL A   1      46.021  18.880  24.769  1.00  0.00    -0.237 OA
ATOM     69  O   UNL A   1      43.726  17.976  24.762  1.00  0.00    -0.744 OA
ENDBRANCH  65  66
ENDBRANCH  44  58
BRANCH  45  70
ATOM     70  C   UNL A   1      40.796  30.077  32.652  1.00  0.00     0.058 A 
ATOM     71  C   UNL A   1      40.535  31.464  32.670  1.00  0.00     0.135 A 
ATOM     72  C   UNL A   1      39.690  29.227  32.805  1.00  0.00     0.135 A 
ATOM     73  F   UNL A   1      41.546  32.339  32.529  1.00  0.00    -0.206 F 
ATOM     74  C   UNL A   1      39.244  31.981  32.735  1.00  0.00     0.059 A 
ATOM     75  C   UNL A   1      38.382  29.725  32.880  1.00  0.00     0.059 A 
ATOM     76  F   UNL A   1      39.853  27.896  32.808  1.00  0.00    -0.206 F 
ATOM     77  C   UNL A   1      38.167  31.101  32.812  1.00  0.00     0.060 A 
BRANCH  77  78
ATOM     78  S   UNL A   1      36.496  31.781  32.652  1.00  0.00     0.124 S 
ATOM     79  O   UNL A   1      35.722  30.593  32.310  1.00  0.00    -0.237 OA
ATOM     80  O   UNL A   1      36.266  32.321  33.990  1.00  0.00    -0.237 OA
ATOM     81  O   UNL A   1      36.637  32.776  31.594  1.00  0.00    -0.744 OA
ENDBRANCH  77  78
ENDBRANCH  45  70
BRANCH  57  82
ATOM     82  C   UNL A   1      45.085  24.313  33.304  1.00  0.00     0.058 A 
ATOM     83  C   UNL A   1      44.458  23.120  33.700  1.00  0.00     0.135 A 
ATOM     84  C   UNL A   1      46.439  24.459  33.680  1.00  0.00     0.135 A 
ATOM     85  F   UNL A   1      43.211  22.825  33.301  1.00  0.00    -0.206 F 
ATOM     86  C   UNL A   1      45.098  22.174  34.496  1.00  0.00     0.059 A 
ATOM     87  C   UNL A   1      47.114  23.502  34.430  1.00  0.00     0.059 A 
ATOM     88  F   UNL A   1      47.152  25.539  33.326  1.00  0.00    -0.206 F 
ATOM     89  C   UNL A   1      46.424  22.377  34.862  1.00  0.00     0.060 A 
BRANCH  89  90
ATOM     90  S   UNL A   1      47.270  21.147  35.868  1.00  0.00     0.124 S 
ATOM     91  O   UNL A   1      46.435  21.129  37.064  1.00  0.00    -0.237 OA
ATOM     92  O   UNL A   1      47.208  19.947  35.038  1.00  0.00    -0.237 OA
ATOM     93  O   UNL A   1      48.604  21.716  36.034  1.00  0.00    -0.744 OA
ENDBRANCH  89  90
ENDBRANCH  57  82
ENDBRANCH  31  32
ENDBRANCH  24  26
ENDBRANCH  23  24
ENDBRANCH  22  23
ENDBRANCH   1  22
TORSDOF 18
ENDMDL
MODEL 2
REMARK VINA RESULT:     -12.4      4.465     11.072
REMARK SMILES Cc1ccccc1CC(=O)Oc1cccc(C(=O)OCCOC(=O)c2ccc(-c3c4nc(c(-c5c(F)cc(S(=O)(=O)[O-])cc5F)c5ccc([nH]5)c(-c5c(F)cc(S(=O)(=O)[O-])cc5F)c5nc(c(-c6c(F)cc(S(=O)(=O)[O-])cc6F)c6ccc3[nH]6)C=C5)C=C4)cc2)c1
REMARK SMILES IDX 20 1 19 2 17 3 18 4 16 5 12 6 13 7 91 8 14 9 15 10 11 11
REMARK SMILES IDX 9 12 10 13 8 14 7 15 1 16 2 17 3 18 4 19 6 20 5 21 21 22
REMARK SMILES IDX 22 23 23 24 24 25 25 26 26 27 90 28 27 29 89 30 28 31 29 32
REMARK SMILES IDX 30 33 83 34 31 35 88 36 82 37 84 38 32 39 87 40 81 41 80 42
REMARK SMILES IDX 33 44 67 45 46 46 66 47 47 48 50 49 65 50 85 51 48 52 49 53
REMARK SMILES IDX 64 55 86 56 51 57 34 58 35 59 44 60 36 61 37 62 43 63 45 64
REMARK SMILES IDX 38 65 39 66 40 67 41 68 42 69 68 70 69 71 78 72 70 73 71 74
REMARK SMILES IDX 77 75 79 76 72 77 73 78 74 79 75 80 76 81 52 82 53 83 62 84
REMARK SMILES IDX 54 85 55 86 61 87 63 88 56 89 57 90 58 91 59 92 60 93
REMARK H PARENT 84 43 50 54
REMARK Flexibility Score: inf
ROOT
ATOM      1  C   UNL A   1      36.575  22.801  25.270  1.00  0.00     0.275 C 
ENDROOT
BRANCH   1   2
ATOM      2  O   UNL A   1      35.514  22.238  26.064  1.00  0.00    -0.458 OA
BRANCH   2   3
ATOM      3  C   UNL A   1      34.651  21.509  25.308  1.00  0.00     0.338 C 
ATOM      4  O   UNL A   1      34.793  20.322  25.040  1.00  0.00    -0.246 OA
BRANCH   3   5
ATOM      5  C   UNL A   1      33.545  22.296  24.709  1.00  0.00     0.063 A 
ATOM      6  C   UNL A   1      31.439  23.469  24.776  1.00  0.00     0.131 A 
ATOM      7  C   UNL A   1      31.361  23.443  23.381  1.00  0.00     0.047 A 
ATOM      8  C   UNL A   1      32.557  22.959  25.446  1.00  0.00     0.062 A 
ATOM      9  C   UNL A   1      32.368  22.827  22.646  1.00  0.00     0.005 A 
ATOM     10  C   UNL A   1      33.440  22.234  23.310  1.00  0.00     0.016 A 
BRANCH   6  11
ATOM     11  O   UNL A   1      30.396  24.058  25.516  1.00  0.00    -0.426 OA
BRANCH  11  12
ATOM     12  C   UNL A   1      30.496  25.446  25.679  1.00  0.00     0.315 C 
ATOM     13  O   UNL A   1      29.904  26.294  25.018  1.00  0.00    -0.251 OA
BRANCH  12  14
ATOM     14  C   UNL A   1      31.548  25.784  26.716  1.00  0.00     0.158 C 
BRANCH  14  15
ATOM     15  C   UNL A   1      32.215  27.134  26.587  1.00  0.00    -0.034 A 
ATOM     16  C   UNL A   1      33.899  26.283  24.839  1.00  0.00     0.044 C 
ATOM     17  C   UNL A   1      33.296  27.355  25.704  1.00  0.00    -0.047 A 
ATOM     18  C   UNL A   1      33.898  28.627  25.658  1.00  0.00     0.004 A 
ATOM     19  C   UNL A   1      33.400  29.687  26.411  1.00  0.00     0.000 A 
ATOM     20  C   UNL A   1      31.700  28.231  27.304  1.00  0.00     0.004 A 
ATOM     21  C   UNL A   1      32.287  29.494  27.218  1.00  0.00     0.000 A 
ENDBRANCH  14  15
ENDBRANCH  12  14
ENDBRANCH  11  12
ENDBRANCH   6  11
ENDBRANCH   3   5
ENDBRANCH   2   3
ENDBRANCH   1   2
BRANCH   1  22
ATOM     22  C   UNL A   1      37.957  22.773  25.953  1.00  0.00     0.275 C 
BRANCH  22  23
ATOM     23  O   UNL A   1      38.518  23.993  26.486  1.00  0.00    -0.458 OA
BRANCH  23  24
ATOM     24  C   UNL A   1      39.842  23.986  26.786  1.00  0.00     0.338 C 
ATOM     25  O   UNL A   1      40.625  23.153  26.347  1.00  0.00    -0.246 OA
BRANCH  24  26
ATOM     26  C   UNL A   1      40.179  25.269  27.460  1.00  0.00     0.060 A 
ATOM     27  C   UNL A   1      40.401  26.409  26.681  1.00  0.00     0.016 A 
ATOM     28  C   UNL A   1      39.951  25.390  28.836  1.00  0.00     0.016 A 
ATOM     29  C   UNL A   1      40.220  27.678  27.231  1.00  0.00     0.010 A 
ATOM     30  C   UNL A   1      39.707  26.636  29.368  1.00  0.00     0.010 A 
ATOM     31  C   UNL A   1      39.827  27.783  28.567  1.00  0.00    -0.014 A 
BRANCH  31  32
ATOM     32  C   UNL A   1      39.814  29.041  29.306  1.00  0.00     0.031 A 
ATOM     33  C   UNL A   1      38.733  30.048  29.249  1.00  0.00     0.074 A 
ATOM     34  C   UNL A   1      40.901  29.195  30.089  1.00  0.00     0.049 A 
ATOM     35  N   UNL A   1      38.898  31.289  29.567  1.00  0.00    -0.248 NA
ATOM     36  C   UNL A   1      37.371  29.754  28.814  1.00  0.00     0.031 C 
ATOM     37  C   UNL A   1      41.183  30.174  31.122  1.00  0.00     0.029 A 
ATOM     38  N   UNL A   1      42.110  28.525  29.909  1.00  0.00    -0.354 N 
ATOM     39  C   UNL A   1      37.659  31.897  29.616  1.00  0.00     0.074 A 
ATOM     40  C   UNL A   1      36.746  30.912  29.081  1.00  0.00     0.031 C 
ATOM     41  C   UNL A   1      42.517  30.218  31.307  1.00  0.00     0.029 A 
ATOM     42  C   UNL A   1      43.132  29.387  30.272  1.00  0.00     0.049 A 
ATOM     43  H   UNL A   1      42.218  27.603  29.582  1.00  0.00     0.167 HD
ATOM     44  C   UNL A   1      37.536  33.112  30.233  1.00  0.00     0.037 A 
ATOM     45  C   UNL A   1      43.979  29.839  29.301  1.00  0.00     0.037 A 
ATOM     46  C   UNL A   1      38.846  33.593  30.668  1.00  0.00     0.049 A 
ATOM     47  C   UNL A   1      43.894  31.335  29.153  1.00  0.00     0.074 A 
ATOM     48  C   UNL A   1      39.521  33.436  31.867  1.00  0.00     0.029 A 
ATOM     49  N   UNL A   1      39.785  34.013  29.731  1.00  0.00    -0.354 N 
ATOM     50  N   UNL A   1      42.811  32.033  29.359  1.00  0.00    -0.248 NA
ATOM     51  C   UNL A   1      45.053  32.155  28.820  1.00  0.00     0.031 C 
ATOM     52  C   UNL A   1      40.895  33.657  31.624  1.00  0.00     0.029 A 
ATOM     53  C   UNL A   1      41.050  33.989  30.288  1.00  0.00     0.049 A 
ATOM     54  H   UNL A   1      39.579  34.288  28.809  1.00  0.00     0.167 HD
ATOM     55  C   UNL A   1      43.120  33.363  29.261  1.00  0.00     0.074 A 
ATOM     56  C   UNL A   1      44.528  33.388  28.904  1.00  0.00     0.031 C 
ATOM     57  C   UNL A   1      42.225  34.359  29.522  1.00  0.00     0.037 A 
BRANCH  44  58
ATOM     58  C   UNL A   1      36.228  33.701  30.739  1.00  0.00     0.058 A 
ATOM     59  C   UNL A   1      35.284  34.240  29.830  1.00  0.00     0.135 A 
ATOM     60  C   UNL A   1      35.864  33.818  32.094  1.00  0.00     0.135 A 
ATOM     61  F   UNL A   1      35.441  34.129  28.504  1.00  0.00    -0.206 F 
ATOM     62  C   UNL A   1      34.143  34.938  30.230  1.00  0.00     0.059 A 
ATOM     63  C   UNL A   1      34.738  34.543  32.523  1.00  0.00     0.059 A 
ATOM     64  F   UNL A   1      36.573  33.206  33.053  1.00  0.00    -0.206 F 
ATOM     65  C   UNL A   1      33.894  35.119  31.581  1.00  0.00     0.060 A 
BRANCH  65  66
ATOM     66  S   UNL A   1      32.472  36.122  32.065  1.00  0.00     0.124 S 
ATOM     67  O   UNL A   1      33.031  36.952  33.129  1.00  0.00    -0.237 OA
ATOM     68  O   UNL A   1      32.148  36.818  30.825  1.00  0.00    -0.237 OA
ATOM     69  O   UNL A   1      31.490  35.133  32.502  1.00  0.00    -0.744 OA
ENDBRANCH  65  66
ENDBRANCH  44  58
BRANCH  45  70
ATOM     70  C   UNL A   1      44.227  28.885  28.172  1.00  0.00     0.058 A 
ATOM     71  C   UNL A   1      45.003  27.732  28.416  1.00  0.00     0.135 A 
ATOM     72  C   UNL A   1      43.520  28.923  26.960  1.00  0.00     0.135 A 
ATOM     73  F   UNL A   1      45.708  27.626  29.556  1.00  0.00    -0.206 F 
ATOM     74  C   UNL A   1      45.000  26.634  27.559  1.00  0.00     0.059 A 
ATOM     75  C   UNL A   1      43.509  27.834  26.079  1.00  0.00     0.059 A 
ATOM     76  F   UNL A   1      42.766  29.987  26.648  1.00  0.00    -0.206 F 
ATOM     77  C   UNL A   1      44.226  26.682  26.403  1.00  0.00     0.060 A 
BRANCH  77  78
ATOM     78  S   UNL A   1      44.048  25.164  25.432  1.00  0.00     0.124 S 
ATOM     79  O   UNL A   1      42.858  25.455  24.639  1.00  0.00    -0.237 OA
ATOM     80  O   UNL A   1      45.307  25.134  24.693  1.00  0.00    -0.237 OA
ATOM     81  O   UNL A   1      43.897  24.129  26.450  1.00  0.00    -0.744 OA
ENDBRANCH  77  78
ENDBRANCH  45  70
BRANCH  57  82
ATOM     82  C   UNL A   1      42.476  35.806  29.214  1.00  0.00     0.058 A 
ATOM     83  C   UNL A   1      43.329  36.609  29.989  1.00  0.00     0.135 A 
ATOM     84  C   UNL A   1      41.960  36.399  28.040  1.00  0.00     0.135 A 
ATOM     85  F   UNL A   1      43.966  36.114  31.062  1.00  0.00    -0.206 F 
ATOM     86  C   UNL A   1      43.582  37.942  29.675  1.00  0.00     0.059 A 
ATOM     87  C   UNL A   1      42.243  37.712  27.678  1.00  0.00     0.059 A 
ATOM     88  F   UNL A   1      41.165  35.716  27.203  1.00  0.00    -0.206 F 
ATOM     89  C   UNL A   1      43.029  38.486  28.521  1.00  0.00     0.060 A 
BRANCH  89  90
ATOM     90  S   UNL A   1      43.372  40.200  28.090  1.00  0.00     0.124 S 
ATOM     91  O   UNL A   1      42.461  40.403  26.969  1.00  0.00    -0.237 OA
ATOM     92  O   UNL A   1      43.034  40.919  29.315  1.00  0.00    -0.237 OA
ATOM     93  O   UNL A   1      44.793  40.179  27.756  1.00  0.00    -0.744 OA
ENDBRANCH  89  90
ENDBRANCH  57  82
ENDBRANCH  31  32
ENDBRANCH  24  26
ENDBRANCH  23  24
ENDBRANCH  22  23
ENDBRANCH   1  22
TORSDOF 18
ENDMDL
MODEL 3
REMARK VINA RESULT:     -12.1      4.305     10.765
REMARK SMILES Cc1ccccc1CC(=O)Oc1cccc(C(=O)OCCOC(=O)c2ccc(-c3c4nc(c(-c5c(F)cc(S(=O)(=O)[O-])cc5F)c5ccc([nH]5)c(-c5c(F)cc(S(=O)(=O)[O-])cc5F)c5nc(c(-c6c(F)cc(S(=O)(=O)[O-])cc6F)c6ccc3[nH]6)C=C5)C=C4)cc2)c1
REMARK SMILES IDX 20 1 19 2 17 3 18 4 16 5 12 6 13 7 91 8 14 9 15 10 11 11
REMARK SMILES IDX 9 12 10 13 8 14 7 15 1 16 2 17 3 18 4 19 6 20 5 21 21 22
REMARK SMILES IDX 22 23 23 24 24 25 25 26 26 27 90 28 27 29 89 30 28 31 29 32
REMARK SMILES IDX 30 33 83 34 31 35 88 36 82 37 84 38 32 39 87 40 81 41 80 42
REMARK SMILES IDX 33 44 67 45 46 46 66 47 47 48 50 49 65 50 85 51 48 52 49 53
REMARK SMILES IDX 64 55 86 56 51 57 34 58 35 59 44 60 36 61 37 62 43 63 45 64
REMARK SMILES IDX 38 65 39 66 40 67 41 68 42 69 68 70 69 71 78 72 70 73 71 74
REMARK SMILES IDX 77 75 79 76 72 77 73 78 74 79 75 80 76 81 52 82 53 83 62 84
REMARK SMILES IDX 54 85 55 86 61 87 63 88 56 89 57 90 58 91 59 92 60 93
REMARK H PARENT 84 43 50 54
REMARK Flexibility Score: inf
ROOT
ATOM      1  C   UNL A   1      36.367  22.016  25.067  1.00  0.00     0.275 C 
ENDROOT
BRANCH   1   2
ATOM      2  O   UNL A   1      35.522  23.164  24.861  1.00  0.00    -0.458 OA
BRANCH   2   3
ATOM      3  C   UNL A   1      35.241  23.352  23.545  1.00  0.00     0.338 C 
ATOM      4  O   UNL A   1      36.072  23.329  22.645  1.00  0.00    -0.246 OA
BRANCH   3   5
ATOM      5  C   UNL A   1      33.829  23.715  23.265  1.00  0.00     0.063 A 
ATOM      6  C   UNL A   1      32.072  25.236  22.621  1.00  0.00     0.131 A 
ATOM      7  C   UNL A   1      31.106  24.364  23.135  1.00  0.00     0.047 A 
ATOM      8  C   UNL A   1      33.428  24.891  22.620  1.00  0.00     0.062 A 
ATOM      9  C   UNL A   1      31.502  23.173  23.732  1.00  0.00     0.005 A 
ATOM     10  C   UNL A   1      32.859  22.864  23.819  1.00  0.00     0.016 A 
BRANCH   6  11
ATOM     11  O   UNL A   1      31.667  26.459  22.054  1.00  0.00    -0.426 OA
BRANCH  11  12
ATOM     12  C   UNL A   1      32.027  27.599  22.783  1.00  0.00     0.315 C 
ATOM     13  O   UNL A   1      32.826  28.460  22.428  1.00  0.00    -0.251 OA
BRANCH  12  14
ATOM     14  C   UNL A   1      31.386  27.574  24.156  1.00  0.00     0.158 C 
BRANCH  14  15
ATOM     15  C   UNL A   1      32.084  28.361  25.242  1.00  0.00    -0.034 A 
ATOM     16  C   UNL A   1      33.669  26.418  25.817  1.00  0.00     0.044 C 
ATOM     17  C   UNL A   1      33.149  27.818  25.996  1.00  0.00    -0.047 A 
ATOM     18  C   UNL A   1      33.731  28.589  27.019  1.00  0.00     0.004 A 
ATOM     19  C   UNL A   1      33.328  29.902  27.250  1.00  0.00     0.000 A 
ATOM     20  C   UNL A   1      31.723  29.704  25.463  1.00  0.00     0.004 A 
ATOM     21  C   UNL A   1      32.338  30.466  26.457  1.00  0.00     0.000 A 
ENDBRANCH  14  15
ENDBRANCH  12  14
ENDBRANCH  11  12
ENDBRANCH   6  11
ENDBRANCH   3   5
ENDBRANCH   2   3
ENDBRANCH   1   2
BRANCH   1  22
ATOM     22  C   UNL A   1      37.479  22.231  26.114  1.00  0.00     0.275 C 
BRANCH  22  23
ATOM     23  O   UNL A   1      38.290  23.425  26.063  1.00  0.00    -0.458 OA
BRANCH  23  24
ATOM     24  C   UNL A   1      39.574  23.320  26.490  1.00  0.00     0.338 C 
ATOM     25  O   UNL A   1      40.352  22.470  26.075  1.00  0.00    -0.246 OA
BRANCH  24  26
ATOM     26  C   UNL A   1      39.910  24.535  27.280  1.00  0.00     0.060 A 
ATOM     27  C   UNL A   1      40.528  25.614  26.638  1.00  0.00     0.016 A 
ATOM     28  C   UNL A   1      39.321  24.708  28.538  1.00  0.00     0.016 A 
ATOM     29  C   UNL A   1      40.406  26.901  27.162  1.00  0.00     0.010 A 
ATOM     30  C   UNL A   1      39.143  25.984  29.025  1.00  0.00     0.010 A 
ATOM     31  C   UNL A   1      39.672  27.085  28.335  1.00  0.00    -0.014 A 
BRANCH  31  32
ATOM     32  C   UNL A   1      39.654  28.336  29.086  1.00  0.00     0.031 A 
ATOM     33  C   UNL A   1      38.707  29.448  28.861  1.00  0.00     0.074 A 
ATOM     34  C   UNL A   1      40.595  28.376  30.051  1.00  0.00     0.049 A 
ATOM     35  N   UNL A   1      38.937  30.665  29.229  1.00  0.00    -0.248 NA
ATOM     36  C   UNL A   1      37.421  29.297  28.187  1.00  0.00     0.031 C 
ATOM     37  C   UNL A   1      40.786  29.317  31.138  1.00  0.00     0.029 A 
ATOM     38  N   UNL A   1      41.743  27.586  30.073  1.00  0.00    -0.354 N 
ATOM     39  C   UNL A   1      37.775  31.396  29.072  1.00  0.00     0.074 A 
ATOM     40  C   UNL A   1      36.878  30.512  28.363  1.00  0.00     0.031 C 
ATOM     41  C   UNL A   1      42.063  29.224  31.556  1.00  0.00     0.029 A 
ATOM     42  C   UNL A   1      42.765  28.338  30.629  1.00  0.00     0.049 A 
ATOM     43  H   UNL A   1      41.815  26.658  29.751  1.00  0.00     0.167 HD
ATOM     44  C   UNL A   1      37.667  32.615  29.683  1.00  0.00     0.037 A 
ATOM     45  C   UNL A   1      43.812  28.704  29.832  1.00  0.00     0.037 A 
ATOM     46  C   UNL A   1      38.921  32.959  30.351  1.00  0.00     0.049 A 
ATOM     47  C   UNL A   1      43.905  30.201  29.703  1.00  0.00     0.074 A 
ATOM     48  C   UNL A   1      39.353  32.730  31.648  1.00  0.00     0.029 A 
ATOM     49  N   UNL A   1      40.048  33.284  29.604  1.00  0.00    -0.354 N 
ATOM     50  N   UNL A   1      42.879  31.005  29.729  1.00  0.00    -0.248 NA
ATOM     51  C   UNL A   1      45.181  30.898  29.596  1.00  0.00     0.031 C 
ATOM     52  C   UNL A   1      40.764  32.810  31.654  1.00  0.00     0.029 A 
ATOM     53  C   UNL A   1      41.186  33.128  30.374  1.00  0.00     0.049 A 
ATOM     54  H   UNL A   1      40.038  33.581  28.666  1.00  0.00     0.167 HD
ATOM     55  C   UNL A   1      43.332  32.297  29.715  1.00  0.00     0.074 A 
ATOM     56  C   UNL A   1      44.776  32.179  29.612  1.00  0.00     0.031 C 
ATOM     57  C   UNL A   1      42.509  33.379  29.835  1.00  0.00     0.037 A 
BRANCH  44  58
ATOM     58  C   UNL A   1      36.356  33.334  29.962  1.00  0.00     0.058 A 
ATOM     59  C   UNL A   1      35.623  33.929  28.905  1.00  0.00     0.135 A 
ATOM     60  C   UNL A   1      35.793  33.522  31.239  1.00  0.00     0.135 A 
ATOM     61  F   UNL A   1      35.979  33.766  27.624  1.00  0.00    -0.206 F 
ATOM     62  C   UNL A   1      34.503  34.738  29.107  1.00  0.00     0.059 A 
ATOM     63  C   UNL A   1      34.686  34.358  31.471  1.00  0.00     0.059 A 
ATOM     64  F   UNL A   1      36.281  32.878  32.308  1.00  0.00    -0.206 F 
ATOM     65  C   UNL A   1      34.060  34.980  30.397  1.00  0.00     0.060 A 
BRANCH  65  66
ATOM     66  S   UNL A   1      32.679  36.119  30.631  1.00  0.00     0.124 S 
ATOM     67  O   UNL A   1      32.154  36.246  29.274  1.00  0.00    -0.237 OA
ATOM     68  O   UNL A   1      31.834  35.391  31.570  1.00  0.00    -0.237 OA
ATOM     69  O   UNL A   1      33.314  37.321  31.164  1.00  0.00    -0.744 OA
ENDBRANCH  65  66
ENDBRANCH  44  58
BRANCH  45  70
ATOM     70  C   UNL A   1      44.160  27.732  28.744  1.00  0.00     0.058 A 
ATOM     71  C   UNL A   1      43.786  28.036  27.418  1.00  0.00     0.135 A 
ATOM     72  C   UNL A   1      45.065  26.674  28.916  1.00  0.00     0.135 A 
ATOM     73  F   UNL A   1      42.922  29.038  27.177  1.00  0.00    -0.206 F 
ATOM     74  C   UNL A   1      44.350  27.397  26.317  1.00  0.00     0.059 A 
ATOM     75  C   UNL A   1      45.640  26.010  27.823  1.00  0.00     0.059 A 
ATOM     76  F   UNL A   1      45.465  26.315  30.145  1.00  0.00    -0.206 F 
ATOM     77  C   UNL A   1      45.300  26.401  26.529  1.00  0.00     0.060 A 
BRANCH  77  78
ATOM     78  S   UNL A   1      46.193  25.755  25.091  1.00  0.00     0.124 S 
ATOM     79  O   UNL A   1      46.341  26.951  24.269  1.00  0.00    -0.237 OA
ATOM     80  O   UNL A   1      47.421  25.254  25.705  1.00  0.00    -0.237 OA
ATOM     81  O   UNL A   1      45.294  24.731  24.569  1.00  0.00    -0.744 OA
ENDBRANCH  77  78
ENDBRANCH  45  70
BRANCH  57  82
ATOM     82  C   UNL A   1      42.955  34.793  29.607  1.00  0.00     0.058 A 
ATOM     83  C   UNL A   1      42.861  35.426  28.356  1.00  0.00     0.135 A 
ATOM     84  C   UNL A   1      43.374  35.604  30.685  1.00  0.00     0.135 A 
ATOM     85  F   UNL A   1      42.367  34.783  27.287  1.00  0.00    -0.206 F 
ATOM     86  C   UNL A   1      43.245  36.750  28.164  1.00  0.00     0.059 A 
ATOM     87  C   UNL A   1      43.711  36.944  30.526  1.00  0.00     0.059 A 
ATOM     88  F   UNL A   1      43.464  35.119  31.933  1.00  0.00    -0.206 F 
ATOM     89  C   UNL A   1      43.676  37.499  29.254  1.00  0.00     0.060 A 
BRANCH  89  90
ATOM     90  S   UNL A   1      44.148  39.221  29.022  1.00  0.00     0.124 S 
ATOM     91  O   UNL A   1      44.159  39.323  27.567  1.00  0.00    -0.237 OA
ATOM     92  O   UNL A   1      43.076  39.948  29.697  1.00  0.00    -0.237 OA
ATOM     93  O   UNL A   1      45.453  39.297  29.673  1.00  0.00    -0.744 OA
ENDBRANCH  89  90
ENDBRANCH  57  82
ENDBRANCH  31  32
ENDBRANCH  24  26
ENDBRANCH  23  24
ENDBRANCH  22  23
ENDBRANCH   1  22
TORSDOF 18
ENDMDL
