MODEL 1
REMARK VINA RESULT:     -10.3      0.000      0.000
REMARK SMILES CC[N@@H+](C[C@@H](C)C(=O)OCCOC(=O)c1ccc(-c2c3nc(c(-c4c(F)cc(S(=O)(=O)[O-])cc4F)c4ccc([nH]4)c(-c4c(F)cc(S(=O)(=O)[O-])cc4F)c4nc(c(-c5c(F)cc(S(=O)(=O)[O-])cc5F)c5ccc2[nH]5)C=C4)C=C3)cc1)[C@@H]1CCC[C@H](S(C)(=O)=O)C1
REMARK SMILES IDX 10 1 9 2 7 3 8 4 5 5 6 6 4 7 3 8 2 10 1 11 81 12 82 13 90 14
REMARK SMILES IDX 83 15 85 16 84 17 86 18 87 19 88 20 89 21 11 22 12 23 13 24
REMARK SMILES IDX 14 25 15 26 16 27 80 28 17 29 79 30 18 31 19 32 20 33 73 34
REMARK SMILES IDX 21 35 78 36 72 37 74 38 22 39 77 40 71 41 70 42 23 44 57 45
REMARK SMILES IDX 36 46 56 47 37 48 40 49 55 50 75 51 38 52 39 53 54 55 76 56
REMARK SMILES IDX 41 57 24 58 25 59 34 60 26 61 27 62 33 63 35 64 28 65 29 66
REMARK SMILES IDX 30 67 31 68 32 69 58 70 59 71 68 72 60 73 61 74 67 75 69 76
REMARK SMILES IDX 62 77 63 78 64 79 65 80 66 81 42 82 43 83 52 84 44 85 45 86
REMARK SMILES IDX 51 87 53 88 46 89 47 90 48 91 49 92 50 93
REMARK H PARENT 3 9 74 43 40 54
REMARK Flexibility Score: inf
ROOT
ATOM      1  C   UNL A   1      40.077  21.109  26.130  1.00  0.00     0.274 C 
ENDROOT
BRANCH   1   2
ATOM      2  O   UNL A   1      38.846  21.836  26.319  1.00  0.00    -0.462 OA
BRANCH   2   3
ATOM      3  C   UNL A   1      37.940  21.690  25.317  1.00  0.00     0.314 C 
ATOM      4  O   UNL A   1      37.775  20.657  24.677  1.00  0.00    -0.252 OA
BRANCH   3   5
ATOM      5  C   UNL A   1      37.242  22.984  24.946  1.00  0.00     0.151 C 
ATOM      6  C   UNL A   1      37.575  23.966  26.073  1.00  0.00     0.026 C 
BRANCH   5   7
ATOM      7  C   UNL A   1      35.731  22.832  24.644  1.00  0.00     0.277 C 
BRANCH   7   8
ATOM      8  N   UNL A   1      34.737  23.056  25.745  1.00  0.00    -0.332 N 
ATOM      9  H   UNL A   1      35.246  23.191  26.619  1.00  0.00     0.348 HD
BRANCH   8  10
ATOM     10  C   UNL A   1      33.927  21.846  25.978  1.00  0.00     0.259 C 
ATOM     11  C   UNL A   1      33.558  21.033  24.743  1.00  0.00     0.071 C 
ENDBRANCH   8  10
BRANCH   8  12
ATOM     12  C   UNL A   1      34.021  24.339  25.654  1.00  0.00     0.185 C 
ATOM     13  C   UNL A   1      32.647  24.346  26.358  1.00  0.00     0.065 C 
ATOM     14  C   UNL A   1      33.849  24.899  24.233  1.00  0.00     0.084 C 
ATOM     15  C   UNL A   1      32.053  25.763  26.375  1.00  0.00     0.007 C 
ATOM     16  C   UNL A   1      33.361  26.347  24.290  1.00  0.00     0.114 C 
ATOM     17  C   UNL A   1      32.003  26.411  24.986  1.00  0.00     0.020 C 
BRANCH  16  18
ATOM     18  S   UNL A   1      33.366  27.036  22.633  1.00  0.00     0.150 S 
ATOM     19  C   UNL A   1      31.664  27.410  22.304  1.00  0.00     0.158 C 
ATOM     20  O   UNL A   1      34.055  28.311  22.701  1.00  0.00    -0.229 OA
ATOM     21  O   UNL A   1      33.783  26.006  21.705  1.00  0.00    -0.229 OA
ENDBRANCH  16  18
ENDBRANCH   8  12
ENDBRANCH   7   8
ENDBRANCH   5   7
ENDBRANCH   3   5
ENDBRANCH   2   3
ENDBRANCH   1   2
BRANCH   1  22
ATOM     22  C   UNL A   1      41.321  22.005  26.154  1.00  0.00     0.275 C 
BRANCH  22  23
ATOM     23  O   UNL A   1      41.202  23.096  27.082  1.00  0.00    -0.458 OA
BRANCH  23  24
ATOM     24  C   UNL A   1      41.751  24.257  26.657  1.00  0.00     0.338 C 
ATOM     25  O   UNL A   1      42.364  24.433  25.613  1.00  0.00    -0.246 OA
BRANCH  24  26
ATOM     26  C   UNL A   1      41.395  25.365  27.558  1.00  0.00     0.060 A 
ATOM     27  C   UNL A   1      42.310  26.413  27.689  1.00  0.00     0.016 A 
ATOM     28  C   UNL A   1      40.238  25.338  28.337  1.00  0.00     0.016 A 
ATOM     29  C   UNL A   1      42.099  27.422  28.624  1.00  0.00     0.010 A 
ATOM     30  C   UNL A   1      40.022  26.353  29.275  1.00  0.00     0.010 A 
ATOM     31  C   UNL A   1      40.964  27.386  29.441  1.00  0.00    -0.014 A 
BRANCH  31  32
ATOM     32  C   UNL A   1      40.812  28.388  30.522  1.00  0.00     0.031 A 
ATOM     33  C   UNL A   1      41.711  28.325  31.725  1.00  0.00     0.074 A 
ATOM     34  C   UNL A   1      39.897  29.368  30.409  1.00  0.00     0.049 A 
ATOM     35  N   UNL A   1      41.716  29.075  32.796  1.00  0.00    -0.248 NA
ATOM     36  C   UNL A   1      42.743  27.276  31.720  1.00  0.00     0.031 C 
ATOM     37  C   UNL A   1      38.998  29.557  29.270  1.00  0.00     0.029 A 
ATOM     38  N   UNL A   1      39.574  30.391  31.266  1.00  0.00    -0.354 N 
ATOM     39  C   UNL A   1      42.738  28.584  33.599  1.00  0.00     0.074 A 
ATOM     40  C   UNL A   1      43.320  27.457  32.900  1.00  0.00     0.031 C 
ATOM     41  C   UNL A   1      38.222  30.629  29.500  1.00  0.00     0.029 A 
ATOM     42  C   UNL A   1      38.545  31.181  30.813  1.00  0.00     0.049 A 
ATOM     43  H   UNL A   1      40.034  30.543  32.122  1.00  0.00     0.167 HD
ATOM     44  C   UNL A   1      43.155  29.035  34.807  1.00  0.00     0.037 A 
ATOM     45  C   UNL A   1      37.924  32.222  31.401  1.00  0.00     0.037 A 
ATOM     46  C   UNL A   1      42.578  30.162  35.492  1.00  0.00     0.049 A 
ATOM     47  C   UNL A   1      38.377  32.678  32.762  1.00  0.00     0.074 A 
ATOM     48  C   UNL A   1      42.935  30.700  36.717  1.00  0.00     0.029 A 
ATOM     49  N   UNL A   1      41.523  30.925  35.013  1.00  0.00    -0.354 N 
ATOM     50  N   UNL A   1      39.341  32.200  33.512  1.00  0.00    -0.248 NA
ATOM     51  C   UNL A   1      37.658  33.813  33.356  1.00  0.00     0.031 C 
ATOM     52  C   UNL A   1      42.073  31.768  36.993  1.00  0.00     0.029 A 
ATOM     53  C   UNL A   1      41.206  31.921  35.924  1.00  0.00     0.049 A 
ATOM     54  H   UNL A   1      41.067  30.781  34.153  1.00  0.00     0.167 HD
ATOM     55  C   UNL A   1      39.358  32.989  34.657  1.00  0.00     0.074 A 
ATOM     56  C   UNL A   1      38.315  33.982  34.495  1.00  0.00     0.031 C 
ATOM     57  C   UNL A   1      40.165  32.901  35.745  1.00  0.00     0.037 A 
BRANCH  44  58
ATOM     58  C   UNL A   1      44.277  28.289  35.472  1.00  0.00     0.058 A 
ATOM     59  C   UNL A   1      45.620  28.640  35.269  1.00  0.00     0.135 A 
ATOM     60  C   UNL A   1      44.001  27.221  36.342  1.00  0.00     0.135 A 
ATOM     61  F   UNL A   1      45.939  29.640  34.433  1.00  0.00    -0.206 F 
ATOM     62  C   UNL A   1      46.654  27.941  35.886  1.00  0.00     0.059 A 
ATOM     63  C   UNL A   1      45.019  26.524  36.986  1.00  0.00     0.059 A 
ATOM     64  F   UNL A   1      42.734  26.844  36.570  1.00  0.00    -0.206 F 
ATOM     65  C   UNL A   1      46.344  26.882  36.739  1.00  0.00     0.060 A 
BRANCH  65  66
ATOM     66  S   UNL A   1      47.694  25.979  37.530  1.00  0.00     0.124 S 
ATOM     67  O   UNL A   1      48.859  26.588  36.896  1.00  0.00    -0.237 OA
ATOM     68  O   UNL A   1      47.502  26.299  38.941  1.00  0.00    -0.237 OA
ATOM     69  O   UNL A   1      47.434  24.591  37.164  1.00  0.00    -0.744 OA
ENDBRANCH  65  66
ENDBRANCH  44  58
BRANCH  45  70
ATOM     70  C   UNL A   1      36.794  32.896  30.708  1.00  0.00     0.058 A 
ATOM     71  C   UNL A   1      37.022  33.919  29.778  1.00  0.00     0.135 A 
ATOM     72  C   UNL A   1      35.465  32.522  30.960  1.00  0.00     0.135 A 
ATOM     73  F   UNL A   1      38.275  34.319  29.514  1.00  0.00    -0.206 F 
ATOM     74  C   UNL A   1      35.971  34.559  29.128  1.00  0.00     0.059 A 
ATOM     75  C   UNL A   1      34.399  33.131  30.306  1.00  0.00     0.059 A 
ATOM     76  F   UNL A   1      35.195  31.541  31.836  1.00  0.00    -0.206 F 
ATOM     77  C   UNL A   1      34.662  34.157  29.398  1.00  0.00     0.060 A 
BRANCH  77  78
ATOM     78  S   UNL A   1      33.304  34.960  28.520  1.00  0.00     0.124 S 
ATOM     79  O   UNL A   1      34.024  35.865  27.631  1.00  0.00    -0.237 OA
ATOM     80  O   UNL A   1      32.637  33.833  27.878  1.00  0.00    -0.237 OA
ATOM     81  O   UNL A   1      32.544  35.600  29.591  1.00  0.00    -0.744 OA
ENDBRANCH  77  78
ENDBRANCH  45  70
BRANCH  57  82
ATOM     82  C   UNL A   1      39.966  33.921  36.830  1.00  0.00     0.058 A 
ATOM     83  C   UNL A   1      40.596  35.174  36.786  1.00  0.00     0.135 A 
ATOM     84  C   UNL A   1      39.108  33.655  37.909  1.00  0.00     0.135 A 
ATOM     85  F   UNL A   1      41.430  35.476  35.779  1.00  0.00    -0.206 F 
ATOM     86  C   UNL A   1      40.404  36.119  37.789  1.00  0.00     0.059 A 
ATOM     87  C   UNL A   1      38.883  34.594  38.911  1.00  0.00     0.059 A 
ATOM     88  F   UNL A   1      38.472  32.475  37.992  1.00  0.00    -0.206 F 
ATOM     89  C   UNL A   1      39.548  35.818  38.850  1.00  0.00     0.060 A 
BRANCH  89  90
ATOM     90  S   UNL A   1      39.288  37.057  40.138  1.00  0.00     0.124 S 
ATOM     91  O   UNL A   1      40.660  37.392  40.503  1.00  0.00    -0.237 OA
ATOM     92  O   UNL A   1      38.549  38.098  39.430  1.00  0.00    -0.237 OA
ATOM     93  O   UNL A   1      38.525  36.336  41.152  1.00  0.00    -0.744 OA
ENDBRANCH  89  90
ENDBRANCH  57  82
ENDBRANCH  31  32
ENDBRANCH  24  26
ENDBRANCH  23  24
ENDBRANCH  22  23
ENDBRANCH   1  22
TORSDOF 19
ENDMDL
MODEL 2
REMARK VINA RESULT:     -10.1      4.666     10.529
REMARK SMILES CC[N@@H+](C[C@@H](C)C(=O)OCCOC(=O)c1ccc(-c2c3nc(c(-c4c(F)cc(S(=O)(=O)[O-])cc4F)c4ccc([nH]4)c(-c4c(F)cc(S(=O)(=O)[O-])cc4F)c4nc(c(-c5c(F)cc(S(=O)(=O)[O-])cc5F)c5ccc2[nH]5)C=C4)C=C3)cc1)[C@@H]1CCC[C@H](S(C)(=O)=O)C1
REMARK SMILES IDX 10 1 9 2 7 3 8 4 5 5 6 6 4 7 3 8 2 10 1 11 81 12 82 13 90 14
REMARK SMILES IDX 83 15 85 16 84 17 86 18 87 19 88 20 89 21 11 22 12 23 13 24
REMARK SMILES IDX 14 25 15 26 16 27 80 28 17 29 79 30 18 31 19 32 20 33 73 34
REMARK SMILES IDX 21 35 78 36 72 37 74 38 22 39 77 40 71 41 70 42 23 44 57 45
REMARK SMILES IDX 36 46 56 47 37 48 40 49 55 50 75 51 38 52 39 53 54 55 76 56
REMARK SMILES IDX 41 57 24 58 25 59 34 60 26 61 27 62 33 63 35 64 28 65 29 66
REMARK SMILES IDX 30 67 31 68 32 69 58 70 59 71 68 72 60 73 61 74 67 75 69 76
REMARK SMILES IDX 62 77 63 78 64 79 65 80 66 81 42 82 43 83 52 84 44 85 45 86
REMARK SMILES IDX 51 87 53 88 46 89 47 90 48 91 49 92 50 93
REMARK H PARENT 3 9 74 43 40 54
REMARK Flexibility Score: inf
ROOT
ATOM      1  C   UNL A   1      31.783  29.634  26.013  1.00  0.00     0.274 C 
ENDROOT
BRANCH   1   2
ATOM      2  O   UNL A   1      31.835  28.479  25.152  1.00  0.00    -0.462 OA
BRANCH   2   3
ATOM      3  C   UNL A   1      31.475  27.311  25.745  1.00  0.00     0.314 C 
ATOM      4  O   UNL A   1      31.906  26.922  26.825  1.00  0.00    -0.252 OA
BRANCH   3   5
ATOM      5  C   UNL A   1      30.594  26.440  24.872  1.00  0.00     0.151 C 
ATOM      6  C   UNL A   1      29.735  25.624  25.842  1.00  0.00     0.026 C 
BRANCH   5   7
ATOM      7  C   UNL A   1      31.364  25.599  23.824  1.00  0.00     0.277 C 
BRANCH   7   8
ATOM      8  N   UNL A   1      32.864  25.622  23.823  1.00  0.00    -0.332 N 
ATOM      9  H   UNL A   1      33.176  26.398  24.407  1.00  0.00     0.348 HD
BRANCH   8  10
ATOM     10  C   UNL A   1      33.385  25.944  22.481  1.00  0.00     0.259 C 
ATOM     11  C   UNL A   1      33.605  27.423  22.180  1.00  0.00     0.071 C 
ENDBRANCH   8  10
BRANCH   8  12
ATOM     12  C   UNL A   1      33.482  24.490  24.532  1.00  0.00     0.185 C 
ATOM     13  C   UNL A   1      35.022  24.555  24.603  1.00  0.00     0.065 C 
ATOM     14  C   UNL A   1      33.070  23.095  24.033  1.00  0.00     0.084 C 
ATOM     15  C   UNL A   1      35.571  23.443  25.511  1.00  0.00     0.007 C 
ATOM     16  C   UNL A   1      33.538  22.022  25.016  1.00  0.00     0.114 C 
ATOM     17  C   UNL A   1      35.061  22.048  25.130  1.00  0.00     0.020 C 
BRANCH  16  18
ATOM     18  S   UNL A   1      32.870  20.433  24.516  1.00  0.00     0.150 S 
ATOM     19  C   UNL A   1      32.265  20.705  22.870  1.00  0.00     0.158 C 
ATOM     20  O   UNL A   1      33.988  19.518  24.391  1.00  0.00    -0.229 OA
ATOM     21  O   UNL A   1      31.735  20.122  25.361  1.00  0.00    -0.229 OA
ENDBRANCH  16  18
ENDBRANCH   8  12
ENDBRANCH   7   8
ENDBRANCH   5   7
ENDBRANCH   3   5
ENDBRANCH   2   3
ENDBRANCH   1   2
BRANCH   1  22
ATOM     22  C   UNL A   1      33.165  30.216  26.332  1.00  0.00     0.275 C 
BRANCH  22  23
ATOM     23  O   UNL A   1      33.654  29.812  27.622  1.00  0.00    -0.458 OA
BRANCH  23  24
ATOM     24  C   UNL A   1      34.499  30.694  28.204  1.00  0.00     0.338 C 
ATOM     25  O   UNL A   1      34.200  31.773  28.697  1.00  0.00    -0.246 OA
BRANCH  24  26
ATOM     26  C   UNL A   1      35.854  30.128  28.309  1.00  0.00     0.060 A 
ATOM     27  C   UNL A   1      36.266  29.661  29.560  1.00  0.00     0.016 A 
ATOM     28  C   UNL A   1      36.743  30.141  27.233  1.00  0.00     0.016 A 
ATOM     29  C   UNL A   1      37.577  29.241  29.759  1.00  0.00     0.010 A 
ATOM     30  C   UNL A   1      38.061  29.715  27.430  1.00  0.00     0.010 A 
ATOM     31  C   UNL A   1      38.491  29.287  28.701  1.00  0.00    -0.014 A 
BRANCH  31  32
ATOM     32  C   UNL A   1      39.915  28.964  28.952  1.00  0.00     0.031 A 
ATOM     33  C   UNL A   1      40.815  30.000  29.566  1.00  0.00     0.074 A 
ATOM     34  C   UNL A   1      40.389  27.737  28.665  1.00  0.00     0.049 A 
ATOM     35  N   UNL A   1      42.094  29.935  29.828  1.00  0.00    -0.248 NA
ATOM     36  C   UNL A   1      40.189  31.280  29.932  1.00  0.00     0.031 C 
ATOM     37  C   UNL A   1      39.602  26.637  28.108  1.00  0.00     0.029 A 
ATOM     38  N   UNL A   1      41.649  27.212  28.804  1.00  0.00    -0.354 N 
ATOM     39  C   UNL A   1      42.432  31.166  30.377  1.00  0.00     0.074 A 
ATOM     40  C   UNL A   1      41.225  31.967  30.392  1.00  0.00     0.031 C 
ATOM     41  C   UNL A   1      40.398  25.568  27.949  1.00  0.00     0.029 A 
ATOM     42  C   UNL A   1      41.756  25.916  28.361  1.00  0.00     0.049 A 
ATOM     43  H   UNL A   1      42.405  27.716  29.184  1.00  0.00     0.167 HD
ATOM     44  C   UNL A   1      43.637  31.588  30.830  1.00  0.00     0.037 A 
ATOM     45  C   UNL A   1      42.831  25.109  28.281  1.00  0.00     0.037 A 
ATOM     46  C   UNL A   1      44.831  30.783  30.822  1.00  0.00     0.049 A 
ATOM     47  C   UNL A   1      44.169  25.615  28.752  1.00  0.00     0.074 A 
ATOM     48  C   UNL A   1      46.100  31.118  31.265  1.00  0.00     0.029 A 
ATOM     49  N   UNL A   1      44.906  29.483  30.345  1.00  0.00    -0.354 N 
ATOM     50  N   UNL A   1      44.474  26.784  29.263  1.00  0.00    -0.248 NA
ATOM     51  C   UNL A   1      45.307  24.693  28.635  1.00  0.00     0.031 C 
ATOM     52  C   UNL A   1      46.948  30.031  31.025  1.00  0.00     0.029 A 
ATOM     53  C   UNL A   1      46.201  29.005  30.469  1.00  0.00     0.049 A 
ATOM     54  H   UNL A   1      44.150  28.973  29.973  1.00  0.00     0.167 HD
ATOM     55  C   UNL A   1      45.835  26.730  29.547  1.00  0.00     0.074 A 
ATOM     56  C   UNL A   1      46.290  25.410  29.161  1.00  0.00     0.031 C 
ATOM     57  C   UNL A   1      46.635  27.687  30.080  1.00  0.00     0.037 A 
BRANCH  44  58
ATOM     58  C   UNL A   1      43.725  32.994  31.353  1.00  0.00     0.058 A 
ATOM     59  C   UNL A   1      43.472  33.299  32.698  1.00  0.00     0.135 A 
ATOM     60  C   UNL A   1      44.088  34.047  30.498  1.00  0.00     0.135 A 
ATOM     61  F   UNL A   1      43.102  32.333  33.554  1.00  0.00    -0.206 F 
ATOM     62  C   UNL A   1      43.551  34.605  33.175  1.00  0.00     0.059 A 
ATOM     63  C   UNL A   1      44.195  35.357  30.957  1.00  0.00     0.059 A 
ATOM     64  F   UNL A   1      44.339  33.810  29.201  1.00  0.00    -0.206 F 
ATOM     65  C   UNL A   1      43.909  35.627  32.296  1.00  0.00     0.060 A 
BRANCH  65  66
ATOM     66  S   UNL A   1      44.003  37.318  32.923  1.00  0.00     0.124 S 
ATOM     67  O   UNL A   1      42.880  37.345  33.855  1.00  0.00    -0.237 OA
ATOM     68  O   UNL A   1      45.330  37.356  33.530  1.00  0.00    -0.237 OA
ATOM     69  O   UNL A   1      43.843  38.135  31.724  1.00  0.00    -0.744 OA
ENDBRANCH  65  66
ENDBRANCH  44  58
BRANCH  45  70
ATOM     70  C   UNL A   1      42.689  23.740  27.719  1.00  0.00     0.058 A 
ATOM     71  C   UNL A   1      42.728  23.518  26.335  1.00  0.00     0.135 A 
ATOM     72  C   UNL A   1      42.519  22.628  28.557  1.00  0.00     0.135 A 
ATOM     73  F   UNL A   1      42.876  24.552  25.494  1.00  0.00    -0.206 F 
ATOM     74  C   UNL A   1      42.591  22.241  25.800  1.00  0.00     0.059 A 
ATOM     75  C   UNL A   1      42.403  21.340  28.046  1.00  0.00     0.059 A 
ATOM     76  F   UNL A   1      42.484  22.788  29.889  1.00  0.00    -0.206 F 
ATOM     77  C   UNL A   1      42.430  21.157  26.664  1.00  0.00     0.060 A 
BRANCH  77  78
ATOM     78  S   UNL A   1      42.298  19.497  25.965  1.00  0.00     0.124 S 
ATOM     79  O   UNL A   1      42.787  18.676  27.066  1.00  0.00    -0.237 OA
ATOM     80  O   UNL A   1      40.872  19.393  25.677  1.00  0.00    -0.237 OA
ATOM     81  O   UNL A   1      43.163  19.558  24.790  1.00  0.00    -0.744 OA
ENDBRANCH  77  78
ENDBRANCH  45  70
BRANCH  57  82
ATOM     82  C   UNL A   1      48.078  27.329  30.301  1.00  0.00     0.058 A 
ATOM     83  C   UNL A   1      49.085  27.763  29.426  1.00  0.00     0.135 A 
ATOM     84  C   UNL A   1      48.461  26.573  31.420  1.00  0.00     0.135 A 
ATOM     85  F   UNL A   1      48.771  28.483  28.338  1.00  0.00    -0.206 F 
ATOM     86  C   UNL A   1      50.422  27.435  29.637  1.00  0.00     0.059 A 
ATOM     87  C   UNL A   1      49.793  26.253  31.663  1.00  0.00     0.059 A 
ATOM     88  F   UNL A   1      47.536  26.144  32.294  1.00  0.00    -0.206 F 
ATOM     89  C   UNL A   1      50.765  26.676  30.758  1.00  0.00     0.060 A 
BRANCH  89  90
ATOM     90  S   UNL A   1      52.503  26.272  31.036  1.00  0.00     0.124 S 
ATOM     91  O   UNL A   1      52.396  25.119  31.923  1.00  0.00    -0.237 OA
ATOM     92  O   UNL A   1      52.982  25.991  29.687  1.00  0.00    -0.237 OA
ATOM     93  O   UNL A   1      53.039  27.486  31.644  1.00  0.00    -0.744 OA
ENDBRANCH  89  90
ENDBRANCH  57  82
ENDBRANCH  31  32
ENDBRANCH  24  26
ENDBRANCH  23  24
ENDBRANCH  22  23
ENDBRANCH   1  22
TORSDOF 19
ENDMDL
MODEL 3
REMARK VINA RESULT:      -9.9      6.080      8.197
REMARK SMILES CC[N@@H+](C[C@@H](C)C(=O)OCCOC(=O)c1ccc(-c2c3nc(c(-c4c(F)cc(S(=O)(=O)[O-])cc4F)c4ccc([nH]4)c(-c4c(F)cc(S(=O)(=O)[O-])cc4F)c4nc(c(-c5c(F)cc(S(=O)(=O)[O-])cc5F)c5ccc2[nH]5)C=C4)C=C3)cc1)[C@@H]1CCC[C@H](S(C)(=O)=O)C1
REMARK SMILES IDX 10 1 9 2 7 3 8 4 5 5 6 6 4 7 3 8 2 10 1 11 81 12 82 13 90 14
REMARK SMILES IDX 83 15 85 16 84 17 86 18 87 19 88 20 89 21 11 22 12 23 13 24
REMARK SMILES IDX 14 25 15 26 16 27 80 28 17 29 79 30 18 31 19 32 20 33 73 34
REMARK SMILES IDX 21 35 78 36 72 37 74 38 22 39 77 40 71 41 70 42 23 44 57 45
REMARK SMILES IDX 36 46 56 47 37 48 40 49 55 50 75 51 38 52 39 53 54 55 76 56
REMARK SMILES IDX 41 57 24 58 25 59 34 60 26 61 27 62 33 63 35 64 28 65 29 66
REMARK SMILES IDX 30 67 31 68 32 69 58 70 59 71 68 72 60 73 61 74 67 75 69 76
REMARK SMILES IDX 62 77 63 78 64 79 65 80 66 81 42 82 43 83 52 84 44 85 45 86
REMARK SMILES IDX 51 87 53 88 46 89 47 90 48 91 49 92 50 93
REMARK H PARENT 3 9 74 43 40 54
REMARK Flexibility Score: inf
ROOT
ATOM      1  C   UNL A   1      38.739  21.063  25.595  1.00  0.00     0.274 C 
ENDROOT
BRANCH   1   2
ATOM      2  O   UNL A   1      37.314  21.022  25.813  1.00  0.00    -0.462 OA
BRANCH   2   3
ATOM      3  C   UNL A   1      36.646  22.134  25.408  1.00  0.00     0.314 C 
ATOM      4  O   UNL A   1      36.520  23.150  26.083  1.00  0.00    -0.252 OA
BRANCH   3   5
ATOM      5  C   UNL A   1      35.924  21.953  24.087  1.00  0.00     0.151 C 
ATOM      6  C   UNL A   1      36.536  22.991  23.142  1.00  0.00     0.026 C 
BRANCH   5   7
ATOM      7  C   UNL A   1      34.380  22.001  24.190  1.00  0.00     0.277 C 
BRANCH   7   8
ATOM      8  N   UNL A   1      33.740  22.871  25.232  1.00  0.00    -0.332 N 
ATOM      9  H   UNL A   1      34.476  23.363  25.739  1.00  0.00     0.348 HD
BRANCH   8  10
ATOM     10  C   UNL A   1      33.072  22.054  26.262  1.00  0.00     0.259 C 
ATOM     11  C   UNL A   1      33.152  22.574  27.693  1.00  0.00     0.071 C 
ENDBRANCH   8  10
BRANCH   8  12
ATOM     12  C   UNL A   1      32.988  24.011  24.682  1.00  0.00     0.185 C 
ATOM     13  C   UNL A   1      32.709  23.911  23.168  1.00  0.00     0.065 C 
ATOM     14  C   UNL A   1      33.577  25.398  24.985  1.00  0.00     0.084 C 
ATOM     15  C   UNL A   1      31.768  25.038  22.713  1.00  0.00     0.007 C 
ATOM     16  C   UNL A   1      32.572  26.490  24.622  1.00  0.00     0.114 C 
ATOM     17  C   UNL A   1      32.255  26.432  23.129  1.00  0.00     0.020 C 
BRANCH  16  18
ATOM     18  S   UNL A   1      33.202  28.078  25.173  1.00  0.00     0.150 S 
ATOM     19  C   UNL A   1      31.776  28.927  25.800  1.00  0.00     0.158 C 
ATOM     20  O   UNL A   1      34.059  27.826  26.316  1.00  0.00    -0.229 OA
ATOM     21  O   UNL A   1      33.683  28.810  24.019  1.00  0.00    -0.229 OA
ENDBRANCH  16  18
ENDBRANCH   8  12
ENDBRANCH   7   8
ENDBRANCH   5   7
ENDBRANCH   3   5
ENDBRANCH   2   3
ENDBRANCH   1   2
BRANCH   1  22
ATOM     22  C   UNL A   1      39.403  19.683  25.665  1.00  0.00     0.275 C 
BRANCH  22  23
ATOM     23  O   UNL A   1      40.368  19.583  26.726  1.00  0.00    -0.458 OA
BRANCH  23  24
ATOM     24  C   UNL A   1      41.651  19.481  26.310  1.00  0.00     0.338 C 
ATOM     25  O   UNL A   1      42.164  18.517  25.759  1.00  0.00    -0.246 OA
BRANCH  24  26
ATOM     26  C   UNL A   1      42.357  20.763  26.473  1.00  0.00     0.060 A 
ATOM     27  C   UNL A   1      42.446  21.294  27.763  1.00  0.00     0.016 A 
ATOM     28  C   UNL A   1      42.838  21.483  25.379  1.00  0.00     0.016 A 
ATOM     29  C   UNL A   1      42.979  22.563  27.968  1.00  0.00     0.010 A 
ATOM     30  C   UNL A   1      43.377  22.758  25.584  1.00  0.00     0.010 A 
ATOM     31  C   UNL A   1      43.427  23.314  26.876  1.00  0.00    -0.014 A 
BRANCH  31  32
ATOM     32  C   UNL A   1      43.869  24.713  27.086  1.00  0.00     0.031 A 
ATOM     33  C   UNL A   1      45.316  25.071  26.891  1.00  0.00     0.074 A 
ATOM     34  C   UNL A   1      42.973  25.661  27.414  1.00  0.00     0.049 A 
ATOM     35  N   UNL A   1      45.915  26.220  27.064  1.00  0.00    -0.248 NA
ATOM     36  C   UNL A   1      46.207  23.989  26.443  1.00  0.00     0.031 C 
ATOM     37  C   UNL A   1      41.537  25.442  27.588  1.00  0.00     0.029 A 
ATOM     38  N   UNL A   1      43.141  27.001  27.660  1.00  0.00    -0.354 N 
ATOM     39  C   UNL A   1      47.253  26.001  26.760  1.00  0.00     0.074 A 
ATOM     40  C   UNL A   1      47.382  24.601  26.409  1.00  0.00     0.031 C 
ATOM     41  C   UNL A   1      40.955  26.607  27.916  1.00  0.00     0.029 A 
ATOM     42  C   UNL A   1      41.978  27.645  28.007  1.00  0.00     0.049 A 
ATOM     43  H   UNL A   1      44.011  27.457  27.593  1.00  0.00     0.167 HD
ATOM     44  C   UNL A   1      48.279  26.886  26.767  1.00  0.00     0.037 A 
ATOM     45  C   UNL A   1      41.768  28.924  28.374  1.00  0.00     0.037 A 
ATOM     46  C   UNL A   1      48.142  28.278  27.107  1.00  0.00     0.049 A 
ATOM     47  C   UNL A   1      42.931  29.880  28.415  1.00  0.00     0.074 A 
ATOM     48  C   UNL A   1      49.120  29.258  27.138  1.00  0.00     0.029 A 
ATOM     49  N   UNL A   1      46.953  28.891  27.475  1.00  0.00    -0.354 N 
ATOM     50  N   UNL A   1      44.192  29.656  28.131  1.00  0.00    -0.248 NA
ATOM     51  C   UNL A   1      42.642  31.260  28.829  1.00  0.00     0.031 C 
ATOM     52  C   UNL A   1      48.527  30.455  27.557  1.00  0.00     0.029 A 
ATOM     53  C   UNL A   1      47.174  30.231  27.749  1.00  0.00     0.049 A 
ATOM     54  H   UNL A   1      46.080  28.440  27.532  1.00  0.00     0.167 HD
ATOM     55  C   UNL A   1      44.843  30.872  28.311  1.00  0.00     0.074 A 
ATOM     56  C   UNL A   1      43.834  31.829  28.718  1.00  0.00     0.031 C 
ATOM     57  C   UNL A   1      46.157  31.170  28.152  1.00  0.00     0.037 A 
BRANCH  44  58
ATOM     58  C   UNL A   1      49.644  26.364  26.419  1.00  0.00     0.058 A 
ATOM     59  C   UNL A   1      50.154  26.443  25.114  1.00  0.00     0.135 A 
ATOM     60  C   UNL A   1      50.461  25.797  27.410  1.00  0.00     0.135 A 
ATOM     61  F   UNL A   1      49.407  26.959  24.126  1.00  0.00    -0.206 F 
ATOM     62  C   UNL A   1      51.418  25.954  24.798  1.00  0.00     0.059 A 
ATOM     63  C   UNL A   1      51.737  25.322  27.120  1.00  0.00     0.059 A 
ATOM     64  F   UNL A   1      50.021  25.695  28.674  1.00  0.00    -0.206 F 
ATOM     65  C   UNL A   1      52.201  25.391  25.807  1.00  0.00     0.060 A 
BRANCH  65  66
ATOM     66  S   UNL A   1      53.837  24.755  25.384  1.00  0.00     0.124 S 
ATOM     67  O   UNL A   1      53.524  23.383  24.997  1.00  0.00    -0.237 OA
ATOM     68  O   UNL A   1      54.248  25.639  24.298  1.00  0.00    -0.237 OA
ATOM     69  O   UNL A   1      54.590  24.901  26.625  1.00  0.00    -0.744 OA
ENDBRANCH  65  66
ENDBRANCH  44  58
BRANCH  45  70
ATOM     70  C   UNL A   1      40.400  29.372  28.744  1.00  0.00     0.058 A 
ATOM     71  C   UNL A   1      39.419  29.591  27.767  1.00  0.00     0.135 A 
ATOM     72  C   UNL A   1      40.046  29.582  30.086  1.00  0.00     0.135 A 
ATOM     73  F   UNL A   1      39.715  29.416  26.470  1.00  0.00    -0.206 F 
ATOM     74  C   UNL A   1      38.138  30.015  28.104  1.00  0.00     0.059 A 
ATOM     75  C   UNL A   1      38.765  29.983  30.449  1.00  0.00     0.059 A 
ATOM     76  F   UNL A   1      40.947  29.377  31.060  1.00  0.00    -0.206 F 
ATOM     77  C   UNL A   1      37.819  30.207  29.449  1.00  0.00     0.060 A 
BRANCH  77  78
ATOM     78  S   UNL A   1      36.141  30.714  29.884  1.00  0.00     0.124 S 
ATOM     79  O   UNL A   1      36.271  32.166  29.909  1.00  0.00    -0.237 OA
ATOM     80  O   UNL A   1      35.354  30.162  28.787  1.00  0.00    -0.237 OA
ATOM     81  O   UNL A   1      35.925  30.077  31.180  1.00  0.00    -0.744 OA
ENDBRANCH  77  78
ENDBRANCH  45  70
BRANCH  57  82
ATOM     82  C   UNL A   1      46.572  32.594  28.395  1.00  0.00     0.058 A 
ATOM     83  C   UNL A   1      46.555  33.550  27.368  1.00  0.00     0.135 A 
ATOM     84  C   UNL A   1      46.956  33.014  29.678  1.00  0.00     0.135 A 
ATOM     85  F   UNL A   1      46.201  33.197  26.123  1.00  0.00    -0.206 F 
ATOM     86  C   UNL A   1      46.932  34.869  27.598  1.00  0.00     0.059 A 
ATOM     87  C   UNL A   1      47.315  34.334  29.936  1.00  0.00     0.059 A 
ATOM     88  F   UNL A   1      46.977  32.141  30.698  1.00  0.00    -0.206 F 
ATOM     89  C   UNL A   1      47.315  35.251  28.886  1.00  0.00     0.060 A 
BRANCH  89  90
ATOM     90  S   UNL A   1      47.784  36.969  29.181  1.00  0.00     0.124 S 
ATOM     91  O   UNL A   1      46.873  37.340  30.259  1.00  0.00    -0.237 OA
ATOM     92  O   UNL A   1      49.190  36.854  29.553  1.00  0.00    -0.237 OA
ATOM     93  O   UNL A   1      47.533  37.615  27.896  1.00  0.00    -0.744 OA
ENDBRANCH  89  90
ENDBRANCH  57  82
ENDBRANCH  31  32
ENDBRANCH  24  26
ENDBRANCH  23  24
ENDBRANCH  22  23
ENDBRANCH   1  22
TORSDOF 19
ENDMDL
