MODEL 1
REMARK VINA RESULT:     -11.1      0.000      0.000
REMARK SMILES COc1cc(OC)cc(-n2nnc(C(=O)OCCOC(=O)c3ccc(-c4c5nc(c(-c6c(F)cc(S(=O)(=O)[O-])cc6F)c6ccc([nH]6)c(-c6c(F)cc(S(=O)(=O)[O-])cc6F)c6nc(c(-c7c(F)cc(S(=O)(=O)[O-])cc7F)c7ccc4[nH]7)C=C6)C=C5)cc3)c2C)c1
REMARK SMILES IDX 18 1 17 2 16 3 14 4 15 5 13 6 10 7 11 8 88 9 12 10 89 11
REMARK SMILES IDX 9 12 3 13 4 14 90 15 5 16 8 17 2 18 1 19 6 20 7 21 19 22
REMARK SMILES IDX 20 23 21 24 22 25 23 26 87 27 24 28 86 29 25 30 26 31 27 32
REMARK SMILES IDX 80 33 28 34 85 35 79 36 81 37 29 38 84 39 78 40 77 41 30 43
REMARK SMILES IDX 64 44 43 45 63 46 44 47 47 48 62 49 82 50 45 51 46 52 61 54
REMARK SMILES IDX 83 55 48 56 31 57 32 58 41 59 33 60 34 61 40 62 42 63 35 64
REMARK SMILES IDX 36 65 37 66 38 67 39 68 65 69 66 70 75 71 67 72 68 73 74 74
REMARK SMILES IDX 76 75 69 76 70 77 71 78 72 79 73 80 49 81 50 82 59 83 51 84
REMARK SMILES IDX 52 85 58 86 60 87 53 88 54 89 55 90 56 91 57 92
REMARK H PARENT 81 42 47 53
REMARK Flexibility Score: inf
ROOT
ATOM      1  C   UNL A   1      33.624  33.538  27.985  1.00  0.00     0.275 C 
ENDROOT
BRANCH   1   2
ATOM      2  C   UNL A   1      33.542  34.836  28.772  1.00  0.00     0.275 C 
BRANCH   2   3
ATOM      3  O   UNL A   1      32.916  34.611  30.043  1.00  0.00    -0.457 OA
BRANCH   3   4
ATOM      4  C   UNL A   1      32.972  35.613  30.975  1.00  0.00     0.360 C 
ATOM      5  O   UNL A   1      32.206  36.574  30.996  1.00  0.00    -0.244 OA
BRANCH   4   6
ATOM      6  C   UNL A   1      34.030  35.379  31.951  1.00  0.00     0.193 A 
ATOM      7  N   UNL A   1      35.606  34.509  33.173  1.00  0.00    -0.217 N 
ATOM      8  N   UNL A   1      35.371  35.746  33.651  1.00  0.00    -0.061 NA
ATOM      9  C   UNL A   1      34.712  34.195  32.175  1.00  0.00     0.076 A 
ATOM     10  N   UNL A   1      34.459  36.313  32.866  1.00  0.00    -0.122 NA
ATOM     11  C   UNL A   1      34.534  32.836  31.601  1.00  0.00     0.069 C 
BRANCH   7  12
ATOM     12  C   UNL A   1      36.738  33.763  33.539  1.00  0.00     0.074 A 
ATOM     13  C   UNL A   1      37.984  32.726  35.326  1.00  0.00     0.124 A 
ATOM     14  C   UNL A   1      39.085  32.661  34.471  1.00  0.00     0.093 A 
ATOM     15  C   UNL A   1      36.811  33.299  34.860  1.00  0.00     0.075 A 
ATOM     16  C   UNL A   1      39.007  33.113  33.144  1.00  0.00     0.124 A 
ATOM     17  C   UNL A   1      37.807  33.626  32.651  1.00  0.00     0.075 A 
BRANCH  13  18
ATOM     18  O   UNL A   1      38.179  32.286  36.606  1.00  0.00    -0.497 OA
ATOM     19  C   UNL A   1      37.411  32.947  37.609  1.00  0.00     0.278 C 
ENDBRANCH  13  18
BRANCH  16  20
ATOM     20  O   UNL A   1      40.180  33.023  32.442  1.00  0.00    -0.497 OA
ATOM     21  C   UNL A   1      40.332  33.924  31.351  1.00  0.00     0.278 C 
ENDBRANCH  16  20
ENDBRANCH   7  12
ENDBRANCH   4   6
ENDBRANCH   3   4
ENDBRANCH   2   3
ENDBRANCH   1   2
BRANCH   1  22
ATOM     22  O   UNL A   1      34.902  32.944  28.178  1.00  0.00    -0.458 OA
BRANCH  22  23
ATOM     23  C   UNL A   1      34.993  31.623  27.901  1.00  0.00     0.338 C 
ATOM     24  O   UNL A   1      34.170  30.942  27.312  1.00  0.00    -0.246 OA
BRANCH  23  25
ATOM     25  C   UNL A   1      36.126  31.085  28.659  1.00  0.00     0.060 A 
ATOM     26  C   UNL A   1      37.133  31.979  29.030  1.00  0.00     0.016 A 
ATOM     27  C   UNL A   1      36.317  29.694  28.697  1.00  0.00     0.016 A 
ATOM     28  C   UNL A   1      38.401  31.478  29.237  1.00  0.00     0.010 A 
ATOM     29  C   UNL A   1      37.583  29.202  28.870  1.00  0.00     0.010 A 
ATOM     30  C   UNL A   1      38.621  30.108  29.060  1.00  0.00    -0.014 A 
BRANCH  30  31
ATOM     31  C   UNL A   1      39.958  29.589  29.243  1.00  0.00     0.031 A 
ATOM     32  C   UNL A   1      40.315  29.504  30.676  1.00  0.00     0.074 A 
ATOM     33  C   UNL A   1      40.693  29.106  28.224  1.00  0.00     0.049 A 
ATOM     34  N   UNL A   1      41.162  30.237  31.317  1.00  0.00    -0.248 NA
ATOM     35  C   UNL A   1      39.466  28.671  31.548  1.00  0.00     0.031 C 
ATOM     36  C   UNL A   1      40.292  28.904  26.829  1.00  0.00     0.029 A 
ATOM     37  N   UNL A   1      41.951  28.594  28.249  1.00  0.00    -0.354 N 
ATOM     38  C   UNL A   1      41.143  29.756  32.620  1.00  0.00     0.074 A 
ATOM     39  C   UNL A   1      39.930  28.996  32.754  1.00  0.00     0.031 C 
ATOM     40  C   UNL A   1      41.197  28.108  26.214  1.00  0.00     0.029 A 
ATOM     41  C   UNL A   1      42.298  27.849  27.125  1.00  0.00     0.049 A 
ATOM     42  H   UNL A   1      42.569  28.737  29.002  1.00  0.00     0.167 HD
ATOM     43  C   UNL A   1      42.278  29.748  33.368  1.00  0.00     0.037 A 
ATOM     44  C   UNL A   1      43.377  27.030  27.009  1.00  0.00     0.037 A 
ATOM     45  C   UNL A   1      43.255  30.663  32.829  1.00  0.00     0.049 A 
ATOM     46  C   UNL A   1      44.346  27.444  28.064  1.00  0.00     0.074 A 
ATOM     47  C   UNL A   1      43.266  32.017  32.553  1.00  0.00     0.029 A 
ATOM     48  N   UNL A   1      44.299  30.125  32.112  1.00  0.00    -0.354 N 
ATOM     49  N   UNL A   1      44.958  28.598  28.068  1.00  0.00    -0.248 NA
ATOM     50  C   UNL A   1      44.250  26.790  29.360  1.00  0.00     0.031 C 
ATOM     51  C   UNL A   1      43.995  32.142  31.334  1.00  0.00     0.029 A 
ATOM     52  C   UNL A   1      44.456  30.875  30.974  1.00  0.00     0.049 A 
ATOM     53  H   UNL A   1      44.836  29.342  32.369  1.00  0.00     0.167 HD
ATOM     54  C   UNL A   1      44.932  29.012  29.393  1.00  0.00     0.074 A 
ATOM     55  C   UNL A   1      44.547  27.823  30.153  1.00  0.00     0.031 C 
ATOM     56  C   UNL A   1      44.936  30.339  29.718  1.00  0.00     0.037 A 
BRANCH  43  57
ATOM     57  C   UNL A   1      42.650  28.614  34.296  1.00  0.00     0.058 A 
ATOM     58  C   UNL A   1      42.943  28.908  35.642  1.00  0.00     0.135 A 
ATOM     59  C   UNL A   1      43.012  27.316  33.865  1.00  0.00     0.135 A 
ATOM     60  F   UNL A   1      42.648  30.112  36.157  1.00  0.00    -0.206 F 
ATOM     61  C   UNL A   1      43.622  28.014  36.469  1.00  0.00     0.059 A 
ATOM     62  C   UNL A   1      43.638  26.390  34.689  1.00  0.00     0.059 A 
ATOM     63  F   UNL A   1      42.876  26.903  32.600  1.00  0.00    -0.206 F 
ATOM     64  C   UNL A   1      43.978  26.762  35.976  1.00  0.00     0.060 A 
BRANCH  64  65
ATOM     65  S   UNL A   1      44.941  25.643  37.004  1.00  0.00     0.124 S 
ATOM     66  O   UNL A   1      44.864  26.305  38.301  1.00  0.00    -0.237 OA
ATOM     67  O   UNL A   1      44.191  24.398  36.873  1.00  0.00    -0.237 OA
ATOM     68  O   UNL A   1      46.254  25.648  36.366  1.00  0.00    -0.744 OA
ENDBRANCH  64  65
ENDBRANCH  43  57
BRANCH  44  69
ATOM     69  C   UNL A   1      43.452  25.699  26.338  1.00  0.00     0.058 A 
ATOM     70  C   UNL A   1      44.406  25.436  25.336  1.00  0.00     0.135 A 
ATOM     71  C   UNL A   1      42.786  24.573  26.860  1.00  0.00     0.135 A 
ATOM     72  F   UNL A   1      45.109  26.443  24.792  1.00  0.00    -0.206 F 
ATOM     73  C   UNL A   1      44.717  24.135  24.917  1.00  0.00     0.059 A 
ATOM     74  C   UNL A   1      43.070  23.269  26.453  1.00  0.00     0.059 A 
ATOM     75  F   UNL A   1      41.897  24.694  27.857  1.00  0.00    -0.206 F 
ATOM     76  C   UNL A   1      44.056  23.054  25.500  1.00  0.00     0.060 A 
BRANCH  76  77
ATOM     77  S   UNL A   1      44.567  21.365  25.095  1.00  0.00     0.124 S 
ATOM     78  O   UNL A   1      45.898  21.300  25.689  1.00  0.00    -0.237 OA
ATOM     79  O   UNL A   1      43.538  20.564  25.747  1.00  0.00    -0.237 OA
ATOM     80  O   UNL A   1      44.536  21.342  23.635  1.00  0.00    -0.744 OA
ENDBRANCH  76  77
ENDBRANCH  44  69
BRANCH  56  81
ATOM     81  C   UNL A   1      45.270  31.339  28.639  1.00  0.00     0.058 A 
ATOM     82  C   UNL A   1      44.348  31.862  27.713  1.00  0.00     0.135 A 
ATOM     83  C   UNL A   1      46.556  31.897  28.643  1.00  0.00     0.135 A 
ATOM     84  F   UNL A   1      43.069  31.460  27.710  1.00  0.00    -0.206 F 
ATOM     85  C   UNL A   1      44.705  32.862  26.803  1.00  0.00     0.059 A 
ATOM     86  C   UNL A   1      46.924  32.916  27.769  1.00  0.00     0.059 A 
ATOM     87  F   UNL A   1      47.464  31.487  29.544  1.00  0.00    -0.206 F 
ATOM     88  C   UNL A   1      45.999  33.382  26.840  1.00  0.00     0.060 A 
BRANCH  88  89
ATOM     89  S   UNL A   1      46.450  34.713  25.705  1.00  0.00     0.124 S 
ATOM     90  O   UNL A   1      45.524  34.499  24.598  1.00  0.00    -0.237 OA
ATOM     91  O   UNL A   1      46.212  35.910  26.508  1.00  0.00    -0.237 OA
ATOM     92  O   UNL A   1      47.854  34.445  25.404  1.00  0.00    -0.744 OA
ENDBRANCH  88  89
ENDBRANCH  56  81
ENDBRANCH  30  31
ENDBRANCH  23  25
ENDBRANCH  22  23
ENDBRANCH   1  22
TORSDOF 17
ENDMDL
MODEL 2
REMARK VINA RESULT:     -11.1      4.050     11.498
REMARK SMILES COc1cc(OC)cc(-n2nnc(C(=O)OCCOC(=O)c3ccc(-c4c5nc(c(-c6c(F)cc(S(=O)(=O)[O-])cc6F)c6ccc([nH]6)c(-c6c(F)cc(S(=O)(=O)[O-])cc6F)c6nc(c(-c7c(F)cc(S(=O)(=O)[O-])cc7F)c7ccc4[nH]7)C=C6)C=C5)cc3)c2C)c1
REMARK SMILES IDX 18 1 17 2 16 3 14 4 15 5 13 6 10 7 11 8 88 9 12 10 89 11
REMARK SMILES IDX 9 12 3 13 4 14 90 15 5 16 8 17 2 18 1 19 6 20 7 21 19 22
REMARK SMILES IDX 20 23 21 24 22 25 23 26 87 27 24 28 86 29 25 30 26 31 27 32
REMARK SMILES IDX 80 33 28 34 85 35 79 36 81 37 29 38 84 39 78 40 77 41 30 43
REMARK SMILES IDX 64 44 43 45 63 46 44 47 47 48 62 49 82 50 45 51 46 52 61 54
REMARK SMILES IDX 83 55 48 56 31 57 32 58 41 59 33 60 34 61 40 62 42 63 35 64
REMARK SMILES IDX 36 65 37 66 38 67 39 68 65 69 66 70 75 71 67 72 68 73 74 74
REMARK SMILES IDX 76 75 69 76 70 77 71 78 72 79 73 80 49 81 50 82 59 83 51 84
REMARK SMILES IDX 52 85 58 86 60 87 53 88 54 89 55 90 56 91 57 92
REMARK H PARENT 81 42 47 53
REMARK Flexibility Score: inf
ROOT
ATOM      1  C   UNL A   1      42.842  19.163  25.590  1.00  0.00     0.275 C 
ENDROOT
BRANCH   1   2
ATOM      2  C   UNL A   1      41.565  19.387  26.383  1.00  0.00     0.275 C 
BRANCH   2   3
ATOM      3  O   UNL A   1      40.889  20.564  25.919  1.00  0.00    -0.457 OA
BRANCH   3   4
ATOM      4  C   UNL A   1      40.285  21.369  26.848  1.00  0.00     0.360 C 
ATOM      5  O   UNL A   1      40.694  21.514  27.998  1.00  0.00    -0.244 OA
BRANCH   4   6
ATOM      6  C   UNL A   1      39.123  22.051  26.293  1.00  0.00     0.193 A 
ATOM      7  N   UNL A   1      37.261  22.544  25.281  1.00  0.00    -0.217 N 
ATOM      8  N   UNL A   1      37.798  23.703  25.709  1.00  0.00    -0.061 NA
ATOM      9  C   UNL A   1      38.112  21.491  25.530  1.00  0.00     0.076 A 
ATOM     10  N   UNL A   1      38.900  23.406  26.391  1.00  0.00    -0.122 NA
ATOM     11  C   UNL A   1      37.942  20.123  24.978  1.00  0.00     0.069 C 
BRANCH   7  12
ATOM     12  C   UNL A   1      35.934  22.451  24.830  1.00  0.00     0.074 A 
ATOM     13  C   UNL A   1      34.325  23.064  23.140  1.00  0.00     0.124 A 
ATOM     14  C   UNL A   1      33.311  22.698  24.025  1.00  0.00     0.093 A 
ATOM     15  C   UNL A   1      35.643  22.958  23.555  1.00  0.00     0.075 A 
ATOM     16  C   UNL A   1      33.602  22.177  25.295  1.00  0.00     0.124 A 
ATOM     17  C   UNL A   1      34.929  22.002  25.690  1.00  0.00     0.075 A 
BRANCH  13  18
ATOM     18  O   UNL A   1      33.930  23.589  21.940  1.00  0.00    -0.497 OA
ATOM     19  C   UNL A   1      32.936  24.609  22.010  1.00  0.00     0.278 C 
ENDBRANCH  13  18
BRANCH  16  20
ATOM     20  O   UNL A   1      32.503  21.903  26.064  1.00  0.00    -0.497 OA
ATOM     21  C   UNL A   1      31.236  22.095  25.442  1.00  0.00     0.278 C 
ENDBRANCH  16  20
ENDBRANCH   7  12
ENDBRANCH   4   6
ENDBRANCH   3   4
ENDBRANCH   2   3
ENDBRANCH   1   2
BRANCH   1  22
ATOM     22  O   UNL A   1      43.760  20.217  25.857  1.00  0.00    -0.458 OA
BRANCH  22  23
ATOM     23  C   UNL A   1      44.302  20.822  24.776  1.00  0.00     0.338 C 
ATOM     24  O   UNL A   1      44.790  20.276  23.801  1.00  0.00    -0.246 OA
BRANCH  23  25
ATOM     25  C   UNL A   1      44.445  22.248  25.088  1.00  0.00     0.060 A 
ATOM     26  C   UNL A   1      45.361  22.599  26.082  1.00  0.00     0.016 A 
ATOM     27  C   UNL A   1      43.463  23.142  24.632  1.00  0.00     0.016 A 
ATOM     28  C   UNL A   1      45.154  23.777  26.767  1.00  0.00     0.010 A 
ATOM     29  C   UNL A   1      43.239  24.296  25.335  1.00  0.00     0.010 A 
ATOM     30  C   UNL A   1      44.039  24.558  26.442  1.00  0.00    -0.014 A 
BRANCH  30  31
ATOM     31  C   UNL A   1      43.804  25.776  27.184  1.00  0.00     0.031 A 
ATOM     32  C   UNL A   1      44.845  26.790  26.908  1.00  0.00     0.074 A 
ATOM     33  C   UNL A   1      42.683  25.982  27.902  1.00  0.00     0.049 A 
ATOM     34  N   UNL A   1      45.773  27.196  27.706  1.00  0.00    -0.248 NA
ATOM     35  C   UNL A   1      45.023  27.230  25.511  1.00  0.00     0.031 C 
ATOM     36  C   UNL A   1      41.491  25.133  27.989  1.00  0.00     0.029 A 
ATOM     37  N   UNL A   1      42.332  27.066  28.642  1.00  0.00    -0.354 N 
ATOM     38  C   UNL A   1      46.477  28.153  26.985  1.00  0.00     0.074 A 
ATOM     39  C   UNL A   1      46.144  27.944  25.602  1.00  0.00     0.031 C 
ATOM     40  C   UNL A   1      40.478  25.841  28.542  1.00  0.00     0.029 A 
ATOM     41  C   UNL A   1      40.979  27.139  28.961  1.00  0.00     0.049 A 
ATOM     42  H   UNL A   1      42.983  27.746  28.929  1.00  0.00     0.167 HD
ATOM     43  C   UNL A   1      47.009  29.236  27.611  1.00  0.00     0.037 A 
ATOM     44  C   UNL A   1      40.331  28.225  29.459  1.00  0.00     0.037 A 
ATOM     45  C   UNL A   1      47.136  28.998  29.029  1.00  0.00     0.049 A 
ATOM     46  C   UNL A   1      41.373  29.113  30.049  1.00  0.00     0.074 A 
ATOM     47  C   UNL A   1      47.779  28.047  29.799  1.00  0.00     0.029 A 
ATOM     48  N   UNL A   1      46.203  29.580  29.855  1.00  0.00    -0.354 N 
ATOM     49  N   UNL A   1      42.084  28.793  31.098  1.00  0.00    -0.248 NA
ATOM     50  C   UNL A   1      41.965  30.123  29.185  1.00  0.00     0.031 C 
ATOM     51  C   UNL A   1      46.889  27.780  30.880  1.00  0.00     0.029 A 
ATOM     52  C   UNL A   1      45.791  28.633  30.758  1.00  0.00     0.049 A 
ATOM     53  H   UNL A   1      45.886  30.510  29.807  1.00  0.00     0.167 HD
ATOM     54  C   UNL A   1      43.372  29.218  30.799  1.00  0.00     0.074 A 
ATOM     55  C   UNL A   1      43.222  30.094  29.638  1.00  0.00     0.031 C 
ATOM     56  C   UNL A   1      44.464  28.592  31.332  1.00  0.00     0.037 A 
BRANCH  43  57
ATOM     57  C   UNL A   1      46.995  30.626  27.018  1.00  0.00     0.058 A 
ATOM     58  C   UNL A   1      48.182  31.383  27.037  1.00  0.00     0.135 A 
ATOM     59  C   UNL A   1      45.819  31.347  26.702  1.00  0.00     0.135 A 
ATOM     60  F   UNL A   1      49.357  30.803  27.330  1.00  0.00    -0.206 F 
ATOM     61  C   UNL A   1      48.189  32.764  26.845  1.00  0.00     0.059 A 
ATOM     62  C   UNL A   1      45.812  32.713  26.451  1.00  0.00     0.059 A 
ATOM     63  F   UNL A   1      44.601  30.797  26.717  1.00  0.00    -0.206 F 
ATOM     64  C   UNL A   1      46.994  33.421  26.568  1.00  0.00     0.060 A 
BRANCH  64  65
ATOM     65  S   UNL A   1      46.978  35.213  26.418  1.00  0.00     0.124 S 
ATOM     66  O   UNL A   1      45.582  35.461  26.078  1.00  0.00    -0.237 OA
ATOM     67  O   UNL A   1      47.397  35.628  27.753  1.00  0.00    -0.237 OA
ATOM     68  O   UNL A   1      47.945  35.470  25.355  1.00  0.00    -0.744 OA
ENDBRANCH  64  65
ENDBRANCH  43  57
BRANCH  44  69
ATOM     69  C   UNL A   1      38.967  28.721  29.113  1.00  0.00     0.058 A 
ATOM     70  C   UNL A   1      37.974  28.884  30.098  1.00  0.00     0.135 A 
ATOM     71  C   UNL A   1      38.695  29.316  27.864  1.00  0.00     0.135 A 
ATOM     72  F   UNL A   1      38.151  28.372  31.326  1.00  0.00    -0.206 F 
ATOM     73  C   UNL A   1      36.811  29.634  29.875  1.00  0.00     0.059 A 
ATOM     74  C   UNL A   1      37.541  30.057  27.615  1.00  0.00     0.059 A 
ATOM     75  F   UNL A   1      39.592  29.273  26.867  1.00  0.00    -0.206 F 
ATOM     76  C   UNL A   1      36.613  30.235  28.632  1.00  0.00     0.060 A 
BRANCH  76  77
ATOM     77  S   UNL A   1      35.205  31.346  28.386  1.00  0.00     0.124 S 
ATOM     78  O   UNL A   1      34.844  31.688  29.758  1.00  0.00    -0.237 OA
ATOM     79  O   UNL A   1      35.791  32.421  27.593  1.00  0.00    -0.237 OA
ATOM     80  O   UNL A   1      34.237  30.513  27.677  1.00  0.00    -0.744 OA
ENDBRANCH  76  77
ENDBRANCH  44  69
BRANCH  56  81
ATOM     81  C   UNL A   1      44.250  27.632  32.476  1.00  0.00     0.058 A 
ATOM     82  C   UNL A   1      44.045  28.010  33.816  1.00  0.00     0.135 A 
ATOM     83  C   UNL A   1      44.101  26.272  32.166  1.00  0.00     0.135 A 
ATOM     84  F   UNL A   1      44.064  29.300  34.181  1.00  0.00    -0.206 F 
ATOM     85  C   UNL A   1      43.752  27.070  34.809  1.00  0.00     0.059 A 
ATOM     86  C   UNL A   1      43.777  25.324  33.132  1.00  0.00     0.059 A 
ATOM     87  F   UNL A   1      44.220  25.855  30.895  1.00  0.00    -0.206 F 
ATOM     88  C   UNL A   1      43.621  25.726  34.455  1.00  0.00     0.060 A 
BRANCH  88  89
ATOM     89  S   UNL A   1      43.187  24.516  35.723  1.00  0.00     0.124 S 
ATOM     90  O   UNL A   1      44.344  23.627  35.709  1.00  0.00    -0.237 OA
ATOM     91  O   UNL A   1      43.039  25.345  36.917  1.00  0.00    -0.237 OA
ATOM     92  O   UNL A   1      41.944  23.930  35.226  1.00  0.00    -0.744 OA
ENDBRANCH  88  89
ENDBRANCH  56  81
ENDBRANCH  30  31
ENDBRANCH  23  25
ENDBRANCH  22  23
ENDBRANCH   1  22
TORSDOF 17
ENDMDL
MODEL 3
REMARK VINA RESULT:     -11.0      3.970     11.297
REMARK SMILES COc1cc(OC)cc(-n2nnc(C(=O)OCCOC(=O)c3ccc(-c4c5nc(c(-c6c(F)cc(S(=O)(=O)[O-])cc6F)c6ccc([nH]6)c(-c6c(F)cc(S(=O)(=O)[O-])cc6F)c6nc(c(-c7c(F)cc(S(=O)(=O)[O-])cc7F)c7ccc4[nH]7)C=C6)C=C5)cc3)c2C)c1
REMARK SMILES IDX 18 1 17 2 16 3 14 4 15 5 13 6 10 7 11 8 88 9 12 10 89 11
REMARK SMILES IDX 9 12 3 13 4 14 90 15 5 16 8 17 2 18 1 19 6 20 7 21 19 22
REMARK SMILES IDX 20 23 21 24 22 25 23 26 87 27 24 28 86 29 25 30 26 31 27 32
REMARK SMILES IDX 80 33 28 34 85 35 79 36 81 37 29 38 84 39 78 40 77 41 30 43
REMARK SMILES IDX 64 44 43 45 63 46 44 47 47 48 62 49 82 50 45 51 46 52 61 54
REMARK SMILES IDX 83 55 48 56 31 57 32 58 41 59 33 60 34 61 40 62 42 63 35 64
REMARK SMILES IDX 36 65 37 66 38 67 39 68 65 69 66 70 75 71 67 72 68 73 74 74
REMARK SMILES IDX 76 75 69 76 70 77 71 78 72 79 73 80 49 81 50 82 59 83 51 84
REMARK SMILES IDX 52 85 58 86 60 87 53 88 54 89 55 90 56 91 57 92
REMARK H PARENT 81 42 47 53
REMARK Flexibility Score: inf
ROOT
ATOM      1  C   UNL A   1      42.460  19.391  25.741  1.00  0.00     0.275 C 
ENDROOT
BRANCH   1   2
ATOM      2  C   UNL A   1      41.456  19.805  26.804  1.00  0.00     0.275 C 
BRANCH   2   3
ATOM      3  O   UNL A   1      40.189  20.110  26.203  1.00  0.00    -0.457 OA
BRANCH   3   4
ATOM      4  C   UNL A   1      39.848  21.428  26.051  1.00  0.00     0.360 C 
ATOM      5  O   UNL A   1      40.633  22.361  26.202  1.00  0.00    -0.244 OA
BRANCH   4   6
ATOM      6  C   UNL A   1      38.452  21.579  25.660  1.00  0.00     0.193 A 
ATOM      7  N   UNL A   1      36.450  22.337  25.268  1.00  0.00    -0.217 N 
ATOM      8  N   UNL A   1      36.440  21.022  24.974  1.00  0.00    -0.061 NA
ATOM      9  C   UNL A   1      37.662  22.707  25.807  1.00  0.00     0.076 A 
ATOM     10  N   UNL A   1      37.679  20.565  25.142  1.00  0.00    -0.122 NA
ATOM     11  C   UNL A   1      37.929  24.015  26.458  1.00  0.00     0.069 C 
BRANCH   7  12
ATOM     12  C   UNL A   1      35.414  23.202  24.880  1.00  0.00     0.074 A 
ATOM     13  C   UNL A   1      33.286  24.189  25.445  1.00  0.00     0.124 A 
ATOM     14  C   UNL A   1      33.134  24.539  24.104  1.00  0.00     0.093 A 
ATOM     15  C   UNL A   1      34.425  23.499  25.830  1.00  0.00     0.075 A 
ATOM     16  C   UNL A   1      34.131  24.255  23.157  1.00  0.00     0.124 A 
ATOM     17  C   UNL A   1      35.310  23.622  23.554  1.00  0.00     0.075 A 
BRANCH  13  18
ATOM     18  O   UNL A   1      32.242  24.486  26.277  1.00  0.00    -0.497 OA
ATOM     19  C   UNL A   1      31.803  23.425  27.121  1.00  0.00     0.278 C 
ENDBRANCH  13  18
BRANCH  16  20
ATOM     20  O   UNL A   1      33.819  24.622  21.875  1.00  0.00    -0.497 OA
ATOM     21  C   UNL A   1      32.852  25.657  21.734  1.00  0.00     0.278 C 
ENDBRANCH  16  20
ENDBRANCH   7  12
ENDBRANCH   4   6
ENDBRANCH   3   4
ENDBRANCH   2   3
ENDBRANCH   1   2
BRANCH   1  22
ATOM     22  O   UNL A   1      43.677  20.105  25.931  1.00  0.00    -0.458 OA
BRANCH  22  23
ATOM     23  C   UNL A   1      44.180  20.725  24.839  1.00  0.00     0.338 C 
ATOM     24  O   UNL A   1      44.589  20.193  23.821  1.00  0.00    -0.246 OA
BRANCH  23  25
ATOM     25  C   UNL A   1      44.397  22.133  25.186  1.00  0.00     0.060 A 
ATOM     26  C   UNL A   1      45.204  22.404  26.294  1.00  0.00     0.016 A 
ATOM     27  C   UNL A   1      43.558  23.106  24.622  1.00  0.00     0.016 A 
ATOM     28  C   UNL A   1      45.008  23.593  26.963  1.00  0.00     0.010 A 
ATOM     29  C   UNL A   1      43.341  24.272  25.307  1.00  0.00     0.010 A 
ATOM     30  C   UNL A   1      44.012  24.465  26.509  1.00  0.00    -0.014 A 
BRANCH  30  31
ATOM     31  C   UNL A   1      43.783  25.695  27.233  1.00  0.00     0.031 A 
ATOM     32  C   UNL A   1      44.831  26.698  26.940  1.00  0.00     0.074 A 
ATOM     33  C   UNL A   1      42.664  25.919  27.946  1.00  0.00     0.049 A 
ATOM     34  N   UNL A   1      45.761  27.112  27.733  1.00  0.00    -0.248 NA
ATOM     35  C   UNL A   1      45.012  27.115  25.537  1.00  0.00     0.031 C 
ATOM     36  C   UNL A   1      41.467  25.079  28.046  1.00  0.00     0.029 A 
ATOM     37  N   UNL A   1      42.318  27.016  28.669  1.00  0.00    -0.354 N 
ATOM     38  C   UNL A   1      46.471  28.052  26.997  1.00  0.00     0.074 A 
ATOM     39  C   UNL A   1      46.137  27.824  25.617  1.00  0.00     0.031 C 
ATOM     40  C   UNL A   1      40.458  25.801  28.588  1.00  0.00     0.029 A 
ATOM     41  C   UNL A   1      40.966  27.102  28.987  1.00  0.00     0.049 A 
ATOM     42  H   UNL A   1      42.974  27.697  28.946  1.00  0.00     0.167 HD
ATOM     43  C   UNL A   1      47.009  29.142  27.607  1.00  0.00     0.037 A 
ATOM     44  C   UNL A   1      40.325  28.200  29.468  1.00  0.00     0.037 A 
ATOM     45  C   UNL A   1      47.134  28.926  29.028  1.00  0.00     0.049 A 
ATOM     46  C   UNL A   1      41.372  29.091  30.044  1.00  0.00     0.074 A 
ATOM     47  C   UNL A   1      47.772  27.983  29.813  1.00  0.00     0.029 A 
ATOM     48  N   UNL A   1      46.204  29.526  29.844  1.00  0.00    -0.354 N 
ATOM     49  N   UNL A   1      42.081  28.783  31.098  1.00  0.00    -0.248 NA
ATOM     50  C   UNL A   1      41.970  30.084  29.164  1.00  0.00     0.031 C 
ATOM     51  C   UNL A   1      46.879  27.738  30.898  1.00  0.00     0.029 A 
ATOM     52  C   UNL A   1      45.787  28.596  30.762  1.00  0.00     0.049 A 
ATOM     53  H   UNL A   1      45.893  30.457  29.781  1.00  0.00     0.167 HD
ATOM     54  C   UNL A   1      43.371  29.196  30.793  1.00  0.00     0.074 A 
ATOM     55  C   UNL A   1      43.226  30.055  29.619  1.00  0.00     0.031 C 
ATOM     56  C   UNL A   1      44.459  28.572  31.336  1.00  0.00     0.037 A 
BRANCH  43  57
ATOM     57  C   UNL A   1      47.004  30.522  26.991  1.00  0.00     0.058 A 
ATOM     58  C   UNL A   1      48.188  31.283  27.024  1.00  0.00     0.135 A 
ATOM     59  C   UNL A   1      45.833  31.236  26.640  1.00  0.00     0.135 A 
ATOM     60  F   UNL A   1      49.358  30.711  27.350  1.00  0.00    -0.206 F 
ATOM     61  C   UNL A   1      48.195  32.662  26.810  1.00  0.00     0.059 A 
ATOM     62  C   UNL A   1      45.827  32.597  26.368  1.00  0.00     0.059 A 
ATOM     63  F   UNL A   1      44.615  30.682  26.639  1.00  0.00    -0.206 F 
ATOM     64  C   UNL A   1      47.004  33.311  26.498  1.00  0.00     0.060 A 
BRANCH  64  65
ATOM     65  S   UNL A   1      46.987  35.100  26.320  1.00  0.00     0.124 S 
ATOM     66  O   UNL A   1      48.135  35.314  25.447  1.00  0.00    -0.237 OA
ATOM     67  O   UNL A   1      45.675  35.328  25.723  1.00  0.00    -0.237 OA
ATOM     68  O   UNL A   1      47.137  35.575  27.692  1.00  0.00    -0.744 OA
ENDBRANCH  64  65
ENDBRANCH  43  57
BRANCH  44  69
ATOM     69  C   UNL A   1      38.964  28.698  29.113  1.00  0.00     0.058 A 
ATOM     70  C   UNL A   1      37.963  28.856  30.091  1.00  0.00     0.135 A 
ATOM     71  C   UNL A   1      38.703  29.301  27.866  1.00  0.00     0.135 A 
ATOM     72  F   UNL A   1      38.129  28.336  31.317  1.00  0.00    -0.206 F 
ATOM     73  C   UNL A   1      36.801  29.607  29.863  1.00  0.00     0.059 A 
ATOM     74  C   UNL A   1      37.551  30.045  27.612  1.00  0.00     0.059 A 
ATOM     75  F   UNL A   1      39.607  29.265  26.876  1.00  0.00    -0.206 F 
ATOM     76  C   UNL A   1      36.615  30.217  28.622  1.00  0.00     0.060 A 
BRANCH  76  77
ATOM     77  S   UNL A   1      35.208  31.330  28.371  1.00  0.00     0.124 S 
ATOM     78  O   UNL A   1      34.263  30.469  27.668  1.00  0.00    -0.237 OA
ATOM     79  O   UNL A   1      34.849  31.690  29.738  1.00  0.00    -0.237 OA
ATOM     80  O   UNL A   1      35.774  32.415  27.573  1.00  0.00    -0.744 OA
ENDBRANCH  76  77
ENDBRANCH  44  69
BRANCH  56  81
ATOM     81  C   UNL A   1      44.239  27.631  32.495  1.00  0.00     0.058 A 
ATOM     82  C   UNL A   1      44.028  28.031  33.828  1.00  0.00     0.135 A 
ATOM     83  C   UNL A   1      44.091  26.267  32.207  1.00  0.00     0.135 A 
ATOM     84  F   UNL A   1      44.047  29.327  34.171  1.00  0.00    -0.206 F 
ATOM     85  C   UNL A   1      43.730  27.108  34.834  1.00  0.00     0.059 A 
ATOM     86  C   UNL A   1      43.762  25.335  33.187  1.00  0.00     0.059 A 
ATOM     87  F   UNL A   1      44.216  25.828  30.944  1.00  0.00    -0.206 F 
ATOM     88  C   UNL A   1      43.600  25.759  34.503  1.00  0.00     0.060 A 
BRANCH  88  89
ATOM     89  S   UNL A   1      43.159  24.570  35.789  1.00  0.00     0.124 S 
ATOM     90  O   UNL A   1      42.894  23.363  35.013  1.00  0.00    -0.237 OA
ATOM     91  O   UNL A   1      44.360  24.540  36.620  1.00  0.00    -0.237 OA
ATOM     92  O   UNL A   1      41.988  25.172  36.424  1.00  0.00    -0.744 OA
ENDBRANCH  88  89
ENDBRANCH  56  81
ENDBRANCH  30  31
ENDBRANCH  23  25
ENDBRANCH  22  23
ENDBRANCH   1  22
TORSDOF 17
ENDMDL
