MODEL 1
REMARK VINA RESULT:     -12.9      0.000      0.000
REMARK SMILES Cc1ccc(C(=O)[C@@H](C)[C@H](C)C(=O)OCCOC(=O)c2ccc(-c3c4nc(c(-c5c(F)cc(S(=O)(=O)[O-])cc5F)c5ccc([nH]5)c(-c5c(F)cc(S(=O)(=O)[O-])cc5F)c5nc(c(-c6c(F)cc(S(=O)(=O)[O-])cc6F)c6ccc3[nH]6)C=C5)C=C4)cc2)cc1
REMARK SMILES IDX 15 1 14 2 12 3 13 4 10 5 11 6 8 7 9 8 6 9 7 10 5 11 1 12
REMARK SMILES IDX 2 13 3 14 87 15 4 16 86 17 16 18 17 19 18 20 19 21 20 22
REMARK SMILES IDX 21 23 85 24 22 25 84 26 23 27 24 28 25 29 78 30 26 31 83 32
REMARK SMILES IDX 77 33 79 34 27 35 82 36 76 37 75 38 28 40 62 41 41 42 61 43
REMARK SMILES IDX 42 44 45 45 60 46 80 47 43 48 44 49 59 51 81 52 46 53 29 54
REMARK SMILES IDX 30 55 39 56 31 57 32 58 38 59 40 60 33 61 34 62 35 63 36 64
REMARK SMILES IDX 37 65 63 66 64 67 73 68 65 69 66 70 72 71 74 72 67 73 68 74
REMARK SMILES IDX 69 75 70 76 71 77 47 78 48 79 57 80 49 81 50 82 56 83 58 84
REMARK SMILES IDX 51 85 52 86 53 87 54 88 55 89
REMARK H PARENT 79 39 45 50
REMARK Flexibility Score: inf
ROOT
ATOM      1  C   UNL A   1      33.020  30.466  26.709  1.00  0.00     0.274 C 
ENDROOT
BRANCH   1   2
ATOM      2  O   UNL A   1      32.113  29.480  27.164  1.00  0.00    -0.462 OA
BRANCH   2   3
ATOM      3  C   UNL A   1      32.072  28.164  26.690  1.00  0.00     0.309 C 
ATOM      4  O   UNL A   1      31.406  27.677  27.631  1.00  0.00    -0.252 OA
BRANCH   3   5
ATOM      5  C   UNL A   1      32.620  27.416  24.696  1.00  0.00     0.106 C 
ATOM      6  C   UNL A   1      34.017  27.823  23.677  1.00  0.00     0.021 C 
BRANCH   5   7
ATOM      7  C   UNL A   1      32.259  25.914  23.687  1.00  0.00     0.072 C 
ATOM      8  C   UNL A   1      31.161  25.783  22.599  1.00  0.00     0.017 C 
BRANCH   7   9
ATOM      9  C   UNL A   1      32.809  24.448  23.960  1.00  0.00     0.166 C 
ATOM     10  O   UNL A   1      32.077  23.472  23.744  1.00  0.00    -0.294 OA
BRANCH   9  11
ATOM     11  C   UNL A   1      34.191  24.106  24.384  1.00  0.00     0.018 A 
ATOM     12  C   UNL A   1      38.054  22.632  25.599  1.00  0.00     0.044 C 
ATOM     13  C   UNL A   1      36.728  23.192  25.191  1.00  0.00    -0.051 A 
ATOM     14  C   UNL A   1      35.877  23.823  26.107  1.00  0.00     0.004 A 
ATOM     15  C   UNL A   1      36.349  23.135  23.859  1.00  0.00     0.004 A 
ATOM     16  C   UNL A   1      34.606  24.265  25.709  1.00  0.00     0.012 A 
ATOM     17  C   UNL A   1      35.115  23.644  23.479  1.00  0.00     0.012 A 
ENDBRANCH   9  11
ENDBRANCH   7   9
ENDBRANCH   5   7
ENDBRANCH   3   5
ENDBRANCH   2   3
ENDBRANCH   1   2
BRANCH   1  18
ATOM     18  C   UNL A   1      33.888  30.645  27.951  1.00  0.00     0.275 C 
BRANCH  18  19
ATOM     19  O   UNL A   1      34.897  31.750  27.966  1.00  0.00    -0.458 OA
BRANCH  19  20
ATOM     20  C   UNL A   1      36.227  31.711  28.364  1.00  0.00     0.338 C 
ATOM     21  O   UNL A   1      36.804  32.679  28.835  1.00  0.00    -0.246 OA
BRANCH  20  22
ATOM     22  C   UNL A   1      36.767  30.329  28.574  1.00  0.00     0.060 A 
ATOM     23  C   UNL A   1      36.908  29.456  30.159  1.00  0.00     0.016 A 
ATOM     24  C   UNL A   1      37.882  29.880  27.232  1.00  0.00     0.016 A 
ATOM     25  C   UNL A   1      38.167  28.123  30.352  1.00  0.00     0.010 A 
ATOM     26  C   UNL A   1      39.166  28.712  27.484  1.00  0.00     0.010 A 
ATOM     27  C   UNL A   1      39.348  27.806  28.994  1.00  0.00    -0.014 A 
BRANCH  27  28
ATOM     28  C   UNL A   1      40.774  27.330  29.043  1.00  0.00     0.031 A 
ATOM     29  C   UNL A   1      41.123  26.016  28.462  1.00  0.00     0.074 A 
ATOM     30  C   UNL A   1      41.822  28.118  29.384  1.00  0.00     0.049 A 
ATOM     31  N   UNL A   1      41.684  25.060  29.128  1.00  0.00    -0.248 NA
ATOM     32  C   UNL A   1      40.792  25.637  27.085  1.00  0.00     0.031 C 
ATOM     33  C   UNL A   1      43.253  27.861  29.253  1.00  0.00     0.029 A 
ATOM     34  N   UNL A   1      41.810  29.323  30.064  1.00  0.00    -0.354 N 
ATOM     35  C   UNL A   1      41.974  24.081  28.200  1.00  0.00     0.074 A 
ATOM     36  C   UNL A   1      41.174  24.361  27.036  1.00  0.00     0.031 C 
ATOM     37  C   UNL A   1      43.910  28.667  30.113  1.00  0.00     0.029 A 
ATOM     38  C   UNL A   1      42.916  29.400  30.887  1.00  0.00     0.049 A 
ATOM     39  H   UNL A   1      41.120  30.018  29.975  1.00  0.00     0.167 HD
ATOM     40  C   UNL A   1      43.130  23.363  28.230  1.00  0.00     0.037 A 
ATOM     41  C   UNL A   1      42.774  29.467  32.243  1.00  0.00     0.037 A 
ATOM     42  C   UNL A   1      44.080  23.979  29.141  1.00  0.00     0.049 A 
ATOM     43  C   UNL A   1      43.290  28.197  32.895  1.00  0.00     0.074 A 
ATOM     44  C   UNL A   1      45.143  24.846  28.941  1.00  0.00     0.029 A 
ATOM     45  N   UNL A   1      43.787  24.048  30.484  1.00  0.00    -0.354 N 
ATOM     46  N   UNL A   1      43.728  27.168  32.221  1.00  0.00    -0.248 NA
ATOM     47  C   UNL A   1      43.313  27.947  34.334  1.00  0.00     0.031 C 
ATOM     48  C   UNL A   1      45.520  25.386  30.200  1.00  0.00     0.029 A 
ATOM     49  C   UNL A   1      44.686  24.844  31.159  1.00  0.00     0.049 A 
ATOM     50  H   UNL A   1      43.029  23.586  30.911  1.00  0.00     0.167 HD
ATOM     51  C   UNL A   1      44.073  26.153  33.068  1.00  0.00     0.074 A 
ATOM     52  C   UNL A   1      43.774  26.683  34.385  1.00  0.00     0.031 C 
ATOM     53  C   UNL A   1      44.562  24.964  32.602  1.00  0.00     0.037 A 
BRANCH  40  54
ATOM     54  C   UNL A   1      43.480  22.386  27.135  1.00  0.00     0.058 A 
ATOM     55  C   UNL A   1      42.850  21.135  27.027  1.00  0.00     0.135 A 
ATOM     56  C   UNL A   1      44.453  22.664  26.145  1.00  0.00     0.135 A 
ATOM     57  F   UNL A   1      41.863  20.771  27.854  1.00  0.00    -0.206 F 
ATOM     58  C   UNL A   1      43.219  20.189  26.072  1.00  0.00     0.059 A 
ATOM     59  C   UNL A   1      44.865  21.719  25.200  1.00  0.00     0.059 A 
ATOM     60  F   UNL A   1      45.051  23.867  26.091  1.00  0.00    -0.206 F 
ATOM     61  C   UNL A   1      44.242  20.478  25.177  1.00  0.00     0.060 A 
BRANCH  61  62
ATOM     62  S   UNL A   1      44.738  19.198  24.009  1.00  0.00     0.124 S 
ATOM     63  O   UNL A   1      46.140  18.992  24.361  1.00  0.00    -0.237 OA
ATOM     64  O   UNL A   1      43.831  18.108  24.355  1.00  0.00    -0.237 OA
ATOM     65  O   UNL A   1      44.512  19.818  22.707  1.00  0.00    -0.744 OA
ENDBRANCH  61  62
ENDBRANCH  40  54
BRANCH  41  66
ATOM     66  C   UNL A   1      41.605  30.300  32.688  1.00  0.00     0.058 A 
ATOM     67  C   UNL A   1      40.420  29.625  33.063  1.00  0.00     0.135 A 
ATOM     68  C   UNL A   1      41.721  31.634  33.103  1.00  0.00     0.135 A 
ATOM     69  F   UNL A   1      40.218  28.358  32.666  1.00  0.00    -0.206 F 
ATOM     70  C   UNL A   1      39.481  30.186  33.931  1.00  0.00     0.059 A 
ATOM     71  C   UNL A   1      40.774  32.228  33.953  1.00  0.00     0.059 A 
ATOM     72  F   UNL A   1      42.816  32.344  32.795  1.00  0.00    -0.206 F 
ATOM     73  C   UNL A   1      39.693  31.472  34.413  1.00  0.00     0.060 A 
BRANCH  73  74
ATOM     74  S   UNL A   1      38.598  32.088  35.721  1.00  0.00     0.124 S 
ATOM     75  O   UNL A   1      37.298  32.092  35.058  1.00  0.00    -0.237 OA
ATOM     76  O   UNL A   1      38.767  31.083  36.767  1.00  0.00    -0.237 OA
ATOM     77  O   UNL A   1      39.148  33.404  36.028  1.00  0.00    -0.744 OA
ENDBRANCH  73  74
ENDBRANCH  41  66
BRANCH  53  78
ATOM     78  C   UNL A   1      44.980  23.790  33.450  1.00  0.00     0.058 A 
ATOM     79  C   UNL A   1      44.070  22.844  33.940  1.00  0.00     0.135 A 
ATOM     80  C   UNL A   1      46.315  23.646  33.908  1.00  0.00     0.135 A 
ATOM     81  F   UNL A   1      42.756  22.953  33.686  1.00  0.00    -0.206 F 
ATOM     82  C   UNL A   1      44.472  21.772  34.738  1.00  0.00     0.059 A 
ATOM     83  C   UNL A   1      46.726  22.623  34.750  1.00  0.00     0.059 A 
ATOM     84  F   UNL A   1      47.295  24.478  33.539  1.00  0.00    -0.206 F 
ATOM     85  C   UNL A   1      45.806  21.664  35.127  1.00  0.00     0.060 A 
BRANCH  85  86
ATOM     86  S   UNL A   1      46.332  20.270  36.132  1.00  0.00     0.124 S 
ATOM     87  O   UNL A   1      45.806  19.131  35.386  1.00  0.00    -0.237 OA
ATOM     88  O   UNL A   1      47.783  20.429  36.108  1.00  0.00    -0.237 OA
ATOM     89  O   UNL A   1      45.695  20.516  37.422  1.00  0.00    -0.744 OA
ENDBRANCH  85  86
ENDBRANCH  53  78
ENDBRANCH  27  28
ENDBRANCH  20  22
ENDBRANCH  19  20
ENDBRANCH  18  19
ENDBRANCH   1  18
TORSDOF 17
ENDMDL
MODEL 2
REMARK VINA RESULT:     -12.8      1.621      3.232
REMARK SMILES Cc1ccc(C(=O)[C@@H](C)[C@H](C)C(=O)OCCOC(=O)c2ccc(-c3c4nc(c(-c5c(F)cc(S(=O)(=O)[O-])cc5F)c5ccc([nH]5)c(-c5c(F)cc(S(=O)(=O)[O-])cc5F)c5nc(c(-c6c(F)cc(S(=O)(=O)[O-])cc6F)c6ccc3[nH]6)C=C5)C=C4)cc2)cc1
REMARK SMILES IDX 15 1 14 2 12 3 13 4 10 5 11 6 8 7 9 8 6 9 7 10 5 11 1 12
REMARK SMILES IDX 2 13 3 14 87 15 4 16 86 17 16 18 17 19 18 20 19 21 20 22
REMARK SMILES IDX 21 23 85 24 22 25 84 26 23 27 24 28 25 29 78 30 26 31 83 32
REMARK SMILES IDX 77 33 79 34 27 35 82 36 76 37 75 38 28 40 62 41 41 42 61 43
REMARK SMILES IDX 42 44 45 45 60 46 80 47 43 48 44 49 59 51 81 52 46 53 29 54
REMARK SMILES IDX 30 55 39 56 31 57 32 58 38 59 40 60 33 61 34 62 35 63 36 64
REMARK SMILES IDX 37 65 63 66 64 67 73 68 65 69 66 70 72 71 74 72 67 73 68 74
REMARK SMILES IDX 69 75 70 76 71 77 47 78 48 79 57 80 49 81 50 82 56 83 58 84
REMARK SMILES IDX 51 85 52 86 53 87 54 88 55 89
REMARK H PARENT 79 39 45 50
REMARK Flexibility Score: inf
ROOT
ATOM      1  C   UNL A   1      32.974  30.464  27.323  1.00  0.00     0.274 C 
ENDROOT
BRANCH   1   2
ATOM      2  O   UNL A   1      33.436  29.856  26.133  1.00  0.00    -0.462 OA
BRANCH   2   3
ATOM      3  C   UNL A   1      33.987  28.571  26.063  1.00  0.00     0.309 C 
ATOM      4  O   UNL A   1      34.713  28.654  27.080  1.00  0.00    -0.252 OA
BRANCH   3   5
ATOM      5  C   UNL A   1      33.348  26.881  24.809  1.00  0.00     0.106 C 
ATOM      6  C   UNL A   1      33.528  25.135  25.080  1.00  0.00     0.021 C 
BRANCH   5   7
ATOM      7  C   UNL A   1      32.082  26.596  23.496  1.00  0.00     0.072 C 
ATOM      8  C   UNL A   1      32.362  26.385  21.985  1.00  0.00     0.017 C 
BRANCH   7   9
ATOM      9  C   UNL A   1      30.514  26.803  23.646  1.00  0.00     0.166 C 
ATOM     10  O   UNL A   1      29.809  25.861  24.031  1.00  0.00    -0.294 OA
BRANCH   9  11
ATOM     11  C   UNL A   1      29.786  28.082  23.446  1.00  0.00     0.018 A 
ATOM     12  C   UNL A   1      27.611  31.802  23.366  1.00  0.00     0.044 C 
ATOM     13  C   UNL A   1      28.360  30.508  23.342  1.00  0.00    -0.051 A 
ATOM     14  C   UNL A   1      27.769  29.318  22.900  1.00  0.00     0.004 A 
ATOM     15  C   UNL A   1      29.696  30.490  23.716  1.00  0.00     0.004 A 
ATOM     16  C   UNL A   1      28.474  28.106  22.966  1.00  0.00     0.012 A 
ATOM     17  C   UNL A   1      30.390  29.289  23.705  1.00  0.00     0.012 A 
ENDBRANCH   9  11
ENDBRANCH   7   9
ENDBRANCH   5   7
ENDBRANCH   3   5
ENDBRANCH   2   3
ENDBRANCH   1   2
BRANCH   1  18
ATOM     18  C   UNL A   1      33.909  31.666  27.407  1.00  0.00     0.275 C 
BRANCH  18  19
ATOM     19  O   UNL A   1      34.845  31.766  28.571  1.00  0.00    -0.458 OA
BRANCH  19  20
ATOM     20  C   UNL A   1      36.233  31.715  28.581  1.00  0.00     0.338 C 
ATOM     21  O   UNL A   1      36.928  32.698  28.788  1.00  0.00    -0.246 OA
BRANCH  20  22
ATOM     22  C   UNL A   1      36.797  30.338  28.748  1.00  0.00     0.060 A 
ATOM     23  C   UNL A   1      36.929  29.406  30.301  1.00  0.00     0.016 A 
ATOM     24  C   UNL A   1      37.945  29.963  27.409  1.00  0.00     0.016 A 
ATOM     25  C   UNL A   1      38.213  28.093  30.464  1.00  0.00     0.010 A 
ATOM     26  C   UNL A   1      39.248  28.812  27.640  1.00  0.00     0.010 A 
ATOM     27  C   UNL A   1      39.423  27.853  29.116  1.00  0.00    -0.014 A 
BRANCH  27  28
ATOM     28  C   UNL A   1      40.857  27.404  29.172  1.00  0.00     0.031 A 
ATOM     29  C   UNL A   1      41.239  26.108  28.569  1.00  0.00     0.074 A 
ATOM     30  C   UNL A   1      41.886  28.205  29.541  1.00  0.00     0.049 A 
ATOM     31  N   UNL A   1      41.811  25.151  29.223  1.00  0.00    -0.248 NA
ATOM     32  C   UNL A   1      40.931  25.751  27.181  1.00  0.00     0.031 C 
ATOM     33  C   UNL A   1      43.323  27.979  29.421  1.00  0.00     0.029 A 
ATOM     34  N   UNL A   1      41.843  29.395  30.246  1.00  0.00    -0.354 N 
ATOM     35  C   UNL A   1      42.131  24.196  28.278  1.00  0.00     0.074 A 
ATOM     36  C   UNL A   1      41.339  24.485  27.111  1.00  0.00     0.031 C 
ATOM     37  C   UNL A   1      43.954  28.779  30.306  1.00  0.00     0.029 A 
ATOM     38  C   UNL A   1      42.937  29.477  31.082  1.00  0.00     0.049 A 
ATOM     39  H   UNL A   1      41.140  30.078  30.163  1.00  0.00     0.167 HD
ATOM     40  C   UNL A   1      43.301  23.501  28.307  1.00  0.00     0.037 A 
ATOM     41  C   UNL A   1      42.779  29.514  32.437  1.00  0.00     0.037 A 
ATOM     42  C   UNL A   1      44.228  24.117  29.241  1.00  0.00     0.049 A 
ATOM     43  C   UNL A   1      43.313  28.241  33.070  1.00  0.00     0.074 A 
ATOM     44  C   UNL A   1      45.276  25.008  29.071  1.00  0.00     0.029 A 
ATOM     45  N   UNL A   1      43.918  24.153  30.582  1.00  0.00    -0.354 N 
ATOM     46  N   UNL A   1      43.778  27.235  32.381  1.00  0.00    -0.248 NA
ATOM     47  C   UNL A   1      43.325  27.962  34.504  1.00  0.00     0.031 C 
ATOM     48  C   UNL A   1      45.628  25.530  30.345  1.00  0.00     0.029 A 
ATOM     49  C   UNL A   1      44.795  24.952  31.283  1.00  0.00     0.049 A 
ATOM     50  H   UNL A   1      43.166  23.667  30.990  1.00  0.00     0.167 HD
ATOM     51  C   UNL A   1      44.134  26.209  33.210  1.00  0.00     0.074 A 
ATOM     52  C   UNL A   1      43.810  26.707  34.535  1.00  0.00     0.031 C 
ATOM     53  C   UNL A   1      44.652  25.040  32.726  1.00  0.00     0.037 A 
BRANCH  40  54
ATOM     54  C   UNL A   1      43.682  22.553  27.197  1.00  0.00     0.058 A 
ATOM     55  C   UNL A   1      43.014  21.334  26.999  1.00  0.00     0.135 A 
ATOM     56  C   UNL A   1      44.726  22.830  26.281  1.00  0.00     0.135 A 
ATOM     57  F   UNL A   1      41.964  20.978  27.748  1.00  0.00    -0.206 F 
ATOM     58  C   UNL A   1      43.407  20.412  26.031  1.00  0.00     0.059 A 
ATOM     59  C   UNL A   1      45.161  21.907  25.325  1.00  0.00     0.059 A 
ATOM     60  F   UNL A   1      45.371  24.009  26.313  1.00  0.00    -0.206 F 
ATOM     61  C   UNL A   1      44.494  20.693  25.213  1.00  0.00     0.060 A 
BRANCH  61  62
ATOM     62  S   UNL A   1      45.015  19.440  24.027  1.00  0.00     0.124 S 
ATOM     63  O   UNL A   1      46.468  19.475  24.165  1.00  0.00    -0.237 OA
ATOM     64  O   UNL A   1      44.358  18.244  24.544  1.00  0.00    -0.237 OA
ATOM     65  O   UNL A   1      44.503  19.941  22.755  1.00  0.00    -0.744 OA
ENDBRANCH  61  62
ENDBRANCH  40  54
BRANCH  41  66
ATOM     66  C   UNL A   1      41.588  30.315  32.886  1.00  0.00     0.058 A 
ATOM     67  C   UNL A   1      41.719  31.722  32.930  1.00  0.00     0.135 A 
ATOM     68  C   UNL A   1      40.281  29.809  32.906  1.00  0.00     0.135 A 
ATOM     69  F   UNL A   1      42.942  32.279  32.957  1.00  0.00    -0.206 F 
ATOM     70  C   UNL A   1      40.622  32.580  32.838  1.00  0.00     0.059 A 
ATOM     71  C   UNL A   1      39.162  30.654  32.843  1.00  0.00     0.059 A 
ATOM     72  F   UNL A   1      40.068  28.486  32.861  1.00  0.00    -0.206 F 
ATOM     73  C   UNL A   1      39.347  32.035  32.742  1.00  0.00     0.060 A 
BRANCH  73  74
ATOM     74  S   UNL A   1      37.964  33.150  32.378  1.00  0.00     0.124 S 
ATOM     75  O   UNL A   1      37.850  33.913  33.616  1.00  0.00    -0.237 OA
ATOM     76  O   UNL A   1      38.460  33.895  31.224  1.00  0.00    -0.237 OA
ATOM     77  O   UNL A   1      36.860  32.237  32.102  1.00  0.00    -0.744 OA
ENDBRANCH  73  74
ENDBRANCH  41  66
BRANCH  53  78
ATOM     78  C   UNL A   1      45.083  23.858  33.556  1.00  0.00     0.058 A 
ATOM     79  C   UNL A   1      44.228  22.791  33.861  1.00  0.00     0.135 A 
ATOM     80  C   UNL A   1      46.355  23.819  34.184  1.00  0.00     0.135 A 
ATOM     81  F   UNL A   1      42.955  22.783  33.435  1.00  0.00    -0.206 F 
ATOM     82  C   UNL A   1      44.640  21.711  34.645  1.00  0.00     0.059 A 
ATOM     83  C   UNL A   1      46.764  22.786  35.014  1.00  0.00     0.059 A 
ATOM     84  F   UNL A   1      47.276  24.772  34.001  1.00  0.00    -0.206 F 
ATOM     85  C   UNL A   1      45.915  21.713  35.206  1.00  0.00     0.060 A 
BRANCH  85  86
ATOM     86  S   UNL A   1      46.457  20.313  36.192  1.00  0.00     0.124 S 
ATOM     87  O   UNL A   1      47.867  20.203  35.831  1.00  0.00    -0.237 OA
ATOM     88  O   UNL A   1      46.184  20.790  37.545  1.00  0.00    -0.237 OA
ATOM     89  O   UNL A   1      45.610  19.217  35.731  1.00  0.00    -0.744 OA
ENDBRANCH  85  86
ENDBRANCH  53  78
ENDBRANCH  27  28
ENDBRANCH  20  22
ENDBRANCH  19  20
ENDBRANCH  18  19
ENDBRANCH   1  18
TORSDOF 17
ENDMDL
MODEL 3
REMARK VINA RESULT:     -12.7      1.469      2.082
REMARK SMILES Cc1ccc(C(=O)[C@@H](C)[C@H](C)C(=O)OCCOC(=O)c2ccc(-c3c4nc(c(-c5c(F)cc(S(=O)(=O)[O-])cc5F)c5ccc([nH]5)c(-c5c(F)cc(S(=O)(=O)[O-])cc5F)c5nc(c(-c6c(F)cc(S(=O)(=O)[O-])cc6F)c6ccc3[nH]6)C=C5)C=C4)cc2)cc1
REMARK SMILES IDX 15 1 14 2 12 3 13 4 10 5 11 6 8 7 9 8 6 9 7 10 5 11 1 12
REMARK SMILES IDX 2 13 3 14 87 15 4 16 86 17 16 18 17 19 18 20 19 21 20 22
REMARK SMILES IDX 21 23 85 24 22 25 84 26 23 27 24 28 25 29 78 30 26 31 83 32
REMARK SMILES IDX 77 33 79 34 27 35 82 36 76 37 75 38 28 40 62 41 41 42 61 43
REMARK SMILES IDX 42 44 45 45 60 46 80 47 43 48 44 49 59 51 81 52 46 53 29 54
REMARK SMILES IDX 30 55 39 56 31 57 32 58 38 59 40 60 33 61 34 62 35 63 36 64
REMARK SMILES IDX 37 65 63 66 64 67 73 68 65 69 66 70 72 71 74 72 67 73 68 74
REMARK SMILES IDX 69 75 70 76 71 77 47 78 48 79 57 80 49 81 50 82 56 83 58 84
REMARK SMILES IDX 51 85 52 86 53 87 54 88 55 89
REMARK H PARENT 79 39 45 50
REMARK Flexibility Score: inf
ROOT
ATOM      1  C   UNL A   1      33.812  29.578  26.312  1.00  0.00     0.274 C 
ENDROOT
BRANCH   1   2
ATOM      2  O   UNL A   1      33.458  28.314  26.837  1.00  0.00    -0.462 OA
BRANCH   2   3
ATOM      3  C   UNL A   1      32.711  27.351  26.148  1.00  0.00     0.309 C 
ATOM      4  O   UNL A   1      31.708  28.064  25.917  1.00  0.00    -0.252 OA
BRANCH   3   5
ATOM      5  C   UNL A   1      33.383  25.407  25.371  1.00  0.00     0.106 C 
ATOM      6  C   UNL A   1      34.280  25.028  23.886  1.00  0.00     0.021 C 
BRANCH   5   7
ATOM      7  C   UNL A   1      33.749  23.741  26.076  1.00  0.00     0.072 C 
ATOM      8  C   UNL A   1      35.158  23.157  26.361  1.00  0.00     0.017 C 
BRANCH   7   9
ATOM      9  C   UNL A   1      32.717  22.543  26.235  1.00  0.00     0.166 C 
ATOM     10  O   UNL A   1      31.903  22.560  27.168  1.00  0.00    -0.294 OA
BRANCH   9  11
ATOM     11  C   UNL A   1      32.563  21.403  25.296  1.00  0.00     0.018 A 
ATOM     12  C   UNL A   1      32.622  18.076  22.557  1.00  0.00     0.044 C 
ATOM     13  C   UNL A   1      32.550  19.237  23.498  1.00  0.00    -0.051 A 
ATOM     14  C   UNL A   1      32.196  20.520  23.065  1.00  0.00     0.004 A 
ATOM     15  C   UNL A   1      32.789  19.031  24.849  1.00  0.00     0.004 A 
ATOM     16  C   UNL A   1      32.217  21.603  23.957  1.00  0.00     0.012 A 
ATOM     17  C   UNL A   1      32.734  20.108  25.721  1.00  0.00     0.012 A 
ENDBRANCH   9  11
ENDBRANCH   7   9
ENDBRANCH   5   7
ENDBRANCH   3   5
ENDBRANCH   2   3
ENDBRANCH   1   2
BRANCH   1  18
ATOM     18  C   UNL A   1      33.846  30.415  27.586  1.00  0.00     0.275 C 
BRANCH  18  19
ATOM     19  O   UNL A   1      34.850  31.520  27.693  1.00  0.00    -0.458 OA
BRANCH  19  20
ATOM     20  C   UNL A   1      36.059  31.536  28.377  1.00  0.00     0.338 C 
ATOM     21  O   UNL A   1      36.437  32.500  29.025  1.00  0.00    -0.246 OA
BRANCH  20  22
ATOM     22  C   UNL A   1      36.649  30.181  28.618  1.00  0.00     0.060 A 
ATOM     23  C   UNL A   1      36.826  29.351  30.223  1.00  0.00     0.016 A 
ATOM     24  C   UNL A   1      37.777  29.741  27.282  1.00  0.00     0.016 A 
ATOM     25  C   UNL A   1      38.134  28.070  30.442  1.00  0.00     0.010 A 
ATOM     26  C   UNL A   1      39.103  28.627  27.558  1.00  0.00     0.010 A 
ATOM     27  C   UNL A   1      39.322  27.765  29.088  1.00  0.00    -0.014 A 
BRANCH  27  28
ATOM     28  C   UNL A   1      40.765  27.342  29.143  1.00  0.00     0.031 A 
ATOM     29  C   UNL A   1      41.169  26.050  28.547  1.00  0.00     0.074 A 
ATOM     30  C   UNL A   1      41.780  28.165  29.503  1.00  0.00     0.049 A 
ATOM     31  N   UNL A   1      41.760  25.108  29.206  1.00  0.00    -0.248 NA
ATOM     32  C   UNL A   1      40.863  25.678  27.163  1.00  0.00     0.031 C 
ATOM     33  C   UNL A   1      43.221  27.964  29.382  1.00  0.00     0.029 A 
ATOM     34  N   UNL A   1      41.716  29.359  30.200  1.00  0.00    -0.354 N 
ATOM     35  C   UNL A   1      42.094  24.152  28.267  1.00  0.00     0.074 A 
ATOM     36  C   UNL A   1      41.294  24.419  27.100  1.00  0.00     0.031 C 
ATOM     37  C   UNL A   1      43.839  28.782  30.259  1.00  0.00     0.029 A 
ATOM     38  C   UNL A   1      42.811  29.466  31.033  1.00  0.00     0.049 A 
ATOM     39  H   UNL A   1      41.001  30.028  30.115  1.00  0.00     0.167 HD
ATOM     40  C   UNL A   1      43.276  23.478  28.297  1.00  0.00     0.037 A 
ATOM     41  C   UNL A   1      42.656  29.509  32.389  1.00  0.00     0.037 A 
ATOM     42  C   UNL A   1      44.195  24.118  29.224  1.00  0.00     0.049 A 
ATOM     43  C   UNL A   1      43.214  28.250  33.028  1.00  0.00     0.074 A 
ATOM     44  C   UNL A   1      45.226  25.027  29.046  1.00  0.00     0.029 A 
ATOM     45  N   UNL A   1      43.888  24.157  30.566  1.00  0.00    -0.354 N 
ATOM     46  N   UNL A   1      43.696  27.248  32.345  1.00  0.00    -0.248 NA
ATOM     47  C   UNL A   1      43.235  27.982  34.464  1.00  0.00     0.031 C 
ATOM     48  C   UNL A   1      45.572  25.564  30.315  1.00  0.00     0.029 A 
ATOM     49  C   UNL A   1      44.751  24.977  31.260  1.00  0.00     0.049 A 
ATOM     50  H   UNL A   1      43.145  23.661  30.980  1.00  0.00     0.167 HD
ATOM     51  C   UNL A   1      44.073  26.235  33.180  1.00  0.00     0.074 A 
ATOM     52  C   UNL A   1      43.743  26.735  34.502  1.00  0.00     0.031 C 
ATOM     53  C   UNL A   1      44.610  25.072  32.703  1.00  0.00     0.037 A 
BRANCH  40  54
ATOM     54  C   UNL A   1      43.672  22.531  27.192  1.00  0.00     0.058 A 
ATOM     55  C   UNL A   1      43.063  21.275  27.038  1.00  0.00     0.135 A 
ATOM     56  C   UNL A   1      44.671  22.843  26.239  1.00  0.00     0.135 A 
ATOM     57  F   UNL A   1      42.057  20.880  27.826  1.00  0.00    -0.206 F 
ATOM     58  C   UNL A   1      43.473  20.356  26.074  1.00  0.00     0.059 A 
ATOM     59  C   UNL A   1      45.124  21.925  25.287  1.00  0.00     0.059 A 
ATOM     60  F   UNL A   1      45.255  24.054  26.229  1.00  0.00    -0.206 F 
ATOM     61  C   UNL A   1      44.519  20.677  25.217  1.00  0.00     0.060 A 
BRANCH  61  62
ATOM     62  S   UNL A   1      45.067  19.430  24.038  1.00  0.00     0.124 S 
ATOM     63  O   UNL A   1      46.512  19.426  24.248  1.00  0.00    -0.237 OA
ATOM     64  O   UNL A   1      44.356  18.243  24.501  1.00  0.00    -0.237 OA
ATOM     65  O   UNL A   1      44.632  19.963  22.750  1.00  0.00    -0.744 OA
ENDBRANCH  61  62
ENDBRANCH  40  54
BRANCH  41  66
ATOM     66  C   UNL A   1      41.452  30.291  32.835  1.00  0.00     0.058 A 
ATOM     67  C   UNL A   1      40.280  29.568  33.162  1.00  0.00     0.135 A 
ATOM     68  C   UNL A   1      41.518  31.613  33.296  1.00  0.00     0.135 A 
ATOM     69  F   UNL A   1      40.127  28.309  32.718  1.00  0.00    -0.206 F 
ATOM     70  C   UNL A   1      39.307  30.071  34.026  1.00  0.00     0.059 A 
ATOM     71  C   UNL A   1      40.535  32.149  34.144  1.00  0.00     0.059 A 
ATOM     72  F   UNL A   1      42.596  32.366  33.036  1.00  0.00    -0.206 F 
ATOM     73  C   UNL A   1      39.468  31.346  34.555  1.00  0.00     0.060 A 
BRANCH  73  74
ATOM     74  S   UNL A   1      38.327  31.884  35.857  1.00  0.00     0.124 S 
ATOM     75  O   UNL A   1      37.194  32.384  35.087  1.00  0.00    -0.237 OA
ATOM     76  O   UNL A   1      38.090  30.646  36.594  1.00  0.00    -0.237 OA
ATOM     77  O   UNL A   1      39.092  32.898  36.575  1.00  0.00    -0.744 OA
ENDBRANCH  73  74
ENDBRANCH  41  66
BRANCH  53  78
ATOM     78  C   UNL A   1      45.065  23.904  33.539  1.00  0.00     0.058 A 
ATOM     79  C   UNL A   1      46.405  23.700  33.895  1.00  0.00     0.135 A 
ATOM     80  C   UNL A   1      44.171  22.868  33.913  1.00  0.00     0.135 A 
ATOM     81  F   UNL A   1      47.365  24.542  33.482  1.00  0.00    -0.206 F 
ATOM     82  C   UNL A   1      46.812  22.603  34.657  1.00  0.00     0.059 A 
ATOM     83  C   UNL A   1      44.563  21.740  34.618  1.00  0.00     0.059 A 
ATOM     84  F   UNL A   1      42.863  22.912  33.633  1.00  0.00    -0.206 F 
ATOM     85  C   UNL A   1      45.878  21.635  35.024  1.00  0.00     0.060 A 
BRANCH  85  86
ATOM     86  S   UNL A   1      46.393  20.236  36.027  1.00  0.00     0.124 S 
ATOM     87  O   UNL A   1      45.901  19.099  35.256  1.00  0.00    -0.237 OA
ATOM     88  O   UNL A   1      47.843  20.411  36.044  1.00  0.00    -0.237 OA
ATOM     89  O   UNL A   1      45.720  20.460  37.303  1.00  0.00    -0.744 OA
ENDBRANCH  85  86
ENDBRANCH  53  78
ENDBRANCH  27  28
ENDBRANCH  20  22
ENDBRANCH  19  20
ENDBRANCH  18  19
ENDBRANCH   1  18
TORSDOF 17
ENDMDL
