MODEL 1
REMARK VINA RESULT:     -12.1      0.000      0.000
REMARK SMILES Cc1c(Br)c(C)c2c(c1Br)O[C@H](C(F)(F)F)C(C(=O)OCCOC(=O)c1ccc(-c3c4nc(c(-c5c(F)cc(S(=O)(=O)[O-])cc5F)c5ccc([nH]5)c(-c5c(F)cc(S(=O)(=O)[O-])cc5F)c5nc(c(-c6c(F)cc(S(=O)(=O)[O-])cc6F)c6ccc3[nH]6)C=C5)C=C4)cc1)=C2
REMARK SMILES IDX 22 1 21 2 20 3 18 4 19 5 17 6 1 7 2 8 3 9 9 10 4 11 5 12
REMARK SMILES IDX 8 13 10 14 6 15 7 16 11 17 92 18 12 19 13 20 14 21 15 22
REMARK SMILES IDX 16 23 23 24 24 25 25 26 26 27 27 28 91 29 28 30 90 31 29 32
REMARK SMILES IDX 30 33 31 34 84 35 32 36 89 37 83 38 85 39 33 40 88 41 82 42
REMARK SMILES IDX 81 43 34 45 68 46 47 47 67 48 48 49 51 50 66 51 86 52 49 53
REMARK SMILES IDX 50 54 65 56 87 57 52 58 35 59 36 60 45 61 37 62 38 63 44 64
REMARK SMILES IDX 46 65 39 66 40 67 41 68 42 69 43 70 69 71 70 72 79 73 71 74
REMARK SMILES IDX 72 75 78 76 80 77 73 78 74 79 75 80 76 81 77 82 53 83 54 84
REMARK SMILES IDX 63 85 55 86 56 87 62 88 64 89 57 90 58 91 59 92 60 93 61 94
REMARK H PARENT 85 44 51 55
REMARK Flexibility Score: inf
ROOT
ATOM      1  C   UNL A   1      34.084  31.253  27.913  1.00  0.00     0.275 C 
ENDROOT
BRANCH   1   2
ATOM      2  C   UNL A   1      33.347  30.312  26.959  1.00  0.00     0.275 C 
BRANCH   2   3
ATOM      3  O   UNL A   1      33.997  29.026  26.882  1.00  0.00    -0.459 OA
BRANCH   3   4
ATOM      4  C   UNL A   1      33.856  28.372  25.706  1.00  0.00     0.338 C 
ATOM      5  O   UNL A   1      34.010  28.842  24.589  1.00  0.00    -0.246 OA
BRANCH   4   6
ATOM      6  C   UNL A   1      33.475  26.966  25.933  1.00  0.00     0.087 C 
ATOM      7  C   UNL A   1      32.655  20.485  25.688  1.00  0.00     0.047 C 
ATOM      8  C   UNL A   1      33.159  21.907  25.766  1.00  0.00    -0.019 A 
ATOM      9  C   UNL A   1      34.506  22.235  25.476  1.00  0.00     0.025 A 
ATOM     10  C   UNL A   1      32.265  22.960  26.063  1.00  0.00     0.064 A 
ATOM     11  Br  UNL A   1      35.721  20.837  24.968  1.00  0.00    -0.050 Br
ATOM     12  C   UNL A   1      34.962  23.576  25.515  1.00  0.00    -0.026 A 
ATOM     13  C   UNL A   1      32.693  24.298  26.087  1.00  0.00     0.142 A 
ATOM     14  Br  UNL A   1      30.406  22.607  26.384  1.00  0.00    -0.046 Br
ATOM     15  C   UNL A   1      36.408  23.940  25.251  1.00  0.00     0.046 C 
ATOM     16  C   UNL A   1      34.029  24.608  25.803  1.00  0.00     0.022 A 
ATOM     17  O   UNL A   1      31.762  25.250  26.419  1.00  0.00    -0.474 OA
ATOM     18  C   UNL A   1      34.406  26.021  25.762  1.00  0.00     0.027 C 
ATOM     19  C   UNL A   1      32.040  26.653  26.194  1.00  0.00     0.316 C 
BRANCH  19  20
ATOM     20  C   UNL A   1      31.131  27.176  25.071  1.00  0.00     0.430 C 
ATOM     21  F   UNL A   1      31.657  26.917  23.849  1.00  0.00    -0.167 F 
ATOM     22  F   UNL A   1      29.914  26.579  25.095  1.00  0.00    -0.167 F 
ATOM     23  F   UNL A   1      30.929  28.510  25.152  1.00  0.00    -0.167 F 
ENDBRANCH  19  20
ENDBRANCH   4   6
ENDBRANCH   3   4
ENDBRANCH   2   3
ENDBRANCH   1   2
BRANCH   1  24
ATOM     24  O   UNL A   1      35.506  31.072  27.797  1.00  0.00    -0.458 OA
BRANCH  24  25
ATOM     25  C   UNL A   1      36.160  30.895  28.966  1.00  0.00     0.338 C 
ATOM     26  O   UNL A   1      35.795  31.241  30.078  1.00  0.00    -0.246 OA
BRANCH  25  27
ATOM     27  C   UNL A   1      37.388  30.117  28.745  1.00  0.00     0.060 A 
ATOM     28  C   UNL A   1      38.169  29.795  29.846  1.00  0.00     0.016 A 
ATOM     29  C   UNL A   1      37.868  29.884  27.459  1.00  0.00     0.016 A 
ATOM     30  C   UNL A   1      39.490  29.400  29.667  1.00  0.00     0.010 A 
ATOM     31  C   UNL A   1      39.149  29.338  27.289  1.00  0.00     0.010 A 
ATOM     32  C   UNL A   1      40.004  29.144  28.389  1.00  0.00    -0.014 A 
BRANCH  32  33
ATOM     33  C   UNL A   1      41.433  28.724  28.223  1.00  0.00     0.031 A 
ATOM     34  C   UNL A   1      42.557  29.714  28.444  1.00  0.00     0.074 A 
ATOM     35  C   UNL A   1      41.741  27.443  27.923  1.00  0.00     0.049 A 
ATOM     36  N   UNL A   1      43.832  29.588  28.179  1.00  0.00    -0.248 NA
ATOM     37  C   UNL A   1      42.200  31.019  29.024  1.00  0.00     0.031 C 
ATOM     38  C   UNL A   1      40.774  26.358  27.736  1.00  0.00     0.029 A 
ATOM     39  N   UNL A   1      42.955  26.822  27.748  1.00  0.00    -0.354 N 
ATOM     40  C   UNL A   1      44.416  30.812  28.498  1.00  0.00     0.074 A 
ATOM     41  C   UNL A   1      43.353  31.672  28.969  1.00  0.00     0.031 C 
ATOM     42  C   UNL A   1      41.427  25.201  27.561  1.00  0.00     0.029 A 
ATOM     43  C   UNL A   1      42.855  25.475  27.481  1.00  0.00     0.049 A 
ATOM     44  H   UNL A   1      43.815  27.297  27.808  1.00  0.00     0.167 HD
ATOM     45  C   UNL A   1      45.717  31.180  28.411  1.00  0.00     0.037 A 
ATOM     46  C   UNL A   1      43.790  24.562  27.152  1.00  0.00     0.037 A 
ATOM     47  C   UNL A   1      46.780  30.294  28.006  1.00  0.00     0.049 A 
ATOM     48  C   UNL A   1      45.216  25.006  27.003  1.00  0.00     0.074 A 
ATOM     49  C   UNL A   1      48.131  30.571  27.885  1.00  0.00     0.029 A 
ATOM     50  N   UNL A   1      46.619  28.955  27.680  1.00  0.00    -0.354 N 
ATOM     51  N   UNL A   1      45.734  26.191  27.220  1.00  0.00    -0.248 NA
ATOM     52  C   UNL A   1      46.179  24.003  26.529  1.00  0.00     0.031 C 
ATOM     53  C   UNL A   1      48.779  29.413  27.444  1.00  0.00     0.029 A 
ATOM     54  C   UNL A   1      47.841  28.399  27.341  1.00  0.00     0.049 A 
ATOM     55  H   UNL A   1      45.761  28.472  27.688  1.00  0.00     0.167 HD
ATOM     56  C   UNL A   1      47.086  26.074  26.918  1.00  0.00     0.074 A 
ATOM     57  C   UNL A   1      47.309  24.699  26.523  1.00  0.00     0.031 C 
ATOM     58  C   UNL A   1      48.050  27.026  26.956  1.00  0.00     0.037 A 
BRANCH  45  59
ATOM     59  C   UNL A   1      46.078  32.607  28.732  1.00  0.00     0.058 A 
ATOM     60  C   UNL A   1      46.062  33.619  27.762  1.00  0.00     0.135 A 
ATOM     61  C   UNL A   1      46.381  32.979  30.055  1.00  0.00     0.135 A 
ATOM     62  F   UNL A   1      45.795  33.322  26.480  1.00  0.00    -0.206 F 
ATOM     63  C   UNL A   1      46.352  34.942  28.083  1.00  0.00     0.059 A 
ATOM     64  C   UNL A   1      46.645  34.300  30.405  1.00  0.00     0.059 A 
ATOM     65  F   UNL A   1      46.409  32.052  31.027  1.00  0.00    -0.206 F 
ATOM     66  C   UNL A   1      46.638  35.274  29.409  1.00  0.00     0.060 A 
BRANCH  66  67
ATOM     67  S   UNL A   1      46.997  36.999  29.809  1.00  0.00     0.124 S 
ATOM     68  O   UNL A   1      47.904  36.852  30.944  1.00  0.00    -0.237 OA
ATOM     69  O   UNL A   1      47.601  37.485  28.574  1.00  0.00    -0.237 OA
ATOM     70  O   UNL A   1      45.684  37.556  30.125  1.00  0.00    -0.744 OA
ENDBRANCH  66  67
ENDBRANCH  45  59
BRANCH  46  71
ATOM     71  C   UNL A   1      43.390  23.151  26.891  1.00  0.00     0.058 A 
ATOM     72  C   UNL A   1      43.405  22.624  25.591  1.00  0.00     0.135 A 
ATOM     73  C   UNL A   1      43.024  22.290  27.939  1.00  0.00     0.135 A 
ATOM     74  F   UNL A   1      43.731  23.409  24.553  1.00  0.00    -0.206 F 
ATOM     75  C   UNL A   1      43.079  21.294  25.340  1.00  0.00     0.059 A 
ATOM     76  C   UNL A   1      42.727  20.949  27.718  1.00  0.00     0.059 A 
ATOM     77  F   UNL A   1      42.999  22.740  29.203  1.00  0.00    -0.206 F 
ATOM     78  C   UNL A   1      42.752  20.462  26.412  1.00  0.00     0.060 A 
BRANCH  78  79
ATOM     79  S   UNL A   1      42.401  18.721  26.083  1.00  0.00     0.124 S 
ATOM     80  O   UNL A   1      40.996  18.773  25.697  1.00  0.00    -0.237 OA
ATOM     81  O   UNL A   1      43.348  18.417  25.015  1.00  0.00    -0.237 OA
ATOM     82  O   UNL A   1      42.681  18.073  27.361  1.00  0.00    -0.744 OA
ENDBRANCH  78  79
ENDBRANCH  46  71
BRANCH  58  83
ATOM     83  C   UNL A   1      49.446  26.613  26.583  1.00  0.00     0.058 A 
ATOM     84  C   UNL A   1      50.313  26.030  27.520  1.00  0.00     0.135 A 
ATOM     85  C   UNL A   1      49.893  26.730  25.257  1.00  0.00     0.135 A 
ATOM     86  F   UNL A   1      49.936  25.904  28.803  1.00  0.00    -0.206 F 
ATOM     87  C   UNL A   1      51.578  25.584  27.157  1.00  0.00     0.059 A 
ATOM     88  C   UNL A   1      51.145  26.267  24.866  1.00  0.00     0.059 A 
ATOM     89  F   UNL A   1      49.099  27.275  24.322  1.00  0.00    -0.206 F 
ATOM     90  C   UNL A   1      51.983  25.700  25.824  1.00  0.00     0.060 A 
BRANCH  90  91
ATOM     91  S   UNL A   1      53.608  25.064  25.361  1.00  0.00     0.124 S 
ATOM     92  O   UNL A   1      53.342  23.635  25.241  1.00  0.00    -0.237 OA
ATOM     93  O   UNL A   1      53.869  25.768  24.109  1.00  0.00    -0.237 OA
ATOM     94  O   UNL A   1      54.458  25.453  26.482  1.00  0.00    -0.744 OA
ENDBRANCH  90  91
ENDBRANCH  58  83
ENDBRANCH  32  33
ENDBRANCH  25  27
ENDBRANCH  24  25
ENDBRANCH   1  24
TORSDOF 15
ENDMDL
MODEL 2
REMARK VINA RESULT:     -12.0      2.197      3.106
REMARK SMILES Cc1c(Br)c(C)c2c(c1Br)O[C@H](C(F)(F)F)C(C(=O)OCCOC(=O)c1ccc(-c3c4nc(c(-c5c(F)cc(S(=O)(=O)[O-])cc5F)c5ccc([nH]5)c(-c5c(F)cc(S(=O)(=O)[O-])cc5F)c5nc(c(-c6c(F)cc(S(=O)(=O)[O-])cc6F)c6ccc3[nH]6)C=C5)C=C4)cc1)=C2
REMARK SMILES IDX 22 1 21 2 20 3 18 4 19 5 17 6 1 7 2 8 3 9 9 10 4 11 5 12
REMARK SMILES IDX 8 13 10 14 6 15 7 16 11 17 92 18 12 19 13 20 14 21 15 22
REMARK SMILES IDX 16 23 23 24 24 25 25 26 26 27 27 28 91 29 28 30 90 31 29 32
REMARK SMILES IDX 30 33 31 34 84 35 32 36 89 37 83 38 85 39 33 40 88 41 82 42
REMARK SMILES IDX 81 43 34 45 68 46 47 47 67 48 48 49 51 50 66 51 86 52 49 53
REMARK SMILES IDX 50 54 65 56 87 57 52 58 35 59 36 60 45 61 37 62 38 63 44 64
REMARK SMILES IDX 46 65 39 66 40 67 41 68 42 69 43 70 69 71 70 72 79 73 71 74
REMARK SMILES IDX 72 75 78 76 80 77 73 78 74 79 75 80 76 81 77 82 53 83 54 84
REMARK SMILES IDX 63 85 55 86 56 87 62 88 64 89 57 90 58 91 59 92 60 93 61 94
REMARK H PARENT 85 44 51 55
REMARK Flexibility Score: inf
ROOT
ATOM      1  C   UNL A   1      32.553  28.300  27.499  1.00  0.00     0.275 C 
ENDROOT
BRANCH   1   2
ATOM      2  C   UNL A   1      31.853  28.390  26.143  1.00  0.00     0.275 C 
BRANCH   2   3
ATOM      3  O   UNL A   1      31.672  27.083  25.556  1.00  0.00    -0.459 OA
BRANCH   3   4
ATOM      4  C   UNL A   1      32.658  26.677  24.723  1.00  0.00     0.338 C 
ATOM      5  O   UNL A   1      33.263  27.370  23.920  1.00  0.00    -0.246 OA
BRANCH   4   6
ATOM      6  C   UNL A   1      32.930  25.238  24.900  1.00  0.00     0.087 C 
ATOM      7  C   UNL A   1      35.368  19.174  24.801  1.00  0.00     0.047 C 
ATOM      8  C   UNL A   1      35.093  20.652  24.952  1.00  0.00    -0.019 A 
ATOM      9  C   UNL A   1      36.141  21.591  25.100  1.00  0.00     0.025 A 
ATOM     10  C   UNL A   1      33.767  21.137  24.873  1.00  0.00     0.064 A 
ATOM     11  Br  UNL A   1      37.959  20.972  25.107  1.00  0.00    -0.050 Br
ATOM     12  C   UNL A   1      35.877  22.980  25.204  1.00  0.00    -0.026 A 
ATOM     13  C   UNL A   1      33.487  22.511  24.953  1.00  0.00     0.142 A 
ATOM     14  Br  UNL A   1      32.299  19.935  24.587  1.00  0.00    -0.046 Br
ATOM     15  C   UNL A   1      36.982  23.995  25.407  1.00  0.00     0.046 C 
ATOM     16  C   UNL A   1      34.533  23.430  25.105  1.00  0.00     0.022 A 
ATOM     17  O   UNL A   1      32.168  22.887  24.901  1.00  0.00    -0.474 OA
ATOM     18  C   UNL A   1      34.195  24.853  25.102  1.00  0.00     0.027 C 
ATOM     19  C   UNL A   1      31.811  24.274  24.694  1.00  0.00     0.316 C 
BRANCH  19  20
ATOM     20  C   UNL A   1      31.174  24.432  23.304  1.00  0.00     0.430 C 
ATOM     21  F   UNL A   1      30.472  23.327  22.955  1.00  0.00    -0.167 F 
ATOM     22  F   UNL A   1      30.297  25.466  23.272  1.00  0.00    -0.167 F 
ATOM     23  F   UNL A   1      32.094  24.651  22.339  1.00  0.00    -0.167 F 
ENDBRANCH  19  20
ENDBRANCH   4   6
ENDBRANCH   3   4
ENDBRANCH   2   3
ENDBRANCH   1   2
BRANCH   1  24
ATOM     24  O   UNL A   1      33.954  28.597  27.361  1.00  0.00    -0.458 OA
BRANCH  24  25
ATOM     25  C   UNL A   1      34.316  29.845  27.732  1.00  0.00     0.338 C 
ATOM     26  O   UNL A   1      33.602  30.832  27.805  1.00  0.00    -0.246 OA
BRANCH  25  27
ATOM     27  C   UNL A   1      35.726  29.859  28.148  1.00  0.00     0.060 A 
ATOM     28  C   UNL A   1      36.683  30.227  27.213  1.00  0.00     0.016 A 
ATOM     29  C   UNL A   1      36.119  29.326  29.373  1.00  0.00     0.016 A 
ATOM     30  C   UNL A   1      38.019  29.907  27.426  1.00  0.00     0.010 A 
ATOM     31  C   UNL A   1      37.484  29.148  29.643  1.00  0.00     0.010 A 
ATOM     32  C   UNL A   1      38.453  29.380  28.649  1.00  0.00    -0.014 A 
BRANCH  32  33
ATOM     33  C   UNL A   1      39.898  29.040  28.853  1.00  0.00     0.031 A 
ATOM     34  C   UNL A   1      40.845  30.043  29.476  1.00  0.00     0.074 A 
ATOM     35  C   UNL A   1      40.366  27.813  28.531  1.00  0.00     0.049 A 
ATOM     36  N   UNL A   1      42.149  30.000  29.571  1.00  0.00    -0.248 NA
ATOM     37  C   UNL A   1      40.251  31.260  30.054  1.00  0.00     0.031 C 
ATOM     38  C   UNL A   1      39.566  26.718  27.976  1.00  0.00     0.029 A 
ATOM     39  N   UNL A   1      41.622  27.266  28.647  1.00  0.00    -0.354 N 
ATOM     40  C   UNL A   1      42.535  31.203  30.157  1.00  0.00     0.074 A 
ATOM     41  C   UNL A   1      41.325  31.961  30.388  1.00  0.00     0.031 C 
ATOM     42  C   UNL A   1      40.322  25.615  27.883  1.00  0.00     0.029 A 
ATOM     43  C   UNL A   1      41.694  25.954  28.236  1.00  0.00     0.049 A 
ATOM     44  H   UNL A   1      42.397  27.765  28.992  1.00  0.00     0.167 HD
ATOM     45  C   UNL A   1      43.780  31.630  30.476  1.00  0.00     0.037 A 
ATOM     46  C   UNL A   1      42.745  25.122  28.097  1.00  0.00     0.037 A 
ATOM     47  C   UNL A   1      44.973  30.839  30.304  1.00  0.00     0.049 A 
ATOM     48  C   UNL A   1      44.122  25.637  28.400  1.00  0.00     0.074 A 
ATOM     49  C   UNL A   1      46.282  31.183  30.596  1.00  0.00     0.029 A 
ATOM     50  N   UNL A   1      45.002  29.540  29.820  1.00  0.00    -0.354 N 
ATOM     51  N   UNL A   1      44.476  26.811  28.867  1.00  0.00    -0.248 NA
ATOM     52  C   UNL A   1      45.246  24.733  28.123  1.00  0.00     0.031 C 
ATOM     53  C   UNL A   1      47.106  30.108  30.248  1.00  0.00     0.029 A 
ATOM     54  C   UNL A   1      46.307  29.075  29.788  1.00  0.00     0.049 A 
ATOM     55  H   UNL A   1      44.212  29.024  29.539  1.00  0.00     0.167 HD
ATOM     56  C   UNL A   1      45.863  26.783  28.948  1.00  0.00     0.074 A 
ATOM     57  C   UNL A   1      46.282  25.470  28.503  1.00  0.00     0.031 C 
ATOM     58  C   UNL A   1      46.710  27.763  29.347  1.00  0.00     0.037 A 
BRANCH  45  59
ATOM     59  C   UNL A   1      43.937  33.027  31.021  1.00  0.00     0.058 A 
ATOM     60  C   UNL A   1      44.026  33.287  32.396  1.00  0.00     0.135 A 
ATOM     61  C   UNL A   1      44.066  34.118  30.143  1.00  0.00     0.135 A 
ATOM     62  F   UNL A   1      43.893  32.288  33.283  1.00  0.00    -0.206 F 
ATOM     63  C   UNL A   1      44.217  34.577  32.883  1.00  0.00     0.059 A 
ATOM     64  C   UNL A   1      44.288  35.412  30.605  1.00  0.00     0.059 A 
ATOM     65  F   UNL A   1      43.991  33.928  28.815  1.00  0.00    -0.206 F 
ATOM     66  C   UNL A   1      44.351  35.634  31.979  1.00  0.00     0.060 A 
BRANCH  66  67
ATOM     67  S   UNL A   1      44.614  37.298  32.630  1.00  0.00     0.124 S 
ATOM     68  O   UNL A   1      43.385  37.512  33.389  1.00  0.00    -0.237 OA
ATOM     69  O   UNL A   1      45.828  37.133  33.422  1.00  0.00    -0.237 OA
ATOM     70  O   UNL A   1      44.758  38.116  31.429  1.00  0.00    -0.744 OA
ENDBRANCH  66  67
ENDBRANCH  45  59
BRANCH  46  71
ATOM     71  C   UNL A   1      42.533  23.734  27.600  1.00  0.00     0.058 A 
ATOM     72  C   UNL A   1      42.507  23.454  26.226  1.00  0.00     0.135 A 
ATOM     73  C   UNL A   1      42.392  22.654  28.488  1.00  0.00     0.135 A 
ATOM     74  F   UNL A   1      42.621  24.452  25.336  1.00  0.00    -0.206 F 
ATOM     75  C   UNL A   1      42.357  22.155  25.749  1.00  0.00     0.059 A 
ATOM     76  C   UNL A   1      42.274  21.343  28.036  1.00  0.00     0.059 A 
ATOM     77  F   UNL A   1      42.415  22.863  29.813  1.00  0.00    -0.206 F 
ATOM     78  C   UNL A   1      42.252  21.105  26.663  1.00  0.00     0.060 A 
BRANCH  78  79
ATOM     79  S   UNL A   1      42.131  19.417  26.034  1.00  0.00     0.124 S 
ATOM     80  O   UNL A   1      43.008  19.473  24.870  1.00  0.00    -0.237 OA
ATOM     81  O   UNL A   1      42.618  18.635  27.165  1.00  0.00    -0.237 OA
ATOM     82  O   UNL A   1      40.708  19.267  25.744  1.00  0.00    -0.744 OA
ENDBRANCH  78  79
ENDBRANCH  46  71
BRANCH  58  83
ATOM     83  C   UNL A   1      48.180  27.451  29.346  1.00  0.00     0.058 A 
ATOM     84  C   UNL A   1      48.989  27.737  28.235  1.00  0.00     0.135 A 
ATOM     85  C   UNL A   1      48.800  26.936  30.496  1.00  0.00     0.135 A 
ATOM     86  F   UNL A   1      48.443  28.222  27.108  1.00  0.00    -0.206 F 
ATOM     87  C   UNL A   1      50.361  27.514  28.262  1.00  0.00     0.059 A 
ATOM     88  C   UNL A   1      50.174  26.730  30.554  1.00  0.00     0.059 A 
ATOM     89  F   UNL A   1      48.070  26.653  31.587  1.00  0.00    -0.206 F 
ATOM     90  C   UNL A   1      50.946  27.018  29.429  1.00  0.00     0.060 A 
BRANCH  90  91
ATOM     91  S   UNL A   1      52.736  26.788  29.464  1.00  0.00     0.124 S 
ATOM     92  O   UNL A   1      53.205  28.155  29.664  1.00  0.00    -0.237 OA
ATOM     93  O   UNL A   1      52.911  25.884  30.597  1.00  0.00    -0.237 OA
ATOM     94  O   UNL A   1      53.030  26.208  28.156  1.00  0.00    -0.744 OA
ENDBRANCH  90  91
ENDBRANCH  58  83
ENDBRANCH  32  33
ENDBRANCH  25  27
ENDBRANCH  24  25
ENDBRANCH   1  24
TORSDOF 15
ENDMDL
MODEL 3
REMARK VINA RESULT:     -11.9      6.697     12.005
REMARK SMILES Cc1c(Br)c(C)c2c(c1Br)O[C@H](C(F)(F)F)C(C(=O)OCCOC(=O)c1ccc(-c3c4nc(c(-c5c(F)cc(S(=O)(=O)[O-])cc5F)c5ccc([nH]5)c(-c5c(F)cc(S(=O)(=O)[O-])cc5F)c5nc(c(-c6c(F)cc(S(=O)(=O)[O-])cc6F)c6ccc3[nH]6)C=C5)C=C4)cc1)=C2
REMARK SMILES IDX 22 1 21 2 20 3 18 4 19 5 17 6 1 7 2 8 3 9 9 10 4 11 5 12
REMARK SMILES IDX 8 13 10 14 6 15 7 16 11 17 92 18 12 19 13 20 14 21 15 22
REMARK SMILES IDX 16 23 23 24 24 25 25 26 26 27 27 28 91 29 28 30 90 31 29 32
REMARK SMILES IDX 30 33 31 34 84 35 32 36 89 37 83 38 85 39 33 40 88 41 82 42
REMARK SMILES IDX 81 43 34 45 68 46 47 47 67 48 48 49 51 50 66 51 86 52 49 53
REMARK SMILES IDX 50 54 65 56 87 57 52 58 35 59 36 60 45 61 37 62 38 63 44 64
REMARK SMILES IDX 46 65 39 66 40 67 41 68 42 69 43 70 69 71 70 72 79 73 71 74
REMARK SMILES IDX 72 75 78 76 80 77 73 78 74 79 75 80 76 81 77 82 53 83 54 84
REMARK SMILES IDX 63 85 55 86 56 87 62 88 64 89 57 90 58 91 59 92 60 93 61 94
REMARK H PARENT 85 44 51 55
REMARK Flexibility Score: inf
ROOT
ATOM      1  C   UNL A   1      39.342  22.187  26.160  1.00  0.00     0.275 C 
ENDROOT
BRANCH   1   2
ATOM      2  C   UNL A   1      37.944  22.198  25.542  1.00  0.00     0.275 C 
BRANCH   2   3
ATOM      3  O   UNL A   1      37.265  23.446  25.797  1.00  0.00    -0.459 OA
BRANCH   3   4
ATOM      4  C   UNL A   1      35.932  23.351  26.013  1.00  0.00     0.338 C 
ATOM      5  O   UNL A   1      35.379  22.634  26.833  1.00  0.00    -0.246 OA
BRANCH   4   6
ATOM      6  C   UNL A   1      35.192  24.246  25.106  1.00  0.00     0.087 C 
ATOM      7  C   UNL A   1      31.036  28.465  22.338  1.00  0.00     0.047 C 
ATOM      8  C   UNL A   1      32.055  27.735  23.181  1.00  0.00    -0.019 A 
ATOM      9  C   UNL A   1      32.389  28.172  24.486  1.00  0.00     0.025 A 
ATOM     10  C   UNL A   1      32.648  26.545  22.703  1.00  0.00     0.064 A 
ATOM     11  Br  UNL A   1      31.522  29.729  25.202  1.00  0.00    -0.050 Br
ATOM     12  C   UNL A   1      33.318  27.461  25.286  1.00  0.00    -0.026 A 
ATOM     13  C   UNL A   1      33.555  25.814  23.489  1.00  0.00     0.142 A 
ATOM     14  Br  UNL A   1      32.183  25.841  20.980  1.00  0.00    -0.046 Br
ATOM     15  C   UNL A   1      33.720  27.937  26.666  1.00  0.00     0.046 C 
ATOM     16  C   UNL A   1      33.882  26.260  24.776  1.00  0.00     0.022 A 
ATOM     17  O   UNL A   1      34.107  24.689  22.929  1.00  0.00    -0.474 OA
ATOM     18  C   UNL A   1      34.768  25.422  25.583  1.00  0.00     0.027 C 
ATOM     19  C   UNL A   1      34.820  23.737  23.754  1.00  0.00     0.316 C 
BRANCH  19  20
ATOM     20  C   UNL A   1      34.010  22.434  23.841  1.00  0.00     0.430 C 
ATOM     21  F   UNL A   1      33.089  22.490  24.833  1.00  0.00    -0.167 F 
ATOM     22  F   UNL A   1      33.322  22.198  22.696  1.00  0.00    -0.167 F 
ATOM     23  F   UNL A   1      34.792  21.356  24.073  1.00  0.00    -0.167 F 
ENDBRANCH  19  20
ENDBRANCH   4   6
ENDBRANCH   3   4
ENDBRANCH   2   3
ENDBRANCH   1   2
BRANCH   1  24
ATOM     24  O   UNL A   1      39.443  23.187  27.189  1.00  0.00    -0.458 OA
BRANCH  24  25
ATOM     25  C   UNL A   1      40.478  24.046  27.057  1.00  0.00     0.338 C 
ATOM     26  O   UNL A   1      41.472  23.906  26.364  1.00  0.00    -0.246 OA
BRANCH  25  27
ATOM     27  C   UNL A   1      40.213  25.277  27.817  1.00  0.00     0.060 A 
ATOM     28  C   UNL A   1      41.171  26.281  27.796  1.00  0.00     0.016 A 
ATOM     29  C   UNL A   1      39.137  25.359  28.697  1.00  0.00     0.016 A 
ATOM     30  C   UNL A   1      41.150  27.279  28.763  1.00  0.00     0.010 A 
ATOM     31  C   UNL A   1      39.042  26.454  29.569  1.00  0.00     0.010 A 
ATOM     32  C   UNL A   1      40.079  27.400  29.658  1.00  0.00    -0.014 A 
BRANCH  32  33
ATOM     33  C   UNL A   1      40.083  28.481  30.696  1.00  0.00     0.031 A 
ATOM     34  C   UNL A   1      41.108  28.476  31.809  1.00  0.00     0.074 A 
ATOM     35  C   UNL A   1      39.204  29.505  30.623  1.00  0.00     0.049 A 
ATOM     36  N   UNL A   1      41.162  29.217  32.887  1.00  0.00    -0.248 NA
ATOM     37  C   UNL A   1      42.208  27.501  31.707  1.00  0.00     0.031 C 
ATOM     38  C   UNL A   1      38.192  29.684  29.578  1.00  0.00     0.029 A 
ATOM     39  N   UNL A   1      39.032  30.608  31.426  1.00  0.00    -0.354 N 
ATOM     40  C   UNL A   1      42.256  28.759  33.617  1.00  0.00     0.074 A 
ATOM     41  C   UNL A   1      42.833  27.668  32.864  1.00  0.00     0.031 C 
ATOM     42  C   UNL A   1      37.571  30.858  29.753  1.00  0.00     0.029 A 
ATOM     43  C   UNL A   1      38.035  31.455  30.997  1.00  0.00     0.049 A 
ATOM     44  H   UNL A   1      39.571  30.775  32.232  1.00  0.00     0.167 HD
ATOM     45  C   UNL A   1      42.734  29.210  34.801  1.00  0.00     0.037 A 
ATOM     46  C   UNL A   1      37.504  32.559  31.558  1.00  0.00     0.037 A 
ATOM     47  C   UNL A   1      42.193  30.343  35.511  1.00  0.00     0.049 A 
ATOM     48  C   UNL A   1      38.010  33.006  32.899  1.00  0.00     0.074 A 
ATOM     49  C   UNL A   1      42.607  30.879  36.718  1.00  0.00     0.029 A 
ATOM     50  N   UNL A   1      41.139  31.128  35.068  1.00  0.00    -0.354 N 
ATOM     51  N   UNL A   1      38.985  32.504  33.618  1.00  0.00    -0.248 NA
ATOM     52  C   UNL A   1      37.323  34.144  33.524  1.00  0.00     0.031 C 
ATOM     53  C   UNL A   1      41.776  31.960  37.026  1.00  0.00     0.029 A 
ATOM     54  C   UNL A   1      40.877  32.132  35.986  1.00  0.00     0.049 A 
ATOM     55  H   UNL A   1      40.648  30.992  34.225  1.00  0.00     0.167 HD
ATOM     56  C   UNL A   1      39.035  33.270  34.777  1.00  0.00     0.074 A 
ATOM     57  C   UNL A   1      38.006  34.281  34.653  1.00  0.00     0.031 C 
ATOM     58  C   UNL A   1      39.853  33.137  35.848  1.00  0.00     0.037 A 
BRANCH  45  59
ATOM     59  C   UNL A   1      43.887  28.473  35.432  1.00  0.00     0.058 A 
ATOM     60  C   UNL A   1      45.222  28.834  35.201  1.00  0.00     0.135 A 
ATOM     61  C   UNL A   1      43.645  27.424  36.338  1.00  0.00     0.135 A 
ATOM     62  F   UNL A   1      45.516  29.816  34.335  1.00  0.00    -0.206 F 
ATOM     63  C   UNL A   1      46.276  28.174  35.828  1.00  0.00     0.059 A 
ATOM     64  C   UNL A   1      44.680  26.769  36.999  1.00  0.00     0.059 A 
ATOM     65  F   UNL A   1      42.386  27.036  36.600  1.00  0.00    -0.206 F 
ATOM     66  C   UNL A   1      45.994  27.144  36.729  1.00  0.00     0.060 A 
BRANCH  66  67
ATOM     67  S   UNL A   1      47.373  26.309  37.544  1.00  0.00     0.124 S 
ATOM     68  O   UNL A   1      47.235  26.789  38.916  1.00  0.00    -0.237 OA
ATOM     69  O   UNL A   1      47.055  24.902  37.329  1.00  0.00    -0.237 OA
ATOM     70  O   UNL A   1      48.544  26.802  36.824  1.00  0.00    -0.744 OA
ENDBRANCH  66  67
ENDBRANCH  45  59
BRANCH  46  71
ATOM     71  C   UNL A   1      36.398  33.282  30.871  1.00  0.00     0.058 A 
ATOM     72  C   UNL A   1      35.084  33.222  31.357  1.00  0.00     0.135 A 
ATOM     73  C   UNL A   1      36.638  34.080  29.739  1.00  0.00     0.135 A 
ATOM     74  F   UNL A   1      34.797  32.462  32.424  1.00  0.00    -0.206 F 
ATOM     75  C   UNL A   1      34.050  33.931  30.752  1.00  0.00     0.059 A 
ATOM     76  C   UNL A   1      35.629  34.824  29.138  1.00  0.00     0.059 A 
ATOM     77  F   UNL A   1      37.878  34.179  29.236  1.00  0.00    -0.206 F 
ATOM     78  C   UNL A   1      34.335  34.738  29.649  1.00  0.00     0.060 A 
BRANCH  78  79
ATOM     79  S   UNL A   1      33.000  35.709  28.917  1.00  0.00     0.124 S 
ATOM     80  O   UNL A   1      32.242  36.104  30.099  1.00  0.00    -0.237 OA
ATOM     81  O   UNL A   1      33.733  36.774  28.242  1.00  0.00    -0.237 OA
ATOM     82  O   UNL A   1      32.336  34.757  28.032  1.00  0.00    -0.744 OA
ENDBRANCH  78  79
ENDBRANCH  46  71
BRANCH  58  83
ATOM     83  C   UNL A   1      39.692  34.124  36.970  1.00  0.00     0.058 A 
ATOM     84  C   UNL A   1      38.888  33.841  38.085  1.00  0.00     0.135 A 
ATOM     85  C   UNL A   1      40.412  35.330  36.967  1.00  0.00     0.135 A 
ATOM     86  F   UNL A   1      38.173  32.705  38.132  1.00  0.00    -0.206 F 
ATOM     87  C   UNL A   1      38.796  34.723  39.155  1.00  0.00     0.059 A 
ATOM     88  C   UNL A   1      40.355  36.215  38.038  1.00  0.00     0.059 A 
ATOM     89  F   UNL A   1      41.200  35.643  35.926  1.00  0.00    -0.206 F 
ATOM     90  C   UNL A   1      39.540  35.906  39.126  1.00  0.00     0.060 A 
BRANCH  90  91
ATOM     91  S   UNL A   1      39.452  37.013  40.548  1.00  0.00     0.124 S 
ATOM     92  O   UNL A   1      40.858  37.132  40.918  1.00  0.00    -0.237 OA
ATOM     93  O   UNL A   1      38.844  38.209  39.972  1.00  0.00    -0.237 OA
ATOM     94  O   UNL A   1      38.612  36.284  41.495  1.00  0.00    -0.744 OA
ENDBRANCH  90  91
ENDBRANCH  58  83
ENDBRANCH  32  33
ENDBRANCH  25  27
ENDBRANCH  24  25
ENDBRANCH   1  24
TORSDOF 15
ENDMDL
