MODEL 1
REMARK VINA RESULT:     -11.7      0.000      0.000
REMARK SMILES CCn1cc(Br)cc1C(=O)N[C@@H]1C=C[C@@H](C(=O)OCCOC(=O)c2ccc(-c3c4nc(c(-c5c(F)cc(S(=O)(=O)[O-])cc5F)c5ccc([nH]5)c(-c5c(F)cc(S(=O)(=O)[O-])cc5F)c5nc(c(-c6c(F)cc(S(=O)(=O)[O-])cc6F)c6ccc3[nH]6)C=C5)C=C4)cc2)C1
REMARK SMILES IDX 19 1 18 2 16 3 17 4 15 5 12 6 13 7 90 8 14 9 11 10 9 11
REMARK SMILES IDX 10 12 8 14 3 15 4 16 5 17 7 18 6 19 2 20 1 21 20 22 21 23
REMARK SMILES IDX 22 24 23 25 24 26 25 27 89 28 26 29 88 30 27 31 28 32 29 33
REMARK SMILES IDX 82 34 30 35 87 36 81 37 83 38 31 39 86 40 80 41 79 42 32 44
REMARK SMILES IDX 66 45 45 46 65 47 46 48 49 49 64 50 84 51 47 52 48 53 63 55
REMARK SMILES IDX 85 56 50 57 33 58 34 59 43 60 35 61 36 62 42 63 44 64 37 65
REMARK SMILES IDX 38 66 39 67 40 68 41 69 67 70 68 71 77 72 69 73 70 74 76 75
REMARK SMILES IDX 78 76 71 77 72 78 73 79 74 80 75 81 51 82 52 83 61 84 53 85
REMARK SMILES IDX 54 86 60 87 62 88 55 89 56 90 57 91 58 92 59 93
REMARK H PARENT 11 13 83 43 49 54
REMARK Flexibility Score: inf
ROOT
ATOM      1  C   UNL A   1      41.909  19.785  27.050  1.00  0.00     0.274 C 
ENDROOT
BRANCH   1   2
ATOM      2  O   UNL A   1      40.761  20.285  26.339  1.00  0.00    -0.462 OA
BRANCH   2   3
ATOM      3  C   UNL A   1      40.176  21.414  26.829  1.00  0.00     0.312 C 
ATOM      4  O   UNL A   1      40.297  21.802  27.988  1.00  0.00    -0.252 OA
BRANCH   3   5
ATOM      5  C   UNL A   1      39.332  22.164  25.788  1.00  0.00     0.124 C 
ATOM      6  C   UNL A   1      36.890  22.366  25.431  1.00  0.00     0.106 C 
ATOM      7  C   UNL A   1      37.494  23.617  25.988  1.00  0.00    -0.006 C 
ATOM      8  C   UNL A   1      38.075  21.434  25.317  1.00  0.00     0.048 C 
ATOM      9  C   UNL A   1      38.803  23.486  26.245  1.00  0.00    -0.014 C 
BRANCH   6  10
ATOM     10  N   UNL A   1      36.199  22.610  24.196  1.00  0.00    -0.345 N 
ATOM     11  C   UNL A   1      35.142  23.421  23.856  1.00  0.00     0.268 C 
ATOM     12  O   UNL A   1      34.947  23.497  22.638  1.00  0.00    -0.268 OA
ATOM     13  H   UNL A   1      36.554  22.090  23.439  1.00  0.00     0.164 HD
BRANCH  11  14
ATOM     14  C   UNL A   1      34.210  24.034  24.801  1.00  0.00     0.108 A 
ATOM     15  N   UNL A   1      33.339  23.534  25.769  1.00  0.00    -0.343 N 
ATOM     16  C   UNL A   1      32.609  24.569  26.326  1.00  0.00     0.102 A 
ATOM     17  C   UNL A   1      33.132  25.741  25.869  1.00  0.00     0.036 A 
ATOM     18  C   UNL A   1      34.139  25.427  24.949  1.00  0.00     0.049 A 
ATOM     19  Br  UNL A   1      32.644  27.470  26.385  1.00  0.00    -0.049 Br
BRANCH  15  20
ATOM     20  C   UNL A   1      33.303  22.210  26.370  1.00  0.00     0.119 C 
ATOM     21  C   UNL A   1      33.306  22.204  27.899  1.00  0.00     0.027 C 
ENDBRANCH  15  20
ENDBRANCH  11  14
ENDBRANCH   6  10
ENDBRANCH   3   5
ENDBRANCH   2   3
ENDBRANCH   1   2
BRANCH   1  22
ATOM     22  C   UNL A   1      42.965  19.224  26.100  1.00  0.00     0.275 C 
BRANCH  22  23
ATOM     23  O   UNL A   1      43.235  20.081  24.985  1.00  0.00    -0.458 OA
BRANCH  23  24
ATOM     24  C   UNL A   1      44.444  20.681  25.041  1.00  0.00     0.338 C 
ATOM     25  O   UNL A   1      45.522  20.123  25.046  1.00  0.00    -0.246 OA
BRANCH  24  26
ATOM     26  C   UNL A   1      44.335  22.094  25.394  1.00  0.00     0.060 A 
ATOM     27  C   UNL A   1      45.240  22.571  26.352  1.00  0.00     0.016 A 
ATOM     28  C   UNL A   1      43.210  22.824  25.003  1.00  0.00     0.016 A 
ATOM     29  C   UNL A   1      44.934  23.732  27.026  1.00  0.00     0.010 A 
ATOM     30  C   UNL A   1      42.903  23.980  25.683  1.00  0.00     0.010 A 
ATOM     31  C   UNL A   1      43.737  24.387  26.723  1.00  0.00    -0.014 A 
BRANCH  31  32
ATOM     32  C   UNL A   1      43.469  25.638  27.399  1.00  0.00     0.031 A 
ATOM     33  C   UNL A   1      44.507  26.650  27.091  1.00  0.00     0.074 A 
ATOM     34  C   UNL A   1      42.348  25.878  28.100  1.00  0.00     0.049 A 
ATOM     35  N   UNL A   1      45.477  27.035  27.851  1.00  0.00    -0.248 NA
ATOM     36  C   UNL A   1      44.626  27.098  25.693  1.00  0.00     0.031 C 
ATOM     37  C   UNL A   1      41.145  25.049  28.201  1.00  0.00     0.029 A 
ATOM     38  N   UNL A   1      42.014  26.986  28.811  1.00  0.00    -0.354 N 
ATOM     39  C   UNL A   1      46.171  27.977  27.101  1.00  0.00     0.074 A 
ATOM     40  C   UNL A   1      45.773  27.777  25.733  1.00  0.00     0.031 C 
ATOM     41  C   UNL A   1      40.139  25.788  28.729  1.00  0.00     0.029 A 
ATOM     42  C   UNL A   1      40.664  27.083  29.128  1.00  0.00     0.049 A 
ATOM     43  H   UNL A   1      42.674  27.665  29.079  1.00  0.00     0.167 HD
ATOM     44  C   UNL A   1      46.766  29.044  27.697  1.00  0.00     0.037 A 
ATOM     45  C   UNL A   1      40.041  28.190  29.608  1.00  0.00     0.037 A 
ATOM     46  C   UNL A   1      46.867  28.850  29.121  1.00  0.00     0.049 A 
ATOM     47  C   UNL A   1      41.100  29.054  30.197  1.00  0.00     0.074 A 
ATOM     48  C   UNL A   1      47.518  27.963  29.952  1.00  0.00     0.029 A 
ATOM     49  N   UNL A   1      45.883  29.440  29.876  1.00  0.00    -0.354 N 
ATOM     50  N   UNL A   1      41.815  28.723  31.239  1.00  0.00    -0.248 NA
ATOM     51  C   UNL A   1      41.675  30.095  29.359  1.00  0.00     0.031 C 
ATOM     52  C   UNL A   1      46.636  27.766  31.056  1.00  0.00     0.029 A 
ATOM     53  C   UNL A   1      45.518  28.584  30.880  1.00  0.00     0.049 A 
ATOM     54  H   UNL A   1      45.502  30.334  29.721  1.00  0.00     0.167 HD
ATOM     55  C   UNL A   1      43.093  29.186  30.959  1.00  0.00     0.074 A 
ATOM     56  C   UNL A   1      42.920  30.112  29.844  1.00  0.00     0.031 C 
ATOM     57  C   UNL A   1      44.194  28.556  31.470  1.00  0.00     0.037 A 
BRANCH  44  58
ATOM     58  C   UNL A   1      46.838  30.420  27.074  1.00  0.00     0.058 A 
ATOM     59  C   UNL A   1      48.065  31.113  27.084  1.00  0.00     0.135 A 
ATOM     60  C   UNL A   1      45.706  31.193  26.725  1.00  0.00     0.135 A 
ATOM     61  F   UNL A   1      49.201  30.484  27.428  1.00  0.00    -0.206 F 
ATOM     62  C   UNL A   1      48.152  32.479  26.817  1.00  0.00     0.059 A 
ATOM     63  C   UNL A   1      45.780  32.540  26.397  1.00  0.00     0.059 A 
ATOM     64  F   UNL A   1      44.458  30.714  26.783  1.00  0.00    -0.206 F 
ATOM     65  C   UNL A   1      47.000  33.185  26.480  1.00  0.00     0.060 A 
BRANCH  65  66
ATOM     66  S   UNL A   1      47.096  34.959  26.195  1.00  0.00     0.124 S 
ATOM     67  O   UNL A   1      47.772  35.413  27.403  1.00  0.00    -0.237 OA
ATOM     68  O   UNL A   1      47.870  35.024  24.961  1.00  0.00    -0.237 OA
ATOM     69  O   UNL A   1      45.694  35.354  26.068  1.00  0.00    -0.744 OA
ENDBRANCH  65  66
ENDBRANCH  44  58
BRANCH  45  70
ATOM     70  C   UNL A   1      38.710  28.731  29.204  1.00  0.00     0.058 A 
ATOM     71  C   UNL A   1      37.693  28.949  30.154  1.00  0.00     0.135 A 
ATOM     72  C   UNL A   1      38.510  29.323  27.940  1.00  0.00     0.135 A 
ATOM     73  F   UNL A   1      37.809  28.444  31.391  1.00  0.00    -0.206 F 
ATOM     74  C   UNL A   1      36.574  29.747  29.884  1.00  0.00     0.059 A 
ATOM     75  C   UNL A   1      37.399  30.115  27.647  1.00  0.00     0.059 A 
ATOM     76  F   UNL A   1      39.437  29.228  26.976  1.00  0.00    -0.206 F 
ATOM     77  C   UNL A   1      36.446  30.345  28.631  1.00  0.00     0.060 A 
BRANCH  77  78
ATOM     78  S   UNL A   1      35.097  31.512  28.329  1.00  0.00     0.124 S 
ATOM     79  O   UNL A   1      34.705  31.878  29.686  1.00  0.00    -0.237 OA
ATOM     80  O   UNL A   1      35.758  32.555  27.551  1.00  0.00    -0.237 OA
ATOM     81  O   UNL A   1      34.118  30.715  27.593  1.00  0.00    -0.744 OA
ENDBRANCH  77  78
ENDBRANCH  45  70
BRANCH  57  82
ATOM     82  C   UNL A   1      43.998  27.620  32.637  1.00  0.00     0.058 A 
ATOM     83  C   UNL A   1      43.771  28.014  33.968  1.00  0.00     0.135 A 
ATOM     84  C   UNL A   1      43.900  26.250  32.350  1.00  0.00     0.135 A 
ATOM     85  F   UNL A   1      43.758  29.311  34.310  1.00  0.00    -0.206 F 
ATOM     86  C   UNL A   1      43.497  27.082  34.973  1.00  0.00     0.059 A 
ATOM     87  C   UNL A   1      43.597  25.307  33.327  1.00  0.00     0.059 A 
ATOM     88  F   UNL A   1      44.052  25.815  31.089  1.00  0.00    -0.206 F 
ATOM     89  C   UNL A   1      43.410  25.728  34.641  1.00  0.00     0.060 A 
BRANCH  89  90
ATOM     90  S   UNL A   1      43.006  24.521  35.923  1.00  0.00     0.124 S 
ATOM     91  O   UNL A   1      41.552  24.625  35.994  1.00  0.00    -0.237 OA
ATOM     92  O   UNL A   1      43.526  23.276  35.366  1.00  0.00    -0.237 OA
ATOM     93  O   UNL A   1      43.722  25.016  37.096  1.00  0.00    -0.744 OA
ENDBRANCH  89  90
ENDBRANCH  57  82
ENDBRANCH  31  32
ENDBRANCH  24  26
ENDBRANCH  23  24
ENDBRANCH  22  23
ENDBRANCH   1  22
TORSDOF 17
ENDMDL
MODEL 2
REMARK VINA RESULT:     -11.2      4.063     11.286
REMARK SMILES CCn1cc(Br)cc1C(=O)N[C@@H]1C=C[C@@H](C(=O)OCCOC(=O)c2ccc(-c3c4nc(c(-c5c(F)cc(S(=O)(=O)[O-])cc5F)c5ccc([nH]5)c(-c5c(F)cc(S(=O)(=O)[O-])cc5F)c5nc(c(-c6c(F)cc(S(=O)(=O)[O-])cc6F)c6ccc3[nH]6)C=C5)C=C4)cc2)C1
REMARK SMILES IDX 19 1 18 2 16 3 17 4 15 5 12 6 13 7 90 8 14 9 11 10 9 11
REMARK SMILES IDX 10 12 8 14 3 15 4 16 5 17 7 18 6 19 2 20 1 21 20 22 21 23
REMARK SMILES IDX 22 24 23 25 24 26 25 27 89 28 26 29 88 30 27 31 28 32 29 33
REMARK SMILES IDX 82 34 30 35 87 36 81 37 83 38 31 39 86 40 80 41 79 42 32 44
REMARK SMILES IDX 66 45 45 46 65 47 46 48 49 49 64 50 84 51 47 52 48 53 63 55
REMARK SMILES IDX 85 56 50 57 33 58 34 59 43 60 35 61 36 62 42 63 44 64 37 65
REMARK SMILES IDX 38 66 39 67 40 68 41 69 67 70 68 71 77 72 69 73 70 74 76 75
REMARK SMILES IDX 78 76 71 77 72 78 73 79 74 80 75 81 51 82 52 83 61 84 53 85
REMARK SMILES IDX 54 86 60 87 62 88 55 89 56 90 57 91 58 92 59 93
REMARK H PARENT 11 13 83 43 49 54
REMARK Flexibility Score: inf
ROOT
ATOM      1  C   UNL A   1      34.395  34.541  30.843  1.00  0.00     0.274 C 
ENDROOT
BRANCH   1   2
ATOM      2  O   UNL A   1      35.738  34.330  31.319  1.00  0.00    -0.462 OA
BRANCH   2   3
ATOM      3  C   UNL A   1      36.008  34.728  32.595  1.00  0.00     0.312 C 
ATOM      4  O   UNL A   1      35.500  35.708  33.131  1.00  0.00    -0.252 OA
BRANCH   3   5
ATOM      5  C   UNL A   1      37.028  33.829  33.308  1.00  0.00     0.124 C 
ATOM      6  C   UNL A   1      37.243  31.372  33.526  1.00  0.00     0.106 C 
ATOM      7  C   UNL A   1      38.260  31.956  32.597  1.00  0.00    -0.006 C 
ATOM      8  C   UNL A   1      36.449  32.579  33.970  1.00  0.00     0.048 C 
ATOM      9  C   UNL A   1      38.101  33.276  32.425  1.00  0.00    -0.014 C 
BRANCH   6  10
ATOM     10  N   UNL A   1      37.857  30.634  34.595  1.00  0.00    -0.345 N 
ATOM     11  C   UNL A   1      38.558  31.013  35.716  1.00  0.00     0.268 C 
ATOM     12  O   UNL A   1      38.772  30.086  36.505  1.00  0.00    -0.268 OA
ATOM     13  H   UNL A   1      37.757  29.658  34.506  1.00  0.00     0.164 HD
BRANCH  11  14
ATOM     14  C   UNL A   1      39.151  32.332  35.935  1.00  0.00     0.108 A 
ATOM     15  N   UNL A   1      38.813  33.429  36.727  1.00  0.00    -0.343 N 
ATOM     16  C   UNL A   1      39.684  34.474  36.480  1.00  0.00     0.102 A 
ATOM     17  C   UNL A   1      40.686  34.004  35.685  1.00  0.00     0.036 A 
ATOM     18  C   UNL A   1      40.386  32.676  35.365  1.00  0.00     0.049 A 
ATOM     19  Br  UNL A   1      42.218  34.926  35.138  1.00  0.00    -0.049 Br
BRANCH  15  20
ATOM     20  C   UNL A   1      37.895  33.495  37.854  1.00  0.00     0.119 C 
ATOM     21  C   UNL A   1      38.556  33.797  39.198  1.00  0.00     0.027 C 
ENDBRANCH  15  20
ENDBRANCH  11  14
ENDBRANCH   6  10
ENDBRANCH   3   5
ENDBRANCH   2   3
ENDBRANCH   1   2
BRANCH   1  22
ATOM     22  C   UNL A   1      34.033  33.570  29.720  1.00  0.00     0.275 C 
BRANCH  22  23
ATOM     23  O   UNL A   1      34.618  32.274  29.883  1.00  0.00    -0.458 OA
BRANCH  23  24
ATOM     24  C   UNL A   1      34.789  31.604  28.722  1.00  0.00     0.338 C 
ATOM     25  O   UNL A   1      33.908  31.167  28.011  1.00  0.00    -0.246 OA
BRANCH  24  26
ATOM     26  C   UNL A   1      36.175  31.188  28.532  1.00  0.00     0.060 A 
ATOM     27  C   UNL A   1      36.390  29.827  28.275  1.00  0.00     0.016 A 
ATOM     28  C   UNL A   1      37.216  32.054  28.877  1.00  0.00     0.016 A 
ATOM     29  C   UNL A   1      37.641  29.302  28.504  1.00  0.00     0.010 A 
ATOM     30  C   UNL A   1      38.464  31.526  29.112  1.00  0.00     0.010 A 
ATOM     31  C   UNL A   1      38.646  30.150  28.980  1.00  0.00    -0.014 A 
BRANCH  31  32
ATOM     32  C   UNL A   1      39.969  29.590  29.151  1.00  0.00     0.031 A 
ATOM     33  C   UNL A   1      40.286  29.383  30.583  1.00  0.00     0.074 A 
ATOM     34  C   UNL A   1      40.742  29.187  28.128  1.00  0.00     0.049 A 
ATOM     35  N   UNL A   1      41.052  30.106  31.330  1.00  0.00    -0.248 NA
ATOM     36  C   UNL A   1      39.465  28.414  31.329  1.00  0.00     0.031 C 
ATOM     37  C   UNL A   1      40.389  29.074  26.711  1.00  0.00     0.029 A 
ATOM     38  N   UNL A   1      42.009  28.696  28.165  1.00  0.00    -0.354 N 
ATOM     39  C   UNL A   1      41.004  29.509  32.584  1.00  0.00     0.074 A 
ATOM     40  C   UNL A   1      39.840  28.664  32.584  1.00  0.00     0.031 C 
ATOM     41  C   UNL A   1      41.329  28.333  26.077  1.00  0.00     0.029 A 
ATOM     42  C   UNL A   1      42.409  28.043  27.005  1.00  0.00     0.049 A 
ATOM     43  H   UNL A   1      42.595  28.795  28.950  1.00  0.00     0.167 HD
ATOM     44  C   UNL A   1      42.092  29.507  33.399  1.00  0.00     0.037 A 
ATOM     45  C   UNL A   1      43.514  27.264  26.876  1.00  0.00     0.037 A 
ATOM     46  C   UNL A   1      43.076  30.458  32.949  1.00  0.00     0.049 A 
ATOM     47  C   UNL A   1      44.438  27.649  27.978  1.00  0.00     0.074 A 
ATOM     48  C   UNL A   1      43.129  31.828  32.801  1.00  0.00     0.029 A 
ATOM     49  N   UNL A   1      44.099  29.945  32.190  1.00  0.00    -0.354 N 
ATOM     50  N   UNL A   1      44.997  28.825  28.083  1.00  0.00    -0.248 NA
ATOM     51  C   UNL A   1      44.390  26.874  29.208  1.00  0.00     0.031 C 
ATOM     52  C   UNL A   1      43.929  32.050  31.641  1.00  0.00     0.029 A 
ATOM     53  C   UNL A   1      44.376  30.814  31.169  1.00  0.00     0.049 A 
ATOM     54  H   UNL A   1      44.559  29.090  32.354  1.00  0.00     0.167 HD
ATOM     55  C   UNL A   1      44.978  29.111  29.442  1.00  0.00     0.074 A 
ATOM     56  C   UNL A   1      44.694  27.832  30.088  1.00  0.00     0.031 C 
ATOM     57  C   UNL A   1      44.910  30.402  29.886  1.00  0.00     0.037 A 
BRANCH  44  58
ATOM     58  C   UNL A   1      42.454  28.357  34.311  1.00  0.00     0.058 A 
ATOM     59  C   UNL A   1      42.555  28.588  35.698  1.00  0.00     0.135 A 
ATOM     60  C   UNL A   1      42.977  27.122  33.861  1.00  0.00     0.135 A 
ATOM     61  F   UNL A   1      42.117  29.739  36.231  1.00  0.00    -0.206 F 
ATOM     62  C   UNL A   1      43.172  27.682  36.561  1.00  0.00     0.059 A 
ATOM     63  C   UNL A   1      43.541  26.182  34.711  1.00  0.00     0.059 A 
ATOM     64  F   UNL A   1      43.064  26.804  32.564  1.00  0.00    -0.206 F 
ATOM     65  C   UNL A   1      43.668  26.484  36.056  1.00  0.00     0.060 A 
BRANCH  65  66
ATOM     66  S   UNL A   1      44.520  25.340  37.153  1.00  0.00     0.124 S 
ATOM     67  O   UNL A   1      43.873  25.622  38.427  1.00  0.00    -0.237 OA
ATOM     68  O   UNL A   1      44.208  24.051  36.545  1.00  0.00    -0.237 OA
ATOM     69  O   UNL A   1      45.917  25.753  37.047  1.00  0.00    -0.744 OA
ENDBRANCH  65  66
ENDBRANCH  44  58
BRANCH  45  70
ATOM     70  C   UNL A   1      43.626  25.956  26.166  1.00  0.00     0.058 A 
ATOM     71  C   UNL A   1      44.731  25.665  25.344  1.00  0.00     0.135 A 
ATOM     72  C   UNL A   1      42.811  24.860  26.516  1.00  0.00     0.135 A 
ATOM     73  F   UNL A   1      45.574  26.643  24.981  1.00  0.00    -0.206 F 
ATOM     74  C   UNL A   1      45.039  24.361  24.936  1.00  0.00     0.059 A 
ATOM     75  C   UNL A   1      43.095  23.554  26.115  1.00  0.00     0.059 A 
ATOM     76  F   UNL A   1      41.763  25.009  27.339  1.00  0.00    -0.206 F 
ATOM     77  C   UNL A   1      44.224  23.306  25.345  1.00  0.00     0.060 A 
BRANCH  77  78
ATOM     78  S   UNL A   1      44.707  21.603  24.968  1.00  0.00     0.124 S 
ATOM     79  O   UNL A   1      46.074  21.559  25.474  1.00  0.00    -0.237 OA
ATOM     80  O   UNL A   1      43.723  20.829  25.717  1.00  0.00    -0.237 OA
ATOM     81  O   UNL A   1      44.579  21.529  23.515  1.00  0.00    -0.744 OA
ENDBRANCH  77  78
ENDBRANCH  45  70
BRANCH  57  82
ATOM     82  C   UNL A   1      45.253  31.504  28.915  1.00  0.00     0.058 A 
ATOM     83  C   UNL A   1      46.555  31.913  28.574  1.00  0.00     0.135 A 
ATOM     84  C   UNL A   1      44.194  32.076  28.194  1.00  0.00     0.135 A 
ATOM     85  F   UNL A   1      47.628  31.352  29.152  1.00  0.00    -0.206 F 
ATOM     86  C   UNL A   1      46.787  32.876  27.587  1.00  0.00     0.059 A 
ATOM     87  C   UNL A   1      44.402  33.011  27.186  1.00  0.00     0.059 A 
ATOM     88  F   UNL A   1      42.931  31.688  28.434  1.00  0.00    -0.206 F 
ATOM     89  C   UNL A   1      45.701  33.419  26.896  1.00  0.00     0.060 A 
BRANCH  89  90
ATOM     90  S   UNL A   1      45.994  34.625  25.583  1.00  0.00     0.124 S 
ATOM     91  O   UNL A   1      45.623  35.879  26.230  1.00  0.00    -0.237 OA
ATOM     92  O   UNL A   1      47.416  34.453  25.303  1.00  0.00    -0.237 OA
ATOM     93  O   UNL A   1      45.100  34.189  24.513  1.00  0.00    -0.744 OA
ENDBRANCH  89  90
ENDBRANCH  57  82
ENDBRANCH  31  32
ENDBRANCH  24  26
ENDBRANCH  23  24
ENDBRANCH  22  23
ENDBRANCH   1  22
TORSDOF 17
ENDMDL
MODEL 3
REMARK VINA RESULT:     -11.2      2.609      9.428
REMARK SMILES CCn1cc(Br)cc1C(=O)N[C@@H]1C=C[C@@H](C(=O)OCCOC(=O)c2ccc(-c3c4nc(c(-c5c(F)cc(S(=O)(=O)[O-])cc5F)c5ccc([nH]5)c(-c5c(F)cc(S(=O)(=O)[O-])cc5F)c5nc(c(-c6c(F)cc(S(=O)(=O)[O-])cc6F)c6ccc3[nH]6)C=C5)C=C4)cc2)C1
REMARK SMILES IDX 19 1 18 2 16 3 17 4 15 5 12 6 13 7 90 8 14 9 11 10 9 11
REMARK SMILES IDX 10 12 8 14 3 15 4 16 5 17 7 18 6 19 2 20 1 21 20 22 21 23
REMARK SMILES IDX 22 24 23 25 24 26 25 27 89 28 26 29 88 30 27 31 28 32 29 33
REMARK SMILES IDX 82 34 30 35 87 36 81 37 83 38 31 39 86 40 80 41 79 42 32 44
REMARK SMILES IDX 66 45 45 46 65 47 46 48 49 49 64 50 84 51 47 52 48 53 63 55
REMARK SMILES IDX 85 56 50 57 33 58 34 59 43 60 35 61 36 62 42 63 44 64 37 65
REMARK SMILES IDX 38 66 39 67 40 68 41 69 67 70 68 71 77 72 69 73 70 74 76 75
REMARK SMILES IDX 78 76 71 77 72 78 73 79 74 80 75 81 51 82 52 83 61 84 53 85
REMARK SMILES IDX 54 86 60 87 62 88 55 89 56 90 57 91 58 92 59 93
REMARK H PARENT 11 13 83 43 49 54
REMARK Flexibility Score: inf
ROOT
ATOM      1  C   UNL A   1      32.088  30.474  26.805  1.00  0.00     0.274 C 
ENDROOT
BRANCH   1   2
ATOM      2  O   UNL A   1      32.660  29.152  26.770  1.00  0.00    -0.462 OA
BRANCH   2   3
ATOM      3  C   UNL A   1      31.811  28.107  26.981  1.00  0.00     0.312 C 
ATOM      4  O   UNL A   1      31.139  27.963  27.998  1.00  0.00    -0.252 OA
BRANCH   3   5
ATOM      5  C   UNL A   1      31.777  27.107  25.816  1.00  0.00     0.124 C 
ATOM      6  C   UNL A   1      33.480  25.592  24.850  1.00  0.00     0.106 C 
ATOM      7  C   UNL A   1      32.442  24.859  25.640  1.00  0.00    -0.006 C 
ATOM      8  C   UNL A   1      33.052  27.036  24.978  1.00  0.00     0.048 C 
ATOM      9  C   UNL A   1      31.560  25.683  26.220  1.00  0.00    -0.014 C 
BRANCH   6  10
ATOM     10  N   UNL A   1      33.563  25.110  23.499  1.00  0.00    -0.345 N 
ATOM     11  C   UNL A   1      33.824  23.872  22.959  1.00  0.00     0.268 C 
ATOM     12  O   UNL A   1      33.625  23.811  21.740  1.00  0.00    -0.268 OA
ATOM     13  H   UNL A   1      33.401  25.807  22.823  1.00  0.00     0.164 HD
BRANCH  11  14
ATOM     14  C   UNL A   1      34.426  22.748  23.675  1.00  0.00     0.108 A 
ATOM     15  N   UNL A   1      33.924  21.577  24.241  1.00  0.00    -0.343 N 
ATOM     16  C   UNL A   1      34.938  20.894  24.888  1.00  0.00     0.102 A 
ATOM     17  C   UNL A   1      36.115  21.509  24.585  1.00  0.00     0.036 A 
ATOM     18  C   UNL A   1      35.818  22.638  23.814  1.00  0.00     0.049 A 
ATOM     19  Br  UNL A   1      37.834  20.952  25.063  1.00  0.00    -0.049 Br
BRANCH  15  20
ATOM     20  C   UNL A   1      32.635  20.937  24.026  1.00  0.00     0.119 C 
ATOM     21  C   UNL A   1      32.603  19.444  24.349  1.00  0.00     0.027 C 
ENDBRANCH  15  20
ENDBRANCH  11  14
ENDBRANCH   6  10
ENDBRANCH   3   5
ENDBRANCH   2   3
ENDBRANCH   1   2
BRANCH   1  22
ATOM     22  C   UNL A   1      33.099  31.518  27.273  1.00  0.00     0.275 C 
BRANCH  22  23
ATOM     23  O   UNL A   1      34.154  30.966  28.068  1.00  0.00    -0.458 OA
BRANCH  23  24
ATOM     24  C   UNL A   1      35.278  31.717  28.077  1.00  0.00     0.338 C 
ATOM     25  O   UNL A   1      35.425  32.792  27.535  1.00  0.00    -0.246 OA
BRANCH  24  26
ATOM     26  C   UNL A   1      36.429  30.968  28.571  1.00  0.00     0.060 A 
ATOM     27  C   UNL A   1      37.447  31.714  29.180  1.00  0.00     0.016 A 
ATOM     28  C   UNL A   1      36.609  29.635  28.190  1.00  0.00     0.016 A 
ATOM     29  C   UNL A   1      38.702  31.160  29.279  1.00  0.00     0.010 A 
ATOM     30  C   UNL A   1      37.867  29.085  28.283  1.00  0.00     0.010 A 
ATOM     31  C   UNL A   1      38.908  29.873  28.771  1.00  0.00    -0.014 A 
BRANCH  31  32
ATOM     32  C   UNL A   1      40.220  29.287  28.944  1.00  0.00     0.031 A 
ATOM     33  C   UNL A   1      40.552  29.123  30.379  1.00  0.00     0.074 A 
ATOM     34  C   UNL A   1      40.969  28.830  27.926  1.00  0.00     0.049 A 
ATOM     35  N   UNL A   1      41.345  29.853  31.089  1.00  0.00    -0.248 NA
ATOM     36  C   UNL A   1      39.718  28.201  31.169  1.00  0.00     0.031 C 
ATOM     37  C   UNL A   1      40.593  28.676  26.519  1.00  0.00     0.029 A 
ATOM     38  N   UNL A   1      42.223  28.310  27.964  1.00  0.00    -0.354 N 
ATOM     39  C   UNL A   1      41.301  29.301  32.363  1.00  0.00     0.074 A 
ATOM     40  C   UNL A   1      40.117  28.486  32.410  1.00  0.00     0.031 C 
ATOM     41  C   UNL A   1      41.505  27.890  25.899  1.00  0.00     0.029 A 
ATOM     42  C   UNL A   1      42.591  27.608  26.822  1.00  0.00     0.049 A 
ATOM     43  H   UNL A   1      42.823  28.422  28.737  1.00  0.00     0.167 HD
ATOM     44  C   UNL A   1      42.399  29.302  33.164  1.00  0.00     0.037 A 
ATOM     45  C   UNL A   1      43.676  26.798  26.706  1.00  0.00     0.037 A 
ATOM     46  C   UNL A   1      43.400  30.212  32.668  1.00  0.00     0.049 A 
ATOM     47  C   UNL A   1      44.624  27.199  27.781  1.00  0.00     0.074 A 
ATOM     48  C   UNL A   1      43.484  31.574  32.471  1.00  0.00     0.029 A 
ATOM     49  N   UNL A   1      44.399  29.649  31.914  1.00  0.00    -0.354 N 
ATOM     50  N   UNL A   1      45.212  28.364  27.838  1.00  0.00    -0.248 NA
ATOM     51  C   UNL A   1      44.576  26.469  29.039  1.00  0.00     0.031 C 
ATOM     52  C   UNL A   1      44.272  31.737  31.293  1.00  0.00     0.029 A 
ATOM     53  C   UNL A   1      44.683  30.473  30.859  1.00  0.00     0.049 A 
ATOM     54  H   UNL A   1      44.842  28.789  32.101  1.00  0.00     0.167 HD
ATOM     55  C   UNL A   1      45.219  28.697  29.185  1.00  0.00     0.074 A 
ATOM     56  C   UNL A   1      44.914  27.449  29.881  1.00  0.00     0.031 C 
ATOM     57  C   UNL A   1      45.188  30.004  29.585  1.00  0.00     0.037 A 
BRANCH  44  58
ATOM     58  C   UNL A   1      42.747  28.176  34.111  1.00  0.00     0.058 A 
ATOM     59  C   UNL A   1      42.871  28.452  35.488  1.00  0.00     0.135 A 
ATOM     60  C   UNL A   1      43.236  26.914  33.698  1.00  0.00     0.135 A 
ATOM     61  F   UNL A   1      42.466  29.631  35.986  1.00  0.00    -0.206 F 
ATOM     62  C   UNL A   1      43.479  27.563  36.374  1.00  0.00     0.059 A 
ATOM     63  C   UNL A   1      43.789  25.991  34.574  1.00  0.00     0.059 A 
ATOM     64  F   UNL A   1      43.299  26.550  32.412  1.00  0.00    -0.206 F 
ATOM     65  C   UNL A   1      43.940  26.336  35.906  1.00  0.00     0.060 A 
BRANCH  65  66
ATOM     66  S   UNL A   1      44.780  25.212  37.032  1.00  0.00     0.124 S 
ATOM     67  O   UNL A   1      44.331  23.916  36.539  1.00  0.00    -0.237 OA
ATOM     68  O   UNL A   1      46.181  25.539  36.794  1.00  0.00    -0.237 OA
ATOM     69  O   UNL A   1      44.266  25.604  38.342  1.00  0.00    -0.744 OA
ENDBRANCH  65  66
ENDBRANCH  44  58
BRANCH  45  70
ATOM     70  C   UNL A   1      43.746  25.464  26.042  1.00  0.00     0.058 A 
ATOM     71  C   UNL A   1      44.816  25.130  25.189  1.00  0.00     0.135 A 
ATOM     72  C   UNL A   1      42.935  24.390  26.462  1.00  0.00     0.135 A 
ATOM     73  F   UNL A   1      45.655  26.083  24.757  1.00  0.00    -0.206 F 
ATOM     74  C   UNL A   1      45.094  23.808  24.818  1.00  0.00     0.059 A 
ATOM     75  C   UNL A   1      43.189  23.067  26.100  1.00  0.00     0.059 A 
ATOM     76  F   UNL A   1      41.921  24.582  27.320  1.00  0.00    -0.206 F 
ATOM     77  C   UNL A   1      44.285  22.778  25.297  1.00  0.00     0.060 A 
BRANCH  77  78
ATOM     78  S   UNL A   1      44.735  21.057  24.965  1.00  0.00     0.124 S 
ATOM     79  O   UNL A   1      43.723  20.330  25.724  1.00  0.00    -0.237 OA
ATOM     80  O   UNL A   1      44.621  20.982  23.513  1.00  0.00    -0.237 OA
ATOM     81  O   UNL A   1      46.095  20.956  25.488  1.00  0.00    -0.744 OA
ENDBRANCH  77  78
ENDBRANCH  45  70
BRANCH  57  82
ATOM     82  C   UNL A   1      45.544  31.063  28.571  1.00  0.00     0.058 A 
ATOM     83  C   UNL A   1      44.673  31.583  27.597  1.00  0.00     0.135 A 
ATOM     84  C   UNL A   1      46.802  31.672  28.695  1.00  0.00     0.135 A 
ATOM     85  F   UNL A   1      43.421  31.118  27.471  1.00  0.00    -0.206 F 
ATOM     86  C   UNL A   1      45.054  32.637  26.760  1.00  0.00     0.059 A 
ATOM     87  C   UNL A   1      47.190  32.743  27.897  1.00  0.00     0.059 A 
ATOM     88  F   UNL A   1      47.659  31.258  29.642  1.00  0.00    -0.206 F 
ATOM     89  C   UNL A   1      46.316  33.212  26.919  1.00  0.00     0.060 A 
BRANCH  89  90
ATOM     90  S   UNL A   1      46.797  34.608  25.878  1.00  0.00     0.124 S 
ATOM     91  O   UNL A   1      45.775  34.580  24.836  1.00  0.00    -0.237 OA
ATOM     92  O   UNL A   1      46.728  35.735  26.803  1.00  0.00    -0.237 OA
ATOM     93  O   UNL A   1      48.144  34.257  25.437  1.00  0.00    -0.744 OA
ENDBRANCH  89  90
ENDBRANCH  57  82
ENDBRANCH  31  32
ENDBRANCH  24  26
ENDBRANCH  23  24
ENDBRANCH  22  23
ENDBRANCH   1  22
TORSDOF 17
ENDMDL
