MODEL 1
REMARK VINA RESULT:     -10.0      0.000      0.000
REMARK SMILES COc1ccc(COc2cncc(C(=O)OCCOC(=O)c3ccc(-c4c5nc(c(-c6c(F)cc(S(=O)(=O)[O-])cc6F)c6ccc([nH]6)c(-c6c(F)cc(S(=O)(=O)[O-])cc6F)c6nc(c(-c7c(F)cc(S(=O)(=O)[O-])cc7F)c7ccc4[nH]7)C=C6)C=C5)cc3)n2)cc1
REMARK SMILES IDX 17 1 16 2 14 3 15 4 13 5 9 6 10 7 88 8 11 9 12 10 8 11 7 12
REMARK SMILES IDX 6 13 3 14 4 15 90 16 5 17 89 18 2 19 1 20 18 21 19 22 20 23
REMARK SMILES IDX 21 24 22 25 23 26 87 27 24 28 86 29 25 30 26 31 27 32 80 33
REMARK SMILES IDX 28 34 85 35 79 36 81 37 29 38 84 39 78 40 77 41 30 43 64 44
REMARK SMILES IDX 43 45 63 46 44 47 47 48 62 49 82 50 45 51 46 52 61 54 83 55
REMARK SMILES IDX 48 56 31 57 32 58 41 59 33 60 34 61 40 62 42 63 35 64 36 65
REMARK SMILES IDX 37 66 38 67 39 68 65 69 66 70 75 71 67 72 68 73 74 74 76 75
REMARK SMILES IDX 69 76 70 77 71 78 72 79 73 80 49 81 50 82 59 83 51 84 52 85
REMARK SMILES IDX 58 86 60 87 53 88 54 89 55 90 56 91 57 92
REMARK H PARENT 81 42 47 53
REMARK Flexibility Score: inf
ROOT
ATOM      1  C   UNL A   1      40.985  19.494  26.388  1.00  0.00     0.275 C 
ENDROOT
BRANCH   1   2
ATOM      2  O   UNL A   1      41.879  18.990  25.375  1.00  0.00    -0.457 OA
BRANCH   2   3
ATOM      3  C   UNL A   1      43.033  18.458  25.857  1.00  0.00     0.358 C 
ATOM      4  O   UNL A   1      43.118  17.467  26.563  1.00  0.00    -0.244 OA
BRANCH   3   5
ATOM      5  C   UNL A   1      44.239  19.165  25.361  1.00  0.00     0.170 A 
ATOM      6  C   UNL A   1      45.329  20.942  24.414  1.00  0.00     0.233 A 
ATOM      7  C   UNL A   1      46.542  20.284  24.626  1.00  0.00     0.179 A 
ATOM      8  N   UNL A   1      44.141  20.390  24.771  1.00  0.00    -0.203 NA
ATOM      9  N   UNL A   1      46.635  19.059  25.187  1.00  0.00    -0.257 NA
ATOM     10  C   UNL A   1      45.458  18.530  25.577  1.00  0.00     0.147 A 
BRANCH   6  11
ATOM     11  O   UNL A   1      45.284  22.270  24.066  1.00  0.00    -0.472 OA
BRANCH  11  12
ATOM     12  C   UNL A   1      44.295  23.029  24.778  1.00  0.00     0.267 C 
BRANCH  12  13
ATOM     13  C   UNL A   1      44.688  23.329  26.207  1.00  0.00    -0.010 A 
ATOM     14  C   UNL A   1      45.275  24.180  28.825  1.00  0.00     0.118 A 
ATOM     15  C   UNL A   1      46.213  24.338  27.803  1.00  0.00     0.047 A 
ATOM     16  C   UNL A   1      44.055  23.566  28.545  1.00  0.00     0.047 A 
ATOM     17  C   UNL A   1      45.937  23.892  26.508  1.00  0.00     0.011 A 
ATOM     18  C   UNL A   1      43.765  23.138  27.245  1.00  0.00     0.011 A 
BRANCH  14  19
ATOM     19  O   UNL A   1      45.645  24.707  30.031  1.00  0.00    -0.497 OA
ATOM     20  C   UNL A   1      44.806  25.729  30.555  1.00  0.00     0.278 C 
ENDBRANCH  14  19
ENDBRANCH  12  13
ENDBRANCH  11  12
ENDBRANCH   6  11
ENDBRANCH   3   5
ENDBRANCH   2   3
ENDBRANCH   1   2
BRANCH   1  21
ATOM     21  C   UNL A   1      41.178  20.994  26.611  1.00  0.00     0.275 C 
BRANCH  21  22
ATOM     22  O   UNL A   1      40.029  21.558  27.272  1.00  0.00    -0.458 OA
BRANCH  22  23
ATOM     23  C   UNL A   1      39.287  22.407  26.526  1.00  0.00     0.338 C 
ATOM     24  O   UNL A   1      38.544  22.117  25.597  1.00  0.00    -0.246 OA
BRANCH  23  25
ATOM     25  C   UNL A   1      39.448  23.793  26.994  1.00  0.00     0.060 A 
ATOM     26  C   UNL A   1      39.571  24.817  26.059  1.00  0.00     0.016 A 
ATOM     27  C   UNL A   1      39.677  24.054  28.345  1.00  0.00     0.016 A 
ATOM     28  C   UNL A   1      40.033  26.076  26.450  1.00  0.00     0.010 A 
ATOM     29  C   UNL A   1      40.055  25.342  28.748  1.00  0.00     0.010 A 
ATOM     30  C   UNL A   1      40.300  26.354  27.800  1.00  0.00    -0.014 A 
BRANCH  30  31
ATOM     31  C   UNL A   1      40.939  27.649  28.194  1.00  0.00     0.031 A 
ATOM     32  C   UNL A   1      42.416  27.872  27.950  1.00  0.00     0.074 A 
ATOM     33  C   UNL A   1      40.210  28.653  28.726  1.00  0.00     0.049 A 
ATOM     34  N   UNL A   1      43.183  28.860  28.339  1.00  0.00    -0.248 NA
ATOM     35  C   UNL A   1      43.129  26.836  27.186  1.00  0.00     0.031 C 
ATOM     36  C   UNL A   1      38.773  28.608  28.999  1.00  0.00     0.029 A 
ATOM     37  N   UNL A   1      40.579  29.918  29.118  1.00  0.00    -0.354 N 
ATOM     38  C   UNL A   1      44.472  28.530  27.932  1.00  0.00     0.074 A 
ATOM     39  C   UNL A   1      44.385  27.250  27.265  1.00  0.00     0.031 C 
ATOM     40  C   UNL A   1      38.375  29.803  29.465  1.00  0.00     0.029 A 
ATOM     41  C   UNL A   1      39.536  30.677  29.596  1.00  0.00     0.049 A 
ATOM     42  H   UNL A   1      41.505  30.250  29.062  1.00  0.00     0.167 HD
ATOM     43  C   UNL A   1      45.622  29.229  28.094  1.00  0.00     0.037 A 
ATOM     44  C   UNL A   1      39.514  31.924  30.107  1.00  0.00     0.037 A 
ATOM     45  C   UNL A   1      45.703  30.546  28.673  1.00  0.00     0.049 A 
ATOM     46  C   UNL A   1      40.796  32.701  30.229  1.00  0.00     0.074 A 
ATOM     47  C   UNL A   1      46.823  31.339  28.857  1.00  0.00     0.029 A 
ATOM     48  N   UNL A   1      44.619  31.278  29.131  1.00  0.00    -0.354 N 
ATOM     49  N   UNL A   1      42.012  32.343  29.899  1.00  0.00    -0.248 NA
ATOM     50  C   UNL A   1      40.701  34.050  30.806  1.00  0.00     0.031 C 
ATOM     51  C   UNL A   1      46.419  32.545  29.442  1.00  0.00     0.029 A 
ATOM     52  C   UNL A   1      45.042  32.515  29.592  1.00  0.00     0.049 A 
ATOM     53  H   UNL A   1      43.686  30.965  29.131  1.00  0.00     0.167 HD
ATOM     54  C   UNL A   1      42.827  33.421  30.225  1.00  0.00     0.074 A 
ATOM     55  C   UNL A   1      41.962  34.456  30.751  1.00  0.00     0.031 C 
ATOM     56  C   UNL A   1      44.173  33.538  30.111  1.00  0.00     0.037 A 
BRANCH  43  57
ATOM     57  C   UNL A   1      46.905  28.574  27.661  1.00  0.00     0.058 A 
ATOM     58  C   UNL A   1      47.395  28.681  26.350  1.00  0.00     0.135 A 
ATOM     59  C   UNL A   1      47.680  27.860  28.592  1.00  0.00     0.135 A 
ATOM     60  F   UNL A   1      46.687  29.338  25.417  1.00  0.00    -0.206 F 
ATOM     61  C   UNL A   1      48.594  28.085  25.971  1.00  0.00     0.059 A 
ATOM     62  C   UNL A   1      48.894  27.277  28.241  1.00  0.00     0.059 A 
ATOM     63  F   UNL A   1      47.260  27.728  29.859  1.00  0.00    -0.206 F 
ATOM     64  C   UNL A   1      49.336  27.384  26.923  1.00  0.00     0.060 A 
BRANCH  64  65
ATOM     65  S   UNL A   1      50.896  26.624  26.423  1.00  0.00     0.124 S 
ATOM     66  O   UNL A   1      50.903  25.413  27.238  1.00  0.00    -0.237 OA
ATOM     67  O   UNL A   1      50.702  26.422  24.991  1.00  0.00    -0.237 OA
ATOM     68  O   UNL A   1      51.893  27.628  26.780  1.00  0.00    -0.744 OA
ENDBRANCH  64  65
ENDBRANCH  43  57
BRANCH  44  69
ATOM     69  C   UNL A   1      38.229  32.511  30.574  1.00  0.00     0.058 A 
ATOM     70  C   UNL A   1      37.412  33.254  29.709  1.00  0.00     0.135 A 
ATOM     71  C   UNL A   1      37.794  32.340  31.898  1.00  0.00     0.135 A 
ATOM     72  F   UNL A   1      37.792  33.458  28.438  1.00  0.00    -0.206 F 
ATOM     73  C   UNL A   1      36.216  33.818  30.141  1.00  0.00     0.059 A 
ATOM     74  C   UNL A   1      36.589  32.870  32.345  1.00  0.00     0.059 A 
ATOM     75  F   UNL A   1      38.535  31.629  32.762  1.00  0.00    -0.206 F 
ATOM     76  C   UNL A   1      35.812  33.618  31.463  1.00  0.00     0.060 A 
BRANCH  76  77
ATOM     77  S   UNL A   1      34.233  34.306  32.009  1.00  0.00     0.124 S 
ATOM     78  O   UNL A   1      33.536  34.479  30.741  1.00  0.00    -0.237 OA
ATOM     79  O   UNL A   1      33.720  33.254  32.881  1.00  0.00    -0.237 OA
ATOM     80  O   UNL A   1      34.626  35.535  32.690  1.00  0.00    -0.744 OA
ENDBRANCH  76  77
ENDBRANCH  44  69
BRANCH  56  81
ATOM     81  C   UNL A   1      44.784  34.844  30.536  1.00  0.00     0.058 A 
ATOM     82  C   UNL A   1      44.925  35.916  29.641  1.00  0.00     0.135 A 
ATOM     83  C   UNL A   1      45.231  35.026  31.854  1.00  0.00     0.135 A 
ATOM     84  F   UNL A   1      44.516  35.790  28.368  1.00  0.00    -0.206 F 
ATOM     85  C   UNL A   1      45.523  37.111  30.027  1.00  0.00     0.059 A 
ATOM     86  C   UNL A   1      45.812  36.220  32.268  1.00  0.00     0.059 A 
ATOM     87  F   UNL A   1      45.109  34.036  32.753  1.00  0.00    -0.206 F 
ATOM     88  C   UNL A   1      45.972  37.250  31.342  1.00  0.00     0.060 A 
BRANCH  88  89
ATOM     89  S   UNL A   1      46.757  38.800  31.835  1.00  0.00     0.124 S 
ATOM     90  O   UNL A   1      47.994  38.761  31.062  1.00  0.00    -0.237 OA
ATOM     91  O   UNL A   1      45.779  39.800  31.416  1.00  0.00    -0.237 OA
ATOM     92  O   UNL A   1      46.912  38.655  33.279  1.00  0.00    -0.744 OA
ENDBRANCH  88  89
ENDBRANCH  56  81
ENDBRANCH  30  31
ENDBRANCH  23  25
ENDBRANCH  22  23
ENDBRANCH  21  22
ENDBRANCH   1  21
TORSDOF 18
ENDMDL
MODEL 2
REMARK VINA RESULT:      -9.9      4.669      6.814
REMARK SMILES COc1ccc(COc2cncc(C(=O)OCCOC(=O)c3ccc(-c4c5nc(c(-c6c(F)cc(S(=O)(=O)[O-])cc6F)c6ccc([nH]6)c(-c6c(F)cc(S(=O)(=O)[O-])cc6F)c6nc(c(-c7c(F)cc(S(=O)(=O)[O-])cc7F)c7ccc4[nH]7)C=C6)C=C5)cc3)n2)cc1
REMARK SMILES IDX 17 1 16 2 14 3 15 4 13 5 9 6 10 7 88 8 11 9 12 10 8 11 7 12
REMARK SMILES IDX 6 13 3 14 4 15 90 16 5 17 89 18 2 19 1 20 18 21 19 22 20 23
REMARK SMILES IDX 21 24 22 25 23 26 87 27 24 28 86 29 25 30 26 31 27 32 80 33
REMARK SMILES IDX 28 34 85 35 79 36 81 37 29 38 84 39 78 40 77 41 30 43 64 44
REMARK SMILES IDX 43 45 63 46 44 47 47 48 62 49 82 50 45 51 46 52 61 54 83 55
REMARK SMILES IDX 48 56 31 57 32 58 41 59 33 60 34 61 40 62 42 63 35 64 36 65
REMARK SMILES IDX 37 66 38 67 39 68 65 69 66 70 75 71 67 72 68 73 74 74 76 75
REMARK SMILES IDX 69 76 70 77 71 78 72 79 73 80 49 81 50 82 59 83 51 84 52 85
REMARK SMILES IDX 58 86 60 87 53 88 54 89 55 90 56 91 57 92
REMARK H PARENT 81 42 47 53
REMARK Flexibility Score: inf
ROOT
ATOM      1  C   UNL A   1      45.880  22.700  26.147  1.00  0.00     0.275 C 
ENDROOT
BRANCH   1   2
ATOM      2  O   UNL A   1      46.038  21.934  24.936  1.00  0.00    -0.457 OA
BRANCH   2   3
ATOM      3  C   UNL A   1      44.873  21.641  24.298  1.00  0.00     0.358 C 
ATOM      4  O   UNL A   1      44.512  22.107  23.230  1.00  0.00    -0.244 OA
BRANCH   3   5
ATOM      5  C   UNL A   1      44.082  20.601  25.000  1.00  0.00     0.170 A 
ATOM      6  C   UNL A   1      42.260  19.849  26.163  1.00  0.00     0.233 A 
ATOM      7  C   UNL A   1      42.793  18.559  26.124  1.00  0.00     0.179 A 
ATOM      8  N   UNL A   1      42.901  20.907  25.607  1.00  0.00    -0.203 NA
ATOM      9  N   UNL A   1      43.977  18.262  25.545  1.00  0.00    -0.257 NA
ATOM     10  C   UNL A   1      44.593  19.307  24.958  1.00  0.00     0.147 A 
BRANCH   6  11
ATOM     11  O   UNL A   1      40.960  20.076  26.543  1.00  0.00    -0.472 OA
BRANCH  11  12
ATOM     12  C   UNL A   1      40.690  21.434  26.922  1.00  0.00     0.267 C 
BRANCH  12  13
ATOM     13  C   UNL A   1      39.446  21.998  26.273  1.00  0.00    -0.010 A 
ATOM     14  C   UNL A   1      36.973  22.966  25.340  1.00  0.00     0.118 A 
ATOM     15  C   UNL A   1      37.392  21.673  25.022  1.00  0.00     0.047 A 
ATOM     16  C   UNL A   1      37.806  23.788  26.098  1.00  0.00     0.047 A 
ATOM     17  C   UNL A   1      38.631  21.197  25.459  1.00  0.00     0.011 A 
ATOM     18  C   UNL A   1      39.038  23.309  26.558  1.00  0.00     0.011 A 
BRANCH  14  19
ATOM     19  O   UNL A   1      35.720  23.289  24.899  1.00  0.00    -0.497 OA
ATOM     20  C   UNL A   1      34.983  22.243  24.277  1.00  0.00     0.278 C 
ENDBRANCH  14  19
ENDBRANCH  12  13
ENDBRANCH  11  12
ENDBRANCH   6  11
ENDBRANCH   3   5
ENDBRANCH   2   3
ENDBRANCH   1   2
BRANCH   1  21
ATOM     21  C   UNL A   1      45.155  24.021  25.887  1.00  0.00     0.275 C 
BRANCH  21  22
ATOM     22  O   UNL A   1      44.099  24.215  26.847  1.00  0.00    -0.458 OA
BRANCH  22  23
ATOM     23  C   UNL A   1      42.912  24.610  26.334  1.00  0.00     0.338 C 
ATOM     24  O   UNL A   1      42.367  24.187  25.322  1.00  0.00    -0.246 OA
BRANCH  23  25
ATOM     25  C   UNL A   1      42.290  25.638  27.184  1.00  0.00     0.060 A 
ATOM     26  C   UNL A   1      42.754  26.949  27.118  1.00  0.00     0.016 A 
ATOM     27  C   UNL A   1      41.392  25.269  28.185  1.00  0.00     0.016 A 
ATOM     28  C   UNL A   1      42.415  27.867  28.113  1.00  0.00     0.010 A 
ATOM     29  C   UNL A   1      40.982  26.217  29.133  1.00  0.00     0.010 A 
ATOM     30  C   UNL A   1      41.537  27.511  29.148  1.00  0.00    -0.014 A 
BRANCH  30  31
ATOM     31  C   UNL A   1      41.297  28.444  30.293  1.00  0.00     0.031 A 
ATOM     32  C   UNL A   1      42.221  28.427  31.492  1.00  0.00     0.074 A 
ATOM     33  C   UNL A   1      40.292  29.344  30.262  1.00  0.00     0.049 A 
ATOM     34  N   UNL A   1      42.109  29.053  32.637  1.00  0.00    -0.248 NA
ATOM     35  C   UNL A   1      43.419  27.577  31.399  1.00  0.00     0.031 C 
ATOM     36  C   UNL A   1      39.332  29.508  29.169  1.00  0.00     0.029 A 
ATOM     37  N   UNL A   1      39.922  30.307  31.171  1.00  0.00    -0.354 N 
ATOM     38  C   UNL A   1      43.174  28.619  33.420  1.00  0.00     0.074 A 
ATOM     39  C   UNL A   1      43.924  27.676  32.620  1.00  0.00     0.031 C 
ATOM     40  C   UNL A   1      38.517  30.538  29.448  1.00  0.00     0.029 A 
ATOM     41  C   UNL A   1      38.845  31.063  30.770  1.00  0.00     0.049 A 
ATOM     42  H   UNL A   1      40.383  30.442  32.030  1.00  0.00     0.167 HD
ATOM     43  C   UNL A   1      43.502  28.974  34.687  1.00  0.00     0.037 A 
ATOM     44  C   UNL A   1      38.177  32.049  31.400  1.00  0.00     0.037 A 
ATOM     45  C   UNL A   1      42.817  29.982  35.455  1.00  0.00     0.049 A 
ATOM     46  C   UNL A   1      38.591  32.464  32.785  1.00  0.00     0.074 A 
ATOM     47  C   UNL A   1      43.094  30.423  36.738  1.00  0.00     0.029 A 
ATOM     48  N   UNL A   1      41.740  30.728  35.003  1.00  0.00    -0.354 N 
ATOM     49  N   UNL A   1      39.560  31.992  33.531  1.00  0.00    -0.248 NA
ATOM     50  C   UNL A   1      37.811  33.537  33.418  1.00  0.00     0.031 C 
ATOM     51  C   UNL A   1      42.174  31.425  37.068  1.00  0.00     0.029 A 
ATOM     52  C   UNL A   1      41.345  31.630  35.978  1.00  0.00     0.049 A 
ATOM     53  H   UNL A   1      41.318  30.632  34.119  1.00  0.00     0.167 HD
ATOM     54  C   UNL A   1      39.508  32.712  34.719  1.00  0.00     0.074 A 
ATOM     55  C   UNL A   1      38.432  33.671  34.582  1.00  0.00     0.031 C 
ATOM     56  C   UNL A   1      40.275  32.582  35.830  1.00  0.00     0.037 A 
BRANCH  43  57
ATOM     57  C   UNL A   1      44.646  28.249  35.342  1.00  0.00     0.058 A 
ATOM     58  C   UNL A   1      44.461  27.071  36.081  1.00  0.00     0.135 A 
ATOM     59  C   UNL A   1      45.960  28.724  35.186  1.00  0.00     0.135 A 
ATOM     60  F   UNL A   1      43.225  26.583  36.274  1.00  0.00    -0.206 F 
ATOM     61  C   UNL A   1      45.533  26.403  36.663  1.00  0.00     0.059 A 
ATOM     62  C   UNL A   1      47.050  28.057  35.740  1.00  0.00     0.059 A 
ATOM     63  F   UNL A   1      46.195  29.845  34.487  1.00  0.00    -0.206 F 
ATOM     64  C   UNL A   1      46.824  26.904  36.488  1.00  0.00     0.060 A 
BRANCH  64  65
ATOM     65  S   UNL A   1      48.209  26.021  37.239  1.00  0.00     0.124 S 
ATOM     66  O   UNL A   1      49.292  26.987  37.074  1.00  0.00    -0.237 OA
ATOM     67  O   UNL A   1      47.747  25.816  38.608  1.00  0.00    -0.237 OA
ATOM     68  O   UNL A   1      48.319  24.811  36.431  1.00  0.00    -0.744 OA
ENDBRANCH  64  65
ENDBRANCH  43  57
BRANCH  44  69
ATOM     69  C   UNL A   1      37.015  32.701  30.734  1.00  0.00     0.058 A 
ATOM     70  C   UNL A   1      35.699  32.318  31.031  1.00  0.00     0.135 A 
ATOM     71  C   UNL A   1      37.202  33.721  29.788  1.00  0.00     0.135 A 
ATOM     72  F   UNL A   1      35.470  31.338  31.918  1.00  0.00    -0.206 F 
ATOM     73  C   UNL A   1      34.609  32.913  30.405  1.00  0.00     0.059 A 
ATOM     74  C   UNL A   1      36.127  34.349  29.169  1.00  0.00     0.059 A 
ATOM     75  F   UNL A   1      38.442  34.130  29.476  1.00  0.00    -0.206 F 
ATOM     76  C   UNL A   1      34.834  33.930  29.475  1.00  0.00     0.060 A 
BRANCH  76  77
ATOM     77  S   UNL A   1      33.416  34.738  28.701  1.00  0.00     0.124 S 
ATOM     78  O   UNL A   1      34.041  35.905  28.092  1.00  0.00    -0.237 OA
ATOM     79  O   UNL A   1      32.939  33.713  27.777  1.00  0.00    -0.237 OA
ATOM     80  O   UNL A   1      32.532  35.008  29.831  1.00  0.00    -0.744 OA
ENDBRANCH  76  77
ENDBRANCH  44  69
BRANCH  56  81
ATOM     81  C   UNL A   1      39.994  33.521  36.969  1.00  0.00     0.058 A 
ATOM     82  C   UNL A   1      40.740  34.695  37.156  1.00  0.00     0.135 A 
ATOM     83  C   UNL A   1      38.964  33.245  37.882  1.00  0.00     0.135 A 
ATOM     84  F   UNL A   1      41.738  35.001  36.312  1.00  0.00    -0.206 F 
ATOM     85  C   UNL A   1      40.502  35.544  38.232  1.00  0.00     0.059 A 
ATOM     86  C   UNL A   1      38.693  34.092  38.953  1.00  0.00     0.059 A 
ATOM     87  F   UNL A   1      38.212  32.142  37.742  1.00  0.00    -0.206 F 
ATOM     88  C   UNL A   1      39.481  35.229  39.130  1.00  0.00     0.060 A 
BRANCH  88  89
ATOM     89  S   UNL A   1      39.182  36.329  40.531  1.00  0.00     0.124 S 
ATOM     90  O   UNL A   1      40.535  36.534  41.037  1.00  0.00    -0.237 OA
ATOM     91  O   UNL A   1      38.560  37.488  39.897  1.00  0.00    -0.237 OA
ATOM     92  O   UNL A   1      38.299  35.547  41.392  1.00  0.00    -0.744 OA
ENDBRANCH  88  89
ENDBRANCH  56  81
ENDBRANCH  30  31
ENDBRANCH  23  25
ENDBRANCH  22  23
ENDBRANCH  21  22
ENDBRANCH   1  21
TORSDOF 18
ENDMDL
MODEL 3
REMARK VINA RESULT:      -9.7      1.014      2.075
REMARK SMILES COc1ccc(COc2cncc(C(=O)OCCOC(=O)c3ccc(-c4c5nc(c(-c6c(F)cc(S(=O)(=O)[O-])cc6F)c6ccc([nH]6)c(-c6c(F)cc(S(=O)(=O)[O-])cc6F)c6nc(c(-c7c(F)cc(S(=O)(=O)[O-])cc7F)c7ccc4[nH]7)C=C6)C=C5)cc3)n2)cc1
REMARK SMILES IDX 17 1 16 2 14 3 15 4 13 5 9 6 10 7 88 8 11 9 12 10 8 11 7 12
REMARK SMILES IDX 6 13 3 14 4 15 90 16 5 17 89 18 2 19 1 20 18 21 19 22 20 23
REMARK SMILES IDX 21 24 22 25 23 26 87 27 24 28 86 29 25 30 26 31 27 32 80 33
REMARK SMILES IDX 28 34 85 35 79 36 81 37 29 38 84 39 78 40 77 41 30 43 64 44
REMARK SMILES IDX 43 45 63 46 44 47 47 48 62 49 82 50 45 51 46 52 61 54 83 55
REMARK SMILES IDX 48 56 31 57 32 58 41 59 33 60 34 61 40 62 42 63 35 64 36 65
REMARK SMILES IDX 37 66 38 67 39 68 65 69 66 70 75 71 67 72 68 73 74 74 76 75
REMARK SMILES IDX 69 76 70 77 71 78 72 79 73 80 49 81 50 82 59 83 51 84 52 85
REMARK SMILES IDX 58 86 60 87 53 88 54 89 55 90 56 91 57 92
REMARK H PARENT 81 42 47 53
REMARK Flexibility Score: inf
ROOT
ATOM      1  C   UNL A   1      40.964  19.251  26.406  1.00  0.00     0.275 C 
ENDROOT
BRANCH   1   2
ATOM      2  O   UNL A   1      41.914  18.950  25.364  1.00  0.00    -0.457 OA
BRANCH   2   3
ATOM      3  C   UNL A   1      43.090  18.432  25.806  1.00  0.00     0.358 C 
ATOM      4  O   UNL A   1      43.211  17.435  26.499  1.00  0.00    -0.244 OA
BRANCH   3   5
ATOM      5  C   UNL A   1      44.270  19.163  25.282  1.00  0.00     0.170 A 
ATOM      6  C   UNL A   1      45.292  20.929  24.246  1.00  0.00     0.233 A 
ATOM      7  C   UNL A   1      46.530  20.340  24.508  1.00  0.00     0.179 A 
ATOM      8  N   UNL A   1      44.126  20.346  24.622  1.00  0.00    -0.203 NA
ATOM      9  N   UNL A   1      46.670  19.154  25.140  1.00  0.00    -0.257 NA
ATOM     10  C   UNL A   1      45.513  18.596  25.548  1.00  0.00     0.147 A 
BRANCH   6  11
ATOM     11  O   UNL A   1      45.193  22.232  23.821  1.00  0.00    -0.472 OA
BRANCH  11  12
ATOM     12  C   UNL A   1      44.510  23.097  24.740  1.00  0.00     0.267 C 
BRANCH  12  13
ATOM     13  C   UNL A   1      45.440  23.786  25.715  1.00  0.00    -0.010 A 
ATOM     14  C   UNL A   1      47.362  24.800  27.504  1.00  0.00     0.118 A 
ATOM     15  C   UNL A   1      46.233  24.129  27.982  1.00  0.00     0.047 A 
ATOM     16  C   UNL A   1      47.512  24.992  26.132  1.00  0.00     0.047 A 
ATOM     17  C   UNL A   1      45.263  23.648  27.099  1.00  0.00     0.011 A 
ATOM     18  C   UNL A   1      46.555  24.492  25.241  1.00  0.00     0.011 A 
BRANCH  14  19
ATOM     19  O   UNL A   1      48.260  25.170  28.465  1.00  0.00    -0.497 OA
ATOM     20  C   UNL A   1      49.619  24.830  28.222  1.00  0.00     0.278 C 
ENDBRANCH  14  19
ENDBRANCH  12  13
ENDBRANCH  11  12
ENDBRANCH   6  11
ENDBRANCH   3   5
ENDBRANCH   2   3
ENDBRANCH   1   2
BRANCH   1  21
ATOM     21  C   UNL A   1      41.475  20.357  27.330  1.00  0.00     0.275 C 
BRANCH  21  22
ATOM     22  O   UNL A   1      40.389  21.199  27.759  1.00  0.00    -0.458 OA
BRANCH  22  23
ATOM     23  C   UNL A   1      40.036  22.178  26.895  1.00  0.00     0.338 C 
ATOM     24  O   UNL A   1      39.580  22.038  25.767  1.00  0.00    -0.246 OA
BRANCH  23  25
ATOM     25  C   UNL A   1      40.238  23.506  27.497  1.00  0.00     0.060 A 
ATOM     26  C   UNL A   1      39.556  24.601  26.974  1.00  0.00     0.016 A 
ATOM     27  C   UNL A   1      41.245  23.701  28.441  1.00  0.00     0.016 A 
ATOM     28  C   UNL A   1      39.950  25.899  27.304  1.00  0.00     0.010 A 
ATOM     29  C   UNL A   1      41.581  25.002  28.838  1.00  0.00     0.010 A 
ATOM     30  C   UNL A   1      40.983  26.121  28.228  1.00  0.00    -0.014 A 
BRANCH  30  31
ATOM     31  C   UNL A   1      41.506  27.504  28.462  1.00  0.00     0.031 A 
ATOM     32  C   UNL A   1      42.893  27.882  27.989  1.00  0.00     0.074 A 
ATOM     33  C   UNL A   1      40.742  28.449  29.050  1.00  0.00     0.049 A 
ATOM     34  N   UNL A   1      43.579  28.975  28.212  1.00  0.00    -0.248 NA
ATOM     35  C   UNL A   1      43.613  26.888  27.176  1.00  0.00     0.031 C 
ATOM     36  C   UNL A   1      39.375  28.255  29.536  1.00  0.00     0.029 A 
ATOM     37  N   UNL A   1      41.002  29.771  29.322  1.00  0.00    -0.354 N 
ATOM     38  C   UNL A   1      44.828  28.771  27.633  1.00  0.00     0.074 A 
ATOM     39  C   UNL A   1      44.806  27.450  27.046  1.00  0.00     0.031 C 
ATOM     40  C   UNL A   1      38.902  29.423  30.000  1.00  0.00     0.029 A 
ATOM     41  C   UNL A   1      39.953  30.433  29.915  1.00  0.00     0.049 A 
ATOM     42  H   UNL A   1      41.862  30.205  29.113  1.00  0.00     0.167 HD
ATOM     43  C   UNL A   1      45.894  29.608  27.588  1.00  0.00     0.037 A 
ATOM     44  C   UNL A   1      39.849  31.699  30.365  1.00  0.00     0.037 A 
ATOM     45  C   UNL A   1      45.891  30.960  28.086  1.00  0.00     0.049 A 
ATOM     46  C   UNL A   1      41.028  32.626  30.257  1.00  0.00     0.074 A 
ATOM     47  C   UNL A   1      46.919  31.888  28.063  1.00  0.00     0.029 A 
ATOM     48  N   UNL A   1      44.802  31.589  28.667  1.00  0.00    -0.354 N 
ATOM     49  N   UNL A   1      42.220  32.391  29.766  1.00  0.00    -0.248 NA
ATOM     50  C   UNL A   1      40.850  33.990  30.778  1.00  0.00     0.031 C 
ATOM     51  C   UNL A   1      46.456  33.074  28.646  1.00  0.00     0.029 A 
ATOM     52  C   UNL A   1      45.130  32.894  29.001  1.00  0.00     0.049 A 
ATOM     53  H   UNL A   1      43.924  31.171  28.821  1.00  0.00     0.167 HD
ATOM     54  C   UNL A   1      42.932  33.575  29.916  1.00  0.00     0.074 A 
ATOM     55  C   UNL A   1      42.030  34.535  30.516  1.00  0.00     0.031 C 
ATOM     56  C   UNL A   1      44.223  33.841  29.596  1.00  0.00     0.037 A 
BRANCH  43  57
ATOM     57  C   UNL A   1      47.173  29.079  26.998  1.00  0.00     0.058 A 
ATOM     58  C   UNL A   1      48.277  28.734  27.793  1.00  0.00     0.135 A 
ATOM     59  C   UNL A   1      47.275  28.875  25.611  1.00  0.00     0.135 A 
ATOM     60  F   UNL A   1      48.238  28.924  29.122  1.00  0.00    -0.206 F 
ATOM     61  C   UNL A   1      49.445  28.227  27.232  1.00  0.00     0.059 A 
ATOM     62  C   UNL A   1      48.426  28.346  25.032  1.00  0.00     0.059 A 
ATOM     63  F   UNL A   1      46.249  29.186  24.805  1.00  0.00    -0.206 F 
ATOM     64  C   UNL A   1      49.511  28.038  25.851  1.00  0.00     0.060 A 
BRANCH  64  65
ATOM     65  S   UNL A   1      51.028  27.369  25.136  1.00  0.00     0.124 S 
ATOM     66  O   UNL A   1      52.006  27.700  26.168  1.00  0.00    -0.237 OA
ATOM     67  O   UNL A   1      50.711  25.952  24.996  1.00  0.00    -0.237 OA
ATOM     68  O   UNL A   1      51.165  28.103  23.882  1.00  0.00    -0.744 OA
ENDBRANCH  64  65
ENDBRANCH  43  57
BRANCH  44  69
ATOM     69  C   UNL A   1      38.580  32.162  30.991  1.00  0.00     0.058 A 
ATOM     70  C   UNL A   1      38.351  32.008  32.366  1.00  0.00     0.135 A 
ATOM     71  C   UNL A   1      37.573  32.769  30.224  1.00  0.00     0.135 A 
ATOM     72  F   UNL A   1      39.277  31.420  33.139  1.00  0.00    -0.206 F 
ATOM     73  C   UNL A   1      37.163  32.427  32.958  1.00  0.00     0.059 A 
ATOM     74  C   UNL A   1      36.390  33.220  30.797  1.00  0.00     0.059 A 
ATOM     75  F   UNL A   1      37.749  32.949  28.906  1.00  0.00    -0.206 F 
ATOM     76  C   UNL A   1      36.189  33.033  32.164  1.00  0.00     0.060 A 
BRANCH  76  77
ATOM     77  S   UNL A   1      34.669  33.624  32.942  1.00  0.00     0.124 S 
ATOM     78  O   UNL A   1      33.682  32.704  32.392  1.00  0.00    -0.237 OA
ATOM     79  O   UNL A   1      34.966  33.469  34.363  1.00  0.00    -0.237 OA
ATOM     80  O   UNL A   1      34.576  35.006  32.479  1.00  0.00    -0.744 OA
ENDBRANCH  76  77
ENDBRANCH  44  69
BRANCH  56  81
ATOM     81  C   UNL A   1      44.722  35.233  29.864  1.00  0.00     0.058 A 
ATOM     82  C   UNL A   1      45.327  35.575  31.084  1.00  0.00     0.135 A 
ATOM     83  C   UNL A   1      44.596  36.235  28.890  1.00  0.00     0.135 A 
ATOM     84  F   UNL A   1      45.467  34.652  32.049  1.00  0.00    -0.206 F 
ATOM     85  C   UNL A   1      45.755  36.872  31.344  1.00  0.00     0.059 A 
ATOM     86  C   UNL A   1      45.037  37.535  29.120  1.00  0.00     0.059 A 
ATOM     87  F   UNL A   1      44.035  35.958  27.702  1.00  0.00    -0.206 F 
ATOM     88  C   UNL A   1      45.598  37.848  30.358  1.00  0.00     0.060 A 
BRANCH  88  89
ATOM     89  S   UNL A   1      46.146  39.534  30.704  1.00  0.00     0.124 S 
ATOM     90  O   UNL A   1      44.896  40.172  31.105  1.00  0.00    -0.237 OA
ATOM     91  O   UNL A   1      47.127  39.337  31.767  1.00  0.00    -0.237 OA
ATOM     92  O   UNL A   1      46.698  39.978  29.427  1.00  0.00    -0.744 OA
ENDBRANCH  88  89
ENDBRANCH  56  81
ENDBRANCH  30  31
ENDBRANCH  23  25
ENDBRANCH  22  23
ENDBRANCH  21  22
ENDBRANCH   1  21
TORSDOF 18
ENDMDL
