MODEL 1
REMARK VINA RESULT:      -9.9      0.000      0.000
REMARK SMILES CN(c1ccc(C(=O)OCCOC(=O)c2ccc(-c3c4nc(c(-c5c(F)cc(S(=O)(=O)[O-])cc5F)c5ccc([nH]5)c(-c5c(F)cc(S(=O)(=O)[O-])cc5F)c5nc(c(-c6c(F)cc(S(=O)(=O)[O-])cc6F)c6ccc3[nH]6)C=C5)C=C4)cc2)cc1[N+](=O)[O-])C1CC1
REMARK SMILES IDX 11 1 10 2 9 3 7 4 8 5 6 6 3 7 4 8 82 9 5 10 81 11 2 12 1 13
REMARK SMILES IDX 86 14 87 15 88 16 83 17 84 18 85 19 12 20 13 21 14 22 15 23
REMARK SMILES IDX 16 24 80 25 17 26 79 27 18 28 19 29 20 30 73 31 21 32 78 33
REMARK SMILES IDX 72 34 74 35 22 36 77 37 71 38 70 39 23 41 57 42 36 43 56 44
REMARK SMILES IDX 37 45 40 46 55 47 75 48 38 49 39 50 54 52 76 53 41 54 24 55
REMARK SMILES IDX 25 56 34 57 26 58 27 59 33 60 35 61 28 62 29 63 30 64 31 65
REMARK SMILES IDX 32 66 58 67 59 68 68 69 60 70 61 71 67 72 69 73 62 74 63 75
REMARK SMILES IDX 64 76 65 77 66 78 42 79 43 80 52 81 44 82 45 83 51 84 53 85
REMARK SMILES IDX 46 86 47 87 48 88 49 89 50 90
REMARK H PARENT 74 40 40 51
REMARK Flexibility Score: inf
ROOT
ATOM      1  C   UNL A   1      32.751  31.408  27.169  1.00  0.00     0.275 C 
ENDROOT
BRANCH   1   2
ATOM      2  C   UNL A   1      32.366  32.881  27.328  1.00  0.00     0.275 C 
BRANCH   2   3
ATOM      3  O   UNL A   1      33.514  33.712  27.610  1.00  0.00    -0.458 OA
BRANCH   3   4
ATOM      4  C   UNL A   1      33.402  34.509  28.700  1.00  0.00     0.338 C 
ATOM      5  O   UNL A   1      32.481  35.265  28.951  1.00  0.00    -0.246 OA
BRANCH   4   6
ATOM      6  C   UNL A   1      34.543  34.320  29.630  1.00  0.00     0.067 A 
ATOM      7  C   UNL A   1      36.716  33.646  31.348  1.00  0.00     0.116 A 
ATOM      8  C   UNL A   1      36.821  33.531  29.955  1.00  0.00     0.034 A 
ATOM      9  C   UNL A   1      35.505  34.182  31.846  1.00  0.00     0.293 A 
ATOM     10  C   UNL A   1      35.742  33.819  29.120  1.00  0.00     0.018 A 
ATOM     11  C   UNL A   1      34.427  34.531  30.999  1.00  0.00     0.103 A 
BRANCH   7  12
ATOM     12  N   UNL A   1      37.768  33.151  32.145  1.00  0.00    -0.366 N 
ATOM     13  C   UNL A   1      38.805  34.122  32.499  1.00  0.00     0.144 C 
BRANCH  12  14
ATOM     14  C   UNL A   1      37.531  32.087  33.139  1.00  0.00     0.082 C 
ATOM     15  C   UNL A   1      36.722  30.869  32.795  1.00  0.00     0.027 C 
ATOM     16  C   UNL A   1      38.203  30.749  33.007  1.00  0.00     0.027 C 
ENDBRANCH  12  14
ENDBRANCH   7  12
BRANCH   9  17
ATOM     17  N   UNL A   1      35.298  34.383  33.278  1.00  0.00     0.065 N 
ATOM     18  O   UNL A   1      35.851  35.373  33.788  1.00  0.00    -0.258 OA
ATOM     19  O   UNL A   1      34.618  33.565  33.909  1.00  0.00    -0.258 OA
ENDBRANCH   9  17
ENDBRANCH   4   6
ENDBRANCH   3   4
ENDBRANCH   2   3
ENDBRANCH   1   2
BRANCH   1  20
ATOM     20  O   UNL A   1      33.837  31.047  28.043  1.00  0.00    -0.458 OA
BRANCH  20  21
ATOM     21  C   UNL A   1      34.369  29.828  27.806  1.00  0.00     0.338 C 
ATOM     22  O   UNL A   1      33.834  28.882  27.251  1.00  0.00    -0.246 OA
BRANCH  21  23
ATOM     23  C   UNL A   1      35.775  29.795  28.224  1.00  0.00     0.060 A 
ATOM     24  C   UNL A   1      36.740  30.040  27.255  1.00  0.00     0.016 A 
ATOM     25  C   UNL A   1      36.150  29.337  29.482  1.00  0.00     0.016 A 
ATOM     26  C   UNL A   1      38.065  29.693  27.476  1.00  0.00     0.010 A 
ATOM     27  C   UNL A   1      37.507  29.119  29.751  1.00  0.00     0.010 A 
ATOM     28  C   UNL A   1      38.478  29.250  28.737  1.00  0.00    -0.014 A 
BRANCH  28  29
ATOM     29  C   UNL A   1      39.909  28.920  28.994  1.00  0.00     0.031 A 
ATOM     30  C   UNL A   1      40.841  29.976  29.529  1.00  0.00     0.074 A 
ATOM     31  C   UNL A   1      40.377  27.681  28.735  1.00  0.00     0.049 A 
ATOM     32  N   UNL A   1      42.148  29.967  29.602  1.00  0.00    -0.248 NA
ATOM     33  C   UNL A   1      40.225  31.216  30.031  1.00  0.00     0.031 C 
ATOM     34  C   UNL A   1      39.575  26.547  28.269  1.00  0.00     0.029 A 
ATOM     35  N   UNL A   1      41.649  27.167  28.817  1.00  0.00    -0.354 N 
ATOM     36  C   UNL A   1      42.512  31.215  30.098  1.00  0.00     0.074 A 
ATOM     37  C   UNL A   1      41.288  31.959  30.302  1.00  0.00     0.031 C 
ATOM     38  C   UNL A   1      40.362  25.472  28.127  1.00  0.00     0.029 A 
ATOM     39  C   UNL A   1      41.741  25.863  28.385  1.00  0.00     0.049 A 
ATOM     40  H   UNL A   1      42.419  27.680  29.153  1.00  0.00     0.167 HD
ATOM     41  C   UNL A   1      43.754  31.692  30.353  1.00  0.00     0.037 A 
ATOM     42  C   UNL A   1      42.815  25.083  28.154  1.00  0.00     0.037 A 
ATOM     43  C   UNL A   1      44.959  30.917  30.185  1.00  0.00     0.049 A 
ATOM     44  C   UNL A   1      44.186  25.650  28.389  1.00  0.00     0.074 A 
ATOM     45  C   UNL A   1      46.266  31.295  30.435  1.00  0.00     0.029 A 
ATOM     46  N   UNL A   1      45.002  29.607  29.730  1.00  0.00    -0.354 N 
ATOM     47  N   UNL A   1      44.519  26.844  28.819  1.00  0.00    -0.248 NA
ATOM     48  C   UNL A   1      45.327  24.774  28.096  1.00  0.00     0.031 C 
ATOM     49  C   UNL A   1      47.103  30.233  30.080  1.00  0.00     0.029 A 
ATOM     50  C   UNL A   1      46.315  29.168  29.672  1.00  0.00     0.049 A 
ATOM     51  H   UNL A   1      44.216  29.067  29.485  1.00  0.00     0.167 HD
ATOM     52  C   UNL A   1      45.907  26.852  28.878  1.00  0.00     0.074 A 
ATOM     53  C   UNL A   1      46.350  25.543  28.443  1.00  0.00     0.031 C 
ATOM     54  C   UNL A   1      46.738  27.853  29.258  1.00  0.00     0.037 A 
BRANCH  41  55
ATOM     55  C   UNL A   1      43.886  33.123  30.801  1.00  0.00     0.058 A 
ATOM     56  C   UNL A   1      43.957  33.484  32.155  1.00  0.00     0.135 A 
ATOM     57  C   UNL A   1      43.988  34.153  29.848  1.00  0.00     0.135 A 
ATOM     58  F   UNL A   1      43.851  32.547  33.110  1.00  0.00    -0.206 F 
ATOM     59  C   UNL A   1      44.095  34.812  32.551  1.00  0.00     0.059 A 
ATOM     60  C   UNL A   1      44.158  35.484  30.219  1.00  0.00     0.059 A 
ATOM     61  F   UNL A   1      43.928  33.869  28.537  1.00  0.00    -0.206 F 
ATOM     62  C   UNL A   1      44.196  35.805  31.574  1.00  0.00     0.060 A 
BRANCH  62  63
ATOM     63  S   UNL A   1      44.379  37.522  32.103  1.00  0.00     0.124 S 
ATOM     64  O   UNL A   1      44.014  38.243  30.888  1.00  0.00    -0.237 OA
ATOM     65  O   UNL A   1      43.425  37.611  33.203  1.00  0.00    -0.237 OA
ATOM     66  O   UNL A   1      45.784  37.613  32.487  1.00  0.00    -0.744 OA
ENDBRANCH  62  63
ENDBRANCH  41  55
BRANCH  42  67
ATOM     67  C   UNL A   1      42.629  23.703  27.625  1.00  0.00     0.058 A 
ATOM     68  C   UNL A   1      42.674  23.444  26.248  1.00  0.00     0.135 A 
ATOM     69  C   UNL A   1      42.433  22.612  28.488  1.00  0.00     0.135 A 
ATOM     70  F   UNL A   1      42.851  24.453  25.381  1.00  0.00    -0.206 F 
ATOM     71  C   UNL A   1      42.519  22.158  25.743  1.00  0.00     0.059 A 
ATOM     72  C   UNL A   1      42.310  21.312  28.009  1.00  0.00     0.059 A 
ATOM     73  F   UNL A   1      42.397  22.801  29.816  1.00  0.00    -0.206 F 
ATOM     74  C   UNL A   1      42.343  21.096  26.633  1.00  0.00     0.060 A 
BRANCH  74  75
ATOM     75  S   UNL A   1      42.196  19.423  25.968  1.00  0.00     0.124 S 
ATOM     76  O   UNL A   1      42.984  19.525  24.745  1.00  0.00    -0.237 OA
ATOM     77  O   UNL A   1      42.779  18.618  27.038  1.00  0.00    -0.237 OA
ATOM     78  O   UNL A   1      40.758  19.260  25.782  1.00  0.00    -0.744 OA
ENDBRANCH  74  75
ENDBRANCH  42  67
BRANCH  54  79
ATOM     79  C   UNL A   1      48.211  27.561  29.284  1.00  0.00     0.058 A 
ATOM     80  C   UNL A   1      49.028  27.764  28.162  1.00  0.00     0.135 A 
ATOM     81  C   UNL A   1      48.824  27.149  30.479  1.00  0.00     0.135 A 
ATOM     82  F   UNL A   1      48.490  28.145  26.992  1.00  0.00    -0.206 F 
ATOM     83  C   UNL A   1      50.403  27.560  28.221  1.00  0.00     0.059 A 
ATOM     84  C   UNL A   1      50.199  26.968  30.569  1.00  0.00     0.059 A 
ATOM     85  F   UNL A   1      48.086  26.947  31.582  1.00  0.00    -0.206 F 
ATOM     86  C   UNL A   1      50.980  27.172  29.433  1.00  0.00     0.060 A 
BRANCH  86  87
ATOM     87  S   UNL A   1      52.773  26.977  29.512  1.00  0.00     0.124 S 
ATOM     88  O   UNL A   1      53.201  28.325  29.867  1.00  0.00    -0.237 OA
ATOM     89  O   UNL A   1      52.930  25.966  30.554  1.00  0.00    -0.237 OA
ATOM     90  O   UNL A   1      53.127  26.539  28.165  1.00  0.00    -0.744 OA
ENDBRANCH  86  87
ENDBRANCH  54  79
ENDBRANCH  28  29
ENDBRANCH  21  23
ENDBRANCH  20  21
ENDBRANCH   1  20
TORSDOF 17
ENDMDL
MODEL 2
REMARK VINA RESULT:      -9.5      5.528     11.982
REMARK SMILES CN(c1ccc(C(=O)OCCOC(=O)c2ccc(-c3c4nc(c(-c5c(F)cc(S(=O)(=O)[O-])cc5F)c5ccc([nH]5)c(-c5c(F)cc(S(=O)(=O)[O-])cc5F)c5nc(c(-c6c(F)cc(S(=O)(=O)[O-])cc6F)c6ccc3[nH]6)C=C5)C=C4)cc2)cc1[N+](=O)[O-])C1CC1
REMARK SMILES IDX 11 1 10 2 9 3 7 4 8 5 6 6 3 7 4 8 82 9 5 10 81 11 2 12 1 13
REMARK SMILES IDX 86 14 87 15 88 16 83 17 84 18 85 19 12 20 13 21 14 22 15 23
REMARK SMILES IDX 16 24 80 25 17 26 79 27 18 28 19 29 20 30 73 31 21 32 78 33
REMARK SMILES IDX 72 34 74 35 22 36 77 37 71 38 70 39 23 41 57 42 36 43 56 44
REMARK SMILES IDX 37 45 40 46 55 47 75 48 38 49 39 50 54 52 76 53 41 54 24 55
REMARK SMILES IDX 25 56 34 57 26 58 27 59 33 60 35 61 28 62 29 63 30 64 31 65
REMARK SMILES IDX 32 66 58 67 59 68 68 69 60 70 61 71 67 72 69 73 62 74 63 75
REMARK SMILES IDX 64 76 65 77 66 78 42 79 43 80 52 81 44 82 45 83 51 84 53 85
REMARK SMILES IDX 46 86 47 87 48 88 49 89 50 90
REMARK H PARENT 74 40 40 51
REMARK Flexibility Score: inf
ROOT
ATOM      1  C   UNL A   1      39.369  22.696  26.608  1.00  0.00     0.275 C 
ENDROOT
BRANCH   1   2
ATOM      2  C   UNL A   1      38.252  22.114  25.737  1.00  0.00     0.275 C 
BRANCH   2   3
ATOM      3  O   UNL A   1      37.260  23.108  25.398  1.00  0.00    -0.458 OA
BRANCH   3   4
ATOM      4  C   UNL A   1      35.974  22.752  25.642  1.00  0.00     0.338 C 
ATOM      5  O   UNL A   1      35.598  21.738  26.199  1.00  0.00    -0.246 OA
BRANCH   4   6
ATOM      6  C   UNL A   1      35.028  23.801  25.187  1.00  0.00     0.067 A 
ATOM      7  C   UNL A   1      32.977  25.632  24.431  1.00  0.00     0.116 A 
ATOM      8  C   UNL A   1      33.291  25.399  25.776  1.00  0.00     0.034 A 
ATOM      9  C   UNL A   1      33.780  24.969  23.474  1.00  0.00     0.293 A 
ATOM     10  C   UNL A   1      34.263  24.470  26.144  1.00  0.00     0.018 A 
ATOM     11  C   UNL A   1      34.808  24.069  23.840  1.00  0.00     0.103 A 
BRANCH   7  12
ATOM     12  N   UNL A   1      31.853  26.428  24.130  1.00  0.00    -0.366 N 
ATOM     13  C   UNL A   1      30.553  25.775  24.289  1.00  0.00     0.144 C 
BRANCH  12  14
ATOM     14  C   UNL A   1      31.866  27.882  24.377  1.00  0.00     0.082 C 
ATOM     15  C   UNL A   1      33.055  28.722  24.011  1.00  0.00     0.027 C 
ATOM     16  C   UNL A   1      31.777  28.857  23.236  1.00  0.00     0.027 C 
ENDBRANCH  12  14
ENDBRANCH   7  12
BRANCH   9  17
ATOM     17  N   UNL A   1      33.570  25.166  22.041  1.00  0.00     0.065 N 
ATOM     18  O   UNL A   1      33.173  24.181  21.395  1.00  0.00    -0.258 OA
ATOM     19  O   UNL A   1      33.816  26.272  21.543  1.00  0.00    -0.258 OA
ENDBRANCH   9  17
ENDBRANCH   4   6
ENDBRANCH   3   4
ENDBRANCH   2   3
ENDBRANCH   1   2
BRANCH   1  20
ATOM     20  O   UNL A   1      39.269  24.128  26.712  1.00  0.00    -0.458 OA
BRANCH  20  21
ATOM     21  C   UNL A   1      40.447  24.783  26.635  1.00  0.00     0.338 C 
ATOM     22  O   UNL A   1      41.249  24.758  25.715  1.00  0.00    -0.246 OA
BRANCH  21  23
ATOM     23  C   UNL A   1      40.623  25.657  27.800  1.00  0.00     0.060 A 
ATOM     24  C   UNL A   1      39.564  25.758  28.695  1.00  0.00     0.016 A 
ATOM     25  C   UNL A   1      41.714  26.512  27.910  1.00  0.00     0.016 A 
ATOM     26  C   UNL A   1      39.511  26.800  29.609  1.00  0.00     0.010 A 
ATOM     27  C   UNL A   1      41.722  27.478  28.925  1.00  0.00     0.010 A 
ATOM     28  C   UNL A   1      40.601  27.664  29.759  1.00  0.00    -0.014 A 
BRANCH  28  29
ATOM     29  C   UNL A   1      40.568  28.757  30.772  1.00  0.00     0.031 A 
ATOM     30  C   UNL A   1      41.501  28.717  31.955  1.00  0.00     0.074 A 
ATOM     31  C   UNL A   1      39.695  29.778  30.642  1.00  0.00     0.049 A 
ATOM     32  N   UNL A   1      41.478  29.429  33.052  1.00  0.00    -0.248 NA
ATOM     33  C   UNL A   1      42.594  27.731  31.907  1.00  0.00     0.031 C 
ATOM     34  C   UNL A   1      38.774  29.973  29.519  1.00  0.00     0.029 A 
ATOM     35  N   UNL A   1      39.428  30.843  31.469  1.00  0.00    -0.354 N 
ATOM     36  C   UNL A   1      42.509  28.938  33.848  1.00  0.00     0.074 A 
ATOM     37  C   UNL A   1      43.134  27.863  33.110  1.00  0.00     0.031 C 
ATOM     38  C   UNL A   1      38.063  31.093  29.714  1.00  0.00     0.029 A 
ATOM     39  C   UNL A   1      38.396  31.637  31.024  1.00  0.00     0.049 A 
ATOM     40  H   UNL A   1      39.927  31.021  32.299  1.00  0.00     0.167 HD
ATOM     41  C   UNL A   1      42.890  29.349  35.082  1.00  0.00     0.037 A 
ATOM     42  C   UNL A   1      37.739  32.649  31.622  1.00  0.00     0.037 A 
ATOM     43  C   UNL A   1      42.282  30.453  35.781  1.00  0.00     0.049 A 
ATOM     44  C   UNL A   1      38.140  33.052  33.013  1.00  0.00     0.074 A 
ATOM     45  C   UNL A   1      42.606  30.967  37.024  1.00  0.00     0.029 A 
ATOM     46  N   UNL A   1      41.230  31.217  35.296  1.00  0.00    -0.354 N 
ATOM     47  N   UNL A   1      39.089  32.554  33.770  1.00  0.00    -0.248 NA
ATOM     48  C   UNL A   1      37.377  34.139  33.637  1.00  0.00     0.031 C 
ATOM     49  C   UNL A   1      41.715  32.005  37.314  1.00  0.00     0.029 A 
ATOM     50  C   UNL A   1      40.878  32.184  36.224  1.00  0.00     0.049 A 
ATOM     51  H   UNL A   1      40.797  31.092  34.420  1.00  0.00     0.167 HD
ATOM     52  C   UNL A   1      39.057  33.289  34.949  1.00  0.00     0.074 A 
ATOM     53  C   UNL A   1      37.998  34.267  34.802  1.00  0.00     0.031 C 
ATOM     54  C   UNL A   1      39.835  33.165  36.052  1.00  0.00     0.037 A 
BRANCH  41  55
ATOM     55  C   UNL A   1      43.986  28.584  35.776  1.00  0.00     0.058 A 
ATOM     56  C   UNL A   1      43.723  27.497  36.623  1.00  0.00     0.135 A 
ATOM     57  C   UNL A   1      45.332  28.922  35.551  1.00  0.00     0.135 A 
ATOM     58  F   UNL A   1      42.457  27.136  36.887  1.00  0.00    -0.206 F 
ATOM     59  C   UNL A   1      44.750  26.791  37.245  1.00  0.00     0.059 A 
ATOM     60  C   UNL A   1      46.377  28.212  36.136  1.00  0.00     0.059 A 
ATOM     61  F   UNL A   1      45.645  29.952  34.748  1.00  0.00    -0.206 F 
ATOM     62  C   UNL A   1      46.075  27.156  36.993  1.00  0.00     0.060 A 
BRANCH  62  63
ATOM     63  S   UNL A   1      47.395  26.228  37.803  1.00  0.00     0.124 S 
ATOM     64  O   UNL A   1      48.417  27.257  37.967  1.00  0.00    -0.237 OA
ATOM     65  O   UNL A   1      46.749  25.776  39.031  1.00  0.00    -0.237 OA
ATOM     66  O   UNL A   1      47.713  25.177  36.842  1.00  0.00    -0.744 OA
ENDBRANCH  62  63
ENDBRANCH  41  55
BRANCH  42  67
ATOM     67  C   UNL A   1      36.603  33.312  30.924  1.00  0.00     0.058 A 
ATOM     68  C   UNL A   1      35.278  33.093  31.329  1.00  0.00     0.135 A 
ATOM     69  C   UNL A   1      36.820  34.199  29.857  1.00  0.00     0.135 A 
ATOM     70  F   UNL A   1      35.016  32.248  32.338  1.00  0.00    -0.206 F 
ATOM     71  C   UNL A   1      34.210  33.719  30.696  1.00  0.00     0.059 A 
ATOM     72  C   UNL A   1      35.771  34.864  29.230  1.00  0.00     0.059 A 
ATOM     73  F   UNL A   1      38.069  34.456  29.438  1.00  0.00    -0.206 F 
ATOM     74  C   UNL A   1      34.467  34.608  29.650  1.00  0.00     0.060 A 
BRANCH  74  75
ATOM     75  S   UNL A   1      33.076  35.455  28.870  1.00  0.00     0.124 S 
ATOM     76  O   UNL A   1      33.759  36.478  28.087  1.00  0.00    -0.237 OA
ATOM     77  O   UNL A   1      32.452  34.378  28.108  1.00  0.00    -0.237 OA
ATOM     78  O   UNL A   1      32.299  35.943  30.005  1.00  0.00    -0.744 OA
ENDBRANCH  74  75
ENDBRANCH  42  67
BRANCH  54  79
ATOM     79  C   UNL A   1      39.619  34.146  37.168  1.00  0.00     0.058 A 
ATOM     80  C   UNL A   1      38.842  33.833  38.293  1.00  0.00     0.135 A 
ATOM     81  C   UNL A   1      40.271  35.391  37.144  1.00  0.00     0.135 A 
ATOM     82  F   UNL A   1      38.189  32.662  38.359  1.00  0.00    -0.206 F 
ATOM     83  C   UNL A   1      38.711  34.724  39.353  1.00  0.00     0.059 A 
ATOM     84  C   UNL A   1      40.178  36.284  38.206  1.00  0.00     0.059 A 
ATOM     85  F   UNL A   1      41.031  35.736  36.092  1.00  0.00    -0.206 F 
ATOM     86  C   UNL A   1      39.392  35.943  39.304  1.00  0.00     0.060 A 
BRANCH  86  87
ATOM     87  S   UNL A   1      39.267  37.059  40.717  1.00  0.00     0.124 S 
ATOM     88  O   UNL A   1      40.667  37.389  40.959  1.00  0.00    -0.237 OA
ATOM     89  O   UNL A   1      38.443  38.140  40.187  1.00  0.00    -0.237 OA
ATOM     90  O   UNL A   1      38.629  36.239  41.743  1.00  0.00    -0.744 OA
ENDBRANCH  86  87
ENDBRANCH  54  79
ENDBRANCH  28  29
ENDBRANCH  21  23
ENDBRANCH  20  21
ENDBRANCH   1  20
TORSDOF 17
ENDMDL
MODEL 3
REMARK VINA RESULT:      -9.4      3.097      5.463
REMARK SMILES CN(c1ccc(C(=O)OCCOC(=O)c2ccc(-c3c4nc(c(-c5c(F)cc(S(=O)(=O)[O-])cc5F)c5ccc([nH]5)c(-c5c(F)cc(S(=O)(=O)[O-])cc5F)c5nc(c(-c6c(F)cc(S(=O)(=O)[O-])cc6F)c6ccc3[nH]6)C=C5)C=C4)cc2)cc1[N+](=O)[O-])C1CC1
REMARK SMILES IDX 11 1 10 2 9 3 7 4 8 5 6 6 3 7 4 8 82 9 5 10 81 11 2 12 1 13
REMARK SMILES IDX 86 14 87 15 88 16 83 17 84 18 85 19 12 20 13 21 14 22 15 23
REMARK SMILES IDX 16 24 80 25 17 26 79 27 18 28 19 29 20 30 73 31 21 32 78 33
REMARK SMILES IDX 72 34 74 35 22 36 77 37 71 38 70 39 23 41 57 42 36 43 56 44
REMARK SMILES IDX 37 45 40 46 55 47 75 48 38 49 39 50 54 52 76 53 41 54 24 55
REMARK SMILES IDX 25 56 34 57 26 58 27 59 33 60 35 61 28 62 29 63 30 64 31 65
REMARK SMILES IDX 32 66 58 67 59 68 68 69 60 70 61 71 67 72 69 73 62 74 63 75
REMARK SMILES IDX 64 76 65 77 66 78 42 79 43 80 52 81 44 82 45 83 51 84 53 85
REMARK SMILES IDX 46 86 47 87 48 88 49 89 50 90
REMARK H PARENT 74 40 40 51
REMARK Flexibility Score: inf
ROOT
ATOM      1  C   UNL A   1      32.876  30.259  26.527  1.00  0.00     0.275 C 
ENDROOT
BRANCH   1   2
ATOM      2  C   UNL A   1      31.944  29.185  25.959  1.00  0.00     0.275 C 
BRANCH   2   3
ATOM      3  O   UNL A   1      32.473  28.595  24.751  1.00  0.00    -0.458 OA
BRANCH   3   4
ATOM      4  C   UNL A   1      31.818  27.494  24.306  1.00  0.00     0.338 C 
ATOM      5  O   UNL A   1      30.993  27.456  23.412  1.00  0.00    -0.246 OA
BRANCH   4   6
ATOM      6  C   UNL A   1      32.270  26.272  25.017  1.00  0.00     0.067 A 
ATOM      7  C   UNL A   1      33.264  23.832  26.106  1.00  0.00     0.116 A 
ATOM      8  C   UNL A   1      34.127  24.860  25.703  1.00  0.00     0.034 A 
ATOM      9  C   UNL A   1      31.879  24.102  26.012  1.00  0.00     0.293 A 
ATOM     10  C   UNL A   1      33.640  26.033  25.129  1.00  0.00     0.018 A 
ATOM     11  C   UNL A   1      31.377  25.314  25.485  1.00  0.00     0.103 A 
BRANCH   7  12
ATOM     12  N   UNL A   1      33.823  22.595  26.490  1.00  0.00    -0.366 N 
ATOM     13  C   UNL A   1      33.805  22.311  27.925  1.00  0.00     0.144 C 
BRANCH  12  14
ATOM     14  C   UNL A   1      33.731  21.416  25.609  1.00  0.00     0.082 C 
ATOM     15  C   UNL A   1      33.852  21.548  24.118  1.00  0.00     0.027 C 
ATOM     16  C   UNL A   1      34.947  20.888  24.902  1.00  0.00     0.027 C 
ENDBRANCH  12  14
ENDBRANCH   7  12
BRANCH   9  17
ATOM     17  N   UNL A   1      30.885  23.119  26.441  1.00  0.00     0.065 N 
ATOM     18  O   UNL A   1      30.440  23.243  27.595  1.00  0.00    -0.258 OA
ATOM     19  O   UNL A   1      30.559  22.214  25.663  1.00  0.00    -0.258 OA
ENDBRANCH   9  17
ENDBRANCH   4   6
ENDBRANCH   3   4
ENDBRANCH   2   3
ENDBRANCH   1   2
BRANCH   1  20
ATOM     20  O   UNL A   1      33.537  29.808  27.723  1.00  0.00    -0.458 OA
BRANCH  20  21
ATOM     21  C   UNL A   1      34.416  30.689  28.247  1.00  0.00     0.338 C 
ATOM     22  O   UNL A   1      34.179  31.808  28.671  1.00  0.00    -0.246 OA
BRANCH  21  23
ATOM     23  C   UNL A   1      35.748  30.082  28.351  1.00  0.00     0.060 A 
ATOM     24  C   UNL A   1      36.179  29.686  29.612  1.00  0.00     0.016 A 
ATOM     25  C   UNL A   1      36.634  30.082  27.279  1.00  0.00     0.016 A 
ATOM     26  C   UNL A   1      37.522  29.433  29.851  1.00  0.00     0.010 A 
ATOM     27  C   UNL A   1      37.962  29.691  27.493  1.00  0.00     0.010 A 
ATOM     28  C   UNL A   1      38.434  29.405  28.790  1.00  0.00    -0.014 A 
BRANCH  28  29
ATOM     29  C   UNL A   1      39.870  29.087  29.034  1.00  0.00     0.031 A 
ATOM     30  C   UNL A   1      40.801  30.153  29.552  1.00  0.00     0.074 A 
ATOM     31  C   UNL A   1      40.345  27.850  28.778  1.00  0.00     0.049 A 
ATOM     32  N   UNL A   1      42.108  30.154  29.611  1.00  0.00    -0.248 NA
ATOM     33  C   UNL A   1      40.180  31.392  30.053  1.00  0.00     0.031 C 
ATOM     34  C   UNL A   1      39.546  26.707  28.328  1.00  0.00     0.029 A 
ATOM     35  N   UNL A   1      41.621  27.346  28.850  1.00  0.00    -0.354 N 
ATOM     36  C   UNL A   1      42.468  31.409  30.094  1.00  0.00     0.074 A 
ATOM     37  C   UNL A   1      41.241  32.145  30.307  1.00  0.00     0.031 C 
ATOM     38  C   UNL A   1      40.340  25.637  28.184  1.00  0.00     0.029 A 
ATOM     39  C   UNL A   1      41.719  26.040  28.425  1.00  0.00     0.049 A 
ATOM     40  H   UNL A   1      42.391  27.867  29.174  1.00  0.00     0.167 HD
ATOM     41  C   UNL A   1      43.709  31.896  30.333  1.00  0.00     0.037 A 
ATOM     42  C   UNL A   1      42.795  25.266  28.187  1.00  0.00     0.037 A 
ATOM     43  C   UNL A   1      44.917  31.129  30.157  1.00  0.00     0.049 A 
ATOM     44  C   UNL A   1      44.165  25.845  28.404  1.00  0.00     0.074 A 
ATOM     45  C   UNL A   1      46.224  31.518  30.390  1.00  0.00     0.029 A 
ATOM     46  N   UNL A   1      44.966  29.816  29.710  1.00  0.00    -0.354 N 
ATOM     47  N   UNL A   1      44.493  27.044  28.822  1.00  0.00    -0.248 NA
ATOM     48  C   UNL A   1      45.309  24.975  28.103  1.00  0.00     0.031 C 
ATOM     49  C   UNL A   1      47.065  30.460  30.033  1.00  0.00     0.029 A 
ATOM     50  C   UNL A   1      46.281  29.387  29.641  1.00  0.00     0.049 A 
ATOM     51  H   UNL A   1      44.181  29.269  29.477  1.00  0.00     0.167 HD
ATOM     52  C   UNL A   1      45.882  27.063  28.865  1.00  0.00     0.074 A 
ATOM     53  C   UNL A   1      46.330  25.754  28.434  1.00  0.00     0.031 C 
ATOM     54  C   UNL A   1      46.709  28.073  29.230  1.00  0.00     0.037 A 
BRANCH  41  55
ATOM     55  C   UNL A   1      43.835  33.331  30.770  1.00  0.00     0.058 A 
ATOM     56  C   UNL A   1      43.912  34.392  29.855  1.00  0.00     0.135 A 
ATOM     57  C   UNL A   1      43.834  33.653  32.139  1.00  0.00     0.135 A 
ATOM     58  F   UNL A   1      43.932  34.146  28.535  1.00  0.00    -0.206 F 
ATOM     59  C   UNL A   1      44.013  35.715  30.278  1.00  0.00     0.059 A 
ATOM     60  C   UNL A   1      43.902  34.970  32.585  1.00  0.00     0.059 A 
ATOM     61  F   UNL A   1      43.761  32.681  33.062  1.00  0.00    -0.206 F 
ATOM     62  C   UNL A   1      44.005  35.994  31.646  1.00  0.00     0.060 A 
BRANCH  62  63
ATOM     63  S   UNL A   1      44.132  37.715  32.177  1.00  0.00     0.124 S 
ATOM     64  O   UNL A   1      43.173  37.752  33.278  1.00  0.00    -0.237 OA
ATOM     65  O   UNL A   1      45.536  37.821  32.558  1.00  0.00    -0.237 OA
ATOM     66  O   UNL A   1      43.749  38.469  30.988  1.00  0.00    -0.744 OA
ENDBRANCH  62  63
ENDBRANCH  41  55
BRANCH  42  67
ATOM     67  C   UNL A   1      42.615  23.882  27.669  1.00  0.00     0.058 A 
ATOM     68  C   UNL A   1      42.513  23.632  26.293  1.00  0.00     0.135 A 
ATOM     69  C   UNL A   1      42.569  22.778  28.538  1.00  0.00     0.135 A 
ATOM     70  F   UNL A   1      42.543  24.652  25.422  1.00  0.00    -0.206 F 
ATOM     71  C   UNL A   1      42.361  22.341  25.796  1.00  0.00     0.059 A 
ATOM     72  C   UNL A   1      42.452  21.476  28.063  1.00  0.00     0.059 A 
ATOM     73  F   UNL A   1      42.676  22.960  29.863  1.00  0.00    -0.206 F 
ATOM     74  C   UNL A   1      42.338  21.269  26.690  1.00  0.00     0.060 A 
BRANCH  74  75
ATOM     75  S   UNL A   1      42.193  19.594  26.030  1.00  0.00     0.124 S 
ATOM     76  O   UNL A   1      42.607  18.793  27.176  1.00  0.00    -0.237 OA
ATOM     77  O   UNL A   1      40.776  19.525  25.681  1.00  0.00    -0.237 OA
ATOM     78  O   UNL A   1      43.111  19.598  24.896  1.00  0.00    -0.744 OA
ENDBRANCH  74  75
ENDBRANCH  42  67
BRANCH  54  79
ATOM     79  C   UNL A   1      48.185  27.792  29.242  1.00  0.00     0.058 A 
ATOM     80  C   UNL A   1      48.848  27.355  30.398  1.00  0.00     0.135 A 
ATOM     81  C   UNL A   1      48.927  27.885  28.052  1.00  0.00     0.135 A 
ATOM     82  F   UNL A   1      48.187  27.261  31.563  1.00  0.00    -0.206 F 
ATOM     83  C   UNL A   1      50.200  27.028  30.377  1.00  0.00     0.059 A 
ATOM     84  C   UNL A   1      50.271  27.535  28.001  1.00  0.00     0.059 A 
ATOM     85  F   UNL A   1      48.336  28.293  26.918  1.00  0.00    -0.206 F 
ATOM     86  C   UNL A   1      50.900  27.111  29.170  1.00  0.00     0.060 A 
BRANCH  86  87
ATOM     87  S   UNL A   1      52.637  26.619  29.144  1.00  0.00     0.124 S 
ATOM     88  O   UNL A   1      52.741  25.838  30.372  1.00  0.00    -0.237 OA
ATOM     89  O   UNL A   1      52.725  25.860  27.901  1.00  0.00    -0.237 OA
ATOM     90  O   UNL A   1      53.352  27.891  29.147  1.00  0.00    -0.744 OA
ENDBRANCH  86  87
ENDBRANCH  54  79
ENDBRANCH  28  29
ENDBRANCH  21  23
ENDBRANCH  20  21
ENDBRANCH   1  20
TORSDOF 17
ENDMDL
