MODEL 1
REMARK VINA RESULT:     -11.8      0.000      0.000
REMARK SMILES Cn1ccc(NC(=O)[C@@H]2CCCC[C@@H]2C(=O)OCCOC(=O)c2ccc(-c3c4nc(c(-c5c(F)cc(S(=O)(=O)[O-])cc5F)c5ccc([nH]5)c(-c5c(F)cc(S(=O)(=O)[O-])cc5F)c5nc(c(-c6c(F)cc(S(=O)(=O)[O-])cc6F)c6ccc3[nH]6)C=C5)C=C4)cc2)n1
REMARK SMILES IDX 19 1 18 2 17 3 15 4 16 5 14 6 9 7 10 8 11 9 13 10 12 11 7 12
REMARK SMILES IDX 6 13 8 15 5 16 1 17 2 18 3 19 89 20 4 21 20 22 21 23 22 24
REMARK SMILES IDX 23 25 24 26 88 27 25 28 87 29 26 30 27 31 28 32 81 33 29 34
REMARK SMILES IDX 86 35 80 36 82 37 30 38 85 39 79 40 78 41 31 43 65 44 44 45
REMARK SMILES IDX 64 46 45 47 48 48 63 49 83 50 46 51 47 52 62 54 84 55 49 56
REMARK SMILES IDX 32 57 33 58 42 59 34 60 35 61 41 62 43 63 36 64 37 65 38 66
REMARK SMILES IDX 39 67 40 68 66 69 67 70 76 71 68 72 69 73 75 74 77 75 70 76
REMARK SMILES IDX 71 77 72 78 73 79 74 80 50 81 51 82 60 83 52 84 53 85 59 86
REMARK SMILES IDX 61 87 54 88 55 89 56 90 57 91 58 92
REMARK H PARENT 6 14 82 42 48 53
REMARK Flexibility Score: inf
ROOT
ATOM      1  C   UNL A   1      32.918  31.026  27.224  1.00  0.00     0.275 C 
ENDROOT
BRANCH   1   2
ATOM      2  C   UNL A   1      31.882  30.005  26.771  1.00  0.00     0.274 C 
BRANCH   2   3
ATOM      3  O   UNL A   1      31.848  29.922  25.330  1.00  0.00    -0.462 OA
BRANCH   3   4
ATOM      4  C   UNL A   1      31.707  28.679  24.809  1.00  0.00     0.309 C 
ATOM      5  O   UNL A   1      31.592  27.658  25.481  1.00  0.00    -0.252 OA
BRANCH   4   6
ATOM      6  C   UNL A   1      31.749  28.634  23.289  1.00  0.00     0.111 C 
ATOM      7  C   UNL A   1      30.684  27.789  22.549  1.00  0.00     0.093 C 
ATOM      8  C   UNL A   1      31.187  26.340  22.347  1.00  0.00     0.014 C 
ATOM      9  C   UNL A   1      32.550  26.284  21.668  1.00  0.00     0.001 C 
ATOM     10  C   UNL A   1      33.167  28.468  22.726  1.00  0.00     0.016 C 
ATOM     11  C   UNL A   1      33.584  27.026  22.496  1.00  0.00     0.001 C 
BRANCH   7  12
ATOM     12  C   UNL A   1      29.278  27.750  23.184  1.00  0.00     0.229 C 
ATOM     13  N   UNL A   1      28.451  28.830  23.227  1.00  0.00    -0.309 N 
ATOM     14  H   UNL A   1      27.619  28.694  23.737  1.00  0.00     0.171 HD
ATOM     15  O   UNL A   1      28.840  26.717  23.709  1.00  0.00    -0.274 OA
BRANCH  13  16
ATOM     16  C   UNL A   1      28.590  30.076  22.675  1.00  0.00     0.154 A 
ATOM     17  C   UNL A   1      28.909  33.504  23.044  1.00  0.00     0.173 C 
ATOM     18  N   UNL A   1      28.808  32.168  22.504  1.00  0.00    -0.274 N 
ATOM     19  C   UNL A   1      28.267  31.794  21.311  1.00  0.00     0.110 A 
ATOM     20  N   UNL A   1      29.143  31.123  23.277  1.00  0.00    -0.155 NA
ATOM     21  C   UNL A   1      28.138  30.425  21.380  1.00  0.00     0.068 A 
ENDBRANCH  13  16
ENDBRANCH   7  12
ENDBRANCH   4   6
ENDBRANCH   3   4
ENDBRANCH   2   3
ENDBRANCH   1   2
BRANCH   1  22
ATOM     22  O   UNL A   1      34.114  30.328  27.602  1.00  0.00    -0.458 OA
BRANCH  22  23
ATOM     23  C   UNL A   1      34.855  30.909  28.573  1.00  0.00     0.338 C 
ATOM     24  O   UNL A   1      34.498  31.808  29.321  1.00  0.00    -0.246 OA
BRANCH  23  25
ATOM     25  C   UNL A   1      36.187  30.270  28.649  1.00  0.00     0.060 A 
ATOM     26  C   UNL A   1      36.703  29.818  29.864  1.00  0.00     0.016 A 
ATOM     27  C   UNL A   1      36.990  30.235  27.508  1.00  0.00     0.016 A 
ATOM     28  C   UNL A   1      38.045  29.449  29.963  1.00  0.00     0.010 A 
ATOM     29  C   UNL A   1      38.300  29.750  27.590  1.00  0.00     0.010 A 
ATOM     30  C   UNL A   1      38.862  29.386  28.827  1.00  0.00    -0.014 A 
BRANCH  30  31
ATOM     31  C   UNL A   1      40.296  28.976  28.917  1.00  0.00     0.031 A 
ATOM     32  C   UNL A   1      41.345  29.977  29.338  1.00  0.00     0.074 A 
ATOM     33  C   UNL A   1      40.682  27.721  28.608  1.00  0.00     0.049 A 
ATOM     34  N   UNL A   1      42.643  29.929  29.182  1.00  0.00    -0.248 NA
ATOM     35  C   UNL A   1      40.867  31.202  30.000  1.00  0.00     0.031 C 
ATOM     36  C   UNL A   1      39.793  26.620  28.230  1.00  0.00     0.029 A 
ATOM     37  N   UNL A   1      41.936  27.158  28.558  1.00  0.00    -0.354 N 
ATOM     38  C   UNL A   1      43.127  31.152  29.635  1.00  0.00     0.074 A 
ATOM     39  C   UNL A   1      41.985  31.910  30.102  1.00  0.00     0.031 C 
ATOM     40  C   UNL A   1      40.519  25.510  28.036  1.00  0.00     0.029 A 
ATOM     41  C   UNL A   1      41.933  25.842  28.158  1.00  0.00     0.049 A 
ATOM     42  H   UNL A   1      42.757  27.651  28.786  1.00  0.00     0.167 HD
ATOM     43  C   UNL A   1      44.405  31.602  29.642  1.00  0.00     0.037 A 
ATOM     44  C   UNL A   1      42.945  25.007  27.855  1.00  0.00     0.037 A 
ATOM     45  C   UNL A   1      45.545  30.808  29.263  1.00  0.00     0.049 A 
ATOM     46  C   UNL A   1      44.356  25.515  27.893  1.00  0.00     0.074 A 
ATOM     47  C   UNL A   1      46.882  31.168  29.251  1.00  0.00     0.029 A 
ATOM     48  N   UNL A   1      45.488  29.482  28.864  1.00  0.00    -0.354 N 
ATOM     49  N   UNL A   1      44.789  26.713  28.204  1.00  0.00    -0.248 NA
ATOM     50  C   UNL A   1      45.412  24.570  27.505  1.00  0.00     0.031 C 
ATOM     51  C   UNL A   1      47.632  30.064  28.829  1.00  0.00     0.029 A 
ATOM     52  C   UNL A   1      46.764  29.008  28.607  1.00  0.00     0.049 A 
ATOM     53  H   UNL A   1      44.662  28.954  28.775  1.00  0.00     0.167 HD
ATOM     54  C   UNL A   1      46.167  26.671  28.036  1.00  0.00     0.074 A 
ATOM     55  C   UNL A   1      46.499  25.320  27.626  1.00  0.00     0.031 C 
ATOM     56  C   UNL A   1      47.075  27.664  28.193  1.00  0.00     0.037 A 
BRANCH  43  57
ATOM     57  C   UNL A   1      44.644  33.034  30.032  1.00  0.00     0.058 A 
ATOM     58  C   UNL A   1      44.533  34.090  29.116  1.00  0.00     0.135 A 
ATOM     59  C   UNL A   1      44.935  33.356  31.370  1.00  0.00     0.135 A 
ATOM     60  F   UNL A   1      44.275  33.837  27.823  1.00  0.00    -0.206 F 
ATOM     61  C   UNL A   1      44.715  35.414  29.508  1.00  0.00     0.059 A 
ATOM     62  C   UNL A   1      45.100  34.673  31.787  1.00  0.00     0.059 A 
ATOM     63  F   UNL A   1      45.053  32.383  32.287  1.00  0.00    -0.206 F 
ATOM     64  C   UNL A   1      44.998  35.695  30.847  1.00  0.00     0.060 A 
BRANCH  64  65
ATOM     65  S   UNL A   1      45.207  37.417  31.351  1.00  0.00     0.124 S 
ATOM     66  O   UNL A   1      44.063  37.601  32.238  1.00  0.00    -0.237 OA
ATOM     67  O   UNL A   1      46.514  37.400  31.999  1.00  0.00    -0.237 OA
ATOM     68  O   UNL A   1      45.147  38.149  30.089  1.00  0.00    -0.744 OA
ENDBRANCH  64  65
ENDBRANCH  43  57
BRANCH  44  69
ATOM     69  C   UNL A   1      42.641  23.618  27.421  1.00  0.00     0.058 A 
ATOM     70  C   UNL A   1      42.534  23.298  26.061  1.00  0.00     0.135 A 
ATOM     71  C   UNL A   1      42.514  22.578  28.355  1.00  0.00     0.135 A 
ATOM     72  F   UNL A   1      42.634  24.262  25.134  1.00  0.00    -0.206 F 
ATOM     73  C   UNL A   1      42.324  21.988  25.639  1.00  0.00     0.059 A 
ATOM     74  C   UNL A   1      42.330  21.259  27.956  1.00  0.00     0.059 A 
ATOM     75  F   UNL A   1      42.622  22.835  29.668  1.00  0.00    -0.206 F 
ATOM     76  C   UNL A   1      42.233  20.974  26.595  1.00  0.00     0.060 A 
BRANCH  76  77
ATOM     77  S   UNL A   1      42.069  19.262  26.044  1.00  0.00     0.124 S 
ATOM     78  O   UNL A   1      40.639  19.174  25.782  1.00  0.00    -0.237 OA
ATOM     79  O   UNL A   1      42.937  19.225  24.870  1.00  0.00    -0.237 OA
ATOM     80  O   UNL A   1      42.554  18.499  27.191  1.00  0.00    -0.744 OA
ENDBRANCH  76  77
ENDBRANCH  44  69
BRANCH  56  81
ATOM     81  C   UNL A   1      48.511  27.321  27.929  1.00  0.00     0.058 A 
ATOM     82  C   UNL A   1      49.089  27.525  26.667  1.00  0.00     0.135 A 
ATOM     83  C   UNL A   1      49.320  26.801  28.951  1.00  0.00     0.135 A 
ATOM     84  F   UNL A   1      48.352  28.012  25.658  1.00  0.00    -0.206 F 
ATOM     85  C   UNL A   1      50.419  27.202  26.420  1.00  0.00     0.059 A 
ATOM     86  C   UNL A   1      50.657  26.488  28.730  1.00  0.00     0.059 A 
ATOM     87  F   UNL A   1      48.813  26.596  30.177  1.00  0.00    -0.206 F 
ATOM     88  C   UNL A   1      51.193  26.679  27.457  1.00  0.00     0.060 A 
BRANCH  88  89
ATOM     89  S   UNL A   1      52.922  26.271  27.131  1.00  0.00     0.124 S 
ATOM     90  O   UNL A   1      52.806  24.918  26.595  1.00  0.00    -0.237 OA
ATOM     91  O   UNL A   1      53.317  27.299  26.174  1.00  0.00    -0.237 OA
ATOM     92  O   UNL A   1      53.547  26.374  28.446  1.00  0.00    -0.744 OA
ENDBRANCH  88  89
ENDBRANCH  56  81
ENDBRANCH  30  31
ENDBRANCH  23  25
ENDBRANCH  22  23
ENDBRANCH   1  22
TORSDOF 16
ENDMDL
MODEL 2
REMARK VINA RESULT:     -11.1      2.052      3.483
REMARK SMILES Cn1ccc(NC(=O)[C@@H]2CCCC[C@@H]2C(=O)OCCOC(=O)c2ccc(-c3c4nc(c(-c5c(F)cc(S(=O)(=O)[O-])cc5F)c5ccc([nH]5)c(-c5c(F)cc(S(=O)(=O)[O-])cc5F)c5nc(c(-c6c(F)cc(S(=O)(=O)[O-])cc6F)c6ccc3[nH]6)C=C5)C=C4)cc2)n1
REMARK SMILES IDX 19 1 18 2 17 3 15 4 16 5 14 6 9 7 10 8 11 9 13 10 12 11 7 12
REMARK SMILES IDX 6 13 8 15 5 16 1 17 2 18 3 19 89 20 4 21 20 22 21 23 22 24
REMARK SMILES IDX 23 25 24 26 88 27 25 28 87 29 26 30 27 31 28 32 81 33 29 34
REMARK SMILES IDX 86 35 80 36 82 37 30 38 85 39 79 40 78 41 31 43 65 44 44 45
REMARK SMILES IDX 64 46 45 47 48 48 63 49 83 50 46 51 47 52 62 54 84 55 49 56
REMARK SMILES IDX 32 57 33 58 42 59 34 60 35 61 41 62 43 63 36 64 37 65 38 66
REMARK SMILES IDX 39 67 40 68 66 69 67 70 76 71 68 72 69 73 75 74 77 75 70 76
REMARK SMILES IDX 71 77 72 78 73 79 74 80 50 81 51 82 60 83 52 84 53 85 59 86
REMARK SMILES IDX 61 87 54 88 55 89 56 90 57 91 58 92
REMARK H PARENT 6 14 82 42 48 53
REMARK Flexibility Score: inf
ROOT
ATOM      1  C   UNL A   1      33.295  30.109  26.595  1.00  0.00     0.275 C 
ENDROOT
BRANCH   1   2
ATOM      2  C   UNL A   1      31.796  29.836  26.590  1.00  0.00     0.274 C 
BRANCH   2   3
ATOM      3  O   UNL A   1      31.469  28.826  25.612  1.00  0.00    -0.462 OA
BRANCH   3   4
ATOM      4  C   UNL A   1      31.158  27.602  26.104  1.00  0.00     0.309 C 
ATOM      5  O   UNL A   1      31.095  27.334  27.300  1.00  0.00    -0.252 OA
BRANCH   4   6
ATOM      6  C   UNL A   1      30.936  26.542  25.035  1.00  0.00     0.111 C 
ATOM      7  C   UNL A   1      32.176  25.912  24.355  1.00  0.00     0.093 C 
ATOM      8  C   UNL A   1      32.575  26.722  23.099  1.00  0.00     0.014 C 
ATOM      9  C   UNL A   1      31.413  26.911  22.132  1.00  0.00     0.001 C 
ATOM     10  C   UNL A   1      29.809  26.895  24.055  1.00  0.00     0.016 C 
ATOM     11  C   UNL A   1      30.270  27.641  22.815  1.00  0.00     0.001 C 
BRANCH   7  12
ATOM     12  C   UNL A   1      33.421  25.718  25.246  1.00  0.00     0.229 C 
ATOM     13  N   UNL A   1      33.730  24.536  25.845  1.00  0.00    -0.309 N 
ATOM     14  H   UNL A   1      34.502  24.571  26.456  1.00  0.00     0.171 HD
ATOM     15  O   UNL A   1      34.199  26.655  25.473  1.00  0.00    -0.274 OA
BRANCH  13  16
ATOM     16  C   UNL A   1      33.140  23.305  25.735  1.00  0.00     0.154 A 
ATOM     17  C   UNL A   1      32.666  20.348  23.996  1.00  0.00     0.173 C 
ATOM     18  N   UNL A   1      32.617  21.405  24.979  1.00  0.00    -0.274 N 
ATOM     19  C   UNL A   1      31.572  21.737  25.788  1.00  0.00     0.110 A 
ATOM     20  N   UNL A   1      33.635  22.276  25.055  1.00  0.00    -0.155 NA
ATOM     21  C   UNL A   1      31.897  22.965  26.321  1.00  0.00     0.068 A 
ENDBRANCH  13  16
ENDBRANCH   7  12
ENDBRANCH   4   6
ENDBRANCH   3   4
ENDBRANCH   2   3
ENDBRANCH   1   2
BRANCH   1  22
ATOM     22  O   UNL A   1      33.810  29.812  27.901  1.00  0.00    -0.458 OA
BRANCH  22  23
ATOM     23  C   UNL A   1      34.694  30.703  28.404  1.00  0.00     0.338 C 
ATOM     24  O   UNL A   1      34.449  31.844  28.773  1.00  0.00    -0.246 OA
BRANCH  23  25
ATOM     25  C   UNL A   1      36.038  30.091  28.498  1.00  0.00     0.060 A 
ATOM     26  C   UNL A   1      36.498  29.539  29.694  1.00  0.00     0.016 A 
ATOM     27  C   UNL A   1      36.904  30.184  27.408  1.00  0.00     0.016 A 
ATOM     28  C   UNL A   1      37.843  29.193  29.836  1.00  0.00     0.010 A 
ATOM     29  C   UNL A   1      38.221  29.724  27.521  1.00  0.00     0.010 A 
ATOM     30  C   UNL A   1      38.723  29.258  28.749  1.00  0.00    -0.014 A 
BRANCH  30  31
ATOM     31  C   UNL A   1      40.161  28.875  28.884  1.00  0.00     0.031 A 
ATOM     32  C   UNL A   1      41.175  29.892  29.351  1.00  0.00     0.074 A 
ATOM     33  C   UNL A   1      40.583  27.631  28.576  1.00  0.00     0.049 A 
ATOM     34  N   UNL A   1      42.478  29.871  29.239  1.00  0.00    -0.248 NA
ATOM     35  C   UNL A   1      40.651  31.100  30.008  1.00  0.00     0.031 C 
ATOM     36  C   UNL A   1      39.729  26.517  28.157  1.00  0.00     0.029 A 
ATOM     37  N   UNL A   1      41.848  27.094  28.563  1.00  0.00    -0.354 N 
ATOM     38  C   UNL A   1      42.922  31.099  29.720  1.00  0.00     0.074 A 
ATOM     39  C   UNL A   1      41.750  31.829  30.155  1.00  0.00     0.031 C 
ATOM     40  C   UNL A   1      40.483  25.424  27.977  1.00  0.00     0.029 A 
ATOM     41  C   UNL A   1      41.885  25.783  28.150  1.00  0.00     0.049 A 
ATOM     42  H   UNL A   1      42.651  27.600  28.824  1.00  0.00     0.167 HD
ATOM     43  C   UNL A   1      44.190  31.574  29.776  1.00  0.00     0.037 A 
ATOM     44  C   UNL A   1      42.923  24.971  27.874  1.00  0.00     0.037 A 
ATOM     45  C   UNL A   1      45.358  30.806  29.428  1.00  0.00     0.049 A 
ATOM     46  C   UNL A   1      44.322  25.506  27.965  1.00  0.00     0.074 A 
ATOM     47  C   UNL A   1      46.687  31.193  29.465  1.00  0.00     0.029 A 
ATOM     48  N   UNL A   1      45.341  29.483  29.014  1.00  0.00    -0.354 N 
ATOM     49  N   UNL A   1      44.720  26.708  28.302  1.00  0.00    -0.248 NA
ATOM     50  C   UNL A   1      45.409  24.586  27.604  1.00  0.00     0.031 C 
ATOM     51  C   UNL A   1      47.473  30.108  29.058  1.00  0.00     0.029 A 
ATOM     52  C   UNL A   1      46.635  29.037  28.796  1.00  0.00     0.049 A 
ATOM     53  H   UNL A   1      44.529  28.940  28.892  1.00  0.00     0.167 HD
ATOM     54  C   UNL A   1      46.104  26.695  28.182  1.00  0.00     0.074 A 
ATOM     55  C   UNL A   1      46.476  25.356  27.769  1.00  0.00     0.031 C 
ATOM     56  C   UNL A   1      46.986  27.705  28.380  1.00  0.00     0.037 A 
BRANCH  43  57
ATOM     57  C   UNL A   1      44.387  33.006  30.187  1.00  0.00     0.058 A 
ATOM     58  C   UNL A   1      44.675  33.373  31.510  1.00  0.00     0.135 A 
ATOM     59  C   UNL A   1      44.342  34.025  29.219  1.00  0.00     0.135 A 
ATOM     60  F   UNL A   1      44.711  32.443  32.476  1.00  0.00    -0.206 F 
ATOM     61  C   UNL A   1      44.899  34.702  31.862  1.00  0.00     0.059 A 
ATOM     62  C   UNL A   1      44.583  35.356  29.545  1.00  0.00     0.059 A 
ATOM     63  F   UNL A   1      44.070  33.727  27.938  1.00  0.00    -0.206 F 
ATOM     64  C   UNL A   1      44.851  35.687  30.871  1.00  0.00     0.060 A 
BRANCH  64  65
ATOM     65  S   UNL A   1      45.168  37.404  31.333  1.00  0.00     0.124 S 
ATOM     66  O   UNL A   1      46.627  37.431  31.366  1.00  0.00    -0.237 OA
ATOM     67  O   UNL A   1      44.546  38.144  30.240  1.00  0.00    -0.237 OA
ATOM     68  O   UNL A   1      44.507  37.534  32.627  1.00  0.00    -0.744 OA
ENDBRANCH  64  65
ENDBRANCH  43  57
BRANCH  44  69
ATOM     69  C   UNL A   1      42.663  23.581  27.416  1.00  0.00     0.058 A 
ATOM     70  C   UNL A   1      42.685  23.257  26.053  1.00  0.00     0.135 A 
ATOM     71  C   UNL A   1      42.448  22.542  28.336  1.00  0.00     0.135 A 
ATOM     72  F   UNL A   1      42.873  24.220  25.137  1.00  0.00    -0.206 F 
ATOM     73  C   UNL A   1      42.516  21.947  25.615  1.00  0.00     0.059 A 
ATOM     74  C   UNL A   1      42.302  21.223  27.924  1.00  0.00     0.059 A 
ATOM     75  F   UNL A   1      42.430  22.802  29.653  1.00  0.00    -0.206 F 
ATOM     76  C   UNL A   1      42.335  20.935  26.560  1.00  0.00     0.060 A 
BRANCH  76  77
ATOM     77  S   UNL A   1      42.225  19.221  26.000  1.00  0.00     0.124 S 
ATOM     78  O   UNL A   1      42.736  18.501  27.158  1.00  0.00    -0.237 OA
ATOM     79  O   UNL A   1      40.798  19.070  25.731  1.00  0.00    -0.237 OA
ATOM     80  O   UNL A   1      43.079  19.206  24.815  1.00  0.00    -0.744 OA
ENDBRANCH  76  77
ENDBRANCH  44  69
BRANCH  56  81
ATOM     81  C   UNL A   1      48.437  27.393  28.161  1.00  0.00     0.058 A 
ATOM     82  C   UNL A   1      49.244  26.912  29.202  1.00  0.00     0.135 A 
ATOM     83  C   UNL A   1      49.019  27.558  26.895  1.00  0.00     0.135 A 
ATOM     84  F   UNL A   1      48.732  26.745  30.432  1.00  0.00    -0.206 F 
ATOM     85  C   UNL A   1      50.590  26.627  29.003  1.00  0.00     0.059 A 
ATOM     86  C   UNL A   1      50.359  27.263  26.668  1.00  0.00     0.059 A 
ATOM     87  F   UNL A   1      48.285  28.009  25.866  1.00  0.00    -0.206 F 
ATOM     88  C   UNL A   1      51.140  26.812  27.733  1.00  0.00     0.060 A 
BRANCH  88  89
ATOM     89  S   UNL A   1      52.887  26.432  27.478  1.00  0.00     0.124 S 
ATOM     90  O   UNL A   1      52.806  25.187  26.720  1.00  0.00    -0.237 OA
ATOM     91  O   UNL A   1      53.360  27.595  26.735  1.00  0.00    -0.237 OA
ATOM     92  O   UNL A   1      53.407  26.309  28.836  1.00  0.00    -0.744 OA
ENDBRANCH  88  89
ENDBRANCH  56  81
ENDBRANCH  30  31
ENDBRANCH  23  25
ENDBRANCH  22  23
ENDBRANCH   1  22
TORSDOF 16
ENDMDL
MODEL 3
REMARK VINA RESULT:     -11.1      5.638     11.059
REMARK SMILES Cn1ccc(NC(=O)[C@@H]2CCCC[C@@H]2C(=O)OCCOC(=O)c2ccc(-c3c4nc(c(-c5c(F)cc(S(=O)(=O)[O-])cc5F)c5ccc([nH]5)c(-c5c(F)cc(S(=O)(=O)[O-])cc5F)c5nc(c(-c6c(F)cc(S(=O)(=O)[O-])cc6F)c6ccc3[nH]6)C=C5)C=C4)cc2)n1
REMARK SMILES IDX 19 1 18 2 17 3 15 4 16 5 14 6 9 7 10 8 11 9 13 10 12 11 7 12
REMARK SMILES IDX 6 13 8 15 5 16 1 17 2 18 3 19 89 20 4 21 20 22 21 23 22 24
REMARK SMILES IDX 23 25 24 26 88 27 25 28 87 29 26 30 27 31 28 32 81 33 29 34
REMARK SMILES IDX 86 35 80 36 82 37 30 38 85 39 79 40 78 41 31 43 65 44 44 45
REMARK SMILES IDX 64 46 45 47 48 48 63 49 83 50 46 51 47 52 62 54 84 55 49 56
REMARK SMILES IDX 32 57 33 58 42 59 34 60 35 61 41 62 43 63 36 64 37 65 38 66
REMARK SMILES IDX 39 67 40 68 66 69 67 70 76 71 68 72 69 73 75 74 77 75 70 76
REMARK SMILES IDX 71 77 72 78 73 79 74 80 50 81 51 82 60 83 52 84 53 85 59 86
REMARK SMILES IDX 61 87 54 88 55 89 56 90 57 91 58 92
REMARK H PARENT 6 14 82 42 48 53
REMARK Flexibility Score: inf
ROOT
ATOM      1  C   UNL A   1      37.847  21.642  24.942  1.00  0.00     0.275 C 
ENDROOT
BRANCH   1   2
ATOM      2  C   UNL A   1      36.641  22.097  24.131  1.00  0.00     0.274 C 
BRANCH   2   3
ATOM      3  O   UNL A   1      35.428  21.515  24.657  1.00  0.00    -0.462 OA
BRANCH   3   4
ATOM      4  C   UNL A   1      34.561  22.376  25.242  1.00  0.00     0.309 C 
ATOM      5  O   UNL A   1      34.687  23.598  25.231  1.00  0.00    -0.252 OA
BRANCH   4   6
ATOM      6  C   UNL A   1      33.414  21.699  25.976  1.00  0.00     0.111 C 
ATOM      7  C   UNL A   1      32.182  21.245  25.155  1.00  0.00     0.093 C 
ATOM      8  C   UNL A   1      31.129  22.376  25.089  1.00  0.00     0.014 C 
ATOM      9  C   UNL A   1      30.749  22.902  26.467  1.00  0.00     0.001 C 
ATOM     10  C   UNL A   1      33.052  22.384  27.301  1.00  0.00     0.016 C 
ATOM     11  C   UNL A   1      31.973  23.445  27.182  1.00  0.00     0.001 C 
BRANCH   7  12
ATOM     12  C   UNL A   1      32.462  20.734  23.726  1.00  0.00     0.229 C 
ATOM     13  N   UNL A   1      32.965  19.496  23.465  1.00  0.00    -0.309 N 
ATOM     14  H   UNL A   1      33.178  19.328  22.518  1.00  0.00     0.171 HD
ATOM     15  O   UNL A   1      32.254  21.449  22.737  1.00  0.00    -0.274 OA
BRANCH  13  16
ATOM     16  C   UNL A   1      33.222  18.447  24.307  1.00  0.00     0.154 A 
ATOM     17  C   UNL A   1      35.232  15.799  25.277  1.00  0.00     0.173 C 
ATOM     18  N   UNL A   1      34.181  16.786  25.188  1.00  0.00    -0.274 N 
ATOM     19  C   UNL A   1      32.876  16.642  25.547  1.00  0.00     0.110 A 
ATOM     20  N   UNL A   1      34.427  17.949  24.565  1.00  0.00    -0.155 NA
ATOM     21  C   UNL A   1      32.224  17.730  25.009  1.00  0.00     0.068 A 
ENDBRANCH  13  16
ENDBRANCH   7  12
ENDBRANCH   4   6
ENDBRANCH   3   4
ENDBRANCH   2   3
ENDBRANCH   1   2
BRANCH   1  22
ATOM     22  O   UNL A   1      38.128  22.631  25.943  1.00  0.00    -0.458 OA
BRANCH  22  23
ATOM     23  C   UNL A   1      39.436  22.872  26.186  1.00  0.00     0.338 C 
ATOM     24  O   UNL A   1      40.378  22.159  25.870  1.00  0.00    -0.246 OA
BRANCH  23  25
ATOM     25  C   UNL A   1      39.597  24.174  26.870  1.00  0.00     0.060 A 
ATOM     26  C   UNL A   1      40.514  25.121  26.415  1.00  0.00     0.016 A 
ATOM     27  C   UNL A   1      38.910  24.404  28.064  1.00  0.00     0.016 A 
ATOM     28  C   UNL A   1      40.831  26.228  27.203  1.00  0.00     0.010 A 
ATOM     29  C   UNL A   1      39.146  25.576  28.791  1.00  0.00     0.010 A 
ATOM     30  C   UNL A   1      40.139  26.488  28.392  1.00  0.00    -0.014 A 
BRANCH  30  31
ATOM     31  C   UNL A   1      40.458  27.678  29.238  1.00  0.00     0.031 A 
ATOM     32  C   UNL A   1      41.720  27.704  30.066  1.00  0.00     0.074 A 
ATOM     33  C   UNL A   1      39.623  28.737  29.293  1.00  0.00     0.049 A 
ATOM     34  N   UNL A   1      42.027  28.469  31.081  1.00  0.00    -0.248 NA
ATOM     35  C   UNL A   1      42.762  26.724  29.719  1.00  0.00     0.031 C 
ATOM     36  C   UNL A   1      38.388  28.895  28.521  1.00  0.00     0.029 A 
ATOM     37  N   UNL A   1      39.686  29.887  30.043  1.00  0.00    -0.354 N 
ATOM     38  C   UNL A   1      43.248  28.002  31.556  1.00  0.00     0.074 A 
ATOM     39  C   UNL A   1      43.642  26.906  30.696  1.00  0.00     0.031 C 
ATOM     40  C   UNL A   1      37.841  30.086  28.799  1.00  0.00     0.029 A 
ATOM     41  C   UNL A   1      38.615  30.728  29.853  1.00  0.00     0.049 A 
ATOM     42  H   UNL A   1      40.428  30.089  30.658  1.00  0.00     0.167 HD
ATOM     43  C   UNL A   1      43.962  28.439  32.621  1.00  0.00     0.037 A 
ATOM     44  C   UNL A   1      38.250  31.855  30.494  1.00  0.00     0.037 A 
ATOM     45  C   UNL A   1      43.610  29.590  33.414  1.00  0.00     0.049 A 
ATOM     46  C   UNL A   1      39.066  32.340  31.655  1.00  0.00     0.074 A 
ATOM     47  C   UNL A   1      44.277  30.123  34.504  1.00  0.00     0.029 A 
ATOM     48  N   UNL A   1      42.514  30.406  33.181  1.00  0.00    -0.354 N 
ATOM     49  N   UNL A   1      40.151  31.816  32.171  1.00  0.00    -0.248 NA
ATOM     50  C   UNL A   1      38.589  33.547  32.343  1.00  0.00     0.031 C 
ATOM     51  C   UNL A   1      43.575  31.253  34.940  1.00  0.00     0.029 A 
ATOM     52  C   UNL A   1      42.488  31.440  34.103  1.00  0.00     0.049 A 
ATOM     53  H   UNL A   1      41.851  30.271  32.466  1.00  0.00     0.167 HD
ATOM     54  C   UNL A   1      40.481  32.621  33.254  1.00  0.00     0.074 A 
ATOM     55  C   UNL A   1      39.497  33.685  33.300  1.00  0.00     0.031 C 
ATOM     56  C   UNL A   1      41.498  32.484  34.139  1.00  0.00     0.037 A 
BRANCH  43  57
ATOM     57  C   UNL A   1      45.177  27.652  33.025  1.00  0.00     0.058 A 
ATOM     58  C   UNL A   1      46.456  27.936  32.526  1.00  0.00     0.135 A 
ATOM     59  C   UNL A   1      45.059  26.626  33.981  1.00  0.00     0.135 A 
ATOM     60  F   UNL A   1      46.622  28.892  31.599  1.00  0.00    -0.206 F 
ATOM     61  C   UNL A   1      47.575  27.223  32.948  1.00  0.00     0.059 A 
ATOM     62  C   UNL A   1      46.167  25.916  34.432  1.00  0.00     0.059 A 
ATOM     63  F   UNL A   1      43.857  26.314  34.491  1.00  0.00    -0.206 F 
ATOM     64  C   UNL A   1      47.421  26.214  33.903  1.00  0.00     0.060 A 
BRANCH  64  65
ATOM     65  S   UNL A   1      48.882  25.312  34.463  1.00  0.00     0.124 S 
ATOM     66  O   UNL A   1      49.656  26.377  35.094  1.00  0.00    -0.237 OA
ATOM     67  O   UNL A   1      48.312  24.322  35.370  1.00  0.00    -0.237 OA
ATOM     68  O   UNL A   1      49.443  24.776  33.228  1.00  0.00    -0.744 OA
ENDBRANCH  64  65
ENDBRANCH  43  57
BRANCH  44  69
ATOM     69  C   UNL A   1      37.006  32.558  30.084  1.00  0.00     0.058 A 
ATOM     70  C   UNL A   1      35.777  32.255  30.686  1.00  0.00     0.135 A 
ATOM     71  C   UNL A   1      37.036  33.587  29.129  1.00  0.00     0.135 A 
ATOM     72  F   UNL A   1      35.698  31.269  31.593  1.00  0.00    -0.206 F 
ATOM     73  C   UNL A   1      34.619  32.957  30.364  1.00  0.00     0.059 A 
ATOM     74  C   UNL A   1      35.897  34.319  28.811  1.00  0.00     0.059 A 
ATOM     75  F   UNL A   1      38.192  33.921  28.536  1.00  0.00    -0.206 F 
ATOM     76  C   UNL A   1      34.692  33.994  29.432  1.00  0.00     0.060 A 
BRANCH  76  77
ATOM     77  S   UNL A   1      33.214  34.976  29.096  1.00  0.00     0.124 S 
ATOM     78  O   UNL A   1      33.794  36.226  28.623  1.00  0.00    -0.237 OA
ATOM     79  O   UNL A   1      32.524  34.172  28.092  1.00  0.00    -0.237 OA
ATOM     80  O   UNL A   1      32.553  35.034  30.397  1.00  0.00    -0.744 OA
ENDBRANCH  76  77
ENDBRANCH  44  69
BRANCH  56  81
ATOM     81  C   UNL A   1      41.599  33.516  35.223  1.00  0.00     0.058 A 
ATOM     82  C   UNL A   1      42.295  34.717  35.025  1.00  0.00     0.135 A 
ATOM     83  C   UNL A   1      40.979  33.308  36.465  1.00  0.00     0.135 A 
ATOM     84  F   UNL A   1      42.910  34.956  33.856  1.00  0.00    -0.206 F 
ATOM     85  C   UNL A   1      42.394  35.672  36.031  1.00  0.00     0.059 A 
ATOM     86  C   UNL A   1      41.050  34.257  37.480  1.00  0.00     0.059 A 
ATOM     87  F   UNL A   1      40.296  32.177  36.699  1.00  0.00    -0.206 F 
ATOM     88  C   UNL A   1      41.772  35.429  37.257  1.00  0.00     0.060 A 
BRANCH  88  89
ATOM     89  S   UNL A   1      41.896  36.677  38.557  1.00  0.00     0.124 S 
ATOM     90  O   UNL A   1      42.947  37.542  38.031  1.00  0.00    -0.237 OA
ATOM     91  O   UNL A   1      40.555  37.250  38.576  1.00  0.00    -0.237 OA
ATOM     92  O   UNL A   1      42.255  35.898  39.739  1.00  0.00    -0.744 OA
ENDBRANCH  88  89
ENDBRANCH  56  81
ENDBRANCH  30  31
ENDBRANCH  23  25
ENDBRANCH  22  23
ENDBRANCH   1  22
TORSDOF 16
ENDMDL
