MODEL 1
REMARK VINA RESULT:     -10.0      0.000      0.000
REMARK SMILES C[C@H](C(=O)OCCOC(=O)c1ccc(-c2c3nc(c(-c4c(F)cc(S(=O)(=O)[O-])cc4F)c4ccc([nH]4)c(-c4c(F)cc(S(=O)(=O)[O-])cc4F)c4nc(c(-c5c(F)cc(S(=O)(=O)[O-])cc5F)c5ccc2[nH]5)C=C4)C=C3)cc1)[C@H](C)[N@@H+]1CC[C@H]([NH+]2CCCCC2)C1
REMARK SMILES IDX 6 1 5 2 3 3 4 4 2 5 1 6 77 7 78 8 79 9 80 10 89 11 81 13
REMARK SMILES IDX 82 14 83 15 84 16 88 17 85 19 87 20 86 21 7 22 8 23 9 24
REMARK SMILES IDX 10 25 11 26 12 27 76 28 13 29 75 30 14 31 15 32 16 33 69 34
REMARK SMILES IDX 17 35 74 36 68 37 70 38 18 39 73 40 67 41 66 42 19 44 53 45
REMARK SMILES IDX 32 46 52 47 33 48 36 49 51 50 71 51 34 52 35 53 50 55 72 56
REMARK SMILES IDX 37 57 20 58 21 59 30 60 22 61 23 62 29 63 31 64 24 65 25 66
REMARK SMILES IDX 26 67 27 68 28 69 54 70 55 71 64 72 56 73 57 74 63 75 65 76
REMARK SMILES IDX 58 77 59 78 60 79 61 80 62 81 38 82 39 83 48 84 40 85 41 86
REMARK SMILES IDX 47 87 49 88 42 89 43 90 44 91 45 92 46 93
REMARK H PARENT 79 12 83 18 70 43 36 54
REMARK Flexibility Score: inf
ROOT
ATOM      1  C   UNL A   1      33.712  33.902  28.129  1.00  0.00     0.274 C 
ENDROOT
BRANCH   1   2
ATOM      2  O   UNL A   1      33.287  34.058  29.501  1.00  0.00    -0.462 OA
BRANCH   2   3
ATOM      3  C   UNL A   1      33.025  35.340  29.882  1.00  0.00     0.314 C 
ATOM      4  O   UNL A   1      32.552  36.190  29.133  1.00  0.00    -0.252 OA
BRANCH   3   5
ATOM      5  C   UNL A   1      33.546  35.660  31.280  1.00  0.00     0.154 C 
ATOM      6  C   UNL A   1      32.336  35.897  32.206  1.00  0.00     0.026 C 
BRANCH   5   7
ATOM      7  C   UNL A   1      34.563  34.703  32.014  1.00  0.00     0.195 C 
ATOM      8  C   UNL A   1      34.744  35.294  33.432  1.00  0.00     0.076 C 
BRANCH   7   9
ATOM      9  N   UNL A   1      35.873  34.437  31.368  1.00  0.00    -0.327 N 
ATOM     10  C   UNL A   1      35.990  33.035  30.941  1.00  0.00     0.269 C 
ATOM     11  C   UNL A   1      37.058  34.621  32.263  1.00  0.00     0.328 C 
ATOM     12  H   UNL A   1      35.884  35.111  30.602  1.00  0.00     0.348 HD
ATOM     13  C   UNL A   1      36.585  32.270  32.104  1.00  0.00     0.132 C 
ATOM     14  C   UNL A   1      37.660  33.225  32.592  1.00  0.00     0.245 C 
BRANCH  14  15
ATOM     15  N   UNL A   1      38.207  32.971  33.942  1.00  0.00    -0.328 N 
ATOM     16  C   UNL A   1      37.696  31.758  34.594  1.00  0.00     0.262 C 
ATOM     17  C   UNL A   1      39.686  32.956  33.914  1.00  0.00     0.262 C 
ATOM     18  H   UNL A   1      37.877  33.749  34.513  1.00  0.00     0.348 HD
ATOM     19  C   UNL A   1      38.252  31.605  36.015  1.00  0.00     0.062 C 
ATOM     20  C   UNL A   1      40.301  32.827  35.306  1.00  0.00     0.062 C 
ATOM     21  C   UNL A   1      39.775  31.592  36.020  1.00  0.00     0.012 C 
ENDBRANCH  14  15
ENDBRANCH   7   9
ENDBRANCH   5   7
ENDBRANCH   3   5
ENDBRANCH   2   3
ENDBRANCH   1   2
BRANCH   1  22
ATOM     22  C   UNL A   1      33.432  32.500  27.582  1.00  0.00     0.275 C 
BRANCH  22  23
ATOM     23  O   UNL A   1      33.899  31.508  28.507  1.00  0.00    -0.458 OA
BRANCH  23  24
ATOM     24  C   UNL A   1      34.313  30.342  27.961  1.00  0.00     0.338 C 
ATOM     25  O   UNL A   1      33.654  29.632  27.212  1.00  0.00    -0.246 OA
BRANCH  24  26
ATOM     26  C   UNL A   1      35.746  30.096  28.296  1.00  0.00     0.060 A 
ATOM     27  C   UNL A   1      36.759  30.242  27.345  1.00  0.00     0.016 A 
ATOM     28  C   UNL A   1      36.077  29.607  29.563  1.00  0.00     0.016 A 
ATOM     29  C   UNL A   1      38.055  29.796  27.614  1.00  0.00     0.010 A 
ATOM     30  C   UNL A   1      37.404  29.274  29.869  1.00  0.00     0.010 A 
ATOM     31  C   UNL A   1      38.412  29.346  28.893  1.00  0.00    -0.014 A 
BRANCH  31  32
ATOM     32  C   UNL A   1      39.832  29.026  29.229  1.00  0.00     0.031 A 
ATOM     33  C   UNL A   1      40.763  30.065  29.808  1.00  0.00     0.074 A 
ATOM     34  C   UNL A   1      40.316  27.793  28.967  1.00  0.00     0.049 A 
ATOM     35  N   UNL A   1      42.060  30.003  29.991  1.00  0.00    -0.248 NA
ATOM     36  C   UNL A   1      40.165  31.336  30.242  1.00  0.00     0.031 C 
ATOM     37  C   UNL A   1      39.540  26.671  28.433  1.00  0.00     0.029 A 
ATOM     38  N   UNL A   1      41.585  27.280  29.093  1.00  0.00    -0.354 N 
ATOM     39  C   UNL A   1      42.433  31.224  30.543  1.00  0.00     0.074 A 
ATOM     40  C   UNL A   1      41.227  32.016  30.657  1.00  0.00     0.031 C 
ATOM     41  C   UNL A   1      40.339  25.607  28.288  1.00  0.00     0.029 A 
ATOM     42  C   UNL A   1      41.705  25.995  28.617  1.00  0.00     0.049 A 
ATOM     43  H   UNL A   1      42.335  27.783  29.485  1.00  0.00     0.167 HD
ATOM     44  C   UNL A   1      43.665  31.646  30.918  1.00  0.00     0.037 A 
ATOM     45  C   UNL A   1      42.787  25.227  28.393  1.00  0.00     0.037 A 
ATOM     46  C   UNL A   1      44.871  30.867  30.800  1.00  0.00     0.049 A 
ATOM     47  C   UNL A   1      44.153  25.767  28.685  1.00  0.00     0.074 A 
ATOM     48  C   UNL A   1      46.158  31.209  31.183  1.00  0.00     0.029 A 
ATOM     49  N   UNL A   1      44.947  29.601  30.242  1.00  0.00    -0.354 N 
ATOM     50  N   UNL A   1      44.486  26.924  29.198  1.00  0.00    -0.248 NA
ATOM     51  C   UNL A   1      45.291  24.903  28.344  1.00  0.00     0.031 C 
ATOM     52  C   UNL A   1      47.019  30.170  30.812  1.00  0.00     0.029 A 
ATOM     53  C   UNL A   1      46.263  29.164  30.236  1.00  0.00     0.049 A 
ATOM     54  H   UNL A   1      44.179  29.088  29.902  1.00  0.00     0.167 HD
ATOM     55  C   UNL A   1      45.875  26.927  29.253  1.00  0.00     0.074 A 
ATOM     56  C   UNL A   1      46.318  25.651  28.729  1.00  0.00     0.031 C 
ATOM     57  C   UNL A   1      46.703  27.901  29.700  1.00  0.00     0.037 A 
BRANCH  44  58
ATOM     58  C   UNL A   1      43.790  33.036  31.477  1.00  0.00     0.058 A 
ATOM     59  C   UNL A   1      43.952  34.153  30.643  1.00  0.00     0.135 A 
ATOM     60  C   UNL A   1      43.669  33.260  32.859  1.00  0.00     0.135 A 
ATOM     61  F   UNL A   1      44.082  33.991  29.317  1.00  0.00    -0.206 F 
ATOM     62  C   UNL A   1      44.002  35.444  31.160  1.00  0.00     0.059 A 
ATOM     63  C   UNL A   1      43.699  34.543  33.395  1.00  0.00     0.059 A 
ATOM     64  F   UNL A   1      43.511  32.225  33.698  1.00  0.00    -0.206 F 
ATOM     65  C   UNL A   1      43.875  35.629  32.537  1.00  0.00     0.060 A 
BRANCH  65  66
ATOM     66  S   UNL A   1      43.920  37.311  33.194  1.00  0.00     0.124 S 
ATOM     67  O   UNL A   1      45.178  37.299  33.934  1.00  0.00    -0.237 OA
ATOM     68  O   UNL A   1      43.906  38.123  31.982  1.00  0.00    -0.237 OA
ATOM     69  O   UNL A   1      42.712  37.390  34.011  1.00  0.00    -0.744 OA
ENDBRANCH  65  66
ENDBRANCH  44  58
BRANCH  45  70
ATOM     70  C   UNL A   1      42.606  23.884  27.786  1.00  0.00     0.058 A 
ATOM     71  C   UNL A   1      42.608  23.713  26.395  1.00  0.00     0.135 A 
ATOM     72  C   UNL A   1      42.488  22.739  28.591  1.00  0.00     0.135 A 
ATOM     73  F   UNL A   1      42.706  24.780  25.589  1.00  0.00    -0.206 F 
ATOM     74  C   UNL A   1      42.509  22.451  25.821  1.00  0.00     0.059 A 
ATOM     75  C   UNL A   1      42.415  21.465  28.041  1.00  0.00     0.059 A 
ATOM     76  F   UNL A   1      42.494  22.853  29.928  1.00  0.00    -0.206 F 
ATOM     77  C   UNL A   1      42.423  21.331  26.653  1.00  0.00     0.060 A 
BRANCH  77  78
ATOM     78  S   UNL A   1      42.391  19.689  25.905  1.00  0.00     0.124 S 
ATOM     79  O   UNL A   1      42.778  18.848  27.031  1.00  0.00    -0.237 OA
ATOM     80  O   UNL A   1      41.003  19.574  25.468  1.00  0.00    -0.237 OA
ATOM     81  O   UNL A   1      43.369  19.796  24.827  1.00  0.00    -0.744 OA
ENDBRANCH  77  78
ENDBRANCH  45  70
BRANCH  57  82
ATOM     82  C   UNL A   1      48.176  27.617  29.662  1.00  0.00     0.058 A 
ATOM     83  C   UNL A   1      48.851  27.090  30.773  1.00  0.00     0.135 A 
ATOM     84  C   UNL A   1      48.920  27.862  28.497  1.00  0.00     0.135 A 
ATOM     85  F   UNL A   1      48.186  26.849  31.915  1.00  0.00    -0.206 F 
ATOM     86  C   UNL A   1      50.218  26.836  30.740  1.00  0.00     0.059 A 
ATOM     87  C   UNL A   1      50.283  27.596  28.433  1.00  0.00     0.059 A 
ATOM     88  F   UNL A   1      48.319  28.361  27.404  1.00  0.00    -0.206 F 
ATOM     89  C   UNL A   1      50.927  27.097  29.565  1.00  0.00     0.060 A 
BRANCH  89  90
ATOM     90  S   UNL A   1      52.699  26.755  29.524  1.00  0.00     0.124 S 
ATOM     91  O   UNL A   1      52.841  26.105  28.226  1.00  0.00    -0.237 OA
ATOM     92  O   UNL A   1      53.281  28.090  29.631  1.00  0.00    -0.237 OA
ATOM     93  O   UNL A   1      52.904  25.895  30.685  1.00  0.00    -0.744 OA
ENDBRANCH  89  90
ENDBRANCH  57  82
ENDBRANCH  31  32
ENDBRANCH  24  26
ENDBRANCH  23  24
ENDBRANCH  22  23
ENDBRANCH   1  22
TORSDOF 17
ENDMDL
MODEL 2
REMARK VINA RESULT:     -10.0      5.195     12.019
REMARK SMILES C[C@H](C(=O)OCCOC(=O)c1ccc(-c2c3nc(c(-c4c(F)cc(S(=O)(=O)[O-])cc4F)c4ccc([nH]4)c(-c4c(F)cc(S(=O)(=O)[O-])cc4F)c4nc(c(-c5c(F)cc(S(=O)(=O)[O-])cc5F)c5ccc2[nH]5)C=C4)C=C3)cc1)[C@H](C)[N@@H+]1CC[C@H]([NH+]2CCCCC2)C1
REMARK SMILES IDX 6 1 5 2 3 3 4 4 2 5 1 6 77 7 78 8 79 9 80 10 89 11 81 13
REMARK SMILES IDX 82 14 83 15 84 16 88 17 85 19 87 20 86 21 7 22 8 23 9 24
REMARK SMILES IDX 10 25 11 26 12 27 76 28 13 29 75 30 14 31 15 32 16 33 69 34
REMARK SMILES IDX 17 35 74 36 68 37 70 38 18 39 73 40 67 41 66 42 19 44 53 45
REMARK SMILES IDX 32 46 52 47 33 48 36 49 51 50 71 51 34 52 35 53 50 55 72 56
REMARK SMILES IDX 37 57 20 58 21 59 30 60 22 61 23 62 29 63 31 64 24 65 25 66
REMARK SMILES IDX 26 67 27 68 28 69 54 70 55 71 64 72 56 73 57 74 63 75 65 76
REMARK SMILES IDX 58 77 59 78 60 79 61 80 62 81 38 82 39 83 48 84 40 85 41 86
REMARK SMILES IDX 47 87 49 88 42 89 43 90 44 91 45 92 46 93
REMARK H PARENT 79 12 83 18 70 43 36 54
REMARK Flexibility Score: inf
ROOT
ATOM      1  C   UNL A   1      37.403  22.445  25.195  1.00  0.00     0.274 C 
ENDROOT
BRANCH   1   2
ATOM      2  O   UNL A   1      36.560  21.318  25.523  1.00  0.00    -0.462 OA
BRANCH   2   3
ATOM      3  C   UNL A   1      35.301  21.640  25.934  1.00  0.00     0.314 C 
ATOM      4  O   UNL A   1      34.923  21.562  27.099  1.00  0.00    -0.252 OA
BRANCH   3   5
ATOM      5  C   UNL A   1      34.358  21.935  24.771  1.00  0.00     0.154 C 
ATOM      6  C   UNL A   1      33.439  20.713  24.569  1.00  0.00     0.026 C 
BRANCH   5   7
ATOM      7  C   UNL A   1      33.473  23.242  24.746  1.00  0.00     0.195 C 
ATOM      8  C   UNL A   1      34.123  24.166  23.690  1.00  0.00     0.076 C 
BRANCH   7   9
ATOM      9  N   UNL A   1      33.240  23.960  26.023  1.00  0.00    -0.327 N 
ATOM     10  C   UNL A   1      32.040  23.463  26.712  1.00  0.00     0.269 C 
ATOM     11  C   UNL A   1      32.966  25.423  25.874  1.00  0.00     0.328 C 
ATOM     12  H   UNL A   1      34.111  23.800  26.531  1.00  0.00     0.348 HD
ATOM     13  C   UNL A   1      30.874  24.290  26.215  1.00  0.00     0.132 C 
ATOM     14  C   UNL A   1      31.466  25.688  26.193  1.00  0.00     0.245 C 
BRANCH  14  15
ATOM     15  N   UNL A   1      30.729  26.708  25.417  1.00  0.00    -0.328 N 
ATOM     16  C   UNL A   1      31.575  27.721  24.773  1.00  0.00     0.262 C 
ATOM     17  C   UNL A   1      29.844  26.068  24.419  1.00  0.00     0.262 C 
ATOM     18  H   UNL A   1      30.171  27.213  26.105  1.00  0.00     0.348 HD
ATOM     19  C   UNL A   1      30.735  28.782  24.052  1.00  0.00     0.062 C 
ATOM     20  C   UNL A   1      28.963  27.073  23.680  1.00  0.00     0.062 C 
ATOM     21  C   UNL A   1      29.808  28.153  23.020  1.00  0.00     0.012 C 
ENDBRANCH  14  15
ENDBRANCH   7   9
ENDBRANCH   5   7
ENDBRANCH   3   5
ENDBRANCH   2   3
ENDBRANCH   1   2
BRANCH   1  22
ATOM     22  C   UNL A   1      38.655  22.519  26.073  1.00  0.00     0.275 C 
BRANCH  22  23
ATOM     23  O   UNL A   1      38.939  23.883  26.411  1.00  0.00    -0.458 OA
BRANCH  23  24
ATOM     24  C   UNL A   1      40.224  24.156  26.733  1.00  0.00     0.338 C 
ATOM     25  O   UNL A   1      41.209  23.589  26.274  1.00  0.00    -0.246 OA
BRANCH  24  26
ATOM     26  C   UNL A   1      40.290  25.339  27.637  1.00  0.00     0.060 A 
ATOM     27  C   UNL A   1      41.360  26.239  27.596  1.00  0.00     0.016 A 
ATOM     28  C   UNL A   1      39.313  25.501  28.624  1.00  0.00     0.016 A 
ATOM     29  C   UNL A   1      41.513  27.206  28.591  1.00  0.00     0.010 A 
ATOM     30  C   UNL A   1      39.407  26.550  29.549  1.00  0.00     0.010 A 
ATOM     31  C   UNL A   1      40.519  27.409  29.560  1.00  0.00    -0.014 A 
BRANCH  31  32
ATOM     32  C   UNL A   1      40.602  28.549  30.522  1.00  0.00     0.031 A 
ATOM     33  C   UNL A   1      41.586  28.549  31.667  1.00  0.00     0.074 A 
ATOM     34  C   UNL A   1      39.747  29.586  30.398  1.00  0.00     0.049 A 
ATOM     35  N   UNL A   1      41.669  29.370  32.686  1.00  0.00    -0.248 NA
ATOM     36  C   UNL A   1      42.614  27.498  31.671  1.00  0.00     0.031 C 
ATOM     37  C   UNL A   1      38.755  29.748  29.332  1.00  0.00     0.029 A 
ATOM     38  N   UNL A   1      39.557  30.693  31.190  1.00  0.00    -0.354 N 
ATOM     39  C   UNL A   1      42.739  28.928  33.456  1.00  0.00     0.074 A 
ATOM     40  C   UNL A   1      43.273  27.757  32.794  1.00  0.00     0.031 C 
ATOM     41  C   UNL A   1      38.074  30.884  29.528  1.00  0.00     0.029 A 
ATOM     42  C   UNL A   1      38.504  31.480  30.786  1.00  0.00     0.049 A 
ATOM     43  H   UNL A   1      40.120  30.903  31.970  1.00  0.00     0.167 HD
ATOM     44  C   UNL A   1      43.230  29.447  34.607  1.00  0.00     0.037 A 
ATOM     45  C   UNL A   1      37.890  32.519  31.382  1.00  0.00     0.037 A 
ATOM     46  C   UNL A   1      42.699  30.607  35.277  1.00  0.00     0.049 A 
ATOM     47  C   UNL A   1      38.362  32.990  32.723  1.00  0.00     0.074 A 
ATOM     48  C   UNL A   1      43.155  31.218  36.434  1.00  0.00     0.029 A 
ATOM     49  N   UNL A   1      41.585  31.321  34.866  1.00  0.00    -0.354 N 
ATOM     50  N   UNL A   1      39.369  32.554  33.438  1.00  0.00    -0.248 NA
ATOM     51  C   UNL A   1      37.598  34.078  33.349  1.00  0.00     0.031 C 
ATOM     52  C   UNL A   1      42.288  32.271  36.748  1.00  0.00     0.029 A 
ATOM     53  C   UNL A   1      41.316  32.341  35.765  1.00  0.00     0.049 A 
ATOM     54  H   UNL A   1      41.062  31.131  34.053  1.00  0.00     0.167 HD
ATOM     55  C   UNL A   1      39.369  33.322  34.597  1.00  0.00     0.074 A 
ATOM     56  C   UNL A   1      38.266  34.255  34.481  1.00  0.00     0.031 C 
ATOM     57  C   UNL A   1      40.211  33.257  35.656  1.00  0.00     0.037 A 
BRANCH  44  58
ATOM     58  C   UNL A   1      44.399  28.752  35.248  1.00  0.00     0.058 A 
ATOM     59  C   UNL A   1      45.722  29.102  34.939  1.00  0.00     0.135 A 
ATOM     60  C   UNL A   1      44.191  27.779  36.240  1.00  0.00     0.135 A 
ATOM     61  F   UNL A   1      45.974  30.019  33.992  1.00  0.00    -0.206 F 
ATOM     62  C   UNL A   1      46.801  28.503  35.583  1.00  0.00     0.059 A 
ATOM     63  C   UNL A   1      45.254  27.179  36.907  1.00  0.00     0.059 A 
ATOM     64  F   UNL A   1      42.944  27.412  36.572  1.00  0.00    -0.206 F 
ATOM     65  C   UNL A   1      46.556  27.542  36.565  1.00  0.00     0.060 A 
BRANCH  65  66
ATOM     66  S   UNL A   1      47.963  26.786  37.408  1.00  0.00     0.124 S 
ATOM     67  O   UNL A   1      47.300  25.785  38.238  1.00  0.00    -0.237 OA
ATOM     68  O   UNL A   1      48.753  26.264  36.297  1.00  0.00    -0.237 OA
ATOM     69  O   UNL A   1      48.567  27.901  38.131  1.00  0.00    -0.744 OA
ENDBRANCH  65  66
ENDBRANCH  44  58
BRANCH  45  70
ATOM     70  C   UNL A   1      36.704  33.129  30.729  1.00  0.00     0.058 A 
ATOM     71  C   UNL A   1      35.408  32.868  31.194  1.00  0.00     0.135 A 
ATOM     72  C   UNL A   1      36.853  34.033  29.664  1.00  0.00     0.135 A 
ATOM     73  F   UNL A   1      35.219  32.002  32.201  1.00  0.00    -0.206 F 
ATOM     74  C   UNL A   1      34.299  33.489  30.632  1.00  0.00     0.059 A 
ATOM     75  C   UNL A   1      35.763  34.686  29.103  1.00  0.00     0.059 A 
ATOM     76  F   UNL A   1      38.076  34.322  29.194  1.00  0.00    -0.206 F 
ATOM     77  C   UNL A   1      34.487  34.405  29.593  1.00  0.00     0.060 A 
BRANCH  77  78
ATOM     78  S   UNL A   1      33.054  35.280  28.931  1.00  0.00     0.124 S 
ATOM     79  O   UNL A   1      32.544  34.316  27.965  1.00  0.00    -0.237 OA
ATOM     80  O   UNL A   1      32.237  35.484  30.123  1.00  0.00    -0.237 OA
ATOM     81  O   UNL A   1      33.638  36.494  28.369  1.00  0.00    -0.744 OA
ENDBRANCH  77  78
ENDBRANCH  45  70
BRANCH  57  82
ATOM     82  C   UNL A   1      39.984  34.237  36.770  1.00  0.00     0.058 A 
ATOM     83  C   UNL A   1      40.473  35.551  36.702  1.00  0.00     0.135 A 
ATOM     84  C   UNL A   1      39.259  33.865  37.912  1.00  0.00     0.135 A 
ATOM     85  F   UNL A   1      41.183  35.952  35.636  1.00  0.00    -0.206 F 
ATOM     86  C   UNL A   1      40.271  36.456  37.739  1.00  0.00     0.059 A 
ATOM     87  C   UNL A   1      39.026  34.758  38.952  1.00  0.00     0.059 A 
ATOM     88  F   UNL A   1      38.764  32.621  38.022  1.00  0.00    -0.206 F 
ATOM     89  C   UNL A   1      39.550  36.048  38.864  1.00  0.00     0.060 A 
BRANCH  89  90
ATOM     90  S   UNL A   1      39.281  37.230  40.201  1.00  0.00     0.124 S 
ATOM     91  O   UNL A   1      38.483  36.440  41.133  1.00  0.00    -0.237 OA
ATOM     92  O   UNL A   1      40.642  37.533  40.632  1.00  0.00    -0.237 OA
ATOM     93  O   UNL A   1      38.579  38.328  39.545  1.00  0.00    -0.744 OA
ENDBRANCH  89  90
ENDBRANCH  57  82
ENDBRANCH  31  32
ENDBRANCH  24  26
ENDBRANCH  23  24
ENDBRANCH  22  23
ENDBRANCH   1  22
TORSDOF 17
ENDMDL
MODEL 3
REMARK VINA RESULT:      -9.9      3.003      5.846
REMARK SMILES C[C@H](C(=O)OCCOC(=O)c1ccc(-c2c3nc(c(-c4c(F)cc(S(=O)(=O)[O-])cc4F)c4ccc([nH]4)c(-c4c(F)cc(S(=O)(=O)[O-])cc4F)c4nc(c(-c5c(F)cc(S(=O)(=O)[O-])cc5F)c5ccc2[nH]5)C=C4)C=C3)cc1)[C@H](C)[N@@H+]1CC[C@H]([NH+]2CCCCC2)C1
REMARK SMILES IDX 6 1 5 2 3 3 4 4 2 5 1 6 77 7 78 8 79 9 80 10 89 11 81 13
REMARK SMILES IDX 82 14 83 15 84 16 88 17 85 19 87 20 86 21 7 22 8 23 9 24
REMARK SMILES IDX 10 25 11 26 12 27 76 28 13 29 75 30 14 31 15 32 16 33 69 34
REMARK SMILES IDX 17 35 74 36 68 37 70 38 18 39 73 40 67 41 66 42 19 44 53 45
REMARK SMILES IDX 32 46 52 47 33 48 36 49 51 50 71 51 34 52 35 53 50 55 72 56
REMARK SMILES IDX 37 57 20 58 21 59 30 60 22 61 23 62 29 63 31 64 24 65 25 66
REMARK SMILES IDX 26 67 27 68 28 69 54 70 55 71 64 72 56 73 57 74 63 75 65 76
REMARK SMILES IDX 58 77 59 78 60 79 61 80 62 81 38 82 39 83 48 84 40 85 41 86
REMARK SMILES IDX 47 87 49 88 42 89 43 90 44 91 45 92 46 93
REMARK H PARENT 79 12 83 18 70 43 36 54
REMARK Flexibility Score: inf
ROOT
ATOM      1  C   UNL A   1      32.456  29.043  25.521  1.00  0.00     0.274 C 
ENDROOT
BRANCH   1   2
ATOM      2  O   UNL A   1      31.225  28.505  24.987  1.00  0.00    -0.462 OA
BRANCH   2   3
ATOM      3  C   UNL A   1      31.289  27.203  24.589  1.00  0.00     0.314 C 
ATOM      4  O   UNL A   1      31.248  26.847  23.415  1.00  0.00    -0.252 OA
BRANCH   3   5
ATOM      5  C   UNL A   1      31.238  26.224  25.758  1.00  0.00     0.154 C 
ATOM      6  C   UNL A   1      29.838  25.579  25.790  1.00  0.00     0.026 C 
BRANCH   5   7
ATOM      7  C   UNL A   1      32.321  25.088  25.923  1.00  0.00     0.195 C 
ATOM      8  C   UNL A   1      33.687  25.814  25.955  1.00  0.00     0.076 C 
BRANCH   7   9
ATOM      9  N   UNL A   1      32.326  23.971  24.946  1.00  0.00    -0.327 N 
ATOM     10  C   UNL A   1      32.178  22.669  25.613  1.00  0.00     0.269 C 
ATOM     11  C   UNL A   1      33.602  23.818  24.181  1.00  0.00     0.328 C 
ATOM     12  H   UNL A   1      31.553  24.215  24.326  1.00  0.00     0.348 HD
ATOM     13  C   UNL A   1      33.572  22.182  25.940  1.00  0.00     0.132 C 
ATOM     14  C   UNL A   1      34.336  22.539  24.676  1.00  0.00     0.245 C 
BRANCH  14  15
ATOM     15  N   UNL A   1      35.811  22.540  24.772  1.00  0.00    -0.328 N 
ATOM     16  C   UNL A   1      36.363  23.489  25.749  1.00  0.00     0.262 C 
ATOM     17  C   UNL A   1      36.321  21.177  25.036  1.00  0.00     0.262 C 
ATOM     18  H   UNL A   1      36.136  22.865  23.861  1.00  0.00     0.348 HD
ATOM     19  C   UNL A   1      37.896  23.484  25.736  1.00  0.00     0.062 C 
ATOM     20  C   UNL A   1      37.846  21.102  25.014  1.00  0.00     0.062 C 
ATOM     21  C   UNL A   1      38.452  22.091  25.999  1.00  0.00     0.012 C 
ENDBRANCH  14  15
ENDBRANCH   7   9
ENDBRANCH   5   7
ENDBRANCH   3   5
ENDBRANCH   2   3
ENDBRANCH   1   2
BRANCH   1  22
ATOM     22  C   UNL A   1      32.377  29.314  27.025  1.00  0.00     0.275 C 
BRANCH  22  23
ATOM     23  O   UNL A   1      33.675  29.175  27.619  1.00  0.00    -0.458 OA
BRANCH  23  24
ATOM     24  C   UNL A   1      34.282  30.328  27.984  1.00  0.00     0.338 C 
ATOM     25  O   UNL A   1      33.720  31.400  28.172  1.00  0.00    -0.246 OA
BRANCH  24  26
ATOM     26  C   UNL A   1      35.728  30.086  28.254  1.00  0.00     0.060 A 
ATOM     27  C   UNL A   1      36.685  30.129  27.235  1.00  0.00     0.016 A 
ATOM     28  C   UNL A   1      36.129  29.705  29.538  1.00  0.00     0.016 A 
ATOM     29  C   UNL A   1      37.989  29.686  27.466  1.00  0.00     0.010 A 
ATOM     30  C   UNL A   1      37.468  29.377  29.793  1.00  0.00     0.010 A 
ATOM     31  C   UNL A   1      38.416  29.343  28.757  1.00  0.00    -0.014 A 
BRANCH  31  32
ATOM     32  C   UNL A   1      39.850  29.029  29.036  1.00  0.00     0.031 A 
ATOM     33  C   UNL A   1      40.815  30.087  29.516  1.00  0.00     0.074 A 
ATOM     34  C   UNL A   1      40.313  27.781  28.808  1.00  0.00     0.049 A 
ATOM     35  N   UNL A   1      42.118  30.023  29.636  1.00  0.00    -0.248 NA
ATOM     36  C   UNL A   1      40.246  31.382  29.918  1.00  0.00     0.031 C 
ATOM     37  C   UNL A   1      39.505  26.641  28.369  1.00  0.00     0.029 A 
ATOM     38  N   UNL A   1      41.583  27.265  28.895  1.00  0.00    -0.354 N 
ATOM     39  C   UNL A   1      42.526  31.266  30.109  1.00  0.00     0.074 A 
ATOM     40  C   UNL A   1      41.332  32.073  30.245  1.00  0.00     0.031 C 
ATOM     41  C   UNL A   1      40.290  25.565  28.236  1.00  0.00     0.029 A 
ATOM     42  C   UNL A   1      41.672  25.958  28.476  1.00  0.00     0.049 A 
ATOM     43  H   UNL A   1      42.355  27.780  29.224  1.00  0.00     0.167 HD
ATOM     44  C   UNL A   1      43.778  31.696  30.401  1.00  0.00     0.037 A 
ATOM     45  C   UNL A   1      42.737  25.171  28.234  1.00  0.00     0.037 A 
ATOM     46  C   UNL A   1      44.972  30.903  30.259  1.00  0.00     0.049 A 
ATOM     47  C   UNL A   1      44.119  25.713  28.430  1.00  0.00     0.074 A 
ATOM     48  C   UNL A   1      46.279  31.253  30.560  1.00  0.00     0.029 A 
ATOM     49  N   UNL A   1      45.013  29.611  29.760  1.00  0.00    -0.354 N 
ATOM     50  N   UNL A   1      44.484  26.891  28.870  1.00  0.00    -0.248 NA
ATOM     51  C   UNL A   1      45.234  24.825  28.075  1.00  0.00     0.031 C 
ATOM     52  C   UNL A   1      47.114  30.190  30.196  1.00  0.00     0.029 A 
ATOM     53  C   UNL A   1      46.324  29.164  29.708  1.00  0.00     0.049 A 
ATOM     54  H   UNL A   1      44.225  29.089  29.483  1.00  0.00     0.167 HD
ATOM     55  C   UNL A   1      45.874  26.886  28.854  1.00  0.00     0.074 A 
ATOM     56  C   UNL A   1      46.283  25.582  28.371  1.00  0.00     0.031 C 
ATOM     57  C   UNL A   1      46.729  27.874  29.212  1.00  0.00     0.037 A 
BRANCH  44  58
ATOM     58  C   UNL A   1      43.939  33.111  30.885  1.00  0.00     0.058 A 
ATOM     59  C   UNL A   1      44.184  34.169  29.997  1.00  0.00     0.135 A 
ATOM     60  C   UNL A   1      43.768  33.420  32.245  1.00  0.00     0.135 A 
ATOM     61  F   UNL A   1      44.364  33.924  28.690  1.00  0.00    -0.206 F 
ATOM     62  C   UNL A   1      44.268  35.485  30.442  1.00  0.00     0.059 A 
ATOM     63  C   UNL A   1      43.831  34.729  32.709  1.00  0.00     0.059 A 
ATOM     64  F   UNL A   1      43.530  32.442  33.133  1.00  0.00    -0.206 F 
ATOM     65  C   UNL A   1      44.090  35.755  31.800  1.00  0.00     0.060 A 
BRANCH  65  66
ATOM     66  S   UNL A   1      44.180  37.469  32.362  1.00  0.00     0.124 S 
ATOM     67  O   UNL A   1      43.235  37.459  33.474  1.00  0.00    -0.237 OA
ATOM     68  O   UNL A   1      45.586  37.608  32.726  1.00  0.00    -0.237 OA
ATOM     69  O   UNL A   1      43.762  38.234  31.190  1.00  0.00    -0.744 OA
ENDBRANCH  65  66
ENDBRANCH  44  58
BRANCH  45  70
ATOM     70  C   UNL A   1      42.518  23.802  27.702  1.00  0.00     0.058 A 
ATOM     71  C   UNL A   1      42.404  23.571  26.325  1.00  0.00     0.135 A 
ATOM     72  C   UNL A   1      42.479  22.692  28.562  1.00  0.00     0.135 A 
ATOM     73  F   UNL A   1      42.425  24.603  25.469  1.00  0.00    -0.206 F 
ATOM     74  C   UNL A   1      42.269  22.285  25.816  1.00  0.00     0.059 A 
ATOM     75  C   UNL A   1      42.371  21.395  28.076  1.00  0.00     0.059 A 
ATOM     76  F   UNL A   1      42.596  22.864  29.888  1.00  0.00    -0.206 F 
ATOM     77  C   UNL A   1      42.264  21.202  26.699  1.00  0.00     0.060 A 
BRANCH  77  78
ATOM     78  S   UNL A   1      42.184  19.528  26.027  1.00  0.00     0.124 S 
ATOM     79  O   UNL A   1      42.642  18.737  27.162  1.00  0.00    -0.237 OA
ATOM     80  O   UNL A   1      40.771  19.398  25.686  1.00  0.00    -0.237 OA
ATOM     81  O   UNL A   1      43.092  19.586  24.885  1.00  0.00    -0.744 OA
ENDBRANCH  77  78
ENDBRANCH  45  70
BRANCH  57  82
ATOM     82  C   UNL A   1      48.197  27.576  29.113  1.00  0.00     0.058 A 
ATOM     83  C   UNL A   1      48.915  27.811  27.930  1.00  0.00     0.135 A 
ATOM     84  C   UNL A   1      48.897  27.063  30.216  1.00  0.00     0.135 A 
ATOM     85  F   UNL A   1      48.287  28.290  26.844  1.00  0.00    -0.206 F 
ATOM     86  C   UNL A   1      50.273  27.526  27.836  1.00  0.00     0.059 A 
ATOM     87  C   UNL A   1      50.259  26.790  30.152  1.00  0.00     0.059 A 
ATOM     88  F   UNL A   1      48.257  26.827  31.373  1.00  0.00    -0.206 F 
ATOM     89  C   UNL A   1      50.936  27.011  28.952  1.00  0.00     0.060 A 
BRANCH  89  90
ATOM     90  S   UNL A   1      52.701  26.653  28.828  1.00  0.00     0.124 S 
ATOM     91  O   UNL A   1      52.938  25.916  30.064  1.00  0.00    -0.237 OA
ATOM     92  O   UNL A   1      52.778  25.870  27.599  1.00  0.00    -0.237 OA
ATOM     93  O   UNL A   1      53.309  27.978  28.758  1.00  0.00    -0.744 OA
ENDBRANCH  89  90
ENDBRANCH  57  82
ENDBRANCH  31  32
ENDBRANCH  24  26
ENDBRANCH  23  24
ENDBRANCH  22  23
ENDBRANCH   1  22
TORSDOF 17
ENDMDL
