MODEL 1
REMARK VINA RESULT:     -11.7      0.000      0.000
REMARK SMILES Cc1ccc(C(=O)N[C@@H]2C=C[C@H](C(=O)OCCOC(=O)c3ccc(-c4c5nc(c(-c6c(F)cc(S(=O)(=O)[O-])cc6F)c6ccc([nH]6)c(-c6c(F)cc(S(=O)(=O)[O-])cc6F)c6nc(c(-c7c(F)cc(S(=O)(=O)[O-])cc7F)c7ccc4[nH]7)C=C6)C=C5)cc3)C2)c(F)c1
REMARK SMILES IDX 17 1 16 2 15 3 13 4 14 5 12 6 9 7 10 8 87 9 11 10 8 11 6 12
REMARK SMILES IDX 7 13 5 15 1 16 2 17 3 18 90 19 4 20 88 21 89 22 18 23 19 24
REMARK SMILES IDX 20 25 21 26 22 27 86 28 23 29 85 30 24 31 25 32 26 33 79 34
REMARK SMILES IDX 27 35 84 36 78 37 80 38 28 39 83 40 77 41 76 42 29 44 63 45
REMARK SMILES IDX 42 46 62 47 43 48 46 49 61 50 81 51 44 52 45 53 60 55 82 56
REMARK SMILES IDX 47 57 30 58 31 59 40 60 32 61 33 62 39 63 41 64 34 65 35 66
REMARK SMILES IDX 36 67 37 68 38 69 64 70 65 71 74 72 66 73 67 74 73 75 75 76
REMARK SMILES IDX 68 77 69 78 70 79 71 80 72 81 48 82 49 83 58 84 50 85 51 86
REMARK SMILES IDX 57 87 59 88 52 89 53 90 54 91 55 92 56 93
REMARK H PARENT 8 14 80 43 46 54
REMARK Flexibility Score: inf
ROOT
ATOM      1  C   UNL A   1      34.039  31.076  27.695  1.00  0.00     0.275 C 
ENDROOT
BRANCH   1   2
ATOM      2  C   UNL A   1      32.875  30.208  27.234  1.00  0.00     0.274 C 
BRANCH   2   3
ATOM      3  O   UNL A   1      32.722  30.279  25.803  1.00  0.00    -0.462 OA
BRANCH   3   4
ATOM      4  C   UNL A   1      32.264  29.137  25.206  1.00  0.00     0.312 C 
ATOM      5  O   UNL A   1      31.242  29.061  24.537  1.00  0.00    -0.252 OA
BRANCH   4   6
ATOM      6  C   UNL A   1      33.155  27.954  25.571  1.00  0.00     0.124 C 
ATOM      7  C   UNL A   1      33.862  25.863  24.443  1.00  0.00     0.106 C 
ATOM      8  C   UNL A   1      32.756  25.637  25.422  1.00  0.00    -0.006 C 
ATOM      9  C   UNL A   1      33.943  27.399  24.375  1.00  0.00     0.048 C 
ATOM     10  C   UNL A   1      32.367  26.764  26.025  1.00  0.00    -0.014 C 
BRANCH   7  11
ATOM     11  N   UNL A   1      33.518  25.162  23.221  1.00  0.00    -0.346 N 
ATOM     12  C   UNL A   1      33.788  23.889  22.781  1.00  0.00     0.254 C 
ATOM     13  O   UNL A   1      33.249  23.471  21.763  1.00  0.00    -0.269 OA
ATOM     14  H   UNL A   1      32.992  25.701  22.587  1.00  0.00     0.164 HD
BRANCH  12  15
ATOM     15  C   UNL A   1      34.763  23.048  23.487  1.00  0.00     0.075 A 
ATOM     16  C   UNL A   1      37.476  20.112  25.048  1.00  0.00     0.044 C 
ATOM     17  C   UNL A   1      36.544  21.180  24.561  1.00  0.00    -0.048 A 
ATOM     18  C   UNL A   1      37.026  22.307  23.880  1.00  0.00     0.004 A 
ATOM     19  C   UNL A   1      35.169  21.060  24.793  1.00  0.00     0.043 A 
ATOM     20  C   UNL A   1      36.138  23.248  23.354  1.00  0.00     0.017 A 
ATOM     21  C   UNL A   1      34.287  21.993  24.259  1.00  0.00     0.136 A 
ATOM     22  F   UNL A   1      32.974  21.813  24.458  1.00  0.00    -0.206 F 
ENDBRANCH  12  15
ENDBRANCH   7  11
ENDBRANCH   4   6
ENDBRANCH   3   4
ENDBRANCH   2   3
ENDBRANCH   1   2
BRANCH   1  23
ATOM     23  O   UNL A   1      35.209  30.261  27.874  1.00  0.00    -0.458 OA
BRANCH  23  24
ATOM     24  C   UNL A   1      36.006  30.613  28.908  1.00  0.00     0.338 C 
ATOM     25  O   UNL A   1      35.707  31.343  29.843  1.00  0.00    -0.246 OA
BRANCH  24  26
ATOM     26  C   UNL A   1      37.336  29.996  28.761  1.00  0.00     0.060 A 
ATOM     27  C   UNL A   1      38.121  29.723  29.881  1.00  0.00     0.016 A 
ATOM     28  C   UNL A   1      37.857  29.811  27.479  1.00  0.00     0.016 A 
ATOM     29  C   UNL A   1      39.455  29.351  29.716  1.00  0.00     0.010 A 
ATOM     30  C   UNL A   1      39.170  29.356  27.320  1.00  0.00     0.010 A 
ATOM     31  C   UNL A   1      39.998  29.152  28.437  1.00  0.00    -0.014 A 
BRANCH  31  32
ATOM     32  C   UNL A   1      41.420  28.733  28.273  1.00  0.00     0.031 A 
ATOM     33  C   UNL A   1      42.543  29.734  28.388  1.00  0.00     0.074 A 
ATOM     34  C   UNL A   1      41.714  27.441  28.022  1.00  0.00     0.049 A 
ATOM     35  N   UNL A   1      43.817  29.578  28.115  1.00  0.00    -0.248 NA
ATOM     36  C   UNL A   1      42.195  31.085  28.856  1.00  0.00     0.031 C 
ATOM     37  C   UNL A   1      40.735  26.357  27.906  1.00  0.00     0.029 A 
ATOM     38  N   UNL A   1      42.921  26.817  27.819  1.00  0.00    -0.354 N 
ATOM     39  C   UNL A   1      44.412  30.815  28.343  1.00  0.00     0.074 A 
ATOM     40  C   UNL A   1      43.361  31.714  28.770  1.00  0.00     0.031 C 
ATOM     41  C   UNL A   1      41.380  25.202  27.688  1.00  0.00     0.029 A 
ATOM     42  C   UNL A   1      42.808  25.471  27.563  1.00  0.00     0.049 A 
ATOM     43  H   UNL A   1      43.785  27.288  27.854  1.00  0.00     0.167 HD
ATOM     44  C   UNL A   1      45.715  31.164  28.217  1.00  0.00     0.037 A 
ATOM     45  C   UNL A   1      43.736  24.555  27.219  1.00  0.00     0.037 A 
ATOM     46  C   UNL A   1      46.775  30.257  27.856  1.00  0.00     0.049 A 
ATOM     47  C   UNL A   1      45.165  24.974  27.051  1.00  0.00     0.074 A 
ATOM     48  C   UNL A   1      48.130  30.520  27.740  1.00  0.00     0.029 A 
ATOM     49  N   UNL A   1      46.607  28.912  27.567  1.00  0.00    -0.354 N 
ATOM     50  N   UNL A   1      45.701  26.157  27.224  1.00  0.00    -0.248 NA
ATOM     51  C   UNL A   1      46.114  23.940  26.617  1.00  0.00     0.031 C 
ATOM     52  C   UNL A   1      48.777  29.341  27.351  1.00  0.00     0.029 A 
ATOM     53  C   UNL A   1      47.829  28.338  27.253  1.00  0.00     0.049 A 
ATOM     54  H   UNL A   1      45.746  28.434  27.583  1.00  0.00     0.167 HD
ATOM     55  C   UNL A   1      47.045  26.015  26.906  1.00  0.00     0.074 A 
ATOM     56  C   UNL A   1      47.250  24.623  26.562  1.00  0.00     0.031 C 
ATOM     57  C   UNL A   1      48.019  26.957  26.891  1.00  0.00     0.037 A 
BRANCH  44  58
ATOM     58  C   UNL A   1      46.088  32.601  28.454  1.00  0.00     0.058 A 
ATOM     59  C   UNL A   1      46.535  33.052  29.704  1.00  0.00     0.135 A 
ATOM     60  C   UNL A   1      46.094  33.512  27.386  1.00  0.00     0.135 A 
ATOM     61  F   UNL A   1      46.545  32.222  30.759  1.00  0.00    -0.206 F 
ATOM     62  C   UNL A   1      46.975  34.361  29.889  1.00  0.00     0.059 A 
ATOM     63  C   UNL A   1      46.544  34.820  27.543  1.00  0.00     0.059 A 
ATOM     64  F   UNL A   1      45.681  33.129  26.168  1.00  0.00    -0.206 F 
ATOM     65  C   UNL A   1      46.979  35.237  28.801  1.00  0.00     0.060 A 
BRANCH  65  66
ATOM     66  S   UNL A   1      47.603  36.916  29.038  1.00  0.00     0.124 S 
ATOM     67  O   UNL A   1      46.452  37.574  29.647  1.00  0.00    -0.237 OA
ATOM     68  O   UNL A   1      48.750  36.706  29.916  1.00  0.00    -0.237 OA
ATOM     69  O   UNL A   1      47.930  37.352  27.684  1.00  0.00    -0.744 OA
ENDBRANCH  65  66
ENDBRANCH  44  58
BRANCH  45  70
ATOM     70  C   UNL A   1      43.313  23.157  26.947  1.00  0.00     0.058 A 
ATOM     71  C   UNL A   1      43.199  22.675  25.637  1.00  0.00     0.135 A 
ATOM     72  C   UNL A   1      43.052  22.266  28.001  1.00  0.00     0.135 A 
ATOM     73  F   UNL A   1      43.426  23.493  24.598  1.00  0.00    -0.206 F 
ATOM     74  C   UNL A   1      42.847  21.354  25.377  1.00  0.00     0.059 A 
ATOM     75  C   UNL A   1      42.723  20.936  27.767  1.00  0.00     0.059 A 
ATOM     76  F   UNL A   1      43.158  22.680  29.273  1.00  0.00    -0.206 F 
ATOM     77  C   UNL A   1      42.616  20.490  26.451  1.00  0.00     0.060 A 
BRANCH  77  78
ATOM     78  S   UNL A   1      42.245  18.754  26.122  1.00  0.00     0.124 S 
ATOM     79  O   UNL A   1      40.836  18.821  25.752  1.00  0.00    -0.237 OA
ATOM     80  O   UNL A   1      43.173  18.431  25.042  1.00  0.00    -0.237 OA
ATOM     81  O   UNL A   1      42.536  18.108  27.399  1.00  0.00    -0.744 OA
ENDBRANCH  77  78
ENDBRANCH  45  70
BRANCH  57  82
ATOM     82  C   UNL A   1      49.391  26.513  26.477  1.00  0.00     0.058 A 
ATOM     83  C   UNL A   1      49.854  26.713  25.167  1.00  0.00     0.135 A 
ATOM     84  C   UNL A   1      50.258  25.903  27.396  1.00  0.00     0.135 A 
ATOM     85  F   UNL A   1      49.057  27.284  24.249  1.00  0.00    -0.206 F 
ATOM     86  C   UNL A   1      51.123  26.301  24.775  1.00  0.00     0.059 A 
ATOM     87  C   UNL A   1      51.539  25.499  27.030  1.00  0.00     0.059 A 
ATOM     88  F   UNL A   1      49.865  25.696  28.663  1.00  0.00    -0.206 F 
ATOM     89  C   UNL A   1      51.957  25.690  25.713  1.00  0.00     0.060 A 
BRANCH  89  90
ATOM     90  S   UNL A   1      53.608  25.168  25.200  1.00  0.00     0.124 S 
ATOM     91  O   UNL A   1      53.522  23.720  25.368  1.00  0.00    -0.237 OA
ATOM     92  O   UNL A   1      53.678  25.641  23.821  1.00  0.00    -0.237 OA
ATOM     93  O   UNL A   1      54.488  25.858  26.139  1.00  0.00    -0.744 OA
ENDBRANCH  89  90
ENDBRANCH  57  82
ENDBRANCH  31  32
ENDBRANCH  24  26
ENDBRANCH  23  24
ENDBRANCH   1  23
TORSDOF 16
ENDMDL
MODEL 2
REMARK VINA RESULT:     -11.6      1.428      2.678
REMARK SMILES Cc1ccc(C(=O)N[C@@H]2C=C[C@H](C(=O)OCCOC(=O)c3ccc(-c4c5nc(c(-c6c(F)cc(S(=O)(=O)[O-])cc6F)c6ccc([nH]6)c(-c6c(F)cc(S(=O)(=O)[O-])cc6F)c6nc(c(-c7c(F)cc(S(=O)(=O)[O-])cc7F)c7ccc4[nH]7)C=C6)C=C5)cc3)C2)c(F)c1
REMARK SMILES IDX 17 1 16 2 15 3 13 4 14 5 12 6 9 7 10 8 87 9 11 10 8 11 6 12
REMARK SMILES IDX 7 13 5 15 1 16 2 17 3 18 90 19 4 20 88 21 89 22 18 23 19 24
REMARK SMILES IDX 20 25 21 26 22 27 86 28 23 29 85 30 24 31 25 32 26 33 79 34
REMARK SMILES IDX 27 35 84 36 78 37 80 38 28 39 83 40 77 41 76 42 29 44 63 45
REMARK SMILES IDX 42 46 62 47 43 48 46 49 61 50 81 51 44 52 45 53 60 55 82 56
REMARK SMILES IDX 47 57 30 58 31 59 40 60 32 61 33 62 39 63 41 64 34 65 35 66
REMARK SMILES IDX 36 67 37 68 38 69 64 70 65 71 74 72 66 73 67 74 73 75 75 76
REMARK SMILES IDX 68 77 69 78 70 79 71 80 72 81 48 82 49 83 58 84 50 85 51 86
REMARK SMILES IDX 57 87 59 88 52 89 53 90 54 91 55 92 56 93
REMARK H PARENT 8 14 80 43 46 54
REMARK Flexibility Score: inf
ROOT
ATOM      1  C   UNL A   1      34.272  30.715  27.330  1.00  0.00     0.275 C 
ENDROOT
BRANCH   1   2
ATOM      2  C   UNL A   1      33.288  29.925  26.474  1.00  0.00     0.274 C 
BRANCH   2   3
ATOM      3  O   UNL A   1      33.693  28.545  26.376  1.00  0.00    -0.462 OA
BRANCH   3   4
ATOM      4  C   UNL A   1      32.674  27.634  26.378  1.00  0.00     0.312 C 
ATOM      5  O   UNL A   1      31.496  27.907  26.565  1.00  0.00    -0.252 OA
BRANCH   4   6
ATOM      6  C   UNL A   1      33.225  26.221  26.211  1.00  0.00     0.124 C 
ATOM      7  C   UNL A   1      33.838  24.784  24.288  1.00  0.00     0.106 C 
ATOM      8  C   UNL A   1      32.493  24.448  24.844  1.00  0.00    -0.006 C 
ATOM      9  C   UNL A   1      34.193  26.087  25.026  1.00  0.00     0.048 C 
ATOM     10  C   UNL A   1      32.156  25.227  25.876  1.00  0.00    -0.014 C 
BRANCH   7  11
ATOM     11  N   UNL A   1      33.713  24.852  22.844  1.00  0.00    -0.346 N 
ATOM     12  C   UNL A   1      33.109  25.764  22.014  1.00  0.00     0.254 C 
ATOM     13  O   UNL A   1      33.275  25.684  20.802  1.00  0.00    -0.269 OA
ATOM     14  H   UNL A   1      34.143  24.104  22.371  1.00  0.00     0.164 HD
BRANCH  12  15
ATOM     15  C   UNL A   1      32.218  26.794  22.561  1.00  0.00     0.075 A 
ATOM     16  C   UNL A   1      29.593  30.058  23.501  1.00  0.00     0.044 C 
ATOM     17  C   UNL A   1      30.510  28.900  23.244  1.00  0.00    -0.048 A 
ATOM     18  C   UNL A   1      30.019  27.591  23.158  1.00  0.00     0.004 A 
ATOM     19  C   UNL A   1      31.885  29.125  23.094  1.00  0.00     0.043 A 
ATOM     20  C   UNL A   1      30.872  26.535  22.829  1.00  0.00     0.017 A 
ATOM     21  C   UNL A   1      32.730  28.074  22.757  1.00  0.00     0.136 A 
ATOM     22  F   UNL A   1      34.030  28.338  22.570  1.00  0.00    -0.206 F 
ENDBRANCH  12  15
ENDBRANCH   7  11
ENDBRANCH   4   6
ENDBRANCH   3   4
ENDBRANCH   2   3
ENDBRANCH   1   2
BRANCH   1  23
ATOM     23  O   UNL A   1      35.002  29.817  28.181  1.00  0.00    -0.458 OA
BRANCH  23  24
ATOM     24  C   UNL A   1      35.895  30.405  29.010  1.00  0.00     0.338 C 
ATOM     25  O   UNL A   1      35.667  31.305  29.806  1.00  0.00    -0.246 OA
BRANCH  24  26
ATOM     26  C   UNL A   1      37.231  29.815  28.822  1.00  0.00     0.060 A 
ATOM     27  C   UNL A   1      38.005  29.441  29.920  1.00  0.00     0.016 A 
ATOM     28  C   UNL A   1      37.770  29.757  27.535  1.00  0.00     0.016 A 
ATOM     29  C   UNL A   1      39.345  29.096  29.738  1.00  0.00     0.010 A 
ATOM     30  C   UNL A   1      39.089  29.329  27.350  1.00  0.00     0.010 A 
ATOM     31  C   UNL A   1      39.905  29.025  28.453  1.00  0.00    -0.014 A 
BRANCH  31  32
ATOM     32  C   UNL A   1      41.332  28.634  28.268  1.00  0.00     0.031 A 
ATOM     33  C   UNL A   1      42.437  29.657  28.370  1.00  0.00     0.074 A 
ATOM     34  C   UNL A   1      41.647  27.348  28.010  1.00  0.00     0.049 A 
ATOM     35  N   UNL A   1      43.709  29.526  28.079  1.00  0.00    -0.248 NA
ATOM     36  C   UNL A   1      42.070  30.999  28.846  1.00  0.00     0.031 C 
ATOM     37  C   UNL A   1      40.688  26.246  27.905  1.00  0.00     0.029 A 
ATOM     38  N   UNL A   1      42.863  26.748  27.789  1.00  0.00    -0.354 N 
ATOM     39  C   UNL A   1      44.284  30.774  28.301  1.00  0.00     0.074 A 
ATOM     40  C   UNL A   1      43.221  31.652  28.745  1.00  0.00     0.031 C 
ATOM     41  C   UNL A   1      41.352  25.104  27.676  1.00  0.00     0.029 A 
ATOM     42  C   UNL A   1      42.773  25.401  27.532  1.00  0.00     0.049 A 
ATOM     43  H   UNL A   1      43.718  27.236  27.813  1.00  0.00     0.167 HD
ATOM     44  C   UNL A   1      45.578  31.148  28.158  1.00  0.00     0.037 A 
ATOM     45  C   UNL A   1      43.713  24.504  27.173  1.00  0.00     0.037 A 
ATOM     46  C   UNL A   1      46.650  30.263  27.780  1.00  0.00     0.049 A 
ATOM     47  C   UNL A   1      45.132  24.951  26.986  1.00  0.00     0.074 A 
ATOM     48  C   UNL A   1      47.998  30.552  27.646  1.00  0.00     0.029 A 
ATOM     49  N   UNL A   1      46.504  28.915  27.490  1.00  0.00    -0.354 N 
ATOM     50  N   UNL A   1      45.647  26.144  27.153  1.00  0.00    -0.248 NA
ATOM     51  C   UNL A   1      46.095  23.936  26.536  1.00  0.00     0.031 C 
ATOM     52  C   UNL A   1      48.662  29.387  27.245  1.00  0.00     0.029 A 
ATOM     53  C   UNL A   1      47.732  28.366  27.158  1.00  0.00     0.049 A 
ATOM     54  H   UNL A   1      45.653  28.421  27.517  1.00  0.00     0.167 HD
ATOM     55  C   UNL A   1      46.989  26.028  26.816  1.00  0.00     0.074 A 
ATOM     56  C   UNL A   1      47.216  24.642  26.467  1.00  0.00     0.031 C 
ATOM     57  C   UNL A   1      47.944  26.990  26.791  1.00  0.00     0.037 A 
BRANCH  44  58
ATOM     58  C   UNL A   1      45.927  32.591  28.392  1.00  0.00     0.058 A 
ATOM     59  C   UNL A   1      46.377  33.050  29.638  1.00  0.00     0.135 A 
ATOM     60  C   UNL A   1      45.904  33.504  27.325  1.00  0.00     0.135 A 
ATOM     61  F   UNL A   1      46.414  32.219  30.692  1.00  0.00    -0.206 F 
ATOM     62  C   UNL A   1      46.794  34.366  29.820  1.00  0.00     0.059 A 
ATOM     63  C   UNL A   1      46.331  34.820  27.479  1.00  0.00     0.059 A 
ATOM     64  F   UNL A   1      45.485  33.114  26.111  1.00  0.00    -0.206 F 
ATOM     65  C   UNL A   1      46.771  35.243  28.734  1.00  0.00     0.060 A 
BRANCH  65  66
ATOM     66  S   UNL A   1      47.365  36.934  28.966  1.00  0.00     0.124 S 
ATOM     67  O   UNL A   1      46.166  37.711  28.673  1.00  0.00    -0.237 OA
ATOM     68  O   UNL A   1      47.791  36.930  30.363  1.00  0.00    -0.237 OA
ATOM     69  O   UNL A   1      48.444  37.053  27.989  1.00  0.00    -0.744 OA
ENDBRANCH  65  66
ENDBRANCH  44  58
BRANCH  45  70
ATOM     70  C   UNL A   1      43.314  23.098  26.904  1.00  0.00     0.058 A 
ATOM     71  C   UNL A   1      43.257  22.597  25.597  1.00  0.00     0.135 A 
ATOM     72  C   UNL A   1      43.020  22.220  27.959  1.00  0.00     0.135 A 
ATOM     73  F   UNL A   1      43.517  23.404  24.557  1.00  0.00    -0.206 F 
ATOM     74  C   UNL A   1      42.926  21.270  25.342  1.00  0.00     0.059 A 
ATOM     75  C   UNL A   1      42.712  20.883  27.731  1.00  0.00     0.059 A 
ATOM     76  F   UNL A   1      43.071  22.652  29.229  1.00  0.00    -0.206 F 
ATOM     77  C   UNL A   1      42.661  20.419  26.417  1.00  0.00     0.060 A 
BRANCH  77  78
ATOM     78  S   UNL A   1      42.318  18.675  26.098  1.00  0.00     0.124 S 
ATOM     79  O   UNL A   1      43.238  18.392  25.004  1.00  0.00    -0.237 OA
ATOM     80  O   UNL A   1      42.638  18.051  27.379  1.00  0.00    -0.237 OA
ATOM     81  O   UNL A   1      40.900  18.677  25.751  1.00  0.00    -0.744 OA
ENDBRANCH  77  78
ENDBRANCH  45  70
BRANCH  57  82
ATOM     82  C   UNL A   1      49.319  26.573  26.356  1.00  0.00     0.058 A 
ATOM     83  C   UNL A   1      49.772  26.818  25.051  1.00  0.00     0.135 A 
ATOM     84  C   UNL A   1      50.197  25.945  27.252  1.00  0.00     0.135 A 
ATOM     85  F   UNL A   1      48.965  27.408  24.155  1.00  0.00    -0.206 F 
ATOM     86  C   UNL A   1      51.044  26.432  24.640  1.00  0.00     0.059 A 
ATOM     87  C   UNL A   1      51.480  25.566  26.867  1.00  0.00     0.059 A 
ATOM     88  F   UNL A   1      49.813  25.695  28.514  1.00  0.00    -0.206 F 
ATOM     89  C   UNL A   1      51.890  25.801  25.554  1.00  0.00     0.060 A 
BRANCH  89  90
ATOM     90  S   UNL A   1      53.542  25.312  25.018  1.00  0.00     0.124 S 
ATOM     91  O   UNL A   1      54.383  26.198  25.817  1.00  0.00    -0.237 OA
ATOM     92  O   UNL A   1      53.590  23.899  25.380  1.00  0.00    -0.237 OA
ATOM     93  O   UNL A   1      53.527  25.585  23.584  1.00  0.00    -0.744 OA
ENDBRANCH  89  90
ENDBRANCH  57  82
ENDBRANCH  31  32
ENDBRANCH  24  26
ENDBRANCH  23  24
ENDBRANCH   1  23
TORSDOF 16
ENDMDL
MODEL 3
REMARK VINA RESULT:     -11.5      1.351      2.057
REMARK SMILES Cc1ccc(C(=O)N[C@@H]2C=C[C@H](C(=O)OCCOC(=O)c3ccc(-c4c5nc(c(-c6c(F)cc(S(=O)(=O)[O-])cc6F)c6ccc([nH]6)c(-c6c(F)cc(S(=O)(=O)[O-])cc6F)c6nc(c(-c7c(F)cc(S(=O)(=O)[O-])cc7F)c7ccc4[nH]7)C=C6)C=C5)cc3)C2)c(F)c1
REMARK SMILES IDX 17 1 16 2 15 3 13 4 14 5 12 6 9 7 10 8 87 9 11 10 8 11 6 12
REMARK SMILES IDX 7 13 5 15 1 16 2 17 3 18 90 19 4 20 88 21 89 22 18 23 19 24
REMARK SMILES IDX 20 25 21 26 22 27 86 28 23 29 85 30 24 31 25 32 26 33 79 34
REMARK SMILES IDX 27 35 84 36 78 37 80 38 28 39 83 40 77 41 76 42 29 44 63 45
REMARK SMILES IDX 42 46 62 47 43 48 46 49 61 50 81 51 44 52 45 53 60 55 82 56
REMARK SMILES IDX 47 57 30 58 31 59 40 60 32 61 33 62 39 63 41 64 34 65 35 66
REMARK SMILES IDX 36 67 37 68 38 69 64 70 65 71 74 72 66 73 67 74 73 75 75 76
REMARK SMILES IDX 68 77 69 78 70 79 71 80 72 81 48 82 49 83 58 84 50 85 51 86
REMARK SMILES IDX 57 87 59 88 52 89 53 90 54 91 55 92 56 93
REMARK H PARENT 8 14 80 43 46 54
REMARK Flexibility Score: inf
ROOT
ATOM      1  C   UNL A   1      34.279  31.360  27.679  1.00  0.00     0.275 C 
ENDROOT
BRANCH   1   2
ATOM      2  C   UNL A   1      33.057  30.765  26.990  1.00  0.00     0.274 C 
BRANCH   2   3
ATOM      3  O   UNL A   1      33.439  29.679  26.123  1.00  0.00    -0.462 OA
BRANCH   3   4
ATOM      4  C   UNL A   1      32.437  29.172  25.343  1.00  0.00     0.312 C 
ATOM      5  O   UNL A   1      31.346  29.701  25.178  1.00  0.00    -0.252 OA
BRANCH   4   6
ATOM      6  C   UNL A   1      32.836  27.809  24.786  1.00  0.00     0.124 C 
ATOM      7  C   UNL A   1      32.152  25.464  25.205  1.00  0.00     0.106 C 
ATOM      8  C   UNL A   1      33.428  25.818  25.898  1.00  0.00    -0.006 C 
ATOM      9  C   UNL A   1      31.658  26.828  24.689  1.00  0.00     0.048 C 
ATOM     10  C   UNL A   1      33.794  27.085  25.681  1.00  0.00    -0.014 C 
BRANCH   7  11
ATOM     11  N   UNL A   1      31.309  24.771  26.160  1.00  0.00    -0.346 N 
ATOM     12  C   UNL A   1      31.317  23.480  26.630  1.00  0.00     0.254 C 
ATOM     13  O   UNL A   1      30.588  23.170  27.565  1.00  0.00    -0.269 OA
ATOM     14  H   UNL A   1      30.598  25.332  26.545  1.00  0.00     0.164 HD
BRANCH  12  15
ATOM     15  C   UNL A   1      32.144  22.456  25.980  1.00  0.00     0.075 A 
ATOM     16  C   UNL A   1      34.380  19.052  24.627  1.00  0.00     0.044 C 
ATOM     17  C   UNL A   1      33.626  20.278  25.042  1.00  0.00    -0.048 A 
ATOM     18  C   UNL A   1      32.420  20.634  24.421  1.00  0.00     0.004 A 
ATOM     19  C   UNL A   1      34.134  21.092  26.062  1.00  0.00     0.043 A 
ATOM     20  C   UNL A   1      31.684  21.729  24.881  1.00  0.00     0.017 A 
ATOM     21  C   UNL A   1      33.395  22.176  26.524  1.00  0.00     0.136 A 
ATOM     22  F   UNL A   1      33.890  22.898  27.538  1.00  0.00    -0.206 F 
ENDBRANCH  12  15
ENDBRANCH   7  11
ENDBRANCH   4   6
ENDBRANCH   3   4
ENDBRANCH   2   3
ENDBRANCH   1   2
BRANCH   1  23
ATOM     23  O   UNL A   1      35.249  30.327  27.920  1.00  0.00    -0.458 OA
BRANCH  23  24
ATOM     24  C   UNL A   1      35.970  30.465  29.056  1.00  0.00     0.338 C 
ATOM     25  O   UNL A   1      35.608  31.016  30.087  1.00  0.00    -0.246 OA
BRANCH  24  26
ATOM     26  C   UNL A   1      37.302  29.859  28.892  1.00  0.00     0.060 A 
ATOM     27  C   UNL A   1      38.047  29.467  30.003  1.00  0.00     0.016 A 
ATOM     28  C   UNL A   1      37.867  29.804  27.616  1.00  0.00     0.016 A 
ATOM     29  C   UNL A   1      39.386  29.105  29.847  1.00  0.00     0.010 A 
ATOM     30  C   UNL A   1      39.184  29.359  27.456  1.00  0.00     0.010 A 
ATOM     31  C   UNL A   1      39.972  29.036  28.573  1.00  0.00    -0.014 A 
BRANCH  31  32
ATOM     32  C   UNL A   1      41.398  28.628  28.416  1.00  0.00     0.031 A 
ATOM     33  C   UNL A   1      42.515  29.632  28.564  1.00  0.00     0.074 A 
ATOM     34  C   UNL A   1      41.701  27.342  28.142  1.00  0.00     0.049 A 
ATOM     35  N   UNL A   1      43.791  29.487  28.301  1.00  0.00    -0.248 NA
ATOM     36  C   UNL A   1      42.155  30.971  29.055  1.00  0.00     0.031 C 
ATOM     37  C   UNL A   1      40.729  26.256  27.994  1.00  0.00     0.029 A 
ATOM     38  N   UNL A   1      42.913  26.728  27.940  1.00  0.00    -0.354 N 
ATOM     39  C   UNL A   1      44.378  30.723  28.560  1.00  0.00     0.074 A 
ATOM     40  C   UNL A   1      43.318  31.608  28.994  1.00  0.00     0.031 C 
ATOM     41  C   UNL A   1      41.382  25.109  27.759  1.00  0.00     0.029 A 
ATOM     42  C   UNL A   1      42.810  25.387  27.655  1.00  0.00     0.049 A 
ATOM     43  H   UNL A   1      43.774  27.203  27.993  1.00  0.00     0.167 HD
ATOM     44  C   UNL A   1      45.681  31.081  28.455  1.00  0.00     0.037 A 
ATOM     45  C   UNL A   1      43.746  24.483  27.303  1.00  0.00     0.037 A 
ATOM     46  C   UNL A   1      46.749  30.186  28.087  1.00  0.00     0.049 A 
ATOM     47  C   UNL A   1      45.175  24.913  27.158  1.00  0.00     0.074 A 
ATOM     48  C   UNL A   1      48.104  30.458  27.990  1.00  0.00     0.029 A 
ATOM     49  N   UNL A   1      46.590  28.847  27.769  1.00  0.00    -0.354 N 
ATOM     50  N   UNL A   1      45.702  26.095  27.360  1.00  0.00    -0.248 NA
ATOM     51  C   UNL A   1      46.134  23.892  26.713  1.00  0.00     0.031 C 
ATOM     52  C   UNL A   1      48.761  29.291  27.584  1.00  0.00     0.029 A 
ATOM     53  C   UNL A   1      47.819  28.285  27.456  1.00  0.00     0.049 A 
ATOM     54  H   UNL A   1      45.732  28.365  27.766  1.00  0.00     0.167 HD
ATOM     55  C   UNL A   1      47.050  25.966  27.054  1.00  0.00     0.074 A 
ATOM     56  C   UNL A   1      47.266  24.582  26.684  1.00  0.00     0.031 C 
ATOM     57  C   UNL A   1      48.020  26.913  27.069  1.00  0.00     0.037 A 
BRANCH  44  58
ATOM     58  C   UNL A   1      46.044  32.514  28.724  1.00  0.00     0.058 A 
ATOM     59  C   UNL A   1      46.017  33.486  27.715  1.00  0.00     0.135 A 
ATOM     60  C   UNL A   1      46.325  32.935  30.034  1.00  0.00     0.135 A 
ATOM     61  F   UNL A   1      45.759  33.136  26.445  1.00  0.00    -0.206 F 
ATOM     62  C   UNL A   1      46.257  34.829  27.994  1.00  0.00     0.059 A 
ATOM     63  C   UNL A   1      46.551  34.274  30.340  1.00  0.00     0.059 A 
ATOM     64  F   UNL A   1      46.357  32.044  31.039  1.00  0.00    -0.206 F 
ATOM     65  C   UNL A   1      46.519  35.215  29.310  1.00  0.00     0.060 A 
BRANCH  65  66
ATOM     66  S   UNL A   1      46.775  36.966  29.670  1.00  0.00     0.124 S 
ATOM     67  O   UNL A   1      46.176  37.086  30.995  1.00  0.00    -0.237 OA
ATOM     68  O   UNL A   1      48.229  37.091  29.618  1.00  0.00    -0.237 OA
ATOM     69  O   UNL A   1      46.056  37.644  28.594  1.00  0.00    -0.744 OA
ENDBRANCH  65  66
ENDBRANCH  44  58
BRANCH  45  70
ATOM     70  C   UNL A   1      43.333  23.089  26.998  1.00  0.00     0.058 A 
ATOM     71  C   UNL A   1      43.304  22.612  25.682  1.00  0.00     0.135 A 
ATOM     72  C   UNL A   1      42.998  22.197  28.029  1.00  0.00     0.135 A 
ATOM     73  F   UNL A   1      43.604  23.432  24.663  1.00  0.00    -0.206 F 
ATOM     74  C   UNL A   1      42.961  21.294  25.394  1.00  0.00     0.059 A 
ATOM     75  C   UNL A   1      42.676  20.869  27.769  1.00  0.00     0.059 A 
ATOM     76  F   UNL A   1      43.021  22.606  29.307  1.00  0.00    -0.206 F 
ATOM     77  C   UNL A   1      42.654  20.428  26.447  1.00  0.00     0.060 A 
BRANCH  77  78
ATOM     78  S   UNL A   1      42.294  18.696  26.088  1.00  0.00     0.124 S 
ATOM     79  O   UNL A   1      43.233  18.420  25.007  1.00  0.00    -0.237 OA
ATOM     80  O   UNL A   1      42.579  18.043  27.362  1.00  0.00    -0.237 OA
ATOM     81  O   UNL A   1      40.883  18.724  25.712  1.00  0.00    -0.744 OA
ENDBRANCH  77  78
ENDBRANCH  45  70
BRANCH  57  82
ATOM     82  C   UNL A   1      49.399  26.484  26.659  1.00  0.00     0.058 A 
ATOM     83  C   UNL A   1      50.292  25.930  27.590  1.00  0.00     0.135 A 
ATOM     84  C   UNL A   1      49.824  26.604  25.328  1.00  0.00     0.135 A 
ATOM     85  F   UNL A   1      49.934  25.803  28.877  1.00  0.00    -0.206 F 
ATOM     86  C   UNL A   1      51.572  25.533  27.218  1.00  0.00     0.059 A 
ATOM     87  C   UNL A   1      51.095  26.196  24.931  1.00  0.00     0.059 A 
ATOM     88  F   UNL A   1      49.004  27.121  24.399  1.00  0.00    -0.206 F 
ATOM     89  C   UNL A   1      51.967  25.674  25.887  1.00  0.00     0.060 A 
BRANCH  89  90
ATOM     90  S   UNL A   1      53.625  25.146  25.409  1.00  0.00     0.124 S 
ATOM     91  O   UNL A   1      53.782  25.807  24.117  1.00  0.00    -0.237 OA
ATOM     92  O   UNL A   1      54.451  25.671  26.492  1.00  0.00    -0.237 OA
ATOM     93  O   UNL A   1      53.516  23.691  25.362  1.00  0.00    -0.744 OA
ENDBRANCH  89  90
ENDBRANCH  57  82
ENDBRANCH  31  32
ENDBRANCH  24  26
ENDBRANCH  23  24
ENDBRANCH   1  23
TORSDOF 16
ENDMDL
