MODEL 1
REMARK VINA RESULT:     -11.4      0.000      0.000
REMARK SMILES Cn1c(=O)c2c(nc(Nc3cccc(Cl)c3Cl)n2CC(=O)OCCOC(=O)c2ccc(-c3c4nc(c(-c5c(F)cc(S(=O)(=O)[O-])cc5F)c5ccc([nH]5)c(-c5c(F)cc(S(=O)(=O)[O-])cc5F)c5nc(c(-c6c(F)cc(S(=O)(=O)[O-])cc6F)c6ccc3[nH]6)C=C5)C=C4)cc2)n(C)c1=O
REMARK SMILES IDX 23 1 22 2 20 3 21 4 19 5 18 6 1 7 2 8 3 9 96 10 4 11 5 12
REMARK SMILES IDX 94 13 97 14 6 15 95 16 7 17 8 18 9 19 10 21 11 22 16 23
REMARK SMILES IDX 12 24 14 25 17 26 13 27 15 28 24 29 25 30 26 31 27 32 28 33
REMARK SMILES IDX 29 34 93 35 30 36 92 37 31 38 32 39 33 40 86 41 34 42 91 43
REMARK SMILES IDX 85 44 87 45 35 46 90 47 84 48 83 49 36 51 70 52 49 53 69 54
REMARK SMILES IDX 50 55 53 56 68 57 88 58 51 59 52 60 67 62 89 63 54 64 37 65
REMARK SMILES IDX 38 66 47 67 39 68 40 69 46 70 48 71 41 72 42 73 43 74 44 75
REMARK SMILES IDX 45 76 71 77 72 78 81 79 73 80 74 81 80 82 82 83 75 84 76 85
REMARK SMILES IDX 77 86 78 87 79 88 55 89 56 90 65 91 57 92 58 93 64 94 66 95
REMARK SMILES IDX 59 96 60 97 61 98 62 99 63 100
REMARK H PARENT 9 20 87 50 53 61
REMARK Flexibility Score: inf
ROOT
ATOM      1  C   UNL A   1      39.271  22.524  26.745  1.00  0.00     0.274 C 
ENDROOT
BRANCH   1   2
ATOM      2  O   UNL A   1      38.094  22.021  26.061  1.00  0.00    -0.461 OA
BRANCH   2   3
ATOM      3  C   UNL A   1      37.104  22.927  25.844  1.00  0.00     0.326 C 
ATOM      4  O   UNL A   1      37.292  23.997  25.261  1.00  0.00    -0.250 OA
BRANCH   3   5
ATOM      5  C   UNL A   1      35.708  22.517  26.248  1.00  0.00     0.248 C 
BRANCH   5   6
ATOM      6  N   UNL A   1      34.667  22.385  25.242  1.00  0.00    -0.293 N 
ATOM      7  C   UNL A   1      34.210  17.520  24.629  1.00  0.00     0.159 C 
ATOM      8  N   UNL A   1      33.904  18.899  24.304  1.00  0.00    -0.261 N 
ATOM      9  C   UNL A   1      34.813  19.867  24.719  1.00  0.00     0.282 A 
ATOM     10  C   UNL A   1      32.803  19.164  23.478  1.00  0.00     0.332 A 
ATOM     11  O   UNL A   1      35.987  19.632  25.002  1.00  0.00    -0.267 OA
ATOM     12  C   UNL A   1      34.295  21.189  24.657  1.00  0.00     0.154 A 
ATOM     13  N   UNL A   1      32.560  20.507  23.169  1.00  0.00    -0.279 N 
ATOM     14  O   UNL A   1      32.089  18.264  23.032  1.00  0.00    -0.247 OA
ATOM     15  C   UNL A   1      33.248  21.486  23.845  1.00  0.00     0.170 A 
ATOM     16  C   UNL A   1      31.593  20.843  22.145  1.00  0.00     0.157 C 
ATOM     17  N   UNL A   1      33.065  22.825  23.753  1.00  0.00    -0.194 NA
ATOM     18  C   UNL A   1      33.984  23.366  24.536  1.00  0.00     0.210 A 
BRANCH  18  19
ATOM     19  N   UNL A   1      34.154  24.705  24.576  1.00  0.00    -0.324 N 
ATOM     20  H   UNL A   1      35.095  24.985  24.511  1.00  0.00     0.170 HD
BRANCH  19  21
ATOM     21  C   UNL A   1      33.255  25.774  24.690  1.00  0.00     0.061 A 
ATOM     22  C   UNL A   1      32.541  25.857  25.896  1.00  0.00     0.028 A 
ATOM     23  C   UNL A   1      32.939  26.678  23.654  1.00  0.00     0.083 A 
ATOM     24  C   UNL A   1      31.619  26.876  26.122  1.00  0.00     0.004 A 
ATOM     25  C   UNL A   1      32.057  27.742  23.908  1.00  0.00     0.061 A 
ATOM     26  Cl  UNL A   1      33.612  26.453  22.066  1.00  0.00    -0.080 Cl
ATOM     27  C   UNL A   1      31.404  27.838  25.141  1.00  0.00     0.022 A 
ATOM     28  Cl  UNL A   1      31.735  28.983  22.748  1.00  0.00    -0.083 Cl
ENDBRANCH  19  21
ENDBRANCH  18  19
ENDBRANCH   5   6
ENDBRANCH   3   5
ENDBRANCH   2   3
ENDBRANCH   1   2
BRANCH   1  29
ATOM     29  C   UNL A   1      40.476  21.588  26.597  1.00  0.00     0.275 C 
BRANCH  29  30
ATOM     30  O   UNL A   1      41.329  21.972  25.514  1.00  0.00    -0.458 OA
BRANCH  30  31
ATOM     31  C   UNL A   1      42.618  21.645  25.754  1.00  0.00     0.338 C 
ATOM     32  O   UNL A   1      43.048  20.550  26.055  1.00  0.00    -0.246 OA
BRANCH  31  33
ATOM     33  C   UNL A   1      43.459  22.833  25.864  1.00  0.00     0.060 A 
ATOM     34  C   UNL A   1      44.216  22.909  27.033  1.00  0.00     0.016 A 
ATOM     35  C   UNL A   1      42.907  23.961  25.257  1.00  0.00     0.016 A 
ATOM     36  C   UNL A   1      44.131  24.061  27.781  1.00  0.00     0.010 A 
ATOM     37  C   UNL A   1      42.855  25.122  25.988  1.00  0.00     0.010 A 
ATOM     38  C   UNL A   1      43.360  25.118  27.290  1.00  0.00    -0.014 A 
BRANCH  38  39
ATOM     39  C   UNL A   1      43.222  26.313  28.107  1.00  0.00     0.031 A 
ATOM     40  C   UNL A   1      44.377  27.238  27.916  1.00  0.00     0.074 A 
ATOM     41  C   UNL A   1      42.071  26.565  28.767  1.00  0.00     0.049 A 
ATOM     42  N   UNL A   1      45.136  27.797  28.799  1.00  0.00    -0.248 NA
ATOM     43  C   UNL A   1      44.866  27.402  26.527  1.00  0.00     0.031 C 
ATOM     44  C   UNL A   1      40.838  25.763  28.766  1.00  0.00     0.029 A 
ATOM     45  N   UNL A   1      41.695  27.672  29.460  1.00  0.00    -0.354 N 
ATOM     46  C   UNL A   1      46.051  28.554  28.068  1.00  0.00     0.074 A 
ATOM     47  C   UNL A   1      45.978  28.105  26.708  1.00  0.00     0.031 C 
ATOM     48  C   UNL A   1      39.808  26.519  29.206  1.00  0.00     0.029 A 
ATOM     49  C   UNL A   1      40.314  27.817  29.600  1.00  0.00     0.049 A 
ATOM     50  H   UNL A   1      42.341  28.317  29.831  1.00  0.00     0.167 HD
ATOM     51  C   UNL A   1      46.617  29.683  28.570  1.00  0.00     0.037 A 
ATOM     52  C   UNL A   1      39.666  28.985  29.866  1.00  0.00     0.037 A 
ATOM     53  C   UNL A   1      46.577  29.696  30.005  1.00  0.00     0.049 A 
ATOM     54  C   UNL A   1      40.695  29.914  30.418  1.00  0.00     0.074 A 
ATOM     55  C   UNL A   1      47.142  28.897  30.979  1.00  0.00     0.029 A 
ATOM     56  N   UNL A   1      45.549  30.372  30.616  1.00  0.00    -0.354 N 
ATOM     57  N   UNL A   1      41.315  29.718  31.551  1.00  0.00    -0.248 NA
ATOM     58  C   UNL A   1      41.389  30.773  29.466  1.00  0.00     0.031 C 
ATOM     59  C   UNL A   1      46.140  28.772  31.982  1.00  0.00     0.029 A 
ATOM     60  C   UNL A   1      45.050  29.558  31.605  1.00  0.00     0.049 A 
ATOM     61  H   UNL A   1      45.229  31.274  30.387  1.00  0.00     0.167 HD
ATOM     62  C   UNL A   1      42.633  30.079  31.305  1.00  0.00     0.074 A 
ATOM     63  C   UNL A   1      42.609  30.759  30.011  1.00  0.00     0.031 C 
ATOM     64  C   UNL A   1      43.666  29.550  32.025  1.00  0.00     0.037 A 
BRANCH  51  65
ATOM     65  C   UNL A   1      46.887  30.903  27.727  1.00  0.00     0.058 A 
ATOM     66  C   UNL A   1      48.207  31.226  27.366  1.00  0.00     0.135 A 
ATOM     67  C   UNL A   1      45.923  31.909  27.473  1.00  0.00     0.135 A 
ATOM     68  F   UNL A   1      49.206  30.354  27.582  1.00  0.00    -0.206 F 
ATOM     69  C   UNL A   1      48.551  32.470  26.835  1.00  0.00     0.059 A 
ATOM     70  C   UNL A   1      46.232  33.130  26.891  1.00  0.00     0.059 A 
ATOM     71  F   UNL A   1      44.647  31.797  27.866  1.00  0.00    -0.206 F 
ATOM     72  C   UNL A   1      47.554  33.419  26.610  1.00  0.00     0.060 A 
BRANCH  72  73
ATOM     73  S   UNL A   1      48.005  35.059  26.021  1.00  0.00     0.124 S 
ATOM     74  O   UNL A   1      48.348  35.733  27.267  1.00  0.00    -0.237 OA
ATOM     75  O   UNL A   1      49.118  34.760  25.125  1.00  0.00    -0.237 OA
ATOM     76  O   UNL A   1      46.789  35.528  25.363  1.00  0.00    -0.744 OA
ENDBRANCH  72  73
ENDBRANCH  51  65
BRANCH  52  77
ATOM     77  C   UNL A   1      38.397  29.476  29.245  1.00  0.00     0.058 A 
ATOM     78  C   UNL A   1      38.267  29.594  27.848  1.00  0.00     0.135 A 
ATOM     79  C   UNL A   1      37.195  29.567  29.979  1.00  0.00     0.135 A 
ATOM     80  F   UNL A   1      39.352  29.508  27.062  1.00  0.00    -0.206 F 
ATOM     81  C   UNL A   1      37.021  29.729  27.216  1.00  0.00     0.059 A 
ATOM     82  C   UNL A   1      35.947  29.715  29.374  1.00  0.00     0.059 A 
ATOM     83  F   UNL A   1      37.173  29.416  31.310  1.00  0.00    -0.206 F 
ATOM     84  C   UNL A   1      35.862  29.761  27.990  1.00  0.00     0.060 A 
BRANCH  84  85
ATOM     85  S   UNL A   1      34.241  29.725  27.187  1.00  0.00     0.124 S 
ATOM     86  O   UNL A   1      33.820  31.118  27.291  1.00  0.00    -0.237 OA
ATOM     87  O   UNL A   1      34.574  29.256  25.847  1.00  0.00    -0.237 OA
ATOM     88  O   UNL A   1      33.479  28.781  28.003  1.00  0.00    -0.744 OA
ENDBRANCH  84  85
ENDBRANCH  52  77
BRANCH  64  89
ATOM     89  C   UNL A   1      43.340  28.716  33.240  1.00  0.00     0.058 A 
ATOM     90  C   UNL A   1      42.984  29.243  34.497  1.00  0.00     0.135 A 
ATOM     91  C   UNL A   1      43.199  27.331  33.068  1.00  0.00     0.135 A 
ATOM     92  F   UNL A   1      42.990  30.566  34.711  1.00  0.00    -0.206 F 
ATOM     93  C   UNL A   1      42.539  28.427  35.541  1.00  0.00     0.059 A 
ATOM     94  C   UNL A   1      42.729  26.504  34.082  1.00  0.00     0.059 A 
ATOM     95  F   UNL A   1      43.460  26.775  31.874  1.00  0.00    -0.206 F 
ATOM     96  C   UNL A   1      42.411  27.056  35.322  1.00  0.00     0.060 A 
BRANCH  96  97
ATOM     97  S   UNL A   1      41.768  26.000  36.641  1.00  0.00     0.124 S 
ATOM     98  O   UNL A   1      42.986  25.613  37.346  1.00  0.00    -0.237 OA
ATOM     99  O   UNL A   1      40.873  26.902  37.361  1.00  0.00    -0.237 OA
ATOM    100  O   UNL A   1      41.099  24.921  35.919  1.00  0.00    -0.744 OA
ENDBRANCH  96  97
ENDBRANCH  64  89
ENDBRANCH  38  39
ENDBRANCH  31  33
ENDBRANCH  30  31
ENDBRANCH  29  30
ENDBRANCH   1  29
TORSDOF 17
ENDMDL
MODEL 2
REMARK VINA RESULT:     -11.2      2.590      8.404
REMARK SMILES Cn1c(=O)c2c(nc(Nc3cccc(Cl)c3Cl)n2CC(=O)OCCOC(=O)c2ccc(-c3c4nc(c(-c5c(F)cc(S(=O)(=O)[O-])cc5F)c5ccc([nH]5)c(-c5c(F)cc(S(=O)(=O)[O-])cc5F)c5nc(c(-c6c(F)cc(S(=O)(=O)[O-])cc6F)c6ccc3[nH]6)C=C5)C=C4)cc2)n(C)c1=O
REMARK SMILES IDX 23 1 22 2 20 3 21 4 19 5 18 6 1 7 2 8 3 9 96 10 4 11 5 12
REMARK SMILES IDX 94 13 97 14 6 15 95 16 7 17 8 18 9 19 10 21 11 22 16 23
REMARK SMILES IDX 12 24 14 25 17 26 13 27 15 28 24 29 25 30 26 31 27 32 28 33
REMARK SMILES IDX 29 34 93 35 30 36 92 37 31 38 32 39 33 40 86 41 34 42 91 43
REMARK SMILES IDX 85 44 87 45 35 46 90 47 84 48 83 49 36 51 70 52 49 53 69 54
REMARK SMILES IDX 50 55 53 56 68 57 88 58 51 59 52 60 67 62 89 63 54 64 37 65
REMARK SMILES IDX 38 66 47 67 39 68 40 69 46 70 48 71 41 72 42 73 43 74 44 75
REMARK SMILES IDX 45 76 71 77 72 78 81 79 73 80 74 81 80 82 82 83 75 84 76 85
REMARK SMILES IDX 77 86 78 87 79 88 55 89 56 90 65 91 57 92 58 93 64 94 66 95
REMARK SMILES IDX 59 96 60 97 61 98 62 99 63 100
REMARK H PARENT 9 20 87 50 53 61
REMARK Flexibility Score: inf
ROOT
ATOM      1  C   UNL A   1      32.185  29.522  27.239  1.00  0.00     0.274 C 
ENDROOT
BRANCH   1   2
ATOM      2  O   UNL A   1      32.848  28.244  27.427  1.00  0.00    -0.461 OA
BRANCH   2   3
ATOM      3  C   UNL A   1      32.849  27.417  26.349  1.00  0.00     0.326 C 
ATOM      4  O   UNL A   1      33.733  27.434  25.491  1.00  0.00    -0.250 OA
BRANCH   3   5
ATOM      5  C   UNL A   1      31.763  26.368  26.299  1.00  0.00     0.248 C 
BRANCH   5   6
ATOM      6  N   UNL A   1      31.707  25.429  25.190  1.00  0.00    -0.293 N 
ATOM      7  C   UNL A   1      33.752  21.328  26.994  1.00  0.00     0.159 C 
ATOM      8  N   UNL A   1      33.173  22.124  25.931  1.00  0.00    -0.261 N 
ATOM      9  C   UNL A   1      33.152  23.505  26.109  1.00  0.00     0.282 A 
ATOM     10  C   UNL A   1      32.806  21.485  24.740  1.00  0.00     0.332 A 
ATOM     11  O   UNL A   1      33.883  24.109  26.893  1.00  0.00    -0.267 OA
ATOM     12  C   UNL A   1      32.293  24.176  25.197  1.00  0.00     0.154 A 
ATOM     13  N   UNL A   1      32.275  22.296  23.730  1.00  0.00    -0.279 N 
ATOM     14  O   UNL A   1      32.952  20.272  24.577  1.00  0.00    -0.247 OA
ATOM     15  C   UNL A   1      31.940  23.597  24.021  1.00  0.00     0.170 A 
ATOM     16  C   UNL A   1      32.089  21.756  22.400  1.00  0.00     0.157 C 
ATOM     17  N   UNL A   1      31.323  24.484  23.205  1.00  0.00    -0.194 NA
ATOM     18  C   UNL A   1      31.262  25.616  23.888  1.00  0.00     0.210 A 
BRANCH  18  19
ATOM     19  N   UNL A   1      30.808  26.747  23.308  1.00  0.00    -0.324 N 
ATOM     20  H   UNL A   1      31.486  27.215  22.770  1.00  0.00     0.170 HD
BRANCH  19  21
ATOM     21  C   UNL A   1      29.560  27.386  23.320  1.00  0.00     0.061 A 
ATOM     22  C   UNL A   1      28.478  26.625  23.792  1.00  0.00     0.028 A 
ATOM     23  C   UNL A   1      29.304  28.668  22.791  1.00  0.00     0.083 A 
ATOM     24  C   UNL A   1      27.192  27.155  23.848  1.00  0.00     0.004 A 
ATOM     25  C   UNL A   1      28.018  29.223  22.909  1.00  0.00     0.061 A 
ATOM     26  Cl  UNL A   1      30.565  29.538  21.968  1.00  0.00    -0.080 Cl
ATOM     27  C   UNL A   1      26.970  28.466  23.440  1.00  0.00     0.022 A 
ATOM     28  Cl  UNL A   1      27.655  30.845  22.430  1.00  0.00    -0.083 Cl
ENDBRANCH  19  21
ENDBRANCH  18  19
ENDBRANCH   5   6
ENDBRANCH   3   5
ENDBRANCH   2   3
ENDBRANCH   1   2
BRANCH   1  29
ATOM     29  C   UNL A   1      33.179  30.686  27.151  1.00  0.00     0.275 C 
BRANCH  29  30
ATOM     30  O   UNL A   1      34.076  30.717  28.267  1.00  0.00    -0.458 OA
BRANCH  30  31
ATOM     31  C   UNL A   1      35.324  30.338  27.914  1.00  0.00     0.338 C 
ATOM     32  O   UNL A   1      35.672  29.882  26.844  1.00  0.00    -0.246 OA
BRANCH  31  33
ATOM     33  C   UNL A   1      36.216  30.293  29.069  1.00  0.00     0.060 A 
ATOM     34  C   UNL A   1      37.043  31.407  29.215  1.00  0.00     0.016 A 
ATOM     35  C   UNL A   1      36.637  29.002  29.393  1.00  0.00     0.016 A 
ATOM     36  C   UNL A   1      38.394  31.191  29.357  1.00  0.00     0.010 A 
ATOM     37  C   UNL A   1      37.982  28.793  29.573  1.00  0.00     0.010 A 
ATOM     38  C   UNL A   1      38.855  29.874  29.429  1.00  0.00    -0.014 A 
BRANCH  38  39
ATOM     39  C   UNL A   1      40.288  29.644  29.520  1.00  0.00     0.031 A 
ATOM     40  C   UNL A   1      40.732  29.539  30.940  1.00  0.00     0.074 A 
ATOM     41  C   UNL A   1      41.011  29.372  28.413  1.00  0.00     0.049 A 
ATOM     42  N   UNL A   1      41.689  30.157  31.549  1.00  0.00    -0.248 NA
ATOM     43  C   UNL A   1      39.850  28.773  31.850  1.00  0.00     0.031 C 
ATOM     44  C   UNL A   1      40.528  29.243  27.029  1.00  0.00     0.029 A 
ATOM     45  N   UNL A   1      42.313  28.998  28.299  1.00  0.00    -0.354 N 
ATOM     46  C   UNL A   1      41.656  29.681  32.859  1.00  0.00     0.074 A 
ATOM     47  C   UNL A   1      40.396  29.019  33.035  1.00  0.00     0.031 C 
ATOM     48  C   UNL A   1      41.450  28.591  26.287  1.00  0.00     0.029 A 
ATOM     49  C   UNL A   1      42.616  28.337  27.108  1.00  0.00     0.049 A 
ATOM     50  H   UNL A   1      42.984  29.177  28.998  1.00  0.00     0.167 HD
ATOM     51  C   UNL A   1      42.771  29.624  33.634  1.00  0.00     0.037 A 
ATOM     52  C   UNL A   1      43.685  27.517  26.911  1.00  0.00     0.037 A 
ATOM     53  C   UNL A   1      43.779  30.535  33.169  1.00  0.00     0.049 A 
ATOM     54  C   UNL A   1      44.658  27.833  27.997  1.00  0.00     0.074 A 
ATOM     55  C   UNL A   1      43.841  31.910  33.059  1.00  0.00     0.029 A 
ATOM     56  N   UNL A   1      44.763  30.043  32.346  1.00  0.00    -0.354 N 
ATOM     57  N   UNL A   1      45.258  28.987  28.119  1.00  0.00    -0.248 NA
ATOM     58  C   UNL A   1      44.561  27.047  29.221  1.00  0.00     0.031 C 
ATOM     59  C   UNL A   1      44.522  32.154  31.834  1.00  0.00     0.029 A 
ATOM     60  C   UNL A   1      44.904  30.922  31.299  1.00  0.00     0.049 A 
ATOM     61  H   UNL A   1      45.274  29.213  32.483  1.00  0.00     0.167 HD
ATOM     62  C   UNL A   1      45.248  29.254  29.482  1.00  0.00     0.074 A 
ATOM     63  C   UNL A   1      44.838  28.001  30.114  1.00  0.00     0.031 C 
ATOM     64  C   UNL A   1      45.292  30.532  29.961  1.00  0.00     0.037 A 
BRANCH  51  65
ATOM     65  C   UNL A   1      43.040  28.493  34.594  1.00  0.00     0.058 A 
ATOM     66  C   UNL A   1      43.300  28.772  35.947  1.00  0.00     0.135 A 
ATOM     67  C   UNL A   1      43.304  27.164  34.183  1.00  0.00     0.135 A 
ATOM     68  F   UNL A   1      43.106  30.006  36.439  1.00  0.00    -0.206 F 
ATOM     69  C   UNL A   1      43.824  27.813  36.817  1.00  0.00     0.059 A 
ATOM     70  C   UNL A   1      43.767  26.179  35.044  1.00  0.00     0.059 A 
ATOM     71  F   UNL A   1      43.216  26.776  32.904  1.00  0.00    -0.206 F 
ATOM     72  C   UNL A   1      44.063  26.522  36.350  1.00  0.00     0.060 A 
BRANCH  72  73
ATOM     73  S   UNL A   1      44.832  25.312  37.439  1.00  0.00     0.124 S 
ATOM     74  O   UNL A   1      44.190  25.614  38.712  1.00  0.00    -0.237 OA
ATOM     75  O   UNL A   1      44.448  24.054  36.807  1.00  0.00    -0.237 OA
ATOM     76  O   UNL A   1      46.253  25.638  37.355  1.00  0.00    -0.744 OA
ENDBRANCH  72  73
ENDBRANCH  51  65
BRANCH  52  77
ATOM     77  C   UNL A   1      43.700  26.211  26.180  1.00  0.00     0.058 A 
ATOM     78  C   UNL A   1      44.750  25.879  25.303  1.00  0.00     0.135 A 
ATOM     79  C   UNL A   1      42.844  25.148  26.537  1.00  0.00     0.135 A 
ATOM     80  F   UNL A   1      45.626  26.819  24.916  1.00  0.00    -0.206 F 
ATOM     81  C   UNL A   1      44.975  24.566  24.862  1.00  0.00     0.059 A 
ATOM     82  C   UNL A   1      43.039  23.838  26.100  1.00  0.00     0.059 A 
ATOM     83  F   UNL A   1      41.838  25.318  27.406  1.00  0.00    -0.206 F 
ATOM     84  C   UNL A   1      44.126  23.545  25.290  1.00  0.00     0.060 A 
BRANCH  84  85
ATOM     85  S   UNL A   1      44.521  21.823  24.900  1.00  0.00     0.124 S 
ATOM     86  O   UNL A   1      43.392  21.112  25.490  1.00  0.00    -0.237 OA
ATOM     87  O   UNL A   1      44.573  21.843  23.443  1.00  0.00    -0.237 OA
ATOM     88  O   UNL A   1      45.806  21.612  25.564  1.00  0.00    -0.744 OA
ENDBRANCH  84  85
ENDBRANCH  52  77
BRANCH  64  89
ATOM     89  C   UNL A   1      45.561  31.654  28.988  1.00  0.00     0.058 A 
ATOM     90  C   UNL A   1      46.843  32.032  28.544  1.00  0.00     0.135 A 
ATOM     91  C   UNL A   1      44.465  32.239  28.340  1.00  0.00     0.135 A 
ATOM     92  F   UNL A   1      47.942  31.444  29.037  1.00  0.00    -0.206 F 
ATOM     93  C   UNL A   1      47.024  32.972  27.524  1.00  0.00     0.059 A 
ATOM     94  C   UNL A   1      44.620  33.152  27.302  1.00  0.00     0.059 A 
ATOM     95  F   UNL A   1      43.216  31.873  28.673  1.00  0.00    -0.206 F 
ATOM     96  C   UNL A   1      45.903  33.524  26.905  1.00  0.00     0.060 A 
BRANCH  96  97
ATOM     97  S   UNL A   1      46.123  34.684  25.537  1.00  0.00     0.124 S 
ATOM     98  O   UNL A   1      45.203  34.156  24.535  1.00  0.00    -0.237 OA
ATOM     99  O   UNL A   1      45.747  35.960  26.139  1.00  0.00    -0.237 OA
ATOM    100  O   UNL A   1      47.540  34.557  25.206  1.00  0.00    -0.744 OA
ENDBRANCH  96  97
ENDBRANCH  64  89
ENDBRANCH  38  39
ENDBRANCH  31  33
ENDBRANCH  30  31
ENDBRANCH  29  30
ENDBRANCH   1  29
TORSDOF 17
ENDMDL
MODEL 3
REMARK VINA RESULT:     -11.1      1.544      2.359
REMARK SMILES Cn1c(=O)c2c(nc(Nc3cccc(Cl)c3Cl)n2CC(=O)OCCOC(=O)c2ccc(-c3c4nc(c(-c5c(F)cc(S(=O)(=O)[O-])cc5F)c5ccc([nH]5)c(-c5c(F)cc(S(=O)(=O)[O-])cc5F)c5nc(c(-c6c(F)cc(S(=O)(=O)[O-])cc6F)c6ccc3[nH]6)C=C5)C=C4)cc2)n(C)c1=O
REMARK SMILES IDX 23 1 22 2 20 3 21 4 19 5 18 6 1 7 2 8 3 9 96 10 4 11 5 12
REMARK SMILES IDX 94 13 97 14 6 15 95 16 7 17 8 18 9 19 10 21 11 22 16 23
REMARK SMILES IDX 12 24 14 25 17 26 13 27 15 28 24 29 25 30 26 31 27 32 28 33
REMARK SMILES IDX 29 34 93 35 30 36 92 37 31 38 32 39 33 40 86 41 34 42 91 43
REMARK SMILES IDX 85 44 87 45 35 46 90 47 84 48 83 49 36 51 70 52 49 53 69 54
REMARK SMILES IDX 50 55 53 56 68 57 88 58 51 59 52 60 67 62 89 63 54 64 37 65
REMARK SMILES IDX 38 66 47 67 39 68 40 69 46 70 48 71 41 72 42 73 43 74 44 75
REMARK SMILES IDX 45 76 71 77 72 78 81 79 73 80 74 81 80 82 82 83 75 84 76 85
REMARK SMILES IDX 77 86 78 87 79 88 55 89 56 90 65 91 57 92 58 93 64 94 66 95
REMARK SMILES IDX 59 96 60 97 61 98 62 99 63 100
REMARK H PARENT 9 20 87 50 53 61
REMARK Flexibility Score: inf
ROOT
ATOM      1  C   UNL A   1      38.829  21.497  26.112  1.00  0.00     0.274 C 
ENDROOT
BRANCH   1   2
ATOM      2  O   UNL A   1      38.604  22.769  25.449  1.00  0.00    -0.461 OA
BRANCH   2   3
ATOM      3  C   UNL A   1      37.721  23.604  26.058  1.00  0.00     0.326 C 
ATOM      4  O   UNL A   1      37.808  23.920  27.246  1.00  0.00    -0.250 OA
BRANCH   3   5
ATOM      5  C   UNL A   1      36.670  24.238  25.178  1.00  0.00     0.248 C 
BRANCH   5   6
ATOM      6  N   UNL A   1      35.261  23.964  25.410  1.00  0.00    -0.293 N 
ATOM      7  C   UNL A   1      34.863  19.105  24.714  1.00  0.00     0.159 C 
ATOM      8  N   UNL A   1      34.319  20.423  24.971  1.00  0.00    -0.261 N 
ATOM      9  C   UNL A   1      35.107  21.516  24.623  1.00  0.00     0.282 A 
ATOM     10  C   UNL A   1      32.993  20.526  25.413  1.00  0.00     0.332 A 
ATOM     11  O   UNL A   1      36.032  21.467  23.813  1.00  0.00    -0.267 OA
ATOM     12  C   UNL A   1      34.660  22.738  25.195  1.00  0.00     0.154 A 
ATOM     13  N   UNL A   1      32.501  21.819  25.624  1.00  0.00    -0.279 N 
ATOM     14  O   UNL A   1      32.286  19.534  25.596  1.00  0.00    -0.247 OA
ATOM     15  C   UNL A   1      33.374  22.881  25.607  1.00  0.00     0.170 A 
ATOM     16  C   UNL A   1      31.085  22.018  25.854  1.00  0.00     0.157 C 
ATOM     17  N   UNL A   1      33.093  24.174  25.895  1.00  0.00    -0.194 NA
ATOM     18  C   UNL A   1      34.220  24.838  25.691  1.00  0.00     0.210 A 
BRANCH  18  19
ATOM     19  N   UNL A   1      34.250  26.185  25.772  1.00  0.00    -0.324 N 
ATOM     20  H   UNL A   1      34.856  26.525  26.468  1.00  0.00     0.170 HD
BRANCH  19  21
ATOM     21  C   UNL A   1      33.587  27.195  25.061  1.00  0.00     0.061 A 
ATOM     22  C   UNL A   1      33.695  27.140  23.661  1.00  0.00     0.028 A 
ATOM     23  C   UNL A   1      32.938  28.302  25.645  1.00  0.00     0.083 A 
ATOM     24  C   UNL A   1      33.080  28.091  22.851  1.00  0.00     0.004 A 
ATOM     25  C   UNL A   1      32.264  29.223  24.824  1.00  0.00     0.061 A 
ATOM     26  Cl  UNL A   1      33.002  28.540  27.367  1.00  0.00    -0.080 Cl
ATOM     27  C   UNL A   1      32.335  29.111  23.433  1.00  0.00     0.022 A 
ATOM     28  Cl  UNL A   1      31.313  30.519  25.463  1.00  0.00    -0.083 Cl
ENDBRANCH  19  21
ENDBRANCH  18  19
ENDBRANCH   5   6
ENDBRANCH   3   5
ENDBRANCH   2   3
ENDBRANCH   1   2
BRANCH   1  29
ATOM     29  C   UNL A   1      40.315  21.236  26.383  1.00  0.00     0.275 C 
BRANCH  29  30
ATOM     30  O   UNL A   1      41.060  22.450  26.528  1.00  0.00    -0.458 OA
BRANCH  30  31
ATOM     31  C   UNL A   1      42.200  22.425  25.803  1.00  0.00     0.338 C 
ATOM     32  O   UNL A   1      42.716  21.454  25.290  1.00  0.00    -0.246 OA
BRANCH  31  33
ATOM     33  C   UNL A   1      42.923  23.690  25.901  1.00  0.00     0.060 A 
ATOM     34  C   UNL A   1      43.833  23.765  26.956  1.00  0.00     0.016 A 
ATOM     35  C   UNL A   1      42.175  24.790  25.480  1.00  0.00     0.016 A 
ATOM     36  C   UNL A   1      43.743  24.842  27.809  1.00  0.00     0.010 A 
ATOM     37  C   UNL A   1      42.114  25.881  26.312  1.00  0.00     0.010 A 
ATOM     38  C   UNL A   1      42.804  25.838  27.526  1.00  0.00    -0.014 A 
BRANCH  38  39
ATOM     39  C   UNL A   1      42.668  26.945  28.458  1.00  0.00     0.031 A 
ATOM     40  C   UNL A   1      43.818  27.889  28.352  1.00  0.00     0.074 A 
ATOM     41  C   UNL A   1      41.520  27.127  29.146  1.00  0.00     0.049 A 
ATOM     42  N   UNL A   1      44.581  28.361  29.281  1.00  0.00    -0.248 NA
ATOM     43  C   UNL A   1      44.297  28.191  26.984  1.00  0.00     0.031 C 
ATOM     44  C   UNL A   1      40.289  26.324  29.074  1.00  0.00     0.029 A 
ATOM     45  N   UNL A   1      41.145  28.159  29.948  1.00  0.00    -0.354 N 
ATOM     46  C   UNL A   1      45.489  29.190  28.623  1.00  0.00     0.074 A 
ATOM     47  C   UNL A   1      45.409  28.877  27.226  1.00  0.00     0.031 C 
ATOM     48  C   UNL A   1      39.260  27.028  29.593  1.00  0.00     0.029 A 
ATOM     49  C   UNL A   1      39.764  28.283  30.110  1.00  0.00     0.049 A 
ATOM     50  H   UNL A   1      41.792  28.766  30.377  1.00  0.00     0.167 HD
ATOM     51  C   UNL A   1      46.054  30.266  29.231  1.00  0.00     0.037 A 
ATOM     52  C   UNL A   1      39.115  29.417  30.494  1.00  0.00     0.037 A 
ATOM     53  C   UNL A   1      46.024  30.137  30.660  1.00  0.00     0.049 A 
ATOM     54  C   UNL A   1      40.144  30.291  31.129  1.00  0.00     0.074 A 
ATOM     55  C   UNL A   1      46.598  29.248  31.548  1.00  0.00     0.029 A 
ATOM     56  N   UNL A   1      44.998  30.745  31.341  1.00  0.00    -0.354 N 
ATOM     57  N   UNL A   1      40.772  29.987  32.234  1.00  0.00    -0.248 NA
ATOM     58  C   UNL A   1      40.830  31.242  30.262  1.00  0.00     0.031 C 
ATOM     59  C   UNL A   1      45.603  29.020  32.539  1.00  0.00     0.029 A 
ATOM     60  C   UNL A   1      44.508  29.836  32.248  1.00  0.00     0.049 A 
ATOM     61  H   UNL A   1      44.673  31.664  31.204  1.00  0.00     0.167 HD
ATOM     62  C   UNL A   1      42.088  30.375  32.016  1.00  0.00     0.074 A 
ATOM     63  C   UNL A   1      42.052  31.179  30.795  1.00  0.00     0.031 C 
ATOM     64  C   UNL A   1      43.126  29.781  32.674  1.00  0.00     0.037 A 
BRANCH  51  65
ATOM     65  C   UNL A   1      46.316  31.564  28.511  1.00  0.00     0.058 A 
ATOM     66  C   UNL A   1      45.236  32.358  28.085  1.00  0.00     0.135 A 
ATOM     67  C   UNL A   1      47.584  31.934  27.999  1.00  0.00     0.135 A 
ATOM     68  F   UNL A   1      43.986  32.084  28.490  1.00  0.00    -0.206 F 
ATOM     69  C   UNL A   1      45.398  33.412  27.183  1.00  0.00     0.059 A 
ATOM     70  C   UNL A   1      47.776  33.015  27.151  1.00  0.00     0.059 A 
ATOM     71  F   UNL A   1      48.688  31.209  28.221  1.00  0.00    -0.206 F 
ATOM     72  C   UNL A   1      46.673  33.724  26.715  1.00  0.00     0.060 A 
BRANCH  72  73
ATOM     73  S   UNL A   1      46.873  35.015  25.477  1.00  0.00     0.124 S 
ATOM     74  O   UNL A   1      48.199  34.714  24.951  1.00  0.00    -0.237 OA
ATOM     75  O   UNL A   1      45.751  34.749  24.582  1.00  0.00    -0.237 OA
ATOM     76  O   UNL A   1      46.766  36.248  26.253  1.00  0.00    -0.744 OA
ENDBRANCH  72  73
ENDBRANCH  51  65
BRANCH  52  77
ATOM     77  C   UNL A   1      37.840  29.962  29.932  1.00  0.00     0.058 A 
ATOM     78  C   UNL A   1      36.814  30.430  30.775  1.00  0.00     0.135 A 
ATOM     79  C   UNL A   1      37.711  30.302  28.569  1.00  0.00     0.135 A 
ATOM     80  F   UNL A   1      36.853  30.170  32.091  1.00  0.00    -0.206 F 
ATOM     81  C   UNL A   1      35.764  31.236  30.307  1.00  0.00     0.059 A 
ATOM     82  C   UNL A   1      36.670  31.089  28.078  1.00  0.00     0.059 A 
ATOM     83  F   UNL A   1      38.647  29.965  27.671  1.00  0.00    -0.206 F 
ATOM     84  C   UNL A   1      35.717  31.583  28.957  1.00  0.00     0.060 A 
BRANCH  84  85
ATOM     85  S   UNL A   1      34.495  32.784  28.378  1.00  0.00     0.124 S 
ATOM     86  O   UNL A   1      33.548  31.935  27.664  1.00  0.00    -0.237 OA
ATOM     87  O   UNL A   1      34.018  33.363  29.629  1.00  0.00    -0.237 OA
ATOM     88  O   UNL A   1      35.280  33.687  27.537  1.00  0.00    -0.744 OA
ENDBRANCH  84  85
ENDBRANCH  52  77
BRANCH  64  89
ATOM     89  C   UNL A   1      42.810  28.830  33.802  1.00  0.00     0.058 A 
ATOM     90  C   UNL A   1      42.564  27.453  33.638  1.00  0.00     0.135 A 
ATOM     91  C   UNL A   1      42.951  29.299  35.116  1.00  0.00     0.135 A 
ATOM     92  F   UNL A   1      42.520  26.905  32.416  1.00  0.00    -0.206 F 
ATOM     93  C   UNL A   1      42.432  26.590  34.731  1.00  0.00     0.059 A 
ATOM     94  C   UNL A   1      42.856  28.454  36.217  1.00  0.00     0.059 A 
ATOM     95  F   UNL A   1      43.250  30.589  35.338  1.00  0.00    -0.206 F 
ATOM     96  C   UNL A   1      42.585  27.102  36.019  1.00  0.00     0.060 A 
BRANCH  96  97
ATOM     97  S   UNL A   1      42.490  25.984  37.437  1.00  0.00     0.124 S 
ATOM     98  O   UNL A   1      43.052  24.752  36.895  1.00  0.00    -0.237 OA
ATOM     99  O   UNL A   1      43.303  26.671  38.437  1.00  0.00    -0.237 OA
ATOM    100  O   UNL A   1      41.061  25.935  37.738  1.00  0.00    -0.744 OA
ENDBRANCH  96  97
ENDBRANCH  64  89
ENDBRANCH  38  39
ENDBRANCH  31  33
ENDBRANCH  30  31
ENDBRANCH  29  30
ENDBRANCH   1  29
TORSDOF 17
ENDMDL
