MODEL 1
REMARK VINA RESULT:      -9.8      0.000      0.000
REMARK SMILES O=C(Cc1ccc(-c2ccn(C(F)F)c(=O)c2)cc1)OCCOC(=O)c1ccc(-c2c3nc(c(-c4c(F)cc(S(=O)(=O)[O-])cc4F)c4ccc([nH]4)c(-c4c(F)cc(S(=O)(=O)[O-])cc4F)c4nc(c(-c5c(F)cc(S(=O)(=O)[O-])cc5F)c5ccc2[nH]5)C=C4)C=C3)cc1
REMARK SMILES IDX 21 1 20 2 2 3 1 4 3 5 4 6 5 7 19 8 6 9 18 10 7 11 8 12 9 13
REMARK SMILES IDX 17 14 10 15 15 16 11 17 16 18 12 19 13 20 14 21 22 22 23 23
REMARK SMILES IDX 24 24 25 25 26 26 27 27 91 28 28 29 90 30 29 31 30 32 31 33
REMARK SMILES IDX 84 34 32 35 89 36 83 37 85 38 33 39 88 40 82 41 81 42 34 44
REMARK SMILES IDX 68 45 47 46 67 47 48 48 51 49 66 50 86 51 49 52 50 53 65 55
REMARK SMILES IDX 87 56 52 57 35 58 36 59 45 60 37 61 38 62 44 63 46 64 39 65
REMARK SMILES IDX 40 66 41 67 42 68 43 69 69 70 70 71 79 72 71 73 72 74 78 75
REMARK SMILES IDX 80 76 73 77 74 78 75 79 76 80 77 81 53 82 54 83 63 84 55 85
REMARK SMILES IDX 56 86 62 87 64 88 57 89 58 90 59 91 60 92 61 93
REMARK H PARENT 85 43 51 54
REMARK Flexibility Score: inf
ROOT
ATOM      1  C   UNL A   1      34.134  34.633  29.336  1.00  0.00     0.274 C 
ENDROOT
BRANCH   1   2
ATOM      2  O   UNL A   1      33.608  34.188  30.607  1.00  0.00    -0.462 OA
BRANCH   2   3
ATOM      3  C   UNL A   1      33.589  34.901  31.758  1.00  0.00     0.310 C 
ATOM      4  O   UNL A   1      32.513  35.253  32.240  1.00  0.00    -0.252 OA
BRANCH   3   5
ATOM      5  C   UNL A   1      34.892  35.239  32.441  1.00  0.00     0.158 C 
BRANCH   5   6
ATOM      6  C   UNL A   1      35.870  34.114  32.645  1.00  0.00    -0.037 A 
ATOM      7  C   UNL A   1      36.878  33.916  31.684  1.00  0.00     0.005 A 
ATOM      8  C   UNL A   1      35.836  33.299  33.779  1.00  0.00     0.005 A 
ATOM      9  C   UNL A   1      37.834  32.913  31.848  1.00  0.00     0.009 A 
ATOM     10  C   UNL A   1      36.783  32.291  33.937  1.00  0.00     0.009 A 
ATOM     11  C   UNL A   1      37.792  32.102  32.983  1.00  0.00    -0.018 A 
BRANCH  11  12
ATOM     12  C   UNL A   1      38.829  31.102  33.268  1.00  0.00    -0.011 A 
ATOM     13  C   UNL A   1      40.201  31.455  33.568  1.00  0.00     0.027 A 
ATOM     14  C   UNL A   1      38.500  29.814  33.073  1.00  0.00     0.080 A 
ATOM     15  C   UNL A   1      41.154  30.517  33.547  1.00  0.00     0.095 A 
ATOM     16  C   UNL A   1      39.546  28.758  33.073  1.00  0.00     0.255 A 
ATOM     17  N   UNL A   1      40.846  29.197  33.276  1.00  0.00    -0.258 N 
ATOM     18  O   UNL A   1      39.217  27.600  32.847  1.00  0.00    -0.269 OA
BRANCH  17  19
ATOM     19  C   UNL A   1      41.886  28.215  33.132  1.00  0.00     0.451 C 
ATOM     20  F   UNL A   1      42.149  27.946  31.833  1.00  0.00    -0.185 F 
ATOM     21  F   UNL A   1      43.032  28.640  33.719  1.00  0.00    -0.185 F 
ENDBRANCH  17  19
ENDBRANCH  11  12
ENDBRANCH   5   6
ENDBRANCH   3   5
ENDBRANCH   2   3
ENDBRANCH   1   2
BRANCH   1  22
ATOM     22  C   UNL A   1      34.623  33.455  28.495  1.00  0.00     0.275 C 
BRANCH  22  23
ATOM     23  O   UNL A   1      34.457  32.230  29.230  1.00  0.00    -0.458 OA
BRANCH  23  24
ATOM     24  C   UNL A   1      34.484  31.089  28.497  1.00  0.00     0.338 C 
ATOM     25  O   UNL A   1      33.621  30.695  27.734  1.00  0.00    -0.246 OA
BRANCH  24  26
ATOM     26  C   UNL A   1      35.841  30.503  28.592  1.00  0.00     0.060 A 
ATOM     27  C   UNL A   1      36.286  30.070  29.850  1.00  0.00     0.016 A 
ATOM     28  C   UNL A   1      36.641  30.311  27.459  1.00  0.00     0.016 A 
ATOM     29  C   UNL A   1      37.540  29.474  29.982  1.00  0.00     0.010 A 
ATOM     30  C   UNL A   1      37.899  29.724  27.594  1.00  0.00     0.010 A 
ATOM     31  C   UNL A   1      38.366  29.329  28.860  1.00  0.00    -0.014 A 
BRANCH  31  32
ATOM     32  C   UNL A   1      39.793  28.968  29.024  1.00  0.00     0.031 A 
ATOM     33  C   UNL A   1      40.739  30.039  29.492  1.00  0.00     0.074 A 
ATOM     34  C   UNL A   1      40.245  27.734  28.741  1.00  0.00     0.049 A 
ATOM     35  N   UNL A   1      42.036  29.991  29.646  1.00  0.00    -0.248 NA
ATOM     36  C   UNL A   1      40.138  31.342  29.820  1.00  0.00     0.031 C 
ATOM     37  C   UNL A   1      39.424  26.608  28.303  1.00  0.00     0.029 A 
ATOM     38  N   UNL A   1      41.522  27.232  28.768  1.00  0.00    -0.354 N 
ATOM     39  C   UNL A   1      42.406  31.254  30.088  1.00  0.00     0.074 A 
ATOM     40  C   UNL A   1      41.204  32.057  30.146  1.00  0.00     0.031 C 
ATOM     41  C   UNL A   1      40.223  25.548  28.082  1.00  0.00     0.029 A 
ATOM     42  C   UNL A   1      41.611  25.929  28.342  1.00  0.00     0.049 A 
ATOM     43  H   UNL A   1      42.301  27.755  29.065  1.00  0.00     0.167 HD
ATOM     44  C   UNL A   1      43.637  31.708  30.423  1.00  0.00     0.037 A 
ATOM     45  C   UNL A   1      42.693  25.143  28.166  1.00  0.00     0.037 A 
ATOM     46  C   UNL A   1      44.833  30.916  30.348  1.00  0.00     0.049 A 
ATOM     47  C   UNL A   1      44.064  25.685  28.489  1.00  0.00     0.074 A 
ATOM     48  C   UNL A   1      46.128  31.281  30.671  1.00  0.00     0.029 A 
ATOM     49  N   UNL A   1      44.883  29.601  29.910  1.00  0.00    -0.354 N 
ATOM     50  N   UNL A   1      44.397  26.872  28.939  1.00  0.00    -0.248 NA
ATOM     51  C   UNL A   1      45.204  24.780  28.284  1.00  0.00     0.031 C 
ATOM     52  C   UNL A   1      46.968  30.198  30.390  1.00  0.00     0.029 A 
ATOM     53  C   UNL A   1      46.189  29.144  29.935  1.00  0.00     0.049 A 
ATOM     54  H   UNL A   1      44.105  29.072  29.624  1.00  0.00     0.167 HD
ATOM     55  C   UNL A   1      45.779  26.843  29.101  1.00  0.00     0.074 A 
ATOM     56  C   UNL A   1      46.221  25.524  28.700  1.00  0.00     0.031 C 
ATOM     57  C   UNL A   1      46.608  27.819  29.549  1.00  0.00     0.037 A 
BRANCH  44  58
ATOM     58  C   UNL A   1      43.737  33.136  30.870  1.00  0.00     0.058 A 
ATOM     59  C   UNL A   1      43.852  34.188  29.948  1.00  0.00     0.135 A 
ATOM     60  C   UNL A   1      43.736  33.456  32.237  1.00  0.00     0.135 A 
ATOM     61  F   UNL A   1      43.883  33.932  28.630  1.00  0.00    -0.206 F 
ATOM     62  C   UNL A   1      43.999  35.506  30.366  1.00  0.00     0.059 A 
ATOM     63  C   UNL A   1      43.857  34.770  32.677  1.00  0.00     0.059 A 
ATOM     64  F   UNL A   1      43.635  32.486  33.159  1.00  0.00    -0.206 F 
ATOM     65  C   UNL A   1      44.008  35.787  31.734  1.00  0.00     0.060 A 
BRANCH  65  66
ATOM     66  S   UNL A   1      44.229  37.497  32.264  1.00  0.00     0.124 S 
ATOM     67  O   UNL A   1      43.869  38.225  31.053  1.00  0.00    -0.237 OA
ATOM     68  O   UNL A   1      43.287  37.606  33.373  1.00  0.00    -0.237 OA
ATOM     69  O   UNL A   1      45.639  37.556  32.637  1.00  0.00    -0.744 OA
ENDBRANCH  65  66
ENDBRANCH  44  58
BRANCH  45  70
ATOM     70  C   UNL A   1      42.529  23.756  27.659  1.00  0.00     0.058 A 
ATOM     71  C   UNL A   1      42.438  23.495  26.284  1.00  0.00     0.135 A 
ATOM     72  C   UNL A   1      42.459  22.664  28.538  1.00  0.00     0.135 A 
ATOM     73  F   UNL A   1      42.487  24.508  25.405  1.00  0.00    -0.206 F 
ATOM     74  C   UNL A   1      42.269  22.203  25.797  1.00  0.00     0.059 A 
ATOM     75  C   UNL A   1      42.311  21.361  28.074  1.00  0.00     0.059 A 
ATOM     76  F   UNL A   1      42.551  22.861  29.863  1.00  0.00    -0.206 F 
ATOM     77  C   UNL A   1      42.207  21.141  26.702  1.00  0.00     0.060 A 
BRANCH  77  78
ATOM     78  S   UNL A   1      42.030  19.463  26.056  1.00  0.00     0.124 S 
ATOM     79  O   UNL A   1      40.600  19.406  25.780  1.00  0.00    -0.237 OA
ATOM     80  O   UNL A   1      42.906  19.491  24.889  1.00  0.00    -0.237 OA
ATOM     81  O   UNL A   1      42.494  18.631  27.161  1.00  0.00    -0.744 OA
ENDBRANCH  77  78
ENDBRANCH  45  70
BRANCH  57  82
ATOM     82  C   UNL A   1      48.070  27.495  29.677  1.00  0.00     0.058 A 
ATOM     83  C   UNL A   1      48.999  27.865  28.692  1.00  0.00     0.135 A 
ATOM     84  C   UNL A   1      48.558  26.882  30.843  1.00  0.00     0.135 A 
ATOM     85  F   UNL A   1      48.583  28.450  27.557  1.00  0.00    -0.206 F 
ATOM     86  C   UNL A   1      50.360  27.628  28.853  1.00  0.00     0.059 A 
ATOM     87  C   UNL A   1      49.918  26.657  31.034  1.00  0.00     0.059 A 
ATOM     88  F   UNL A   1      47.713  26.521  31.821  1.00  0.00    -0.206 F 
ATOM     89  C   UNL A   1      50.810  27.027  30.029  1.00  0.00     0.060 A 
BRANCH  89  90
ATOM     90  S   UNL A   1      52.586  26.778  30.254  1.00  0.00     0.124 S 
ATOM     91  O   UNL A   1      52.949  26.113  29.006  1.00  0.00    -0.237 OA
ATOM     92  O   UNL A   1      53.078  28.142  30.412  1.00  0.00    -0.237 OA
ATOM     93  O   UNL A   1      52.662  25.948  31.453  1.00  0.00    -0.744 OA
ENDBRANCH  89  90
ENDBRANCH  57  82
ENDBRANCH  31  32
ENDBRANCH  24  26
ENDBRANCH  23  24
ENDBRANCH  22  23
ENDBRANCH   1  22
TORSDOF 17
ENDMDL
MODEL 2
REMARK VINA RESULT:      -9.4      5.133     12.236
REMARK SMILES O=C(Cc1ccc(-c2ccn(C(F)F)c(=O)c2)cc1)OCCOC(=O)c1ccc(-c2c3nc(c(-c4c(F)cc(S(=O)(=O)[O-])cc4F)c4ccc([nH]4)c(-c4c(F)cc(S(=O)(=O)[O-])cc4F)c4nc(c(-c5c(F)cc(S(=O)(=O)[O-])cc5F)c5ccc2[nH]5)C=C4)C=C3)cc1
REMARK SMILES IDX 21 1 20 2 2 3 1 4 3 5 4 6 5 7 19 8 6 9 18 10 7 11 8 12 9 13
REMARK SMILES IDX 17 14 10 15 15 16 11 17 16 18 12 19 13 20 14 21 22 22 23 23
REMARK SMILES IDX 24 24 25 25 26 26 27 27 91 28 28 29 90 30 29 31 30 32 31 33
REMARK SMILES IDX 84 34 32 35 89 36 83 37 85 38 33 39 88 40 82 41 81 42 34 44
REMARK SMILES IDX 68 45 47 46 67 47 48 48 51 49 66 50 86 51 49 52 50 53 65 55
REMARK SMILES IDX 87 56 52 57 35 58 36 59 45 60 37 61 38 62 44 63 46 64 39 65
REMARK SMILES IDX 40 66 41 67 42 68 43 69 69 70 70 71 79 72 71 73 72 74 78 75
REMARK SMILES IDX 80 76 73 77 74 78 75 79 76 80 77 81 53 82 54 83 63 84 55 85
REMARK SMILES IDX 56 86 62 87 64 88 57 89 58 90 59 91 60 92 61 93
REMARK H PARENT 85 43 51 54
REMARK Flexibility Score: inf
ROOT
ATOM      1  C   UNL A   1      43.536  22.328  25.643  1.00  0.00     0.274 C 
ENDROOT
BRANCH   1   2
ATOM      2  O   UNL A   1      42.217  21.800  25.379  1.00  0.00    -0.462 OA
BRANCH   2   3
ATOM      3  C   UNL A   1      41.578  20.847  26.097  1.00  0.00     0.310 C 
ATOM      4  O   UNL A   1      41.965  19.680  26.043  1.00  0.00    -0.252 OA
BRANCH   3   5
ATOM      5  C   UNL A   1      40.408  21.236  26.968  1.00  0.00     0.158 C 
BRANCH   5   6
ATOM      6  C   UNL A   1      39.248  21.916  26.294  1.00  0.00    -0.037 A 
ATOM      7  C   UNL A   1      38.424  21.156  25.443  1.00  0.00     0.005 A 
ATOM      8  C   UNL A   1      38.939  23.258  26.526  1.00  0.00     0.005 A 
ATOM      9  C   UNL A   1      37.312  21.731  24.827  1.00  0.00     0.009 A 
ATOM     10  C   UNL A   1      37.836  23.834  25.903  1.00  0.00     0.009 A 
ATOM     11  C   UNL A   1      37.011  23.073  25.064  1.00  0.00    -0.018 A 
BRANCH  11  12
ATOM     12  C   UNL A   1      35.798  23.706  24.533  1.00  0.00    -0.011 A 
ATOM     13  C   UNL A   1      34.981  24.617  25.308  1.00  0.00     0.027 A 
ATOM     14  C   UNL A   1      35.363  23.278  23.335  1.00  0.00     0.080 A 
ATOM     15  C   UNL A   1      33.756  24.946  24.884  1.00  0.00     0.095 A 
ATOM     16  C   UNL A   1      34.014  23.657  22.841  1.00  0.00     0.255 A 
ATOM     17  N   UNL A   1      33.263  24.456  23.689  1.00  0.00    -0.258 N 
ATOM     18  O   UNL A   1      33.632  23.212  21.765  1.00  0.00    -0.269 OA
BRANCH  17  19
ATOM     19  C   UNL A   1      31.904  24.712  23.297  1.00  0.00     0.451 C 
ATOM     20  F   UNL A   1      31.070  23.724  23.696  1.00  0.00    -0.185 F 
ATOM     21  F   UNL A   1      31.462  25.880  23.825  1.00  0.00    -0.185 F 
ENDBRANCH  17  19
ENDBRANCH  11  12
ENDBRANCH   5   6
ENDBRANCH   3   5
ENDBRANCH   2   3
ENDBRANCH   1   2
BRANCH   1  22
ATOM     22  C   UNL A   1      43.468  23.592  26.497  1.00  0.00     0.275 C 
BRANCH  22  23
ATOM     23  O   UNL A   1      42.157  24.174  26.400  1.00  0.00    -0.458 OA
BRANCH  23  24
ATOM     24  C   UNL A   1      42.111  25.476  26.019  1.00  0.00     0.338 C 
ATOM     25  O   UNL A   1      41.988  25.897  24.884  1.00  0.00    -0.246 OA
BRANCH  24  26
ATOM     26  C   UNL A   1      42.003  26.317  27.235  1.00  0.00     0.060 A 
ATOM     27  C   UNL A   1      40.939  26.070  28.114  1.00  0.00     0.016 A 
ATOM     28  C   UNL A   1      42.966  27.283  27.549  1.00  0.00     0.016 A 
ATOM     29  C   UNL A   1      40.818  26.808  29.292  1.00  0.00     0.010 A 
ATOM     30  C   UNL A   1      42.838  28.027  28.722  1.00  0.00     0.010 A 
ATOM     31  C   UNL A   1      41.748  27.812  29.584  1.00  0.00    -0.014 A 
BRANCH  31  32
ATOM     32  C   UNL A   1      41.481  28.786  30.668  1.00  0.00     0.031 A 
ATOM     33  C   UNL A   1      42.323  28.702  31.911  1.00  0.00     0.074 A 
ATOM     34  C   UNL A   1      40.503  29.703  30.567  1.00  0.00     0.049 A 
ATOM     35  N   UNL A   1      42.239  29.391  33.018  1.00  0.00    -0.248 NA
ATOM     36  C   UNL A   1      43.398  27.696  31.903  1.00  0.00     0.031 C 
ATOM     37  C   UNL A   1      39.636  29.897  29.407  1.00  0.00     0.029 A 
ATOM     38  N   UNL A   1      40.066  30.635  31.475  1.00  0.00    -0.354 N 
ATOM     39  C   UNL A   1      43.248  28.903  33.838  1.00  0.00     0.074 A 
ATOM     40  C   UNL A   1      43.910  27.839  33.116  1.00  0.00     0.031 C 
ATOM     41  C   UNL A   1      38.756  30.877  29.681  1.00  0.00     0.029 A 
ATOM     42  C   UNL A   1      38.983  31.361  31.043  1.00  0.00     0.049 A 
ATOM     43  H   UNL A   1      40.488  30.770  32.354  1.00  0.00     0.167 HD
ATOM     44  C   UNL A   1      43.600  29.309  35.081  1.00  0.00     0.037 A 
ATOM     45  C   UNL A   1      38.252  32.296  31.682  1.00  0.00     0.037 A 
ATOM     46  C   UNL A   1      42.931  30.354  35.805  1.00  0.00     0.049 A 
ATOM     47  C   UNL A   1      38.621  32.693  33.089  1.00  0.00     0.074 A 
ATOM     48  C   UNL A   1      43.214  30.843  37.068  1.00  0.00     0.029 A 
ATOM     49  N   UNL A   1      41.838  31.065  35.334  1.00  0.00    -0.354 N 
ATOM     50  N   UNL A   1      39.600  32.248  33.843  1.00  0.00    -0.248 NA
ATOM     51  C   UNL A   1      37.791  33.722  33.732  1.00  0.00     0.031 C 
ATOM     52  C   UNL A   1      42.266  31.824  37.376  1.00  0.00     0.029 A 
ATOM     53  C   UNL A   1      41.420  31.976  36.288  1.00  0.00     0.049 A 
ATOM     54  H   UNL A   1      41.420  30.940  34.452  1.00  0.00     0.167 HD
ATOM     55  C   UNL A   1      39.522  32.966  35.033  1.00  0.00     0.074 A 
ATOM     56  C   UNL A   1      38.401  33.872  34.902  1.00  0.00     0.031 C 
ATOM     57  C   UNL A   1      40.312  32.886  36.132  1.00  0.00     0.037 A 
BRANCH  44  58
ATOM     58  C   UNL A   1      44.742  28.589  35.734  1.00  0.00     0.058 A 
ATOM     59  C   UNL A   1      44.532  27.467  36.552  1.00  0.00     0.135 A 
ATOM     60  C   UNL A   1      46.061  29.034  35.554  1.00  0.00     0.135 A 
ATOM     61  F   UNL A   1      43.287  27.017  36.776  1.00  0.00    -0.206 F 
ATOM     62  C   UNL A   1      45.587  26.834  37.199  1.00  0.00     0.059 A 
ATOM     63  C   UNL A   1      47.134  28.400  36.171  1.00  0.00     0.059 A 
ATOM     64  F   UNL A   1      46.314  30.106  34.786  1.00  0.00    -0.206 F 
ATOM     65  C   UNL A   1      46.885  27.313  37.008  1.00  0.00     0.060 A 
BRANCH  65  66
ATOM     66  S   UNL A   1      48.243  26.501  37.877  1.00  0.00     0.124 S 
ATOM     67  O   UNL A   1      48.968  25.888  36.770  1.00  0.00    -0.237 OA
ATOM     68  O   UNL A   1      48.912  27.621  38.530  1.00  0.00    -0.237 OA
ATOM     69  O   UNL A   1      47.563  25.572  38.774  1.00  0.00    -0.744 OA
ENDBRANCH  65  66
ENDBRANCH  44  58
BRANCH  45  70
ATOM     70  C   UNL A   1      37.091  32.926  30.999  1.00  0.00     0.058 A 
ATOM     71  C   UNL A   1      35.777  32.540  31.302  1.00  0.00     0.135 A 
ATOM     72  C   UNL A   1      37.273  33.925  30.031  1.00  0.00     0.135 A 
ATOM     73  F   UNL A   1      35.555  31.579  32.213  1.00  0.00    -0.206 F 
ATOM     74  C   UNL A   1      34.684  33.110  30.660  1.00  0.00     0.059 A 
ATOM     75  C   UNL A   1      36.194  34.525  29.389  1.00  0.00     0.059 A 
ATOM     76  F   UNL A   1      38.511  34.336  29.712  1.00  0.00    -0.206 F 
ATOM     77  C   UNL A   1      34.903  34.104  29.704  1.00  0.00     0.060 A 
BRANCH  77  78
ATOM     78  S   UNL A   1      33.473  34.868  28.906  1.00  0.00     0.124 S 
ATOM     79  O   UNL A   1      33.119  33.861  27.914  1.00  0.00    -0.237 OA
ATOM     80  O   UNL A   1      32.545  35.020  30.022  1.00  0.00    -0.237 OA
ATOM     81  O   UNL A   1      34.016  36.115  28.376  1.00  0.00    -0.744 OA
ENDBRANCH  77  78
ENDBRANCH  45  70
BRANCH  57  82
ATOM     82  C   UNL A   1      40.030  33.829  37.269  1.00  0.00     0.058 A 
ATOM     83  C   UNL A   1      40.623  35.099  37.341  1.00  0.00     0.135 A 
ATOM     84  C   UNL A   1      39.088  33.487  38.253  1.00  0.00     0.135 A 
ATOM     85  F   UNL A   1      41.532  35.472  36.426  1.00  0.00    -0.206 F 
ATOM     86  C   UNL A   1      40.299  35.994  38.355  1.00  0.00     0.059 A 
ATOM     87  C   UNL A   1      38.733  34.376  39.263  1.00  0.00     0.059 A 
ATOM     88  F   UNL A   1      38.483  32.289  38.223  1.00  0.00    -0.206 F 
ATOM     89  C   UNL A   1      39.350  35.624  39.310  1.00  0.00     0.060 A 
BRANCH  89  90
ATOM     90  S   UNL A   1      38.893  36.817  40.588  1.00  0.00     0.124 S 
ATOM     91  O   UNL A   1      40.195  37.145  41.162  1.00  0.00    -0.237 OA
ATOM     92  O   UNL A   1      38.255  37.877  39.816  1.00  0.00    -0.237 OA
ATOM     93  O   UNL A   1      37.998  36.056  41.456  1.00  0.00    -0.744 OA
ENDBRANCH  89  90
ENDBRANCH  57  82
ENDBRANCH  31  32
ENDBRANCH  24  26
ENDBRANCH  23  24
ENDBRANCH  22  23
ENDBRANCH   1  22
TORSDOF 17
ENDMDL
MODEL 3
REMARK VINA RESULT:      -9.3      2.689     10.260
REMARK SMILES O=C(Cc1ccc(-c2ccn(C(F)F)c(=O)c2)cc1)OCCOC(=O)c1ccc(-c2c3nc(c(-c4c(F)cc(S(=O)(=O)[O-])cc4F)c4ccc([nH]4)c(-c4c(F)cc(S(=O)(=O)[O-])cc4F)c4nc(c(-c5c(F)cc(S(=O)(=O)[O-])cc5F)c5ccc2[nH]5)C=C4)C=C3)cc1
REMARK SMILES IDX 21 1 20 2 2 3 1 4 3 5 4 6 5 7 19 8 6 9 18 10 7 11 8 12 9 13
REMARK SMILES IDX 17 14 10 15 15 16 11 17 16 18 12 19 13 20 14 21 22 22 23 23
REMARK SMILES IDX 24 24 25 25 26 26 27 27 91 28 28 29 90 30 29 31 30 32 31 33
REMARK SMILES IDX 84 34 32 35 89 36 83 37 85 38 33 39 88 40 82 41 81 42 34 44
REMARK SMILES IDX 68 45 47 46 67 47 48 48 51 49 66 50 86 51 49 52 50 53 65 55
REMARK SMILES IDX 87 56 52 57 35 58 36 59 45 60 37 61 38 62 44 63 46 64 39 65
REMARK SMILES IDX 40 66 41 67 42 68 43 69 69 70 70 71 79 72 71 73 72 74 78 75
REMARK SMILES IDX 80 76 73 77 74 78 75 79 76 80 77 81 53 82 54 83 63 84 55 85
REMARK SMILES IDX 56 86 62 87 64 88 57 89 58 90 59 91 60 92 61 93
REMARK H PARENT 85 43 51 54
REMARK Flexibility Score: inf
ROOT
ATOM      1  C   UNL A   1      42.159  20.703  26.097  1.00  0.00     0.274 C 
ENDROOT
BRANCH   1   2
ATOM      2  O   UNL A   1      42.383  21.834  25.226  1.00  0.00    -0.462 OA
BRANCH   2   3
ATOM      3  C   UNL A   1      43.345  22.775  25.368  1.00  0.00     0.310 C 
ATOM      4  O   UNL A   1      43.256  23.838  24.754  1.00  0.00    -0.252 OA
BRANCH   3   5
ATOM      5  C   UNL A   1      44.509  22.510  26.293  1.00  0.00     0.158 C 
BRANCH   5   6
ATOM      6  C   UNL A   1      44.467  23.158  27.650  1.00  0.00    -0.037 A 
ATOM      7  C   UNL A   1      45.618  23.821  28.115  1.00  0.00     0.005 A 
ATOM      8  C   UNL A   1      43.311  23.162  28.434  1.00  0.00     0.005 A 
ATOM      9  C   UNL A   1      45.616  24.471  29.349  1.00  0.00     0.009 A 
ATOM     10  C   UNL A   1      43.313  23.802  29.670  1.00  0.00     0.009 A 
ATOM     11  C   UNL A   1      44.457  24.470  30.127  1.00  0.00    -0.018 A 
BRANCH  11  12
ATOM     12  C   UNL A   1      44.357  25.226  31.381  1.00  0.00    -0.011 A 
ATOM     13  C   UNL A   1      44.406  24.597  32.685  1.00  0.00     0.027 A 
ATOM     14  C   UNL A   1      44.044  26.529  31.282  1.00  0.00     0.080 A 
ATOM     15  C   UNL A   1      44.039  25.281  33.774  1.00  0.00     0.095 A 
ATOM     16  C   UNL A   1      43.659  27.308  32.488  1.00  0.00     0.255 A 
ATOM     17  N   UNL A   1      43.643  26.603  33.682  1.00  0.00    -0.258 N 
ATOM     18  O   UNL A   1      43.335  28.482  32.355  1.00  0.00    -0.269 OA
BRANCH  17  19
ATOM     19  C   UNL A   1      43.133  27.297  34.832  1.00  0.00     0.451 C 
ATOM     20  F   UNL A   1      43.877  28.386  35.136  1.00  0.00    -0.185 F 
ATOM     21  F   UNL A   1      41.855  27.701  34.623  1.00  0.00    -0.185 F 
ENDBRANCH  17  19
ENDBRANCH  11  12
ENDBRANCH   5   6
ENDBRANCH   3   5
ENDBRANCH   2   3
ENDBRANCH   1   2
BRANCH   1  22
ATOM     22  C   UNL A   1      40.673  20.520  26.401  1.00  0.00     0.275 C 
BRANCH  22  23
ATOM     23  O   UNL A   1      40.197  21.628  27.184  1.00  0.00    -0.458 OA
BRANCH  23  24
ATOM     24  C   UNL A   1      39.404  22.517  26.535  1.00  0.00     0.338 C 
ATOM     25  O   UNL A   1      38.432  22.258  25.849  1.00  0.00    -0.246 OA
BRANCH  24  26
ATOM     26  C   UNL A   1      39.768  23.882  26.981  1.00  0.00     0.060 A 
ATOM     27  C   UNL A   1      40.160  24.811  26.005  1.00  0.00     0.016 A 
ATOM     28  C   UNL A   1      39.660  24.273  28.321  1.00  0.00     0.016 A 
ATOM     29  C   UNL A   1      40.472  26.121  26.372  1.00  0.00     0.010 A 
ATOM     30  C   UNL A   1      39.983  25.579  28.687  1.00  0.00     0.010 A 
ATOM     31  C   UNL A   1      40.418  26.501  27.718  1.00  0.00    -0.014 A 
BRANCH  31  32
ATOM     32  C   UNL A   1      41.013  27.784  28.157  1.00  0.00     0.031 A 
ATOM     33  C   UNL A   1      42.508  27.927  28.082  1.00  0.00     0.074 A 
ATOM     34  C   UNL A   1      40.255  28.786  28.636  1.00  0.00     0.049 A 
ATOM     35  N   UNL A   1      43.267  28.917  28.468  1.00  0.00    -0.248 NA
ATOM     36  C   UNL A   1      43.242  26.792  27.500  1.00  0.00     0.031 C 
ATOM     37  C   UNL A   1      38.798  28.776  28.737  1.00  0.00     0.029 A 
ATOM     38  N   UNL A   1      40.621  30.008  29.143  1.00  0.00    -0.354 N 
ATOM     39  C   UNL A   1      44.567  28.526  28.177  1.00  0.00     0.074 A 
ATOM     40  C   UNL A   1      44.498  27.196  27.612  1.00  0.00     0.031 C 
ATOM     41  C   UNL A   1      38.392  29.932  29.294  1.00  0.00     0.029 A 
ATOM     42  C   UNL A   1      39.563  30.751  29.608  1.00  0.00     0.049 A 
ATOM     43  H   UNL A   1      41.553  30.322  29.173  1.00  0.00     0.167 HD
ATOM     44  C   UNL A   1      45.720  29.214  28.356  1.00  0.00     0.037 A 
ATOM     45  C   UNL A   1      39.547  31.947  30.230  1.00  0.00     0.037 A 
ATOM     46  C   UNL A   1      45.790  30.528  28.932  1.00  0.00     0.049 A 
ATOM     47  C   UNL A   1      40.846  32.674  30.475  1.00  0.00     0.074 A 
ATOM     48  C   UNL A   1      46.908  31.313  29.152  1.00  0.00     0.029 A 
ATOM     49  N   UNL A   1      44.697  31.248  29.392  1.00  0.00    -0.354 N 
ATOM     50  N   UNL A   1      42.068  32.308  30.163  1.00  0.00    -0.248 NA
ATOM     51  C   UNL A   1      40.766  33.977  31.151  1.00  0.00     0.031 C 
ATOM     52  C   UNL A   1      46.495  32.492  29.781  1.00  0.00     0.029 A 
ATOM     53  C   UNL A   1      45.115  32.460  29.912  1.00  0.00     0.049 A 
ATOM     54  H   UNL A   1      43.763  30.941  29.354  1.00  0.00     0.167 HD
ATOM     55  C   UNL A   1      42.894  33.349  30.576  1.00  0.00     0.074 A 
ATOM     56  C   UNL A   1      42.036  34.358  31.160  1.00  0.00     0.031 C 
ATOM     57  C   UNL A   1      44.242  33.462  30.474  1.00  0.00     0.037 A 
BRANCH  44  58
ATOM     58  C   UNL A   1      46.991  28.532  27.946  1.00  0.00     0.058 A 
ATOM     59  C   UNL A   1      47.534  28.700  26.662  1.00  0.00     0.135 A 
ATOM     60  C   UNL A   1      47.666  27.687  28.840  1.00  0.00     0.135 A 
ATOM     61  F   UNL A   1      46.912  29.479  25.761  1.00  0.00    -0.206 F 
ATOM     62  C   UNL A   1      48.683  28.025  26.267  1.00  0.00     0.059 A 
ATOM     63  C   UNL A   1      48.831  27.020  28.474  1.00  0.00     0.059 A 
ATOM     64  F   UNL A   1      47.184  27.488  30.077  1.00  0.00    -0.206 F 
ATOM     65  C   UNL A   1      49.321  27.181  27.178  1.00  0.00     0.060 A 
BRANCH  65  66
ATOM     66  S   UNL A   1      50.794  26.286  26.644  1.00  0.00     0.124 S 
ATOM     67  O   UNL A   1      50.737  26.471  25.198  1.00  0.00    -0.237 OA
ATOM     68  O   UNL A   1      51.863  27.002  27.333  1.00  0.00    -0.237 OA
ATOM     69  O   UNL A   1      50.553  24.926  27.113  1.00  0.00    -0.744 OA
ENDBRANCH  65  66
ENDBRANCH  44  58
BRANCH  45  70
ATOM     70  C   UNL A   1      38.257  32.540  30.668  1.00  0.00     0.058 A 
ATOM     71  C   UNL A   1      37.469  33.292  29.784  1.00  0.00     0.135 A 
ATOM     72  C   UNL A   1      37.786  32.368  31.979  1.00  0.00     0.135 A 
ATOM     73  F   UNL A   1      37.884  33.495  28.524  1.00  0.00    -0.206 F 
ATOM     74  C   UNL A   1      36.268  33.866  30.186  1.00  0.00     0.059 A 
ATOM     75  C   UNL A   1      36.578  32.914  32.399  1.00  0.00     0.059 A 
ATOM     76  F   UNL A   1      38.499  31.648  32.860  1.00  0.00    -0.206 F 
ATOM     77  C   UNL A   1      35.829  33.670  31.497  1.00  0.00     0.060 A 
BRANCH  77  78
ATOM     78  S   UNL A   1      34.247  34.384  31.997  1.00  0.00     0.124 S 
ATOM     79  O   UNL A   1      33.594  34.579  30.708  1.00  0.00    -0.237 OA
ATOM     80  O   UNL A   1      33.691  33.333  32.842  1.00  0.00    -0.237 OA
ATOM     81  O   UNL A   1      34.639  35.602  32.699  1.00  0.00    -0.744 OA
ENDBRANCH  77  78
ENDBRANCH  45  70
BRANCH  57  82
ATOM     82  C   UNL A   1      44.879  34.735  30.959  1.00  0.00     0.058 A 
ATOM     83  C   UNL A   1      45.392  34.856  32.259  1.00  0.00     0.135 A 
ATOM     84  C   UNL A   1      45.053  35.817  30.081  1.00  0.00     0.135 A 
ATOM     85  F   UNL A   1      45.248  33.851  33.139  1.00  0.00    -0.206 F 
ATOM     86  C   UNL A   1      46.046  36.011  32.676  1.00  0.00     0.059 A 
ATOM     87  C   UNL A   1      45.724  36.972  30.470  1.00  0.00     0.059 A 
ATOM     88  F   UNL A   1      44.591  35.747  28.822  1.00  0.00    -0.206 F 
ATOM     89  C   UNL A   1      46.211  37.062  31.773  1.00  0.00     0.060 A 
BRANCH  89  90
ATOM     90  S   UNL A   1      47.114  38.533  32.306  1.00  0.00     0.124 S 
ATOM     91  O   UNL A   1      47.191  38.324  33.748  1.00  0.00    -0.237 OA
ATOM     92  O   UNL A   1      48.374  38.410  31.579  1.00  0.00    -0.237 OA
ATOM     93  O   UNL A   1      46.255  39.633  31.876  1.00  0.00    -0.744 OA
ENDBRANCH  89  90
ENDBRANCH  57  82
ENDBRANCH  31  32
ENDBRANCH  24  26
ENDBRANCH  23  24
ENDBRANCH  22  23
ENDBRANCH   1  22
TORSDOF 17
ENDMDL
