MODEL 1
REMARK VINA RESULT:     -12.2      0.000      0.000
REMARK SMILES CC(C)c1ccc2c(c1)c(SC(C)(C)C)c(CC(C)(C)C(=O)OCCOC(=O)c1ccc(-c3c4nc(c(-c5c(F)cc(S(=O)(=O)[O-])cc5F)c5ccc([nH]5)c(-c5c(F)cc(S(=O)(=O)[O-])cc5F)c5nc(c(-c6c(F)cc(S(=O)(=O)[O-])cc6F)c6ccc3[nH]6)C=C5)C=C4)cc1)n2Cc1ccc(Cl)cc1
REMARK SMILES IDX 24 1 23 2 21 3 22 4 18 5 19 6 20 7 17 8 16 9 4 10 5 11 9 12
REMARK SMILES IDX 6 13 8 14 7 15 10 16 95 17 2 18 1 19 3 20 11 21 12 22 13 23
REMARK SMILES IDX 14 24 15 25 96 26 97 27 98 28 103 29 99 30 102 31 100 32
REMARK SMILES IDX 101 33 25 34 26 35 27 36 28 37 29 38 30 39 94 40 31 41 93 42
REMARK SMILES IDX 32 43 33 44 34 45 87 46 35 47 92 48 86 49 88 50 36 51 91 52
REMARK SMILES IDX 85 53 84 54 37 56 71 57 50 58 70 59 51 60 54 61 69 62 89 63
REMARK SMILES IDX 52 64 53 65 68 67 90 68 55 69 38 70 39 71 48 72 40 73 41 74
REMARK SMILES IDX 47 75 49 76 42 77 43 78 44 79 45 80 46 81 72 82 73 83 82 84
REMARK SMILES IDX 74 85 75 86 81 87 83 88 76 89 77 90 78 91 79 92 80 93 56 94
REMARK SMILES IDX 57 95 66 96 58 97 59 98 65 99 67 100 60 101 61 102 62 103
REMARK SMILES IDX 63 104 64 105
REMARK H PARENT 88 55 54 66
REMARK Flexibility Score: inf
ROOT
ATOM      1  C   UNL A   1      40.081  21.077  25.789  1.00  0.00     0.274 C 
ENDROOT
BRANCH   1   2
ATOM      2  O   UNL A   1      38.756  21.405  26.246  1.00  0.00    -0.462 OA
BRANCH   2   3
ATOM      3  C   UNL A   1      37.786  21.313  25.303  1.00  0.00     0.312 C 
ATOM      4  O   UNL A   1      37.629  20.321  24.599  1.00  0.00    -0.252 OA
BRANCH   3   5
ATOM      5  C   UNL A   1      36.915  22.564  25.184  1.00  0.00     0.068 C 
ATOM      6  C   UNL A   1      36.573  22.531  23.682  1.00  0.00     0.024 C 
ATOM      7  C   UNL A   1      37.636  23.898  25.502  1.00  0.00     0.024 C 
BRANCH   5   8
ATOM      8  C   UNL A   1      35.665  22.490  26.085  1.00  0.00     0.073 C 
BRANCH   8   9
ATOM      9  C   UNL A   1      34.449  23.117  25.576  1.00  0.00     0.034 A 
ATOM     10  C   UNL A   1      30.645  25.037  23.776  1.00  0.00    -0.045 A 
ATOM     11  C   UNL A   1      31.598  25.700  23.028  1.00  0.00     0.006 A 
ATOM     12  C   UNL A   1      30.994  23.848  24.530  1.00  0.00     0.015 A 
ATOM     13  C   UNL A   1      32.912  25.458  23.308  1.00  0.00     0.027 A 
ATOM     14  C   UNL A   1      32.348  23.567  24.840  1.00  0.00     0.014 A 
ATOM     15  C   UNL A   1      33.232  24.488  24.278  1.00  0.00     0.050 A 
ATOM     16  C   UNL A   1      33.190  22.564  25.542  1.00  0.00     0.037 A 
ATOM     17  N   UNL A   1      34.380  24.369  25.019  1.00  0.00    -0.339 N 
BRANCH  10  18
ATOM     18  C   UNL A   1      29.273  25.681  23.858  1.00  0.00     0.013 C 
ATOM     19  C   UNL A   1      28.840  25.660  25.316  1.00  0.00     0.012 C 
ATOM     20  C   UNL A   1      29.126  27.148  23.375  1.00  0.00     0.012 C 
ENDBRANCH  10  18
BRANCH  16  21
ATOM     21  S   UNL A   1      32.824  20.877  26.176  1.00  0.00    -0.118 SA
BRANCH  21  22
ATOM     22  C   UNL A   1      33.062  19.402  24.808  1.00  0.00     0.012 C 
ATOM     23  C   UNL A   1      32.387  19.501  23.411  1.00  0.00     0.023 C 
ATOM     24  C   UNL A   1      34.526  18.940  24.555  1.00  0.00     0.023 C 
ATOM     25  C   UNL A   1      32.484  18.151  25.519  1.00  0.00     0.023 C 
ENDBRANCH  21  22
ENDBRANCH  16  21
BRANCH  17  26
ATOM     26  C   UNL A   1      35.043  25.597  25.399  1.00  0.00     0.158 C 
BRANCH  26  27
ATOM     27  C   UNL A   1      34.217  26.809  25.269  1.00  0.00    -0.028 A 
ATOM     28  C   UNL A   1      34.291  28.134  24.003  1.00  0.00     0.007 A 
ATOM     29  C   UNL A   1      32.980  26.970  26.623  1.00  0.00     0.007 A 
ATOM     30  C   UNL A   1      32.974  29.390  23.914  1.00  0.00     0.021 A 
ATOM     31  C   UNL A   1      31.720  28.256  26.525  1.00  0.00     0.021 A 
ATOM     32  C   UNL A   1      31.669  29.393  25.146  1.00  0.00     0.041 A 
ATOM     33  Cl  UNL A   1      30.692  30.817  25.289  1.00  0.00    -0.084 Cl
ENDBRANCH  26  27
ENDBRANCH  17  26
ENDBRANCH   8   9
ENDBRANCH   5   8
ENDBRANCH   3   5
ENDBRANCH   2   3
ENDBRANCH   1   2
BRANCH   1  34
ATOM     34  C   UNL A   1      40.594  19.818  26.514  1.00  0.00     0.275 C 
BRANCH  34  35
ATOM     35  O   UNL A   1      41.532  19.080  25.668  1.00  0.00    -0.458 OA
BRANCH  35  36
ATOM     36  C   UNL A   1      43.036  19.477  25.493  1.00  0.00     0.338 C 
ATOM     37  O   UNL A   1      43.512  18.326  25.266  1.00  0.00    -0.246 OA
BRANCH  36  38
ATOM     38  C   UNL A   1      43.811  21.491  25.520  1.00  0.00     0.060 A 
ATOM     39  C   UNL A   1      44.553  22.282  26.564  1.00  0.00     0.016 A 
ATOM     40  C   UNL A   1      43.356  22.770  24.741  1.00  0.00     0.016 A 
ATOM     41  C   UNL A   1      44.341  23.714  27.009  1.00  0.00     0.010 A 
ATOM     42  C   UNL A   1      43.124  24.209  25.195  1.00  0.00     0.010 A 
ATOM     43  C   UNL A   1      43.452  24.679  26.454  1.00  0.00    -0.014 A 
BRANCH  43  44
ATOM     44  C   UNL A   1      43.204  26.133  27.156  1.00  0.00     0.031 A 
ATOM     45  C   UNL A   1      44.423  26.918  26.990  1.00  0.00     0.074 A 
ATOM     46  C   UNL A   1      42.304  26.931  27.892  1.00  0.00     0.049 A 
ATOM     47  N   UNL A   1      45.311  27.135  27.903  1.00  0.00    -0.248 NA
ATOM     48  C   UNL A   1      44.758  27.369  25.639  1.00  0.00     0.031 C 
ATOM     49  C   UNL A   1      41.032  26.514  28.368  1.00  0.00     0.029 A 
ATOM     50  N   UNL A   1      42.288  28.241  28.530  1.00  0.00    -0.354 N 
ATOM     51  C   UNL A   1      46.125  28.070  27.316  1.00  0.00     0.074 A 
ATOM     52  C   UNL A   1      45.918  27.978  25.885  1.00  0.00     0.031 C 
ATOM     53  C   UNL A   1      40.242  27.436  28.929  1.00  0.00     0.029 A 
ATOM     54  C   UNL A   1      40.987  28.650  29.049  1.00  0.00     0.049 A 
ATOM     55  H   UNL A   1      43.092  28.805  28.605  1.00  0.00     0.167 HD
ATOM     56  C   UNL A   1      46.534  29.135  28.042  1.00  0.00     0.037 A 
ATOM     57  C   UNL A   1      40.440  29.661  29.819  1.00  0.00     0.037 A 
ATOM     58  C   UNL A   1      46.488  28.965  29.470  1.00  0.00     0.049 A 
ATOM     59  C   UNL A   1      41.500  30.310  30.607  1.00  0.00     0.074 A 
ATOM     60  C   UNL A   1      47.279  28.372  30.425  1.00  0.00     0.029 A 
ATOM     61  N   UNL A   1      45.317  29.300  30.096  1.00  0.00    -0.354 N 
ATOM     62  N   UNL A   1      41.934  29.878  31.756  1.00  0.00    -0.248 NA
ATOM     63  C   UNL A   1      42.305  31.335  29.965  1.00  0.00     0.031 C 
ATOM     64  C   UNL A   1      46.575  28.447  31.662  1.00  0.00     0.029 A 
ATOM     65  C   UNL A   1      45.373  29.118  31.467  1.00  0.00     0.049 A 
ATOM     66  H   UNL A   1      44.522  29.634  29.623  1.00  0.00     0.167 HD
ATOM     67  C   UNL A   1      43.255  30.269  31.794  1.00  0.00     0.074 A 
ATOM     68  C   UNL A   1      43.400  31.251  30.720  1.00  0.00     0.031 C 
ATOM     69  C   UNL A   1      44.210  29.442  32.310  1.00  0.00     0.037 A 
BRANCH  56  70
ATOM     70  C   UNL A   1      46.575  30.480  27.398  1.00  0.00     0.058 A 
ATOM     71  C   UNL A   1      47.785  31.165  27.276  1.00  0.00     0.135 A 
ATOM     72  C   UNL A   1      45.399  31.186  27.043  1.00  0.00     0.135 A 
ATOM     73  F   UNL A   1      48.935  30.577  27.641  1.00  0.00    -0.206 F 
ATOM     74  C   UNL A   1      47.832  32.471  26.800  1.00  0.00     0.059 A 
ATOM     75  C   UNL A   1      45.427  32.460  26.504  1.00  0.00     0.059 A 
ATOM     76  F   UNL A   1      44.180  30.670  27.263  1.00  0.00    -0.206 F 
ATOM     77  C   UNL A   1      46.650  33.104  26.410  1.00  0.00     0.060 A 
BRANCH  77  78
ATOM     78  S   UNL A   1      46.722  34.801  25.815  1.00  0.00     0.124 S 
ATOM     79  O   UNL A   1      47.860  34.740  24.907  1.00  0.00    -0.237 OA
ATOM     80  O   UNL A   1      45.411  34.957  25.194  1.00  0.00    -0.237 OA
ATOM     81  O   UNL A   1      46.926  35.577  27.036  1.00  0.00    -0.744 OA
ENDBRANCH  77  78
ENDBRANCH  56  70
BRANCH  57  82
ATOM     82  C   UNL A   1      38.973  30.092  30.018  1.00  0.00     0.058 A 
ATOM     83  C   UNL A   1      38.419  30.464  31.274  1.00  0.00     0.135 A 
ATOM     84  C   UNL A   1      38.138  30.401  28.923  1.00  0.00     0.135 A 
ATOM     85  F   UNL A   1      39.075  30.204  32.416  1.00  0.00    -0.206 F 
ATOM     86  C   UNL A   1      37.212  31.196  31.405  1.00  0.00     0.059 A 
ATOM     87  C   UNL A   1      36.916  31.077  29.031  1.00  0.00     0.059 A 
ATOM     88  F   UNL A   1      38.528  30.159  27.667  1.00  0.00    -0.206 F 
ATOM     89  C   UNL A   1      36.492  31.541  30.265  1.00  0.00     0.060 A 
BRANCH  89  90
ATOM     90  S   UNL A   1      35.173  32.790  30.333  1.00  0.00     0.124 S 
ATOM     91  O   UNL A   1      35.916  34.038  30.449  1.00  0.00    -0.237 OA
ATOM     92  O   UNL A   1      34.479  32.575  29.067  1.00  0.00    -0.237 OA
ATOM     93  O   UNL A   1      34.409  32.410  31.520  1.00  0.00    -0.744 OA
ENDBRANCH  89  90
ENDBRANCH  57  82
BRANCH  69  94
ATOM     94  C   UNL A   1      44.011  28.805  33.686  1.00  0.00     0.058 A 
ATOM     95  C   UNL A   1      43.257  27.652  34.005  1.00  0.00     0.135 A 
ATOM     96  C   UNL A   1      44.718  29.364  34.774  1.00  0.00     0.135 A 
ATOM     97  F   UNL A   1      42.593  26.965  33.066  1.00  0.00    -0.206 F 
ATOM     98  C   UNL A   1      43.264  27.075  35.296  1.00  0.00     0.059 A 
ATOM     99  C   UNL A   1      44.808  28.758  36.033  1.00  0.00     0.059 A 
ATOM    100  F   UNL A   1      45.376  30.525  34.626  1.00  0.00    -0.206 F 
ATOM    101  C   UNL A   1      44.100  27.592  36.287  1.00  0.00     0.060 A 
BRANCH 101 102
ATOM    102  S   UNL A   1      44.259  26.779  37.912  1.00  0.00     0.124 S 
ATOM    103  O   UNL A   1      42.901  26.317  38.175  1.00  0.00    -0.237 OA
ATOM    104  O   UNL A   1      45.242  25.726  37.683  1.00  0.00    -0.237 OA
ATOM    105  O   UNL A   1      44.730  27.859  38.775  1.00  0.00    -0.744 OA
ENDBRANCH 101 102
ENDBRANCH  69  94
ENDBRANCH  43  44
ENDBRANCH  36  38
ENDBRANCH  35  36
ENDBRANCH  34  35
ENDBRANCH   1  34
TORSDOF 21
ENDMDL
MODEL 2
REMARK VINA RESULT:     -11.0      5.534     11.774
REMARK SMILES CC(C)c1ccc2c(c1)c(SC(C)(C)C)c(CC(C)(C)C(=O)OCCOC(=O)c1ccc(-c3c4nc(c(-c5c(F)cc(S(=O)(=O)[O-])cc5F)c5ccc([nH]5)c(-c5c(F)cc(S(=O)(=O)[O-])cc5F)c5nc(c(-c6c(F)cc(S(=O)(=O)[O-])cc6F)c6ccc3[nH]6)C=C5)C=C4)cc1)n2Cc1ccc(Cl)cc1
REMARK SMILES IDX 24 1 23 2 21 3 22 4 18 5 19 6 20 7 17 8 16 9 4 10 5 11 9 12
REMARK SMILES IDX 6 13 8 14 7 15 10 16 95 17 2 18 1 19 3 20 11 21 12 22 13 23
REMARK SMILES IDX 14 24 15 25 96 26 97 27 98 28 103 29 99 30 102 31 100 32
REMARK SMILES IDX 101 33 25 34 26 35 27 36 28 37 29 38 30 39 94 40 31 41 93 42
REMARK SMILES IDX 32 43 33 44 34 45 87 46 35 47 92 48 86 49 88 50 36 51 91 52
REMARK SMILES IDX 85 53 84 54 37 56 71 57 50 58 70 59 51 60 54 61 69 62 89 63
REMARK SMILES IDX 52 64 53 65 68 67 90 68 55 69 38 70 39 71 48 72 40 73 41 74
REMARK SMILES IDX 47 75 49 76 42 77 43 78 44 79 45 80 46 81 72 82 73 83 82 84
REMARK SMILES IDX 74 85 75 86 81 87 83 88 76 89 77 90 78 91 79 92 80 93 56 94
REMARK SMILES IDX 57 95 66 96 58 97 59 98 65 99 67 100 60 101 61 102 62 103
REMARK SMILES IDX 63 104 64 105
REMARK H PARENT 88 55 54 66
REMARK Flexibility Score: inf
ROOT
ATOM      1  C   UNL A   1      42.726  35.400  32.685  1.00  0.00     0.274 C 
ENDROOT
BRANCH   1   2
ATOM      2  O   UNL A   1      41.627  34.919  31.890  1.00  0.00    -0.462 OA
BRANCH   2   3
ATOM      3  C   UNL A   1      40.708  34.186  32.566  1.00  0.00     0.312 C 
ATOM      4  O   UNL A   1      40.812  33.919  33.759  1.00  0.00    -0.252 OA
BRANCH   3   5
ATOM      5  C   UNL A   1      39.538  33.709  31.705  1.00  0.00     0.068 C 
ATOM      6  C   UNL A   1      40.190  33.720  30.309  1.00  0.00     0.024 C 
ATOM      7  C   UNL A   1      38.308  34.650  31.689  1.00  0.00     0.024 C 
BRANCH   5   8
ATOM      8  C   UNL A   1      39.042  32.309  32.123  1.00  0.00     0.073 C 
BRANCH   8   9
ATOM      9  C   UNL A   1      39.357  31.203  31.223  1.00  0.00     0.034 A 
ATOM     10  C   UNL A   1      40.426  27.836  28.238  1.00  0.00    -0.045 A 
ATOM     11  C   UNL A   1      39.564  28.565  27.443  1.00  0.00     0.006 A 
ATOM     12  C   UNL A   1      40.977  28.411  29.451  1.00  0.00     0.015 A 
ATOM     13  C   UNL A   1      38.950  29.651  27.997  1.00  0.00     0.027 A 
ATOM     14  C   UNL A   1      40.363  29.536  30.053  1.00  0.00     0.014 A 
ATOM     15  C   UNL A   1      39.288  30.025  29.312  1.00  0.00     0.050 A 
ATOM     16  C   UNL A   1      40.505  30.445  31.221  1.00  0.00     0.037 A 
ATOM     17  N   UNL A   1      38.550  30.759  30.206  1.00  0.00    -0.339 N 
BRANCH  10  18
ATOM     18  C   UNL A   1      40.663  26.391  27.840  1.00  0.00     0.013 C 
ATOM     19  C   UNL A   1      39.788  25.518  28.727  1.00  0.00     0.012 C 
ATOM     20  C   UNL A   1      40.356  25.977  26.376  1.00  0.00     0.012 C 
ENDBRANCH  10  18
BRANCH  16  21
ATOM     21  S   UNL A   1      41.877  30.709  32.416  1.00  0.00    -0.118 SA
BRANCH  21  22
ATOM     22  C   UNL A   1      41.481  30.066  34.295  1.00  0.00     0.012 C 
ATOM     23  C   UNL A   1      42.257  30.647  35.512  1.00  0.00     0.023 C 
ATOM     24  C   UNL A   1      39.980  30.044  34.704  1.00  0.00     0.023 C 
ATOM     25  C   UNL A   1      41.784  28.546  34.231  1.00  0.00     0.023 C 
ENDBRANCH  21  22
ENDBRANCH  16  21
BRANCH  17  26
ATOM     26  C   UNL A   1      37.114  30.600  30.156  1.00  0.00     0.158 C 
BRANCH  26  27
ATOM     27  C   UNL A   1      36.364  31.848  29.933  1.00  0.00    -0.028 A 
ATOM     28  C   UNL A   1      36.348  32.946  28.464  1.00  0.00     0.007 A 
ATOM     29  C   UNL A   1      35.348  32.332  31.391  1.00  0.00     0.007 A 
ATOM     30  C   UNL A   1      35.123  34.289  28.338  1.00  0.00     0.021 A 
ATOM     31  C   UNL A   1      34.180  33.697  31.243  1.00  0.00     0.021 A 
ATOM     32  C   UNL A   1      34.011  34.605  29.712  1.00  0.00     0.041 A 
ATOM     33  Cl  UNL A   1      33.166  36.117  29.740  1.00  0.00    -0.084 Cl
ENDBRANCH  26  27
ENDBRANCH  17  26
ENDBRANCH   8   9
ENDBRANCH   5   8
ENDBRANCH   3   5
ENDBRANCH   2   3
ENDBRANCH   1   2
BRANCH   1  34
ATOM     34  C   UNL A   1      43.835  35.956  31.771  1.00  0.00     0.275 C 
BRANCH  34  35
ATOM     35  O   UNL A   1      43.257  36.633  30.610  1.00  0.00    -0.458 OA
BRANCH  35  36
ATOM     36  C   UNL A   1      43.607  36.265  29.129  1.00  0.00     0.338 C 
ATOM     37  O   UNL A   1      43.958  37.412  28.725  1.00  0.00    -0.246 OA
BRANCH  36  38
ATOM     38  C   UNL A   1      43.573  34.276  28.293  1.00  0.00     0.060 A 
ATOM     39  C   UNL A   1      43.527  32.908  28.921  1.00  0.00     0.016 A 
ATOM     40  C   UNL A   1      44.117  33.733  26.929  1.00  0.00     0.016 A 
ATOM     41  C   UNL A   1      44.323  31.668  28.572  1.00  0.00     0.010 A 
ATOM     42  C   UNL A   1      44.937  32.493  26.582  1.00  0.00     0.010 A 
ATOM     43  C   UNL A   1      45.226  31.486  27.487  1.00  0.00    -0.014 A 
BRANCH  43  44
ATOM     44  C   UNL A   1      46.149  30.146  27.343  1.00  0.00     0.031 A 
ATOM     45  C   UNL A   1      45.285  28.989  27.550  1.00  0.00     0.074 A 
ATOM     46  C   UNL A   1      47.452  29.648  27.136  1.00  0.00     0.049 A 
ATOM     47  N   UNL A   1      45.219  28.279  28.628  1.00  0.00    -0.248 NA
ATOM     48  C   UNL A   1      44.290  28.695  26.518  1.00  0.00     0.031 C 
ATOM     49  C   UNL A   1      48.625  30.437  26.998  1.00  0.00     0.029 A 
ATOM     50  N   UNL A   1      48.129  28.357  27.118  1.00  0.00    -0.354 N 
ATOM     51  C   UNL A   1      44.433  27.223  28.246  1.00  0.00     0.074 A 
ATOM     52  C   UNL A   1      43.687  27.645  27.078  1.00  0.00     0.031 C 
ATOM     53  C   UNL A   1      49.762  29.815  26.668  1.00  0.00     0.029 A 
ATOM     54  C   UNL A   1      49.522  28.406  26.685  1.00  0.00     0.049 A 
ATOM     55  H   UNL A   1      47.682  27.519  27.378  1.00  0.00     0.167 HD
ATOM     56  C   UNL A   1      44.791  25.970  28.610  1.00  0.00     0.037 A 
ATOM     57  C   UNL A   1      50.622  27.570  26.606  1.00  0.00     0.037 A 
ATOM     58  C   UNL A   1      45.673  25.883  29.743  1.00  0.00     0.049 A 
ATOM     59  C   UNL A   1      50.438  26.427  27.513  1.00  0.00     0.074 A 
ATOM     60  C   UNL A   1      45.540  25.935  31.111  1.00  0.00     0.029 A 
ATOM     61  N   UNL A   1      47.017  25.929  29.488  1.00  0.00    -0.354 N 
ATOM     62  N   UNL A   1      50.729  26.438  28.783  1.00  0.00    -0.248 NA
ATOM     63  C   UNL A   1      49.644  25.302  27.050  1.00  0.00     0.031 C 
ATOM     64  C   UNL A   1      46.853  25.920  31.664  1.00  0.00     0.029 A 
ATOM     65  C   UNL A   1      47.784  25.823  30.636  1.00  0.00     0.049 A 
ATOM     66  H   UNL A   1      47.398  26.026  28.586  1.00  0.00     0.167 HD
ATOM     67  C   UNL A   1      49.832  25.559  29.349  1.00  0.00     0.074 A 
ATOM     68  C   UNL A   1      49.261  24.811  28.229  1.00  0.00     0.031 C 
ATOM     69  C   UNL A   1      49.253  25.836  30.554  1.00  0.00     0.037 A 
BRANCH  56  70
ATOM     70  C   UNL A   1      44.641  24.858  27.627  1.00  0.00     0.058 A 
ATOM     71  C   UNL A   1      43.770  23.800  27.890  1.00  0.00     0.135 A 
ATOM     72  C   UNL A   1      45.477  24.734  26.490  1.00  0.00     0.135 A 
ATOM     73  F   UNL A   1      42.985  23.824  28.978  1.00  0.00    -0.206 F 
ATOM     74  C   UNL A   1      43.709  22.688  27.056  1.00  0.00     0.059 A 
ATOM     75  C   UNL A   1      45.387  23.671  25.609  1.00  0.00     0.059 A 
ATOM     76  F   UNL A   1      46.448  25.624  26.235  1.00  0.00    -0.206 F 
ATOM     77  C   UNL A   1      44.514  22.639  25.915  1.00  0.00     0.060 A 
BRANCH  77  78
ATOM     78  S   UNL A   1      44.440  21.187  24.855  1.00  0.00     0.124 S 
ATOM     79  O   UNL A   1      43.175  20.593  25.267  1.00  0.00    -0.237 OA
ATOM     80  O   UNL A   1      44.467  21.786  23.524  1.00  0.00    -0.237 OA
ATOM     81  O   UNL A   1      45.641  20.441  25.223  1.00  0.00    -0.744 OA
ENDBRANCH  77  78
ENDBRANCH  56  70
BRANCH  57  82
ATOM     82  C   UNL A   1      51.948  27.723  25.833  1.00  0.00     0.058 A 
ATOM     83  C   UNL A   1      53.105  28.360  26.361  1.00  0.00     0.135 A 
ATOM     84  C   UNL A   1      52.195  27.010  24.641  1.00  0.00     0.135 A 
ATOM     85  F   UNL A   1      53.028  29.109  27.473  1.00  0.00    -0.206 F 
ATOM     86  C   UNL A   1      54.403  28.183  25.821  1.00  0.00     0.059 A 
ATOM     87  C   UNL A   1      53.461  26.863  24.059  1.00  0.00     0.059 A 
ATOM     88  F   UNL A   1      51.224  26.315  24.038  1.00  0.00    -0.206 F 
ATOM     89  C   UNL A   1      54.574  27.387  24.693  1.00  0.00     0.060 A 
BRANCH  89  90
ATOM     90  S   UNL A   1      56.226  26.813  24.194  1.00  0.00     0.124 S 
ATOM     91  O   UNL A   1      56.136  26.796  22.739  1.00  0.00    -0.237 OA
ATOM     92  O   UNL A   1      57.094  27.836  24.769  1.00  0.00    -0.237 OA
ATOM     93  O   UNL A   1      56.331  25.498  24.825  1.00  0.00    -0.744 OA
ENDBRANCH  89  90
ENDBRANCH  57  82
BRANCH  69  94
ATOM     94  C   UNL A   1      50.122  26.240  31.746  1.00  0.00     0.058 A 
ATOM     95  C   UNL A   1      50.334  27.539  32.262  1.00  0.00     0.135 A 
ATOM     96  C   UNL A   1      50.733  25.206  32.490  1.00  0.00     0.135 A 
ATOM     97  F   UNL A   1      49.757  28.616  31.712  1.00  0.00    -0.206 F 
ATOM     98  C   UNL A   1      51.047  27.772  33.461  1.00  0.00     0.059 A 
ATOM     99  C   UNL A   1      51.366  25.408  33.723  1.00  0.00     0.059 A 
ATOM    100  F   UNL A   1      50.705  23.941  32.038  1.00  0.00    -0.206 F 
ATOM    101  C   UNL A   1      51.499  26.695  34.225  1.00  0.00     0.060 A 
BRANCH 101 102
ATOM    102  S   UNL A   1      52.278  26.949  35.854  1.00  0.00     0.124 S 
ATOM    103  O   UNL A   1      53.643  26.485  35.633  1.00  0.00    -0.237 OA
ATOM    104  O   UNL A   1      52.137  28.381  36.091  1.00  0.00    -0.237 OA
ATOM    105  O   UNL A   1      51.471  26.113  36.739  1.00  0.00    -0.744 OA
ENDBRANCH 101 102
ENDBRANCH  69  94
ENDBRANCH  43  44
ENDBRANCH  36  38
ENDBRANCH  35  36
ENDBRANCH  34  35
ENDBRANCH   1  34
TORSDOF 21
ENDMDL
MODEL 3
REMARK VINA RESULT:     -10.4      8.640     17.292
REMARK SMILES CC(C)c1ccc2c(c1)c(SC(C)(C)C)c(CC(C)(C)C(=O)OCCOC(=O)c1ccc(-c3c4nc(c(-c5c(F)cc(S(=O)(=O)[O-])cc5F)c5ccc([nH]5)c(-c5c(F)cc(S(=O)(=O)[O-])cc5F)c5nc(c(-c6c(F)cc(S(=O)(=O)[O-])cc6F)c6ccc3[nH]6)C=C5)C=C4)cc1)n2Cc1ccc(Cl)cc1
REMARK SMILES IDX 24 1 23 2 21 3 22 4 18 5 19 6 20 7 17 8 16 9 4 10 5 11 9 12
REMARK SMILES IDX 6 13 8 14 7 15 10 16 95 17 2 18 1 19 3 20 11 21 12 22 13 23
REMARK SMILES IDX 14 24 15 25 96 26 97 27 98 28 103 29 99 30 102 31 100 32
REMARK SMILES IDX 101 33 25 34 26 35 27 36 28 37 29 38 30 39 94 40 31 41 93 42
REMARK SMILES IDX 32 43 33 44 34 45 87 46 35 47 92 48 86 49 88 50 36 51 91 52
REMARK SMILES IDX 85 53 84 54 37 56 71 57 50 58 70 59 51 60 54 61 69 62 89 63
REMARK SMILES IDX 52 64 53 65 68 67 90 68 55 69 38 70 39 71 48 72 40 73 41 74
REMARK SMILES IDX 47 75 49 76 42 77 43 78 44 79 45 80 46 81 72 82 73 83 82 84
REMARK SMILES IDX 74 85 75 86 81 87 83 88 76 89 77 90 78 91 79 92 80 93 56 94
REMARK SMILES IDX 57 95 66 96 58 97 59 98 65 99 67 100 60 101 61 102 62 103
REMARK SMILES IDX 63 104 64 105
REMARK H PARENT 88 55 54 66
REMARK Flexibility Score: inf
ROOT
ATOM      1  C   UNL A   1      46.575  40.365  28.201  1.00  0.00     0.274 C 
ENDROOT
BRANCH   1   2
ATOM      2  O   UNL A   1      46.798  41.593  27.483  1.00  0.00    -0.462 OA
BRANCH   2   3
ATOM      3  C   UNL A   1      45.683  42.325  27.241  1.00  0.00     0.312 C 
ATOM      4  O   UNL A   1      44.975  42.780  28.132  1.00  0.00    -0.252 OA
BRANCH   3   5
ATOM      5  C   UNL A   1      45.378  42.519  25.755  1.00  0.00     0.068 C 
ATOM      6  C   UNL A   1      44.834  43.960  25.762  1.00  0.00     0.024 C 
ATOM      7  C   UNL A   1      44.291  41.578  25.180  1.00  0.00     0.024 C 
BRANCH   5   8
ATOM      8  C   UNL A   1      46.637  42.359  24.878  1.00  0.00     0.073 C 
BRANCH   8   9
ATOM      9  C   UNL A   1      47.072  43.535  24.129  1.00  0.00     0.034 A 
ATOM     10  C   UNL A   1      48.287  47.359  21.829  1.00  0.00    -0.045 A 
ATOM     11  C   UNL A   1      47.049  47.145  21.256  1.00  0.00     0.006 A 
ATOM     12  C   UNL A   1      48.661  46.679  23.054  1.00  0.00     0.015 A 
ATOM     13  C   UNL A   1      46.358  46.028  21.628  1.00  0.00     0.027 A 
ATOM     14  C   UNL A   1      47.966  45.516  23.469  1.00  0.00     0.014 A 
ATOM     15  C   UNL A   1      46.895  45.201  22.634  1.00  0.00     0.050 A 
ATOM     16  C   UNL A   1      47.951  44.503  24.557  1.00  0.00     0.037 A 
ATOM     17  N   UNL A   1      46.643  43.874  22.871  1.00  0.00    -0.339 N 
BRANCH  10  18
ATOM     18  C   UNL A   1      49.254  48.236  21.055  1.00  0.00     0.013 C 
ATOM     19  C   UNL A   1      50.483  48.448  21.926  1.00  0.00     0.012 C 
ATOM     20  C   UNL A   1      49.768  47.721  19.685  1.00  0.00     0.012 C 
ENDBRANCH  10  18
BRANCH  16  21
ATOM     21  S   UNL A   1      48.763  44.455  26.206  1.00  0.00    -0.118 SA
BRANCH  21  22
ATOM     22  C   UNL A   1      48.706  46.210  27.215  1.00  0.00     0.012 C 
ATOM     23  C   UNL A   1      49.370  47.486  26.624  1.00  0.00     0.023 C 
ATOM     24  C   UNL A   1      47.307  46.648  27.738  1.00  0.00     0.023 C 
ATOM     25  C   UNL A   1      49.424  45.886  28.551  1.00  0.00     0.023 C 
ENDBRANCH  21  22
ENDBRANCH  16  21
BRANCH  17  26
ATOM     26  C   UNL A   1      46.383  43.040  21.719  1.00  0.00     0.158 C 
BRANCH  26  27
ATOM     27  C   UNL A   1      45.023  43.159  21.167  1.00  0.00    -0.028 A 
ATOM     28  C   UNL A   1      43.408  42.861  21.984  1.00  0.00     0.007 A 
ATOM     29  C   UNL A   1      45.020  43.645  19.391  1.00  0.00     0.007 A 
ATOM     30  C   UNL A   1      41.859  43.342  21.156  1.00  0.00     0.021 A 
ATOM     31  C   UNL A   1      43.461  44.069  18.590  1.00  0.00     0.021 A 
ATOM     32  C   UNL A   1      41.915  44.000  19.486  1.00  0.00     0.041 A 
ATOM     33  Cl  UNL A   1      40.438  44.050  18.583  1.00  0.00    -0.084 Cl
ENDBRANCH  26  27
ENDBRANCH  17  26
ENDBRANCH   8   9
ENDBRANCH   5   8
ENDBRANCH   3   5
ENDBRANCH   2   3
ENDBRANCH   1   2
BRANCH   1  34
ATOM     34  C   UNL A   1      47.632  40.202  29.310  1.00  0.00     0.275 C 
BRANCH  34  35
ATOM     35  O   UNL A   1      47.167  39.265  30.333  1.00  0.00    -0.458 OA
BRANCH  35  36
ATOM     36  C   UNL A   1      47.360  39.495  31.869  1.00  0.00     0.338 C 
ATOM     37  O   UNL A   1      48.383  40.239  31.823  1.00  0.00    -0.246 OA
BRANCH  36  38
ATOM     38  C   UNL A   1      46.042  38.776  33.419  1.00  0.00     0.060 A 
ATOM     39  C   UNL A   1      46.118  37.598  34.354  1.00  0.00     0.016 A 
ATOM     40  C   UNL A   1      44.496  38.939  33.601  1.00  0.00     0.016 A 
ATOM     41  C   UNL A   1      45.036  36.611  34.739  1.00  0.00     0.010 A 
ATOM     42  C   UNL A   1      43.404  37.938  33.968  1.00  0.00     0.010 A 
ATOM     43  C   UNL A   1      43.658  36.642  34.380  1.00  0.00    -0.014 A 
BRANCH  43  44
ATOM     44  C   UNL A   1      42.645  35.406  34.723  1.00  0.00     0.031 A 
ATOM     45  C   UNL A   1      42.979  34.300  33.833  1.00  0.00     0.074 A 
ATOM     46  C   UNL A   1      41.551  34.982  35.505  1.00  0.00     0.049 A 
ATOM     47  N   UNL A   1      42.317  33.954  32.778  1.00  0.00    -0.248 NA
ATOM     48  C   UNL A   1      44.255  33.618  34.050  1.00  0.00     0.031 C 
ATOM     49  C   UNL A   1      40.839  35.788  36.434  1.00  0.00     0.029 A 
ATOM     50  N   UNL A   1      40.690  33.812  35.622  1.00  0.00    -0.354 N 
ATOM     51  C   UNL A   1      42.908  32.768  32.427  1.00  0.00     0.074 A 
ATOM     52  C   UNL A   1      44.219  32.745  33.043  1.00  0.00     0.031 C 
ATOM     53  C   UNL A   1      39.916  35.195  37.198  1.00  0.00     0.029 A 
ATOM     54  C   UNL A   1      39.768  33.844  36.753  1.00  0.00     0.049 A 
ATOM     55  H   UNL A   1      40.728  33.060  34.988  1.00  0.00     0.167 HD
ATOM     56  C   UNL A   1      42.127  31.724  32.067  1.00  0.00     0.037 A 
ATOM     57  C   UNL A   1      38.697  33.122  37.249  1.00  0.00     0.037 A 
ATOM     58  C   UNL A   1      40.802  32.066  31.624  1.00  0.00     0.049 A 
ATOM     59  C   UNL A   1      38.115  32.303  36.174  1.00  0.00     0.074 A 
ATOM     60  C   UNL A   1      40.232  32.525  30.460  1.00  0.00     0.029 A 
ATOM     61  N   UNL A   1      39.829  32.146  32.583  1.00  0.00    -0.354 N 
ATOM     62  N   UNL A   1      37.234  32.729  35.315  1.00  0.00    -0.248 NA
ATOM     63  C   UNL A   1      38.738  31.026  35.868  1.00  0.00     0.031 C 
ATOM     64  C   UNL A   1      38.861  32.794  30.739  1.00  0.00     0.029 A 
ATOM     65  C   UNL A   1      38.587  32.465  32.061  1.00  0.00     0.049 A 
ATOM     66  H   UNL A   1      39.994  31.993  33.542  1.00  0.00     0.167 HD
ATOM     67  C   UNL A   1      37.479  31.994  34.176  1.00  0.00     0.074 A 
ATOM     68  C   UNL A   1      38.340  30.891  34.604  1.00  0.00     0.031 C 
ATOM     69  C   UNL A   1      37.415  32.578  32.944  1.00  0.00     0.037 A 
BRANCH  56  70
ATOM     70  C   UNL A   1      42.483  30.354  32.540  1.00  0.00     0.058 A 
ATOM     71  C   UNL A   1      42.392  30.031  33.894  1.00  0.00     0.135 A 
ATOM     72  C   UNL A   1      43.077  29.391  31.688  1.00  0.00     0.135 A 
ATOM     73  F   UNL A   1      41.887  30.916  34.768  1.00  0.00    -0.206 F 
ATOM     74  C   UNL A   1      42.842  28.807  34.378  1.00  0.00     0.059 A 
ATOM     75  C   UNL A   1      43.469  28.140  32.134  1.00  0.00     0.059 A 
ATOM     76  F   UNL A   1      43.344  29.663  30.402  1.00  0.00    -0.206 F 
ATOM     77  C   UNL A   1      43.368  27.867  33.488  1.00  0.00     0.060 A 
BRANCH  77  78
ATOM     78  S   UNL A   1      43.964  26.295  34.129  1.00  0.00     0.124 S 
ATOM     79  O   UNL A   1      42.730  25.700  34.625  1.00  0.00    -0.237 OA
ATOM     80  O   UNL A   1      44.540  25.683  32.936  1.00  0.00    -0.237 OA
ATOM     81  O   UNL A   1      44.931  26.692  35.149  1.00  0.00    -0.744 OA
ENDBRANCH  77  78
ENDBRANCH  56  70
BRANCH  57  82
ATOM     82  C   UNL A   1      38.027  33.143  38.637  1.00  0.00     0.058 A 
ATOM     83  C   UNL A   1      36.623  33.048  38.842  1.00  0.00     0.135 A 
ATOM     84  C   UNL A   1      38.778  32.994  39.822  1.00  0.00     0.135 A 
ATOM     85  F   UNL A   1      35.768  33.204  37.818  1.00  0.00    -0.206 F 
ATOM     86  C   UNL A   1      36.041  32.701  40.087  1.00  0.00     0.059 A 
ATOM     87  C   UNL A   1      38.223  32.702  41.075  1.00  0.00     0.059 A 
ATOM     88  F   UNL A   1      40.115  33.011  39.800  1.00  0.00    -0.206 F 
ATOM     89  C   UNL A   1      36.861  32.481  41.190  1.00  0.00     0.060 A 
BRANCH  89  90
ATOM     90  S   UNL A   1      36.222  31.666  42.684  1.00  0.00     0.124 S 
ATOM     91  O   UNL A   1      37.036  30.459  42.767  1.00  0.00    -0.237 OA
ATOM     92  O   UNL A   1      36.466  32.673  43.712  1.00  0.00    -0.237 OA
ATOM     93  O   UNL A   1      34.811  31.443  42.370  1.00  0.00    -0.744 OA
ENDBRANCH  89  90
ENDBRANCH  57  82
BRANCH  69  94
ATOM     94  C   UNL A   1      36.187  33.403  32.550  1.00  0.00     0.058 A 
ATOM     95  C   UNL A   1      35.006  32.949  31.920  1.00  0.00     0.135 A 
ATOM     96  C   UNL A   1      36.168  34.765  32.922  1.00  0.00     0.135 A 
ATOM     97  F   UNL A   1      34.843  31.664  31.576  1.00  0.00    -0.206 F 
ATOM     98  C   UNL A   1      33.878  33.780  31.735  1.00  0.00     0.059 A 
ATOM     99  C   UNL A   1      35.032  35.578  32.829  1.00  0.00     0.059 A 
ATOM    100  F   UNL A   1      37.272  35.344  33.423  1.00  0.00    -0.206 F 
ATOM    101  C   UNL A   1      33.871  35.074  32.258  1.00  0.00     0.060 A 
BRANCH 101 102
ATOM    102  S   UNL A   1      32.379  36.119  32.184  1.00  0.00     0.124 S 
ATOM    103  O   UNL A   1      32.667  37.161  33.163  1.00  0.00    -0.237 OA
ATOM    104  O   UNL A   1      32.330  36.564  30.796  1.00  0.00    -0.237 OA
ATOM    105  O   UNL A   1      31.310  35.194  32.553  1.00  0.00    -0.744 OA
ENDBRANCH 101 102
ENDBRANCH  69  94
ENDBRANCH  43  44
ENDBRANCH  36  38
ENDBRANCH  35  36
ENDBRANCH  34  35
ENDBRANCH   1  34
TORSDOF 21
ENDMDL
