MODEL 1
REMARK VINA RESULT:     -12.4      0.000      0.000
REMARK SMILES O=C(OCCOC(=O)[C@H]1CCCN(C(=O)C2CCN(S(=O)(=O)c3ccccc3)CC2)C1)c1ccc(-c2c3nc(c(-c4c(F)cc(S(=O)(=O)[O-])cc4F)c4ccc([nH]4)c(-c4c(F)cc(S(=O)(=O)[O-])cc4F)c4nc(c(-c5c(F)cc(S(=O)(=O)[O-])cc5F)c5ccc2[nH]5)C=C4)C=C3)cc1
REMARK SMILES IDX 5 1 4 2 3 3 2 4 1 5 32 6 33 7 97 8 34 9 96 10 35 11 36 12
REMARK SMILES IDX 37 13 90 14 38 15 95 16 89 17 91 18 39 19 94 20 88 21 87 22
REMARK SMILES IDX 40 24 74 25 53 26 73 27 54 28 57 29 72 30 92 31 55 32 56 33
REMARK SMILES IDX 71 35 93 36 58 37 41 38 42 39 51 40 43 41 44 42 50 43 52 44
REMARK SMILES IDX 45 45 46 46 47 47 48 48 49 49 75 50 76 51 85 52 77 53 78 54
REMARK SMILES IDX 84 55 86 56 79 57 80 58 81 59 82 60 83 61 59 62 60 63 69 64
REMARK SMILES IDX 61 65 62 66 68 67 70 68 63 69 64 70 65 71 66 72 67 73 6 74
REMARK SMILES IDX 7 75 8 76 9 77 10 78 31 79 11 80 13 81 12 82 14 83 15 84
REMARK SMILES IDX 16 85 17 86 30 87 18 88 29 89 19 90 20 91 21 92 22 93 23 94
REMARK SMILES IDX 24 95 28 96 25 97 27 98 26 99
REMARK H PARENT 91 23 57 34
REMARK Flexibility Score: inf
ROOT
ATOM      1  C   UNL A   1      39.674  21.549  25.979  1.00  0.00     0.274 C 
ENDROOT
BRANCH   1   2
ATOM      2  C   UNL A   1      40.007  22.585  27.058  1.00  0.00     0.275 C 
BRANCH   2   3
ATOM      3  O   UNL A   1      39.764  23.933  26.625  1.00  0.00    -0.458 OA
BRANCH   3   4
ATOM      4  C   UNL A   1      40.645  24.965  26.688  1.00  0.00     0.338 C 
ATOM      5  O   UNL A   1      41.606  24.976  25.920  1.00  0.00    -0.246 OA
BRANCH   4   6
ATOM      6  C   UNL A   1      40.638  25.941  27.825  1.00  0.00     0.060 A 
ATOM      7  C   UNL A   1      41.611  26.908  28.110  1.00  0.00     0.016 A 
ATOM      8  C   UNL A   1      39.540  25.845  28.694  1.00  0.00     0.016 A 
ATOM      9  C   UNL A   1      41.464  27.798  29.194  1.00  0.00     0.010 A 
ATOM     10  C   UNL A   1      39.380  26.744  29.751  1.00  0.00     0.010 A 
ATOM     11  C   UNL A   1      40.341  27.735  30.020  1.00  0.00    -0.014 A 
BRANCH  11  12
ATOM     12  C   UNL A   1      40.198  28.537  31.273  1.00  0.00     0.031 A 
ATOM     13  C   UNL A   1      39.232  29.693  31.228  1.00  0.00     0.074 A 
ATOM     14  C   UNL A   1      40.991  28.359  32.352  1.00  0.00     0.049 A 
ATOM     15  N   UNL A   1      39.139  30.744  31.994  1.00  0.00    -0.248 NA
ATOM     16  C   UNL A   1      38.278  29.680  30.104  1.00  0.00     0.031 C 
ATOM     17  C   UNL A   1      42.010  27.322  32.496  1.00  0.00     0.029 A 
ATOM     18  N   UNL A   1      41.141  29.125  33.490  1.00  0.00    -0.354 N 
ATOM     19  C   UNL A   1      38.138  31.526  31.427  1.00  0.00     0.074 A 
ATOM     20  C   UNL A   1      37.736  30.881  30.199  1.00  0.00     0.031 C 
ATOM     21  C   UNL A   1      42.763  27.586  33.580  1.00  0.00     0.029 A 
ATOM     22  C   UNL A   1      42.266  28.800  34.226  1.00  0.00     0.049 A 
ATOM     23  H   UNL A   1      40.509  29.833  33.753  1.00  0.00     0.167 HD
ATOM     24  C   UNL A   1      37.557  32.648  31.913  1.00  0.00     0.037 A 
ATOM     25  C   UNL A   1      42.861  29.457  35.247  1.00  0.00     0.037 A 
ATOM     26  C   UNL A   1      37.935  33.255  33.156  1.00  0.00     0.049 A 
ATOM     27  C   UNL A   1      42.239  30.738  35.752  1.00  0.00     0.074 A 
ATOM     28  C   UNL A   1      37.352  34.320  33.814  1.00  0.00     0.029 A 
ATOM     29  N   UNL A   1      39.007  32.834  33.930  1.00  0.00    -0.354 N 
ATOM     30  N   UNL A   1      41.218  31.411  35.275  1.00  0.00    -0.248 NA
ATOM     31  C   UNL A   1      42.832  31.328  36.964  1.00  0.00     0.031 C 
ATOM     32  C   UNL A   1      38.086  34.558  34.982  1.00  0.00     0.029 A 
ATOM     33  C   UNL A   1      39.108  33.623  35.059  1.00  0.00     0.049 A 
ATOM     34  H   UNL A   1      39.605  32.084  33.709  1.00  0.00     0.167 HD
ATOM     35  C   UNL A   1      41.047  32.495  36.126  1.00  0.00     0.074 A 
ATOM     36  C   UNL A   1      42.068  32.398  37.147  1.00  0.00     0.031 C 
ATOM     37  C   UNL A   1      40.111  33.474  36.080  1.00  0.00     0.037 A 
BRANCH  24  38
ATOM     38  C   UNL A   1      36.436  33.235  31.101  1.00  0.00     0.058 A 
ATOM     39  C   UNL A   1      36.693  33.932  29.905  1.00  0.00     0.135 A 
ATOM     40  C   UNL A   1      35.108  33.176  31.549  1.00  0.00     0.135 A 
ATOM     41  F   UNL A   1      37.947  34.024  29.432  1.00  0.00    -0.206 F 
ATOM     42  C   UNL A   1      35.694  34.629  29.240  1.00  0.00     0.059 A 
ATOM     43  C   UNL A   1      34.085  33.837  30.877  1.00  0.00     0.059 A 
ATOM     44  F   UNL A   1      34.799  32.505  32.669  1.00  0.00    -0.206 F 
ATOM     45  C   UNL A   1      34.395  34.594  29.747  1.00  0.00     0.060 A 
BRANCH  45  46
ATOM     46  S   UNL A   1      33.123  35.580  28.930  1.00  0.00     0.124 S 
ATOM     47  O   UNL A   1      32.346  36.049  30.074  1.00  0.00    -0.237 OA
ATOM     48  O   UNL A   1      33.905  36.598  28.237  1.00  0.00    -0.237 OA
ATOM     49  O   UNL A   1      32.452  34.613  28.067  1.00  0.00    -0.744 OA
ENDBRANCH  45  46
ENDBRANCH  24  38
BRANCH  25  50
ATOM     50  C   UNL A   1      44.172  28.995  35.799  1.00  0.00     0.058 A 
ATOM     51  C   UNL A   1      45.397  29.539  35.390  1.00  0.00     0.135 A 
ATOM     52  C   UNL A   1      44.219  27.980  36.768  1.00  0.00     0.135 A 
ATOM     53  F   UNL A   1      45.429  30.481  34.434  1.00  0.00    -0.206 F 
ATOM     54  C   UNL A   1      46.607  29.140  35.962  1.00  0.00     0.059 A 
ATOM     55  C   UNL A   1      45.407  27.573  37.365  1.00  0.00     0.059 A 
ATOM     56  F   UNL A   1      43.097  27.345  37.130  1.00  0.00    -0.206 F 
ATOM     57  C   UNL A   1      46.599  28.166  36.962  1.00  0.00     0.060 A 
BRANCH  57  58
ATOM     58  S   UNL A   1      48.127  27.699  37.805  1.00  0.00     0.124 S 
ATOM     59  O   UNL A   1      47.956  28.339  39.104  1.00  0.00    -0.237 OA
ATOM     60  O   UNL A   1      48.072  26.240  37.803  1.00  0.00    -0.237 OA
ATOM     61  O   UNL A   1      49.147  28.280  36.937  1.00  0.00    -0.744 OA
ENDBRANCH  57  58
ENDBRANCH  25  50
BRANCH  37  62
ATOM     62  C   UNL A   1      40.066  34.450  37.216  1.00  0.00     0.058 A 
ATOM     63  C   UNL A   1      40.727  35.683  37.162  1.00  0.00     0.135 A 
ATOM     64  C   UNL A   1      39.237  34.185  38.318  1.00  0.00     0.135 A 
ATOM     65  F   UNL A   1      41.535  35.974  36.130  1.00  0.00    -0.206 F 
ATOM     66  C   UNL A   1      40.551  36.636  38.159  1.00  0.00     0.059 A 
ATOM     67  C   UNL A   1      39.036  35.128  39.317  1.00  0.00     0.059 A 
ATOM     68  F   UNL A   1      38.582  33.016  38.405  1.00  0.00    -0.206 F 
ATOM     69  C   UNL A   1      39.693  36.355  39.226  1.00  0.00     0.060 A 
BRANCH  69  70
ATOM     70  S   UNL A   1      39.378  37.638  40.456  1.00  0.00     0.124 S 
ATOM     71  O   UNL A   1      40.623  38.396  40.416  1.00  0.00    -0.237 OA
ATOM     72  O   UNL A   1      38.204  38.315  39.912  1.00  0.00    -0.237 OA
ATOM     73  O   UNL A   1      39.142  36.881  41.682  1.00  0.00    -0.744 OA
ENDBRANCH  69  70
ENDBRANCH  37  62
ENDBRANCH  11  12
ENDBRANCH   4   6
ENDBRANCH   3   4
ENDBRANCH   2   3
ENDBRANCH   1   2
BRANCH   1  74
ATOM     74  O   UNL A   1      38.396  21.821  25.391  1.00  0.00    -0.462 OA
BRANCH  74  75
ATOM     75  C   UNL A   1      37.631  20.756  25.010  1.00  0.00     0.310 C 
ATOM     76  O   UNL A   1      38.063  19.621  24.856  1.00  0.00    -0.252 OA
BRANCH  75  77
ATOM     77  C   UNL A   1      36.159  21.138  24.832  1.00  0.00     0.119 C 
ATOM     78  C   UNL A   1      35.269  19.885  24.860  1.00  0.00     0.019 C 
ATOM     79  C   UNL A   1      35.736  22.200  25.871  1.00  0.00     0.134 C 
ATOM     80  C   UNL A   1      33.798  20.186  25.045  1.00  0.00     0.022 C 
ATOM     81  N   UNL A   1      34.266  22.283  26.017  1.00  0.00    -0.342 N 
ATOM     82  C   UNL A   1      33.667  21.013  26.306  1.00  0.00     0.119 C 
BRANCH  81  83
ATOM     83  C   UNL A   1      33.536  23.368  25.569  1.00  0.00     0.225 C 
ATOM     84  O   UNL A   1      33.251  24.277  26.361  1.00  0.00    -0.275 OA
BRANCH  83  85
ATOM     85  C   UNL A   1      33.072  23.515  24.081  1.00  0.00     0.081 C 
ATOM     86  C   UNL A   1      33.592  24.699  23.285  1.00  0.00     0.030 C 
ATOM     87  C   UNL A   1      31.626  23.191  23.718  1.00  0.00     0.030 C 
ATOM     88  C   UNL A   1      32.632  25.839  22.987  1.00  0.00     0.103 C 
ATOM     89  C   UNL A   1      30.644  24.351  23.599  1.00  0.00     0.103 C 
ATOM     90  N   UNL A   1      31.150  25.563  22.921  1.00  0.00    -0.198 NA
BRANCH  90  91
ATOM     91  S   UNL A   1      30.324  27.050  23.372  1.00  0.00     0.243 S 
ATOM     92  O   UNL A   1      30.440  27.926  22.218  1.00  0.00    -0.207 OA
ATOM     93  O   UNL A   1      29.039  26.651  23.887  1.00  0.00    -0.207 OA
BRANCH  91  94
ATOM     94  C   UNL A   1      31.183  27.887  24.681  1.00  0.00     0.082 A 
ATOM     95  C   UNL A   1      31.277  27.244  25.924  1.00  0.00     0.022 A 
ATOM     96  C   UNL A   1      31.388  29.269  24.594  1.00  0.00     0.022 A 
ATOM     97  C   UNL A   1      31.574  27.983  27.070  1.00  0.00     0.001 A 
ATOM     98  C   UNL A   1      31.704  30.000  25.742  1.00  0.00     0.001 A 
ATOM     99  C   UNL A   1      31.784  29.358  26.979  1.00  0.00     0.000 A 
ENDBRANCH  91  94
ENDBRANCH  90  91
ENDBRANCH  83  85
ENDBRANCH  81  83
ENDBRANCH  75  77
ENDBRANCH  74  75
ENDBRANCH   1  74
TORSDOF 18
ENDMDL
MODEL 2
REMARK VINA RESULT:     -12.3      1.381      8.207
REMARK SMILES O=C(OCCOC(=O)[C@H]1CCCN(C(=O)C2CCN(S(=O)(=O)c3ccccc3)CC2)C1)c1ccc(-c2c3nc(c(-c4c(F)cc(S(=O)(=O)[O-])cc4F)c4ccc([nH]4)c(-c4c(F)cc(S(=O)(=O)[O-])cc4F)c4nc(c(-c5c(F)cc(S(=O)(=O)[O-])cc5F)c5ccc2[nH]5)C=C4)C=C3)cc1
REMARK SMILES IDX 5 1 4 2 3 3 2 4 1 5 32 6 33 7 97 8 34 9 96 10 35 11 36 12
REMARK SMILES IDX 37 13 90 14 38 15 95 16 89 17 91 18 39 19 94 20 88 21 87 22
REMARK SMILES IDX 40 24 74 25 53 26 73 27 54 28 57 29 72 30 92 31 55 32 56 33
REMARK SMILES IDX 71 35 93 36 58 37 41 38 42 39 51 40 43 41 44 42 50 43 52 44
REMARK SMILES IDX 45 45 46 46 47 47 48 48 49 49 75 50 76 51 85 52 77 53 78 54
REMARK SMILES IDX 84 55 86 56 79 57 80 58 81 59 82 60 83 61 59 62 60 63 69 64
REMARK SMILES IDX 61 65 62 66 68 67 70 68 63 69 64 70 65 71 66 72 67 73 6 74
REMARK SMILES IDX 7 75 8 76 9 77 10 78 31 79 11 80 13 81 12 82 14 83 15 84
REMARK SMILES IDX 16 85 17 86 30 87 18 88 29 89 19 90 20 91 21 92 22 93 23 94
REMARK SMILES IDX 24 95 28 96 25 97 27 98 26 99
REMARK H PARENT 91 23 57 34
REMARK Flexibility Score: inf
ROOT
ATOM      1  C   UNL A   1      39.897  22.157  26.890  1.00  0.00     0.274 C 
ENDROOT
BRANCH   1   2
ATOM      2  C   UNL A   1      41.293  22.275  26.269  1.00  0.00     0.275 C 
BRANCH   2   3
ATOM      3  O   UNL A   1      42.033  23.396  26.777  1.00  0.00    -0.458 OA
BRANCH   3   4
ATOM      4  C   UNL A   1      41.795  24.705  26.501  1.00  0.00     0.338 C 
ATOM      5  O   UNL A   1      42.010  25.124  25.365  1.00  0.00    -0.246 OA
BRANCH   4   6
ATOM      6  C   UNL A   1      41.538  25.706  27.587  1.00  0.00     0.060 A 
ATOM      7  C   UNL A   1      40.432  25.752  28.445  1.00  0.00     0.016 A 
ATOM      8  C   UNL A   1      42.513  26.706  27.725  1.00  0.00     0.016 A 
ATOM      9  C   UNL A   1      40.330  26.728  29.458  1.00  0.00     0.010 A 
ATOM     10  C   UNL A   1      42.426  27.657  28.746  1.00  0.00     0.010 A 
ATOM     11  C   UNL A   1      41.332  27.684  29.628  1.00  0.00    -0.014 A 
BRANCH  11  12
ATOM     12  C   UNL A   1      41.212  28.838  30.571  1.00  0.00     0.031 A 
ATOM     13  C   UNL A   1      41.935  28.710  31.887  1.00  0.00     0.074 A 
ATOM     14  C   UNL A   1      40.384  29.882  30.352  1.00  0.00     0.049 A 
ATOM     15  N   UNL A   1      41.759  29.349  33.011  1.00  0.00    -0.248 NA
ATOM     16  C   UNL A   1      42.963  27.654  31.948  1.00  0.00     0.031 C 
ATOM     17  C   UNL A   1      39.578  30.089  29.151  1.00  0.00     0.029 A 
ATOM     18  N   UNL A   1      39.995  30.909  31.189  1.00  0.00    -0.354 N 
ATOM     19  C   UNL A   1      42.631  28.751  33.914  1.00  0.00     0.074 A 
ATOM     20  C   UNL A   1      43.251  27.635  33.237  1.00  0.00     0.031 C 
ATOM     21  C   UNL A   1      38.702  31.087  29.371  1.00  0.00     0.029 A 
ATOM     22  C   UNL A   1      38.898  31.610  30.722  1.00  0.00     0.049 A 
ATOM     23  H   UNL A   1      40.454  31.120  32.034  1.00  0.00     0.167 HD
ATOM     24  C   UNL A   1      42.942  29.131  35.177  1.00  0.00     0.037 A 
ATOM     25  C   UNL A   1      38.105  32.508  31.350  1.00  0.00     0.037 A 
ATOM     26  C   UNL A   1      42.352  30.268  35.823  1.00  0.00     0.049 A 
ATOM     27  C   UNL A   1      38.423  32.890  32.777  1.00  0.00     0.074 A 
ATOM     28  C   UNL A   1      42.661  30.825  37.048  1.00  0.00     0.029 A 
ATOM     29  N   UNL A   1      41.323  31.022  35.278  1.00  0.00    -0.354 N 
ATOM     30  N   UNL A   1      39.329  32.397  33.588  1.00  0.00    -0.248 NA
ATOM     31  C   UNL A   1      37.629  33.985  33.360  1.00  0.00     0.031 C 
ATOM     32  C   UNL A   1      41.802  31.911  37.255  1.00  0.00     0.029 A 
ATOM     33  C   UNL A   1      40.978  32.039  36.146  1.00  0.00     0.049 A 
ATOM     34  H   UNL A   1      40.902  30.858  34.403  1.00  0.00     0.167 HD
ATOM     35  C   UNL A   1      39.215  33.119  34.769  1.00  0.00     0.074 A 
ATOM     36  C   UNL A   1      38.152  34.082  34.576  1.00  0.00     0.031 C 
ATOM     37  C   UNL A   1      39.943  33.010  35.907  1.00  0.00     0.037 A 
BRANCH  24  38
ATOM     38  C   UNL A   1      43.990  28.322  35.888  1.00  0.00     0.058 A 
ATOM     39  C   UNL A   1      45.360  28.575  35.691  1.00  0.00     0.135 A 
ATOM     40  C   UNL A   1      43.637  27.239  36.708  1.00  0.00     0.135 A 
ATOM     41  F   UNL A   1      45.754  29.596  34.913  1.00  0.00    -0.206 F 
ATOM     42  C   UNL A   1      46.337  27.728  36.198  1.00  0.00     0.059 A 
ATOM     43  C   UNL A   1      44.602  26.399  37.256  1.00  0.00     0.059 A 
ATOM     44  F   UNL A   1      42.347  26.965  36.952  1.00  0.00    -0.206 F 
ATOM     45  C   UNL A   1      45.946  26.628  36.961  1.00  0.00     0.060 A 
BRANCH  45  46
ATOM     46  S   UNL A   1      47.215  25.481  37.536  1.00  0.00     0.124 S 
ATOM     47  O   UNL A   1      47.985  26.333  38.438  1.00  0.00    -0.237 OA
ATOM     48  O   UNL A   1      46.429  24.431  38.175  1.00  0.00    -0.237 OA
ATOM     49  O   UNL A   1      47.896  25.091  36.305  1.00  0.00    -0.744 OA
ENDBRANCH  45  46
ENDBRANCH  24  38
BRANCH  25  50
ATOM     50  C   UNL A   1      36.869  33.033  30.693  1.00  0.00     0.058 A 
ATOM     51  C   UNL A   1      35.585  32.580  31.028  1.00  0.00     0.135 A 
ATOM     52  C   UNL A   1      36.955  34.022  29.700  1.00  0.00     0.135 A 
ATOM     53  F   UNL A   1      35.433  31.603  31.936  1.00  0.00    -0.206 F 
ATOM     54  C   UNL A   1      34.438  33.126  30.449  1.00  0.00     0.059 A 
ATOM     55  C   UNL A   1      35.829  34.595  29.118  1.00  0.00     0.059 A 
ATOM     56  F   UNL A   1      38.152  34.428  29.259  1.00  0.00    -0.206 F 
ATOM     57  C   UNL A   1      34.571  34.147  29.506  1.00  0.00     0.060 A 
BRANCH  57  58
ATOM     58  S   UNL A   1      33.112  34.957  28.814  1.00  0.00     0.124 S 
ATOM     59  O   UNL A   1      32.630  33.949  27.877  1.00  0.00    -0.237 OA
ATOM     60  O   UNL A   1      32.274  35.187  29.988  1.00  0.00    -0.237 OA
ATOM     61  O   UNL A   1      33.683  36.161  28.217  1.00  0.00    -0.744 OA
ENDBRANCH  57  58
ENDBRANCH  25  50
BRANCH  37  62
ATOM     62  C   UNL A   1      39.705  34.021  36.986  1.00  0.00     0.058 A 
ATOM     63  C   UNL A   1      38.876  33.753  38.083  1.00  0.00     0.135 A 
ATOM     64  C   UNL A   1      40.426  35.225  36.974  1.00  0.00     0.135 A 
ATOM     65  F   UNL A   1      38.162  32.617  38.132  1.00  0.00    -0.206 F 
ATOM     66  C   UNL A   1      38.786  34.643  39.148  1.00  0.00     0.059 A 
ATOM     67  C   UNL A   1      40.362  36.120  38.034  1.00  0.00     0.059 A 
ATOM     68  F   UNL A   1      41.235  35.517  35.943  1.00  0.00    -0.206 F 
ATOM     69  C   UNL A   1      39.543  35.817  39.121  1.00  0.00     0.060 A 
BRANCH  69  70
ATOM     70  S   UNL A   1      39.511  36.911  40.557  1.00  0.00     0.124 S 
ATOM     71  O   UNL A   1      40.931  37.028  40.869  1.00  0.00    -0.237 OA
ATOM     72  O   UNL A   1      38.876  38.113  40.023  1.00  0.00    -0.237 OA
ATOM     73  O   UNL A   1      38.712  36.169  41.529  1.00  0.00    -0.744 OA
ENDBRANCH  69  70
ENDBRANCH  37  62
ENDBRANCH  11  12
ENDBRANCH   4   6
ENDBRANCH   3   4
ENDBRANCH   2   3
ENDBRANCH   1   2
BRANCH   1  74
ATOM     74  O   UNL A   1      38.893  22.082  25.871  1.00  0.00    -0.462 OA
BRANCH  74  75
ATOM     75  C   UNL A   1      37.976  23.092  25.805  1.00  0.00     0.310 C 
ATOM     76  O   UNL A   1      38.171  24.225  26.227  1.00  0.00    -0.252 OA
BRANCH  75  77
ATOM     77  C   UNL A   1      36.685  22.655  25.108  1.00  0.00     0.119 C 
ATOM     78  C   UNL A   1      36.518  21.128  25.190  1.00  0.00     0.019 C 
ATOM     79  C   UNL A   1      35.468  23.424  25.667  1.00  0.00     0.134 C 
ATOM     80  C   UNL A   1      35.124  20.649  24.848  1.00  0.00     0.022 C 
ATOM     81  N   UNL A   1      34.189  22.755  25.346  1.00  0.00    -0.342 N 
ATOM     82  C   UNL A   1      34.163  21.383  25.759  1.00  0.00     0.119 C 
BRANCH  81  83
ATOM     83  C   UNL A   1      33.285  23.279  24.440  1.00  0.00     0.225 C 
ATOM     84  O   UNL A   1      33.589  23.336  23.241  1.00  0.00    -0.275 OA
BRANCH  83  85
ATOM     85  C   UNL A   1      31.864  23.783  24.864  1.00  0.00     0.081 C 
ATOM     86  C   UNL A   1      30.802  23.909  23.787  1.00  0.00     0.030 C 
ATOM     87  C   UNL A   1      31.750  24.903  25.894  1.00  0.00     0.030 C 
ATOM     88  C   UNL A   1      30.414  25.304  23.323  1.00  0.00     0.103 C 
ATOM     89  C   UNL A   1      31.537  26.323  25.383  1.00  0.00     0.103 C 
ATOM     90  N   UNL A   1      30.585  26.473  24.261  1.00  0.00    -0.198 NA
BRANCH  90  91
ATOM     91  S   UNL A   1      30.845  27.903  23.269  1.00  0.00     0.243 S 
ATOM     92  O   UNL A   1      32.046  28.530  23.796  1.00  0.00    -0.207 OA
ATOM     93  O   UNL A   1      30.768  27.458  21.901  1.00  0.00    -0.207 OA
BRANCH  91  94
ATOM     94  C   UNL A   1      29.552  29.095  23.513  1.00  0.00     0.082 A 
ATOM     95  C   UNL A   1      28.294  28.826  22.954  1.00  0.00     0.022 A 
ATOM     96  C   UNL A   1      29.884  30.403  23.884  1.00  0.00     0.022 A 
ATOM     97  C   UNL A   1      27.378  29.862  22.766  1.00  0.00     0.001 A 
ATOM     98  C   UNL A   1      28.955  31.432  23.713  1.00  0.00     0.001 A 
ATOM     99  C   UNL A   1      27.710  31.163  23.144  1.00  0.00     0.000 A 
ENDBRANCH  91  94
ENDBRANCH  90  91
ENDBRANCH  83  85
ENDBRANCH  81  83
ENDBRANCH  75  77
ENDBRANCH  74  75
ENDBRANCH   1  74
TORSDOF 18
ENDMDL
MODEL 3
REMARK VINA RESULT:     -12.3      6.537     11.950
REMARK SMILES O=C(OCCOC(=O)[C@H]1CCCN(C(=O)C2CCN(S(=O)(=O)c3ccccc3)CC2)C1)c1ccc(-c2c3nc(c(-c4c(F)cc(S(=O)(=O)[O-])cc4F)c4ccc([nH]4)c(-c4c(F)cc(S(=O)(=O)[O-])cc4F)c4nc(c(-c5c(F)cc(S(=O)(=O)[O-])cc5F)c5ccc2[nH]5)C=C4)C=C3)cc1
REMARK SMILES IDX 5 1 4 2 3 3 2 4 1 5 32 6 33 7 97 8 34 9 96 10 35 11 36 12
REMARK SMILES IDX 37 13 90 14 38 15 95 16 89 17 91 18 39 19 94 20 88 21 87 22
REMARK SMILES IDX 40 24 74 25 53 26 73 27 54 28 57 29 72 30 92 31 55 32 56 33
REMARK SMILES IDX 71 35 93 36 58 37 41 38 42 39 51 40 43 41 44 42 50 43 52 44
REMARK SMILES IDX 45 45 46 46 47 47 48 48 49 49 75 50 76 51 85 52 77 53 78 54
REMARK SMILES IDX 84 55 86 56 79 57 80 58 81 59 82 60 83 61 59 62 60 63 69 64
REMARK SMILES IDX 61 65 62 66 68 67 70 68 63 69 64 70 65 71 66 72 67 73 6 74
REMARK SMILES IDX 7 75 8 76 9 77 10 78 31 79 11 80 13 81 12 82 14 83 15 84
REMARK SMILES IDX 16 85 17 86 30 87 18 88 29 89 19 90 20 91 21 92 22 93 23 94
REMARK SMILES IDX 24 95 28 96 25 97 27 98 26 99
REMARK H PARENT 91 23 57 34
REMARK Flexibility Score: inf
ROOT
ATOM      1  C   UNL A   1      34.178  31.079  28.096  1.00  0.00     0.274 C 
ENDROOT
BRANCH   1   2
ATOM      2  C   UNL A   1      35.263  32.160  28.125  1.00  0.00     0.275 C 
BRANCH   2   3
ATOM      3  O   UNL A   1      35.966  32.206  29.377  1.00  0.00    -0.458 OA
BRANCH   3   4
ATOM      4  C   UNL A   1      36.539  31.151  30.014  1.00  0.00     0.338 C 
ATOM      5  O   UNL A   1      36.053  30.759  31.073  1.00  0.00    -0.246 OA
BRANCH   4   6
ATOM      6  C   UNL A   1      37.886  30.626  29.617  1.00  0.00     0.060 A 
ATOM      7  C   UNL A   1      38.265  30.152  28.355  1.00  0.00     0.016 A 
ATOM      8  C   UNL A   1      38.845  30.598  30.640  1.00  0.00     0.016 A 
ATOM      9  C   UNL A   1      39.584  29.721  28.100  1.00  0.00     0.010 A 
ATOM     10  C   UNL A   1      40.159  30.197  30.381  1.00  0.00     0.010 A 
ATOM     11  C   UNL A   1      40.549  29.750  29.107  1.00  0.00    -0.014 A 
BRANCH  11  12
ATOM     12  C   UNL A   1      41.915  29.163  28.951  1.00  0.00     0.031 A 
ATOM     13  C   UNL A   1      43.048  30.135  28.747  1.00  0.00     0.074 A 
ATOM     14  C   UNL A   1      42.134  27.835  28.836  1.00  0.00     0.049 A 
ATOM     15  N   UNL A   1      44.242  29.948  28.256  1.00  0.00    -0.248 NA
ATOM     16  C   UNL A   1      42.751  31.538  29.091  1.00  0.00     0.031 C 
ATOM     17  C   UNL A   1      41.114  26.793  28.946  1.00  0.00     0.029 A 
ATOM     18  N   UNL A   1      43.274  27.141  28.485  1.00  0.00    -0.354 N 
ATOM     19  C   UNL A   1      44.822  31.210  28.208  1.00  0.00     0.074 A 
ATOM     20  C   UNL A   1      43.814  32.161  28.615  1.00  0.00     0.031 C 
ATOM     21  C   UNL A   1      41.635  25.619  28.545  1.00  0.00     0.029 A 
ATOM     22  C   UNL A   1      43.034  25.816  28.170  1.00  0.00     0.049 A 
ATOM     23  H   UNL A   1      44.169  27.550  28.462  1.00  0.00     0.167 HD
ATOM     24  C   UNL A   1      46.100  31.549  27.913  1.00  0.00     0.037 A 
ATOM     25  C   UNL A   1      43.834  24.901  27.576  1.00  0.00     0.037 A 
ATOM     26  C   UNL A   1      47.104  30.591  27.553  1.00  0.00     0.049 A 
ATOM     27  C   UNL A   1      45.243  25.299  27.200  1.00  0.00     0.074 A 
ATOM     28  C   UNL A   1      48.455  30.788  27.345  1.00  0.00     0.029 A 
ATOM     29  N   UNL A   1      46.852  29.241  27.352  1.00  0.00    -0.354 N 
ATOM     30  N   UNL A   1      45.820  26.475  27.266  1.00  0.00    -0.248 NA
ATOM     31  C   UNL A   1      46.122  24.227  26.704  1.00  0.00     0.031 C 
ATOM     32  C   UNL A   1      49.021  29.555  26.996  1.00  0.00     0.029 A 
ATOM     33  C   UNL A   1      48.023  28.592  27.013  1.00  0.00     0.049 A 
ATOM     34  H   UNL A   1      45.971  28.811  27.438  1.00  0.00     0.167 HD
ATOM     35  C   UNL A   1      47.123  26.284  26.824  1.00  0.00     0.074 A 
ATOM     36  C   UNL A   1      47.255  24.882  26.488  1.00  0.00     0.031 C 
ATOM     37  C   UNL A   1      48.130  27.185  26.726  1.00  0.00     0.037 A 
BRANCH  24  38
ATOM     38  C   UNL A   1      46.455  33.006  28.019  1.00  0.00     0.058 A 
ATOM     39  C   UNL A   1      46.277  33.878  26.928  1.00  0.00     0.135 A 
ATOM     40  C   UNL A   1      47.049  33.525  29.179  1.00  0.00     0.135 A 
ATOM     41  F   UNL A   1      45.718  33.433  25.791  1.00  0.00    -0.206 F 
ATOM     42  C   UNL A   1      46.762  35.179  26.950  1.00  0.00     0.059 A 
ATOM     43  C   UNL A   1      47.510  34.837  29.234  1.00  0.00     0.059 A 
ATOM     44  F   UNL A   1      47.222  32.748  30.258  1.00  0.00    -0.206 F 
ATOM     45  C   UNL A   1      47.398  35.642  28.101  1.00  0.00     0.060 A 
BRANCH  45  46
ATOM     46  S   UNL A   1      48.109  37.301  28.086  1.00  0.00     0.124 S 
ATOM     47  O   UNL A   1      49.510  37.010  27.792  1.00  0.00    -0.237 OA
ATOM     48  O   UNL A   1      47.363  37.958  27.018  1.00  0.00    -0.237 OA
ATOM     49  O   UNL A   1      47.838  37.795  29.432  1.00  0.00    -0.744 OA
ENDBRANCH  45  46
ENDBRANCH  24  38
BRANCH  25  50
ATOM     50  C   UNL A   1      43.309  23.556  27.191  1.00  0.00     0.058 A 
ATOM     51  C   UNL A   1      42.966  23.229  25.871  1.00  0.00     0.135 A 
ATOM     52  C   UNL A   1      43.142  22.552  28.158  1.00  0.00     0.135 A 
ATOM     53  F   UNL A   1      43.057  24.155  24.904  1.00  0.00    -0.206 F 
ATOM     54  C   UNL A   1      42.537  21.948  25.519  1.00  0.00     0.059 A 
ATOM     55  C   UNL A   1      42.732  21.264  27.834  1.00  0.00     0.059 A 
ATOM     56  F   UNL A   1      43.353  22.825  29.452  1.00  0.00    -0.206 F 
ATOM     57  C   UNL A   1      42.439  20.966  26.507  1.00  0.00     0.060 A 
BRANCH  57  58
ATOM     58  S   UNL A   1      41.995  19.269  26.078  1.00  0.00     0.124 S 
ATOM     59  O   UNL A   1      40.564  19.392  25.824  1.00  0.00    -0.237 OA
ATOM     60  O   UNL A   1      42.826  18.995  24.909  1.00  0.00    -0.237 OA
ATOM     61  O   UNL A   1      42.367  18.539  27.287  1.00  0.00    -0.744 OA
ENDBRANCH  57  58
ENDBRANCH  25  50
BRANCH  37  62
ATOM     62  C   UNL A   1      49.488  26.676  26.353  1.00  0.00     0.058 A 
ATOM     63  C   UNL A   1      49.987  26.779  25.048  1.00  0.00     0.135 A 
ATOM     64  C   UNL A   1      50.343  26.196  27.357  1.00  0.00     0.135 A 
ATOM     65  F   UNL A   1      49.201  27.226  24.056  1.00  0.00    -0.206 F 
ATOM     66  C   UNL A   1      51.303  26.439  24.754  1.00  0.00     0.059 A 
ATOM     67  C   UNL A   1      51.665  25.865  27.088  1.00  0.00     0.059 A 
ATOM     68  F   UNL A   1      49.905  26.086  28.622  1.00  0.00    -0.206 F 
ATOM     69  C   UNL A   1      52.138  25.996  25.783  1.00  0.00     0.060 A 
BRANCH  69  70
ATOM     70  S   UNL A   1      53.876  25.668  25.418  1.00  0.00     0.124 S 
ATOM     71  O   UNL A   1      54.535  26.768  26.111  1.00  0.00    -0.237 OA
ATOM     72  O   UNL A   1      54.074  24.342  25.996  1.00  0.00    -0.237 OA
ATOM     73  O   UNL A   1      53.930  25.720  23.959  1.00  0.00    -0.744 OA
ENDBRANCH  69  70
ENDBRANCH  37  62
ENDBRANCH  11  12
ENDBRANCH   4   6
ENDBRANCH   3   4
ENDBRANCH   2   3
ENDBRANCH   1   2
BRANCH   1  74
ATOM     74  O   UNL A   1      33.771  30.803  26.750  1.00  0.00    -0.462 OA
BRANCH  74  75
ATOM     75  C   UNL A   1      32.445  30.575  26.519  1.00  0.00     0.310 C 
ATOM     76  O   UNL A   1      31.557  31.383  26.761  1.00  0.00    -0.252 OA
BRANCH  75  77
ATOM     77  C   UNL A   1      32.197  29.202  25.888  1.00  0.00     0.119 C 
ATOM     78  C   UNL A   1      31.248  29.324  24.686  1.00  0.00     0.019 C 
ATOM     79  C   UNL A   1      33.532  28.510  25.533  1.00  0.00     0.134 C 
ATOM     80  C   UNL A   1      31.227  28.099  23.799  1.00  0.00     0.022 C 
ATOM     81  N   UNL A   1      33.349  27.411  24.561  1.00  0.00    -0.342 N 
ATOM     82  C   UNL A   1      32.655  27.828  23.378  1.00  0.00     0.119 C 
BRANCH  81  83
ATOM     83  C   UNL A   1      33.499  26.081  24.908  1.00  0.00     0.225 C 
ATOM     84  O   UNL A   1      33.259  25.725  26.070  1.00  0.00    -0.275 OA
BRANCH  83  85
ATOM     85  C   UNL A   1      33.936  24.985  23.878  1.00  0.00     0.081 C 
ATOM     86  C   UNL A   1      32.849  24.220  23.147  1.00  0.00     0.030 C 
ATOM     87  C   UNL A   1      35.125  24.087  24.208  1.00  0.00     0.030 C 
ATOM     88  C   UNL A   1      32.594  22.776  23.549  1.00  0.00     0.103 C 
ATOM     89  C   UNL A   1      34.836  22.704  24.779  1.00  0.00     0.103 C 
ATOM     90  N   UNL A   1      33.712  21.968  24.160  1.00  0.00    -0.198 NA
BRANCH  90  91
ATOM     91  S   UNL A   1      32.972  20.757  25.200  1.00  0.00     0.243 S 
ATOM     92  O   UNL A   1      33.773  20.742  26.413  1.00  0.00    -0.207 OA
ATOM     93  O   UNL A   1      31.565  21.067  25.232  1.00  0.00    -0.207 OA
BRANCH  91  94
ATOM     94  C   UNL A   1      33.141  19.130  24.510  1.00  0.00     0.082 A 
ATOM     95  C   UNL A   1      34.301  18.402  24.815  1.00  0.00     0.022 A 
ATOM     96  C   UNL A   1      32.362  18.768  23.404  1.00  0.00     0.022 A 
ATOM     97  C   UNL A   1      34.676  17.322  24.016  1.00  0.00     0.001 A 
ATOM     98  C   UNL A   1      32.733  17.673  22.620  1.00  0.00     0.001 A 
ATOM     99  C   UNL A   1      33.894  16.961  22.919  1.00  0.00     0.000 A 
ENDBRANCH  91  94
ENDBRANCH  90  91
ENDBRANCH  83  85
ENDBRANCH  81  83
ENDBRANCH  75  77
ENDBRANCH  74  75
ENDBRANCH   1  74
TORSDOF 18
ENDMDL
