MODEL 1
REMARK VINA RESULT:     -10.4      0.000      0.000
REMARK SMILES CC[N@@H+](C[C@@H]1CCCO1)[C@@H](C)c1ccc(C(=O)OCCOC(=O)c2ccc(-c3c4nc(c(-c5c(F)cc(S(=O)(=O)[O-])cc5F)c5ccc([nH]5)c(-c5c(F)cc(S(=O)(=O)[O-])cc5F)c5nc(c(-c6c(F)cc(S(=O)(=O)[O-])cc6F)c6ccc3[nH]6)C=C5)C=C4)cc2)o1
REMARK SMILES IDX 19 1 18 2 16 3 17 4 15 5 12 6 13 7 90 8 14 9 10 10 11 11
REMARK SMILES IDX 3 12 2 14 1 15 4 16 5 17 6 18 9 19 7 20 8 21 20 22 21 23
REMARK SMILES IDX 22 24 23 25 24 26 25 27 89 28 26 29 88 30 27 31 28 32 29 33
REMARK SMILES IDX 82 34 30 35 87 36 81 37 83 38 31 39 86 40 80 41 79 42 32 44
REMARK SMILES IDX 66 45 45 46 65 47 46 48 49 49 64 50 84 51 47 52 48 53 63 55
REMARK SMILES IDX 85 56 50 57 33 58 34 59 43 60 35 61 36 62 42 63 44 64 37 65
REMARK SMILES IDX 38 66 39 67 40 68 41 69 67 70 68 71 77 72 69 73 70 74 76 75
REMARK SMILES IDX 78 76 71 77 72 78 73 79 74 80 75 81 51 82 52 83 61 84 53 85
REMARK SMILES IDX 54 86 60 87 62 88 55 89 56 90 57 91 58 92 59 93
REMARK H PARENT 3 13 83 43 49 54
REMARK Flexibility Score: inf
ROOT
ATOM      1  C   UNL A   1      35.845  32.877  28.672  1.00  0.00     0.275 C 
ENDROOT
BRANCH   1   2
ATOM      2  O   UNL A   1      35.428  31.851  27.755  1.00  0.00    -0.456 OA
BRANCH   2   3
ATOM      3  C   UNL A   1      34.084  31.657  27.627  1.00  0.00     0.374 C 
ATOM      4  O   UNL A   1      33.243  32.547  27.723  1.00  0.00    -0.242 OA
BRANCH   3   5
ATOM      5  C   UNL A   1      33.836  30.291  27.229  1.00  0.00     0.212 A 
ATOM      6  C   UNL A   1      32.724  28.714  26.144  1.00  0.00     0.162 A 
ATOM      7  C   UNL A   1      33.978  28.204  26.419  1.00  0.00     0.053 A 
ATOM      8  O   UNL A   1      32.627  29.975  26.665  1.00  0.00    -0.448 OA
ATOM      9  C   UNL A   1      34.662  29.184  27.175  1.00  0.00     0.059 A 
BRANCH   6  10
ATOM     10  C   UNL A   1      31.553  28.181  25.351  1.00  0.00     0.248 C 
ATOM     11  C   UNL A   1      31.303  26.687  25.604  1.00  0.00     0.084 C 
BRANCH  10  12
ATOM     12  N   UNL A   1      31.586  28.594  23.919  1.00  0.00    -0.324 N 
ATOM     13  H   UNL A   1      31.974  29.536  23.975  1.00  0.00     0.348 HD
BRANCH  12  14
ATOM     14  C   UNL A   1      32.534  27.905  23.038  1.00  0.00     0.259 C 
ATOM     15  C   UNL A   1      33.847  28.597  22.699  1.00  0.00     0.071 C 
ENDBRANCH  12  14
BRANCH  12  16
ATOM     16  C   UNL A   1      30.221  28.650  23.322  1.00  0.00     0.295 C 
BRANCH  16  17
ATOM     17  C   UNL A   1      29.729  29.958  22.649  1.00  0.00     0.173 C 
ATOM     18  C   UNL A   1      28.782  30.837  23.452  1.00  0.00     0.040 C 
ATOM     19  O   UNL A   1      28.978  29.654  21.454  1.00  0.00    -0.372 OA
ATOM     20  C   UNL A   1      28.208  31.710  22.366  1.00  0.00     0.031 C 
ATOM     21  C   UNL A   1      28.064  30.738  21.212  1.00  0.00     0.161 C 
ENDBRANCH  16  17
ENDBRANCH  12  16
ENDBRANCH  10  12
ENDBRANCH   6  10
ENDBRANCH   3   5
ENDBRANCH   2   3
ENDBRANCH   1   2
BRANCH   1  22
ATOM     22  C   UNL A   1      35.897  32.308  30.094  1.00  0.00     0.275 C 
BRANCH  22  23
ATOM     23  O   UNL A   1      36.006  30.871  30.077  1.00  0.00    -0.458 OA
BRANCH  23  24
ATOM     24  C   UNL A   1      36.808  30.334  31.028  1.00  0.00     0.338 C 
ATOM     25  O   UNL A   1      36.528  30.138  32.198  1.00  0.00    -0.246 OA
BRANCH  24  26
ATOM     26  C   UNL A   1      38.079  29.909  30.420  1.00  0.00     0.060 A 
ATOM     27  C   UNL A   1      39.129  29.537  31.261  1.00  0.00     0.016 A 
ATOM     28  C   UNL A   1      38.265  29.954  29.038  1.00  0.00     0.016 A 
ATOM     29  C   UNL A   1      40.378  29.230  30.730  1.00  0.00     0.010 A 
ATOM     30  C   UNL A   1      39.515  29.616  28.503  1.00  0.00     0.010 A 
ATOM     31  C   UNL A   1      40.586  29.263  29.346  1.00  0.00    -0.014 A 
BRANCH  31  32
ATOM     32  C   UNL A   1      41.927  28.947  28.792  1.00  0.00     0.031 A 
ATOM     33  C   UNL A   1      42.241  27.554  28.317  1.00  0.00     0.074 A 
ATOM     34  C   UNL A   1      42.857  29.917  28.703  1.00  0.00     0.049 A 
ATOM     35  N   UNL A   1      43.371  27.068  27.873  1.00  0.00    -0.248 NA
ATOM     36  C   UNL A   1      41.139  26.579  28.353  1.00  0.00     0.031 C 
ATOM     37  C   UNL A   1      42.659  31.313  29.100  1.00  0.00     0.029 A 
ATOM     38  N   UNL A   1      44.153  29.882  28.252  1.00  0.00    -0.354 N 
ATOM     39  C   UNL A   1      43.125  25.728  27.594  1.00  0.00     0.074 A 
ATOM     40  C   UNL A   1      41.745  25.472  27.947  1.00  0.00     0.031 C 
ATOM     41  C   UNL A   1      43.788  32.001  28.866  1.00  0.00     0.029 A 
ATOM     42  C   UNL A   1      44.807  31.087  28.360  1.00  0.00     0.049 A 
ATOM     43  H   UNL A   1      44.575  29.070  27.887  1.00  0.00     0.167 HD
ATOM     44  C   UNL A   1      43.973  24.800  27.085  1.00  0.00     0.037 A 
ATOM     45  C   UNL A   1      46.090  31.413  28.109  1.00  0.00     0.037 A 
ATOM     46  C   UNL A   1      45.343  25.073  26.725  1.00  0.00     0.049 A 
ATOM     47  C   UNL A   1      47.028  30.352  27.601  1.00  0.00     0.074 A 
ATOM     48  C   UNL A   1      46.277  24.208  26.184  1.00  0.00     0.029 A 
ATOM     49  N   UNL A   1      45.976  26.299  26.874  1.00  0.00    -0.354 N 
ATOM     50  N   UNL A   1      46.780  29.091  27.336  1.00  0.00    -0.248 NA
ATOM     51  C   UNL A   1      48.420  30.754  27.358  1.00  0.00     0.031 C 
ATOM     52  C   UNL A   1      47.490  24.894  26.060  1.00  0.00     0.029 A 
ATOM     53  C   UNL A   1      47.296  26.206  26.462  1.00  0.00     0.049 A 
ATOM     54  H   UNL A   1      45.549  27.116  27.221  1.00  0.00     0.167 HD
ATOM     55  C   UNL A   1      47.977  28.558  26.868  1.00  0.00     0.074 A 
ATOM     56  C   UNL A   1      48.944  29.636  26.876  1.00  0.00     0.031 C 
ATOM     57  C   UNL A   1      48.248  27.291  26.467  1.00  0.00     0.037 A 
BRANCH  44  58
ATOM     58  C   UNL A   1      43.457  23.395  26.916  1.00  0.00     0.058 A 
ATOM     59  C   UNL A   1      43.337  22.509  28.000  1.00  0.00     0.135 A 
ATOM     60  C   UNL A   1      43.038  22.941  25.655  1.00  0.00     0.135 A 
ATOM     61  F   UNL A   1      43.734  22.883  29.227  1.00  0.00    -0.206 F 
ATOM     62  C   UNL A   1      42.852  21.214  27.833  1.00  0.00     0.059 A 
ATOM     63  C   UNL A   1      42.521  21.661  25.470  1.00  0.00     0.059 A 
ATOM     64  F   UNL A   1      43.128  23.744  24.583  1.00  0.00    -0.206 F 
ATOM     65  C   UNL A   1      42.446  20.801  26.563  1.00  0.00     0.060 A 
BRANCH  65  66
ATOM     66  S   UNL A   1      41.817  19.119  26.363  1.00  0.00     0.124 S 
ATOM     67  O   UNL A   1      41.769  18.661  27.749  1.00  0.00    -0.237 OA
ATOM     68  O   UNL A   1      40.524  19.342  25.726  1.00  0.00    -0.237 OA
ATOM     69  O   UNL A   1      42.824  18.475  25.526  1.00  0.00    -0.744 OA
ENDBRANCH  65  66
ENDBRANCH  44  58
BRANCH  45  70
ATOM     70  C   UNL A   1      46.564  32.803  28.354  1.00  0.00     0.058 A 
ATOM     71  C   UNL A   1      46.500  33.781  27.351  1.00  0.00     0.135 A 
ATOM     72  C   UNL A   1      47.079  33.184  29.604  1.00  0.00     0.135 A 
ATOM     73  F   UNL A   1      46.025  33.466  26.136  1.00  0.00    -0.206 F 
ATOM     74  C   UNL A   1      46.941  35.082  27.572  1.00  0.00     0.059 A 
ATOM     75  C   UNL A   1      47.498  34.486  29.859  1.00  0.00     0.059 A 
ATOM     76  F   UNL A   1      47.154  32.291  30.603  1.00  0.00    -0.206 F 
ATOM     77  C   UNL A   1      47.435  35.426  28.832  1.00  0.00     0.060 A 
BRANCH  77  78
ATOM     78  S   UNL A   1      47.962  37.130  29.121  1.00  0.00     0.124 S 
ATOM     79  O   UNL A   1      49.297  37.128  28.535  1.00  0.00    -0.237 OA
ATOM     80  O   UNL A   1      46.949  37.890  28.395  1.00  0.00    -0.237 OA
ATOM     81  O   UNL A   1      47.909  37.256  30.574  1.00  0.00    -0.744 OA
ENDBRANCH  77  78
ENDBRANCH  45  70
BRANCH  57  82
ATOM     82  C   UNL A   1      49.636  27.004  25.958  1.00  0.00     0.058 A 
ATOM     83  C   UNL A   1      50.649  26.520  26.800  1.00  0.00     0.135 A 
ATOM     84  C   UNL A   1      49.937  27.166  24.596  1.00  0.00     0.135 A 
ATOM     85  F   UNL A   1      50.419  26.356  28.112  1.00  0.00    -0.206 F 
ATOM     86  C   UNL A   1      51.921  26.228  26.313  1.00  0.00     0.059 A 
ATOM     87  C   UNL A   1      51.190  26.849  24.082  1.00  0.00     0.059 A 
ATOM     88  F   UNL A   1      49.002  27.617  23.745  1.00  0.00    -0.206 F 
ATOM     89  C   UNL A   1      52.179  26.391  24.951  1.00  0.00     0.060 A 
BRANCH  89  90
ATOM     90  S   UNL A   1      53.820  25.970  24.326  1.00  0.00     0.124 S 
ATOM     91  O   UNL A   1      53.987  24.610  24.828  1.00  0.00    -0.237 OA
ATOM     92  O   UNL A   1      53.645  26.096  22.883  1.00  0.00    -0.237 OA
ATOM     93  O   UNL A   1      54.686  26.974  24.936  1.00  0.00    -0.744 OA
ENDBRANCH  89  90
ENDBRANCH  57  82
ENDBRANCH  31  32
ENDBRANCH  24  26
ENDBRANCH  23  24
ENDBRANCH  22  23
ENDBRANCH   1  22
TORSDOF 19
ENDMDL
MODEL 2
REMARK VINA RESULT:     -10.3      7.029     12.083
REMARK SMILES CC[N@@H+](C[C@@H]1CCCO1)[C@@H](C)c1ccc(C(=O)OCCOC(=O)c2ccc(-c3c4nc(c(-c5c(F)cc(S(=O)(=O)[O-])cc5F)c5ccc([nH]5)c(-c5c(F)cc(S(=O)(=O)[O-])cc5F)c5nc(c(-c6c(F)cc(S(=O)(=O)[O-])cc6F)c6ccc3[nH]6)C=C5)C=C4)cc2)o1
REMARK SMILES IDX 19 1 18 2 16 3 17 4 15 5 12 6 13 7 90 8 14 9 10 10 11 11
REMARK SMILES IDX 3 12 2 14 1 15 4 16 5 17 6 18 9 19 7 20 8 21 20 22 21 23
REMARK SMILES IDX 22 24 23 25 24 26 25 27 89 28 26 29 88 30 27 31 28 32 29 33
REMARK SMILES IDX 82 34 30 35 87 36 81 37 83 38 31 39 86 40 80 41 79 42 32 44
REMARK SMILES IDX 66 45 45 46 65 47 46 48 49 49 64 50 84 51 47 52 48 53 63 55
REMARK SMILES IDX 85 56 50 57 33 58 34 59 43 60 35 61 36 62 42 63 44 64 37 65
REMARK SMILES IDX 38 66 39 67 40 68 41 69 67 70 68 71 77 72 69 73 70 74 76 75
REMARK SMILES IDX 78 76 71 77 72 78 73 79 74 80 75 81 51 82 52 83 61 84 53 85
REMARK SMILES IDX 54 86 60 87 62 88 55 89 56 90 57 91 58 92 59 93
REMARK H PARENT 3 13 83 43 49 54
REMARK Flexibility Score: inf
ROOT
ATOM      1  C   UNL A   1      38.289  22.036  25.760  1.00  0.00     0.275 C 
ENDROOT
BRANCH   1   2
ATOM      2  O   UNL A   1      36.873  21.880  25.566  1.00  0.00    -0.456 OA
BRANCH   2   3
ATOM      3  C   UNL A   1      36.453  20.682  25.066  1.00  0.00     0.374 C 
ATOM      4  O   UNL A   1      37.165  19.687  24.962  1.00  0.00    -0.242 OA
BRANCH   3   5
ATOM      5  C   UNL A   1      35.032  20.741  24.817  1.00  0.00     0.212 A 
ATOM      6  C   UNL A   1      33.203  21.663  23.977  1.00  0.00     0.162 A 
ATOM      7  C   UNL A   1      32.916  20.330  24.195  1.00  0.00     0.053 A 
ATOM      8  O   UNL A   1      34.483  21.920  24.385  1.00  0.00    -0.448 OA
ATOM      9  C   UNL A   1      34.059  19.758  24.799  1.00  0.00     0.059 A 
BRANCH   6  10
ATOM     10  C   UNL A   1      32.423  22.788  23.335  1.00  0.00     0.248 C 
ATOM     11  C   UNL A   1      33.271  23.602  22.347  1.00  0.00     0.084 C 
BRANCH  10  12
ATOM     12  N   UNL A   1      31.640  23.586  24.320  1.00  0.00    -0.324 N 
ATOM     13  H   UNL A   1      30.749  23.709  23.839  1.00  0.00     0.348 HD
BRANCH  12  14
ATOM     14  C   UNL A   1      31.246  22.922  25.567  1.00  0.00     0.259 C 
ATOM     15  C   UNL A   1      31.928  23.343  26.861  1.00  0.00     0.071 C 
ENDBRANCH  12  14
BRANCH  12  16
ATOM     16  C   UNL A   1      32.258  24.917  24.578  1.00  0.00     0.295 C 
BRANCH  16  17
ATOM     17  C   UNL A   1      31.453  26.210  24.279  1.00  0.00     0.173 C 
ATOM     18  C   UNL A   1      29.935  26.097  24.281  1.00  0.00     0.040 C 
ATOM     19  O   UNL A   1      31.755  26.693  22.953  1.00  0.00    -0.372 OA
ATOM     20  C   UNL A   1      29.553  27.358  23.548  1.00  0.00     0.031 C 
ATOM     21  C   UNL A   1      30.629  27.455  22.486  1.00  0.00     0.161 C 
ENDBRANCH  16  17
ENDBRANCH  12  16
ENDBRANCH  10  12
ENDBRANCH   6  10
ENDBRANCH   3   5
ENDBRANCH   2   3
ENDBRANCH   1   2
BRANCH   1  22
ATOM     22  C   UNL A   1      38.591  23.463  26.227  1.00  0.00     0.275 C 
BRANCH  22  23
ATOM     23  O   UNL A   1      39.658  23.481  27.196  1.00  0.00    -0.458 OA
BRANCH  23  24
ATOM     24  C   UNL A   1      40.629  24.402  26.980  1.00  0.00     0.338 C 
ATOM     25  O   UNL A   1      41.460  24.395  26.089  1.00  0.00    -0.246 OA
BRANCH  24  26
ATOM     26  C   UNL A   1      40.483  25.507  27.941  1.00  0.00     0.060 A 
ATOM     27  C   UNL A   1      41.546  26.397  28.099  1.00  0.00     0.016 A 
ATOM     28  C   UNL A   1      39.345  25.620  28.739  1.00  0.00     0.016 A 
ATOM     29  C   UNL A   1      41.489  27.393  29.070  1.00  0.00     0.010 A 
ATOM     30  C   UNL A   1      39.277  26.640  29.697  1.00  0.00     0.010 A 
ATOM     31  C   UNL A   1      40.354  27.528  29.878  1.00  0.00    -0.014 A 
BRANCH  31  32
ATOM     32  C   UNL A   1      40.311  28.584  30.921  1.00  0.00     0.031 A 
ATOM     33  C   UNL A   1      41.235  28.517  32.107  1.00  0.00     0.074 A 
ATOM     34  C   UNL A   1      39.450  29.613  30.792  1.00  0.00     0.049 A 
ATOM     35  N   UNL A   1      41.296  29.301  33.152  1.00  0.00    -0.248 NA
ATOM     36  C   UNL A   1      42.214  27.419  32.120  1.00  0.00     0.031 C 
ATOM     37  C   UNL A   1      38.528  29.805  29.670  1.00  0.00     0.029 A 
ATOM     38  N   UNL A   1      39.206  30.690  31.608  1.00  0.00    -0.354 N 
ATOM     39  C   UNL A   1      42.304  28.783  33.957  1.00  0.00     0.074 A 
ATOM     40  C   UNL A   1      42.807  27.600  33.291  1.00  0.00     0.031 C 
ATOM     41  C   UNL A   1      37.829  30.934  29.864  1.00  0.00     0.029 A 
ATOM     42  C   UNL A   1      38.207  31.514  31.148  1.00  0.00     0.049 A 
ATOM     43  H   UNL A   1      39.700  30.855  32.444  1.00  0.00     0.167 HD
ATOM     44  C   UNL A   1      42.769  29.256  35.140  1.00  0.00     0.037 A 
ATOM     45  C   UNL A   1      37.638  32.599  31.711  1.00  0.00     0.037 A 
ATOM     46  C   UNL A   1      42.267  30.444  35.785  1.00  0.00     0.049 A 
ATOM     47  C   UNL A   1      38.130  33.070  33.052  1.00  0.00     0.074 A 
ATOM     48  C   UNL A   1      42.684  31.018  36.974  1.00  0.00     0.029 A 
ATOM     49  N   UNL A   1      41.236  31.237  35.301  1.00  0.00    -0.354 N 
ATOM     50  N   UNL A   1      39.088  32.574  33.799  1.00  0.00    -0.248 NA
ATOM     51  C   UNL A   1      37.466  34.246  33.629  1.00  0.00     0.031 C 
ATOM     52  C   UNL A   1      41.867  32.123  37.237  1.00  0.00     0.029 A 
ATOM     53  C   UNL A   1      40.984  32.279  36.181  1.00  0.00     0.049 A 
ATOM     54  H   UNL A   1      40.754  31.083  34.456  1.00  0.00     0.167 HD
ATOM     55  C   UNL A   1      39.161  33.395  34.920  1.00  0.00     0.074 A 
ATOM     56  C   UNL A   1      38.157  34.425  34.747  1.00  0.00     0.031 C 
ATOM     57  C   UNL A   1      39.986  33.304  35.993  1.00  0.00     0.037 A 
BRANCH  44  58
ATOM     58  C   UNL A   1      43.854  28.473  35.832  1.00  0.00     0.058 A 
ATOM     59  C   UNL A   1      43.566  27.430  36.727  1.00  0.00     0.135 A 
ATOM     60  C   UNL A   1      45.205  28.745  35.563  1.00  0.00     0.135 A 
ATOM     61  F   UNL A   1      42.292  27.133  37.034  1.00  0.00    -0.206 F 
ATOM     62  C   UNL A   1      44.577  26.707  37.356  1.00  0.00     0.059 A 
ATOM     63  C   UNL A   1      46.232  28.015  36.155  1.00  0.00     0.059 A 
ATOM     64  F   UNL A   1      45.541  29.729  34.714  1.00  0.00    -0.206 F 
ATOM     65  C   UNL A   1      45.908  27.008  37.062  1.00  0.00     0.060 A 
BRANCH  65  66
ATOM     66  S   UNL A   1      47.209  26.061  37.883  1.00  0.00     0.124 S 
ATOM     67  O   UNL A   1      46.611  24.730  37.933  1.00  0.00    -0.237 OA
ATOM     68  O   UNL A   1      48.334  26.215  36.968  1.00  0.00    -0.237 OA
ATOM     69  O   UNL A   1      47.355  26.730  39.172  1.00  0.00    -0.744 OA
ENDBRANCH  65  66
ENDBRANCH  44  58
BRANCH  45  70
ATOM     70  C   UNL A   1      36.524  33.298  31.013  1.00  0.00     0.058 A 
ATOM     71  C   UNL A   1      35.199  33.175  31.453  1.00  0.00     0.135 A 
ATOM     72  C   UNL A   1      36.767  34.116  29.897  1.00  0.00     0.135 A 
ATOM     73  F   UNL A   1      34.912  32.398  32.509  1.00  0.00    -0.206 F 
ATOM     74  C   UNL A   1      34.152  33.826  30.807  1.00  0.00     0.059 A 
ATOM     75  C   UNL A   1      35.741  34.800  29.252  1.00  0.00     0.059 A 
ATOM     76  F   UNL A   1      38.018  34.277  29.439  1.00  0.00    -0.206 F 
ATOM     77  C   UNL A   1      34.435  34.640  29.709  1.00  0.00     0.060 A 
BRANCH  77  78
ATOM     78  S   UNL A   1      33.073  35.515  28.906  1.00  0.00     0.124 S 
ATOM     79  O   UNL A   1      32.326  36.013  30.054  1.00  0.00    -0.237 OA
ATOM     80  O   UNL A   1      33.779  36.521  28.119  1.00  0.00    -0.237 OA
ATOM     81  O   UNL A   1      32.414  34.470  28.128  1.00  0.00    -0.744 OA
ENDBRANCH  77  78
ENDBRANCH  45  70
BRANCH  57  82
ATOM     82  C   UNL A   1      39.873  34.371  37.049  1.00  0.00     0.058 A 
ATOM     83  C   UNL A   1      40.549  35.596  36.942  1.00  0.00     0.135 A 
ATOM     84  C   UNL A   1      39.032  34.182  38.158  1.00  0.00     0.135 A 
ATOM     85  F   UNL A   1      41.374  35.826  35.907  1.00  0.00    -0.206 F 
ATOM     86  C   UNL A   1      40.414  36.588  37.908  1.00  0.00     0.059 A 
ATOM     87  C   UNL A   1      38.855  35.173  39.119  1.00  0.00     0.059 A 
ATOM     88  F   UNL A   1      38.354  33.033  38.306  1.00  0.00    -0.206 F 
ATOM     89  C   UNL A   1      39.560  36.369  38.991  1.00  0.00     0.060 A 
BRANCH  89  90
ATOM     90  S   UNL A   1      39.362  37.681  40.216  1.00  0.00     0.124 S 
ATOM     91  O   UNL A   1      38.260  38.451  39.647  1.00  0.00    -0.237 OA
ATOM     92  O   UNL A   1      39.051  36.931  41.427  1.00  0.00    -0.237 OA
ATOM     93  O   UNL A   1      40.660  38.348  40.214  1.00  0.00    -0.744 OA
ENDBRANCH  89  90
ENDBRANCH  57  82
ENDBRANCH  31  32
ENDBRANCH  24  26
ENDBRANCH  23  24
ENDBRANCH  22  23
ENDBRANCH   1  22
TORSDOF 19
ENDMDL
MODEL 3
REMARK VINA RESULT:     -10.1      6.952     12.743
REMARK SMILES CC[N@@H+](C[C@@H]1CCCO1)[C@@H](C)c1ccc(C(=O)OCCOC(=O)c2ccc(-c3c4nc(c(-c5c(F)cc(S(=O)(=O)[O-])cc5F)c5ccc([nH]5)c(-c5c(F)cc(S(=O)(=O)[O-])cc5F)c5nc(c(-c6c(F)cc(S(=O)(=O)[O-])cc6F)c6ccc3[nH]6)C=C5)C=C4)cc2)o1
REMARK SMILES IDX 19 1 18 2 16 3 17 4 15 5 12 6 13 7 90 8 14 9 10 10 11 11
REMARK SMILES IDX 3 12 2 14 1 15 4 16 5 17 6 18 9 19 7 20 8 21 20 22 21 23
REMARK SMILES IDX 22 24 23 25 24 26 25 27 89 28 26 29 88 30 27 31 28 32 29 33
REMARK SMILES IDX 82 34 30 35 87 36 81 37 83 38 31 39 86 40 80 41 79 42 32 44
REMARK SMILES IDX 66 45 45 46 65 47 46 48 49 49 64 50 84 51 47 52 48 53 63 55
REMARK SMILES IDX 85 56 50 57 33 58 34 59 43 60 35 61 36 62 42 63 44 64 37 65
REMARK SMILES IDX 38 66 39 67 40 68 41 69 67 70 68 71 77 72 69 73 70 74 76 75
REMARK SMILES IDX 78 76 71 77 72 78 73 79 74 80 75 81 51 82 52 83 61 84 53 85
REMARK SMILES IDX 54 86 60 87 62 88 55 89 56 90 57 91 58 92 59 93
REMARK H PARENT 3 13 83 43 49 54
REMARK Flexibility Score: inf
ROOT
ATOM      1  C   UNL A   1      40.857  21.674  26.195  1.00  0.00     0.275 C 
ENDROOT
BRANCH   1   2
ATOM      2  O   UNL A   1      39.551  22.274  26.161  1.00  0.00    -0.456 OA
BRANCH   2   3
ATOM      3  C   UNL A   1      38.549  21.528  25.612  1.00  0.00     0.374 C 
ATOM      4  O   UNL A   1      38.629  20.324  25.381  1.00  0.00    -0.242 OA
BRANCH   3   5
ATOM      5  C   UNL A   1      37.363  22.342  25.485  1.00  0.00     0.212 A 
ATOM      6  C   UNL A   1      35.200  22.744  25.731  1.00  0.00     0.162 A 
ATOM      7  C   UNL A   1      35.823  23.969  25.593  1.00  0.00     0.053 A 
ATOM      8  O   UNL A   1      36.135  21.750  25.634  1.00  0.00    -0.448 OA
ATOM      9  C   UNL A   1      37.193  23.708  25.363  1.00  0.00     0.059 A 
BRANCH   6  10
ATOM     10  C   UNL A   1      33.772  22.349  26.030  1.00  0.00     0.248 C 
ATOM     11  C   UNL A   1      33.661  21.421  27.248  1.00  0.00     0.084 C 
BRANCH  10  12
ATOM     12  N   UNL A   1      33.026  21.909  24.816  1.00  0.00    -0.324 N 
ATOM     13  H   UNL A   1      32.214  22.526  24.826  1.00  0.00     0.348 HD
BRANCH  12  14
ATOM     14  C   UNL A   1      33.632  22.192  23.511  1.00  0.00     0.259 C 
ATOM     15  C   UNL A   1      32.994  23.255  22.628  1.00  0.00     0.071 C 
ENDBRANCH  12  14
BRANCH  12  16
ATOM     16  C   UNL A   1      32.579  20.491  24.919  1.00  0.00     0.295 C 
BRANCH  16  17
ATOM     17  C   UNL A   1      33.274  19.401  24.059  1.00  0.00     0.173 C 
ATOM     18  C   UNL A   1      32.518  18.097  23.850  1.00  0.00     0.040 C 
ATOM     19  O   UNL A   1      34.507  18.982  24.683  1.00  0.00    -0.372 OA
ATOM     20  C   UNL A   1      33.630  17.190  23.390  1.00  0.00     0.031 C 
ATOM     21  C   UNL A   1      34.793  17.640  24.251  1.00  0.00     0.161 C 
ENDBRANCH  16  17
ENDBRANCH  12  16
ENDBRANCH  10  12
ENDBRANCH   6  10
ENDBRANCH   3   5
ENDBRANCH   2   3
ENDBRANCH   1   2
BRANCH   1  22
ATOM     22  C   UNL A   1      41.926  22.768  26.263  1.00  0.00     0.275 C 
BRANCH  22  23
ATOM     23  O   UNL A   1      41.328  24.076  26.372  1.00  0.00    -0.458 OA
BRANCH  23  24
ATOM     24  C   UNL A   1      42.197  25.115  26.404  1.00  0.00     0.338 C 
ATOM     25  O   UNL A   1      43.093  25.347  25.611  1.00  0.00    -0.246 OA
BRANCH  24  26
ATOM     26  C   UNL A   1      41.842  26.020  27.509  1.00  0.00     0.060 A 
ATOM     27  C   UNL A   1      42.641  27.142  27.734  1.00  0.00     0.016 A 
ATOM     28  C   UNL A   1      40.783  25.726  28.367  1.00  0.00     0.016 A 
ATOM     29  C   UNL A   1      42.402  27.966  28.831  1.00  0.00     0.010 A 
ATOM     30  C   UNL A   1      40.525  26.572  29.454  1.00  0.00     0.010 A 
ATOM     31  C   UNL A   1      41.341  27.692  29.702  1.00  0.00    -0.014 A 
BRANCH  31  32
ATOM     32  C   UNL A   1      41.104  28.569  30.877  1.00  0.00     0.031 A 
ATOM     33  C   UNL A   1      40.006  29.597  30.845  1.00  0.00     0.074 A 
ATOM     34  C   UNL A   1      41.869  28.430  31.977  1.00  0.00     0.049 A 
ATOM     35  N   UNL A   1      39.693  30.499  31.739  1.00  0.00    -0.248 NA
ATOM     36  C   UNL A   1      39.151  29.615  29.648  1.00  0.00     0.031 C 
ATOM     37  C   UNL A   1      42.943  27.447  32.138  1.00  0.00     0.029 A 
ATOM     38  N   UNL A   1      41.865  29.114  33.167  1.00  0.00    -0.354 N 
ATOM     39  C   UNL A   1      38.619  31.205  31.207  1.00  0.00     0.074 A 
ATOM     40  C   UNL A   1      38.354  30.643  29.900  1.00  0.00     0.031 C 
ATOM     41  C   UNL A   1      43.485  27.585  33.359  1.00  0.00     0.029 A 
ATOM     42  C   UNL A   1      42.842  28.701  34.043  1.00  0.00     0.049 A 
ATOM     43  H   UNL A   1      41.224  29.833  33.374  1.00  0.00     0.167 HD
ATOM     44  C   UNL A   1      37.919  32.224  31.763  1.00  0.00     0.037 A 
ATOM     45  C   UNL A   1      43.199  29.186  35.249  1.00  0.00     0.037 A 
ATOM     46  C   UNL A   1      38.186  32.765  33.073  1.00  0.00     0.049 A 
ATOM     47  C   UNL A   1      42.444  30.357  35.819  1.00  0.00     0.074 A 
ATOM     48  C   UNL A   1      37.521  33.783  33.734  1.00  0.00     0.029 A 
ATOM     49  N   UNL A   1      39.200  32.338  33.918  1.00  0.00    -0.354 N 
ATOM     50  N   UNL A   1      41.428  31.009  35.308  1.00  0.00    -0.248 NA
ATOM     51  C   UNL A   1      42.883  30.857  37.128  1.00  0.00     0.031 C 
ATOM     52  C   UNL A   1      38.169  34.010  34.953  1.00  0.00     0.029 A 
ATOM     53  C   UNL A   1      39.198  33.090  35.082  1.00  0.00     0.049 A 
ATOM     54  H   UNL A   1      39.830  31.607  33.720  1.00  0.00     0.167 HD
ATOM     55  C   UNL A   1      41.088  31.979  36.245  1.00  0.00     0.074 A 
ATOM     56  C   UNL A   1      42.000  31.819  37.359  1.00  0.00     0.031 C 
ATOM     57  C   UNL A   1      40.107  32.915  36.189  1.00  0.00     0.037 A 
BRANCH  44  58
ATOM     58  C   UNL A   1      36.815  32.845  30.946  1.00  0.00     0.058 A 
ATOM     59  C   UNL A   1      37.079  33.670  29.840  1.00  0.00     0.135 A 
ATOM     60  C   UNL A   1      35.471  32.577  31.252  1.00  0.00     0.135 A 
ATOM     61  F   UNL A   1      38.345  33.972  29.508  1.00  0.00    -0.206 F 
ATOM     62  C   UNL A   1      36.051  34.232  29.088  1.00  0.00     0.059 A 
ATOM     63  C   UNL A   1      34.427  33.102  30.495  1.00  0.00     0.059 A 
ATOM     64  F   UNL A   1      35.158  31.794  32.297  1.00  0.00    -0.206 F 
ATOM     65  C   UNL A   1      34.727  33.941  29.425  1.00  0.00     0.060 A 
BRANCH  65  66
ATOM     66  S   UNL A   1      33.405  34.677  28.438  1.00  0.00     0.124 S 
ATOM     67  O   UNL A   1      32.489  35.138  29.477  1.00  0.00    -0.237 OA
ATOM     68  O   UNL A   1      34.108  35.724  27.704  1.00  0.00    -0.237 OA
ATOM     69  O   UNL A   1      32.923  33.563  27.629  1.00  0.00    -0.744 OA
ENDBRANCH  65  66
ENDBRANCH  44  58
BRANCH  45  70
ATOM     70  C   UNL A   1      44.340  28.576  35.986  1.00  0.00     0.058 A 
ATOM     71  C   UNL A   1      44.141  27.521  36.888  1.00  0.00     0.135 A 
ATOM     72  C   UNL A   1      45.655  29.028  35.790  1.00  0.00     0.135 A 
ATOM     73  F   UNL A   1      42.903  27.059  37.118  1.00  0.00    -0.206 F 
ATOM     74  C   UNL A   1      45.202  26.945  37.581  1.00  0.00     0.059 A 
ATOM     75  C   UNL A   1      46.735  28.448  36.448  1.00  0.00     0.059 A 
ATOM     76  F   UNL A   1      45.903  30.027  34.930  1.00  0.00    -0.206 F 
ATOM     77  C   UNL A   1      46.497  27.413  37.350  1.00  0.00     0.060 A 
BRANCH  77  78
ATOM     78  S   UNL A   1      47.870  26.627  38.221  1.00  0.00     0.124 S 
ATOM     79  O   UNL A   1      47.339  25.290  38.461  1.00  0.00    -0.237 OA
ATOM     80  O   UNL A   1      48.947  26.719  37.240  1.00  0.00    -0.237 OA
ATOM     81  O   UNL A   1      48.039  27.462  39.406  1.00  0.00    -0.744 OA
ENDBRANCH  77  78
ENDBRANCH  45  70
BRANCH  57  82
ATOM     82  C   UNL A   1      39.936  33.815  37.383  1.00  0.00     0.058 A 
ATOM     83  C   UNL A   1      40.627  35.031  37.503  1.00  0.00     0.135 A 
ATOM     84  C   UNL A   1      39.023  33.479  38.397  1.00  0.00     0.135 A 
ATOM     85  F   UNL A   1      41.519  35.397  36.568  1.00  0.00    -0.206 F 
ATOM     86  C   UNL A   1      40.437  35.871  38.596  1.00  0.00     0.059 A 
ATOM     87  C   UNL A   1      38.793  34.319  39.482  1.00  0.00     0.059 A 
ATOM     88  F   UNL A   1      38.327  32.333  38.329  1.00  0.00    -0.206 F 
ATOM     89  C   UNL A   1      39.514  35.508  39.578  1.00  0.00     0.060 A 
BRANCH  89  90
ATOM     90  S   UNL A   1      39.248  36.627  40.971  1.00  0.00     0.124 S 
ATOM     91  O   UNL A   1      38.457  35.794  41.872  1.00  0.00    -0.237 OA
ATOM     92  O   UNL A   1      40.611  36.914  41.404  1.00  0.00    -0.237 OA
ATOM     93  O   UNL A   1      38.537  37.753  40.372  1.00  0.00    -0.744 OA
ENDBRANCH  89  90
ENDBRANCH  57  82
ENDBRANCH  31  32
ENDBRANCH  24  26
ENDBRANCH  23  24
ENDBRANCH  22  23
ENDBRANCH   1  22
TORSDOF 19
ENDMDL
