MODEL 1
REMARK VINA RESULT:     -11.6      0.000      0.000
REMARK SMILES C[C@@H](C(=O)OCCOC(=O)c1ccc(-c2c3nc(c(-c4c(F)cc(S(=O)(=O)[O-])cc4F)c4ccc([nH]4)c(-c4c(F)cc(S(=O)(=O)[O-])cc4F)c4nc(c(-c5c(F)cc(S(=O)(=O)[O-])cc5F)c5ccc2[nH]5)C=C4)C=C3)cc1)c1ccccc1-c1ccn(C(F)F)c(=O)c1
REMARK SMILES IDX 6 1 5 2 3 3 4 4 2 5 1 6 77 7 78 8 82 9 79 10 81 11 80 12
REMARK SMILES IDX 83 13 84 14 92 15 85 16 90 17 86 18 91 19 87 20 88 21 89 22
REMARK SMILES IDX 7 23 8 24 9 25 10 26 11 27 12 28 76 29 13 30 75 31 14 32
REMARK SMILES IDX 15 33 16 34 69 35 17 36 74 37 68 38 70 39 18 40 73 41 67 42
REMARK SMILES IDX 66 43 19 45 53 46 32 47 52 48 33 49 36 50 51 51 71 52 34 53
REMARK SMILES IDX 35 54 50 56 72 57 37 58 20 59 21 60 30 61 22 62 23 63 29 64
REMARK SMILES IDX 31 65 24 66 25 67 26 68 27 69 28 70 54 71 55 72 64 73 56 74
REMARK SMILES IDX 57 75 63 76 65 77 58 78 59 79 60 80 61 81 62 82 38 83 39 84
REMARK SMILES IDX 48 85 40 86 41 87 47 88 49 89 42 90 43 91 44 92 45 93 46 94
REMARK H PARENT 70 44 36 55
REMARK Flexibility Score: inf
ROOT
ATOM      1  C   UNL A   1      33.519  30.762  27.303  1.00  0.00     0.274 C 
ENDROOT
BRANCH   1   2
ATOM      2  O   UNL A   1      33.574  29.353  27.028  1.00  0.00    -0.462 OA
BRANCH   2   3
ATOM      3  C   UNL A   1      33.001  28.952  25.858  1.00  0.00     0.313 C 
ATOM      4  O   UNL A   1      33.396  29.294  24.749  1.00  0.00    -0.252 OA
BRANCH   3   5
ATOM      5  C   UNL A   1      31.763  28.101  26.099  1.00  0.00     0.127 C 
ATOM      6  C   UNL A   1      31.670  27.876  27.627  1.00  0.00     0.025 C 
BRANCH   5   7
ATOM      7  C   UNL A   1      31.553  26.829  25.255  1.00  0.00    -0.026 A 
ATOM      8  C   UNL A   1      32.243  25.660  25.677  1.00  0.00     0.005 A 
ATOM      9  C   UNL A   1      30.644  26.674  24.177  1.00  0.00    -0.014 A 
ATOM     10  C   UNL A   1      32.083  24.420  25.055  1.00  0.00     0.000 A 
ATOM     11  C   UNL A   1      30.480  25.403  23.576  1.00  0.00     0.009 A 
ATOM     12  C   UNL A   1      31.197  24.290  24.002  1.00  0.00     0.001 A 
BRANCH   9  13
ATOM     13  C   UNL A   1      29.883  27.761  23.522  1.00  0.00    -0.011 A 
ATOM     14  C   UNL A   1      30.541  28.710  22.654  1.00  0.00     0.027 A 
ATOM     15  C   UNL A   1      28.545  27.822  23.634  1.00  0.00     0.080 A 
ATOM     16  C   UNL A   1      29.879  29.726  22.097  1.00  0.00     0.095 A 
ATOM     17  C   UNL A   1      27.773  28.922  22.975  1.00  0.00     0.255 A 
ATOM     18  N   UNL A   1      28.524  29.872  22.300  1.00  0.00    -0.258 N 
ATOM     19  O   UNL A   1      26.550  28.933  23.082  1.00  0.00    -0.269 OA
BRANCH  18  20
ATOM     20  C   UNL A   1      27.834  31.010  21.752  1.00  0.00     0.451 C 
ATOM     21  F   UNL A   1      27.489  31.893  22.718  1.00  0.00    -0.185 F 
ATOM     22  F   UNL A   1      28.588  31.660  20.832  1.00  0.00    -0.185 F 
ENDBRANCH  18  20
ENDBRANCH   9  13
ENDBRANCH   5   7
ENDBRANCH   3   5
ENDBRANCH   2   3
ENDBRANCH   1   2
BRANCH   1  23
ATOM     23  C   UNL A   1      34.796  31.196  28.026  1.00  0.00     0.275 C 
BRANCH  23  24
ATOM     24  O   UNL A   1      35.493  30.044  28.545  1.00  0.00    -0.458 OA
BRANCH  24  25
ATOM     25  C   UNL A   1      36.364  30.321  29.553  1.00  0.00     0.338 C 
ATOM     26  O   UNL A   1      36.076  30.665  30.689  1.00  0.00    -0.246 OA
BRANCH  25  27
ATOM     27  C   UNL A   1      37.732  29.935  29.144  1.00  0.00     0.060 A 
ATOM     28  C   UNL A   1      38.669  29.723  30.162  1.00  0.00     0.016 A 
ATOM     29  C   UNL A   1      38.082  29.698  27.810  1.00  0.00     0.016 A 
ATOM     30  C   UNL A   1      39.951  29.269  29.850  1.00  0.00     0.010 A 
ATOM     31  C   UNL A   1      39.378  29.264  27.497  1.00  0.00     0.010 A 
ATOM     32  C   UNL A   1      40.324  29.056  28.514  1.00  0.00    -0.014 A 
BRANCH  32  33
ATOM     33  C   UNL A   1      41.749  28.785  28.199  1.00  0.00     0.031 A 
ATOM     34  C   UNL A   1      42.146  27.376  27.852  1.00  0.00     0.074 A 
ATOM     35  C   UNL A   1      42.674  29.763  28.170  1.00  0.00     0.049 A 
ATOM     36  N   UNL A   1      43.306  26.911  27.471  1.00  0.00    -0.248 NA
ATOM     37  C   UNL A   1      41.084  26.359  27.940  1.00  0.00     0.031 C 
ATOM     38  C   UNL A   1      42.425  31.174  28.449  1.00  0.00     0.029 A 
ATOM     39  N   UNL A   1      44.015  29.713  27.873  1.00  0.00    -0.354 N 
ATOM     40  C   UNL A   1      43.112  25.553  27.252  1.00  0.00     0.074 A 
ATOM     41  C   UNL A   1      41.726  25.267  27.555  1.00  0.00     0.031 C 
ATOM     42  C   UNL A   1      43.570  31.862  28.287  1.00  0.00     0.029 A 
ATOM     43  C   UNL A   1      44.643  30.934  27.929  1.00  0.00     0.049 A 
ATOM     44  H   UNL A   1      44.483  28.879  27.642  1.00  0.00     0.167 HD
ATOM     45  C   UNL A   1      44.006  24.621  26.849  1.00  0.00     0.037 A 
ATOM     46  C   UNL A   1      45.937  31.261  27.726  1.00  0.00     0.037 A 
ATOM     47  C   UNL A   1      45.401  24.875  26.614  1.00  0.00     0.049 A 
ATOM     48  C   UNL A   1      46.937  30.182  27.385  1.00  0.00     0.074 A 
ATOM     49  C   UNL A   1      46.387  23.978  26.245  1.00  0.00     0.029 A 
ATOM     50  N   UNL A   1      46.012  26.111  26.752  1.00  0.00    -0.354 N 
ATOM     51  N   UNL A   1      46.733  28.907  27.153  1.00  0.00    -0.248 NA
ATOM     52  C   UNL A   1      48.350  30.586  27.298  1.00  0.00     0.031 C 
ATOM     53  C   UNL A   1      47.607  24.663  26.206  1.00  0.00     0.029 A 
ATOM     54  C   UNL A   1      47.370  25.995  26.508  1.00  0.00     0.049 A 
ATOM     55  H   UNL A   1      45.550  26.947  26.990  1.00  0.00     0.167 HD
ATOM     56  C   UNL A   1      47.985  28.365  26.873  1.00  0.00     0.074 A 
ATOM     57  C   UNL A   1      48.939  29.449  26.952  1.00  0.00     0.031 C 
ATOM     58  C   UNL A   1      48.312  27.082  26.580  1.00  0.00     0.037 A 
BRANCH  45  59
ATOM     59  C   UNL A   1      43.495  23.221  26.697  1.00  0.00     0.058 A 
ATOM     60  C   UNL A   1      43.191  22.427  27.813  1.00  0.00     0.135 A 
ATOM     61  C   UNL A   1      43.327  22.662  25.421  1.00  0.00     0.135 A 
ATOM     62  F   UNL A   1      43.361  22.912  29.054  1.00  0.00    -0.206 F 
ATOM     63  C   UNL A   1      42.765  21.113  27.670  1.00  0.00     0.059 A 
ATOM     64  C   UNL A   1      42.885  21.355  25.254  1.00  0.00     0.059 A 
ATOM     65  F   UNL A   1      43.617  23.381  24.326  1.00  0.00    -0.206 F 
ATOM     66  C   UNL A   1      42.623  20.583  26.386  1.00  0.00     0.060 A 
BRANCH  66  67
ATOM     67  S   UNL A   1      42.101  18.864  26.211  1.00  0.00     0.124 S 
ATOM     68  O   UNL A   1      42.271  18.372  27.575  1.00  0.00    -0.237 OA
ATOM     69  O   UNL A   1      40.721  19.000  25.755  1.00  0.00    -0.237 OA
ATOM     70  O   UNL A   1      43.033  18.325  25.227  1.00  0.00    -0.744 OA
ENDBRANCH  66  67
ENDBRANCH  45  59
BRANCH  46  71
ATOM     71  C   UNL A   1      46.394  32.673  27.859  1.00  0.00     0.058 A 
ATOM     72  C   UNL A   1      46.865  33.165  29.085  1.00  0.00     0.135 A 
ATOM     73  C   UNL A   1      46.312  33.569  26.782  1.00  0.00     0.135 A 
ATOM     74  F   UNL A   1      46.946  32.350  30.148  1.00  0.00    -0.206 F 
ATOM     75  C   UNL A   1      47.213  34.503  29.249  1.00  0.00     0.059 A 
ATOM     76  C   UNL A   1      46.677  34.906  26.915  1.00  0.00     0.059 A 
ATOM     77  F   UNL A   1      45.870  33.146  25.587  1.00  0.00    -0.206 F 
ATOM     78  C   UNL A   1      47.109  35.366  28.157  1.00  0.00     0.060 A 
BRANCH  78  79
ATOM     79  S   UNL A   1      47.568  37.101  28.373  1.00  0.00     0.124 S 
ATOM     80  O   UNL A   1      46.557  37.772  27.562  1.00  0.00    -0.237 OA
ATOM     81  O   UNL A   1      47.445  37.275  29.817  1.00  0.00    -0.237 OA
ATOM     82  O   UNL A   1      48.931  37.152  27.854  1.00  0.00    -0.744 OA
ENDBRANCH  78  79
ENDBRANCH  46  71
BRANCH  58  83
ATOM     83  C   UNL A   1      49.758  26.770  26.302  1.00  0.00     0.058 A 
ATOM     84  C   UNL A   1      50.607  26.268  27.299  1.00  0.00     0.135 A 
ATOM     85  C   UNL A   1      50.275  26.897  25.002  1.00  0.00     0.135 A 
ATOM     86  F   UNL A   1      50.163  26.130  28.558  1.00  0.00    -0.206 F 
ATOM     87  C   UNL A   1      51.925  25.912  27.021  1.00  0.00     0.059 A 
ATOM     88  C   UNL A   1      51.582  26.527  24.696  1.00  0.00     0.059 A 
ATOM     89  F   UNL A   1      49.501  27.362  24.008  1.00  0.00    -0.206 F 
ATOM     90  C   UNL A   1      52.401  26.041  25.715  1.00  0.00     0.060 A 
BRANCH  90  91
ATOM     91  S   UNL A   1      54.092  25.520  25.351  1.00  0.00     0.124 S 
ATOM     92  O   UNL A   1      54.439  26.400  24.241  1.00  0.00    -0.237 OA
ATOM     93  O   UNL A   1      54.782  25.784  26.610  1.00  0.00    -0.237 OA
ATOM     94  O   UNL A   1      53.945  24.107  25.011  1.00  0.00    -0.744 OA
ENDBRANCH  90  91
ENDBRANCH  58  83
ENDBRANCH  32  33
ENDBRANCH  25  27
ENDBRANCH  24  25
ENDBRANCH  23  24
ENDBRANCH   1  23
TORSDOF 17
ENDMDL
MODEL 2
REMARK VINA RESULT:     -11.3      5.070      9.235
REMARK SMILES C[C@@H](C(=O)OCCOC(=O)c1ccc(-c2c3nc(c(-c4c(F)cc(S(=O)(=O)[O-])cc4F)c4ccc([nH]4)c(-c4c(F)cc(S(=O)(=O)[O-])cc4F)c4nc(c(-c5c(F)cc(S(=O)(=O)[O-])cc5F)c5ccc2[nH]5)C=C4)C=C3)cc1)c1ccccc1-c1ccn(C(F)F)c(=O)c1
REMARK SMILES IDX 6 1 5 2 3 3 4 4 2 5 1 6 77 7 78 8 82 9 79 10 81 11 80 12
REMARK SMILES IDX 83 13 84 14 92 15 85 16 90 17 86 18 91 19 87 20 88 21 89 22
REMARK SMILES IDX 7 23 8 24 9 25 10 26 11 27 12 28 76 29 13 30 75 31 14 32
REMARK SMILES IDX 15 33 16 34 69 35 17 36 74 37 68 38 70 39 18 40 73 41 67 42
REMARK SMILES IDX 66 43 19 45 53 46 32 47 52 48 33 49 36 50 51 51 71 52 34 53
REMARK SMILES IDX 35 54 50 56 72 57 37 58 20 59 21 60 30 61 22 62 23 63 29 64
REMARK SMILES IDX 31 65 24 66 25 67 26 68 27 69 28 70 54 71 55 72 64 73 56 74
REMARK SMILES IDX 57 75 63 76 65 77 58 78 59 79 60 80 61 81 62 82 38 83 39 84
REMARK SMILES IDX 48 85 40 86 41 87 47 88 49 89 42 90 43 91 44 92 45 93 46 94
REMARK H PARENT 70 44 36 55
REMARK Flexibility Score: inf
ROOT
ATOM      1  C   UNL A   1      31.777  29.223  27.101  1.00  0.00     0.274 C 
ENDROOT
BRANCH   1   2
ATOM      2  O   UNL A   1      31.936  28.454  25.898  1.00  0.00    -0.462 OA
BRANCH   2   3
ATOM      3  C   UNL A   1      32.353  27.167  26.066  1.00  0.00     0.313 C 
ATOM      4  O   UNL A   1      31.921  26.415  26.933  1.00  0.00    -0.252 OA
BRANCH   3   5
ATOM      5  C   UNL A   1      33.475  26.807  25.104  1.00  0.00     0.127 C 
ATOM      6  C   UNL A   1      33.979  28.137  24.493  1.00  0.00     0.025 C 
BRANCH   5   7
ATOM      7  C   UNL A   1      33.249  25.681  24.077  1.00  0.00    -0.026 A 
ATOM      8  C   UNL A   1      34.285  24.716  23.948  1.00  0.00     0.005 A 
ATOM      9  C   UNL A   1      32.061  25.436  23.342  1.00  0.00    -0.014 A 
ATOM     10  C   UNL A   1      34.181  23.598  23.117  1.00  0.00     0.000 A 
ATOM     11  C   UNL A   1      31.967  24.286  22.524  1.00  0.00     0.009 A 
ATOM     12  C   UNL A   1      33.017  23.381  22.404  1.00  0.00     0.001 A 
BRANCH   9  13
ATOM     13  C   UNL A   1      30.892  26.340  23.261  1.00  0.00    -0.011 A 
ATOM     14  C   UNL A   1      29.694  26.075  24.025  1.00  0.00     0.027 A 
ATOM     15  C   UNL A   1      30.961  27.485  22.561  1.00  0.00     0.080 A 
ATOM     16  C   UNL A   1      28.614  26.852  23.924  1.00  0.00     0.095 A 
ATOM     17  C   UNL A   1      29.779  28.400  22.475  1.00  0.00     0.255 A 
ATOM     18  N   UNL A   1      28.627  27.967  23.115  1.00  0.00    -0.258 N 
ATOM     19  O   UNL A   1      29.886  29.447  21.844  1.00  0.00    -0.269 OA
BRANCH  18  20
ATOM     20  C   UNL A   1      27.434  28.757  22.960  1.00  0.00     0.451 C 
ATOM     21  F   UNL A   1      26.385  28.203  23.611  1.00  0.00    -0.185 F 
ATOM     22  F   UNL A   1      27.603  30.019  23.422  1.00  0.00    -0.185 F 
ENDBRANCH  18  20
ENDBRANCH   9  13
ENDBRANCH   5   7
ENDBRANCH   3   5
ENDBRANCH   2   3
ENDBRANCH   1   2
BRANCH   1  23
ATOM     23  C   UNL A   1      32.334  30.633  26.887  1.00  0.00     0.275 C 
BRANCH  23  24
ATOM     24  O   UNL A   1      33.776  30.612  26.923  1.00  0.00    -0.458 OA
BRANCH  24  25
ATOM     25  C   UNL A   1      34.335  31.611  27.657  1.00  0.00     0.338 C 
ATOM     26  O   UNL A   1      33.798  32.656  27.993  1.00  0.00    -0.246 OA
BRANCH  25  27
ATOM     27  C   UNL A   1      35.641  31.163  28.189  1.00  0.00     0.060 A 
ATOM     28  C   UNL A   1      35.778  29.803  28.489  1.00  0.00     0.016 A 
ATOM     29  C   UNL A   1      36.739  32.022  28.314  1.00  0.00     0.016 A 
ATOM     30  C   UNL A   1      37.010  29.299  28.907  1.00  0.00     0.010 A 
ATOM     31  C   UNL A   1      37.970  31.517  28.757  1.00  0.00     0.010 A 
ATOM     32  C   UNL A   1      38.111  30.154  29.065  1.00  0.00    -0.014 A 
BRANCH  32  33
ATOM     33  C   UNL A   1      39.340  29.633  29.715  1.00  0.00     0.031 A 
ATOM     34  C   UNL A   1      39.741  30.206  31.046  1.00  0.00     0.074 A 
ATOM     35  C   UNL A   1      40.069  28.639  29.172  1.00  0.00     0.049 A 
ATOM     36  N   UNL A   1      40.723  29.862  31.836  1.00  0.00    -0.248 NA
ATOM     37  C   UNL A   1      38.912  31.311  31.556  1.00  0.00     0.031 C 
ATOM     38  C   UNL A   1      39.779  27.968  27.907  1.00  0.00     0.029 A 
ATOM     39  N   UNL A   1      41.201  28.010  29.632  1.00  0.00    -0.354 N 
ATOM     40  C   UNL A   1      40.620  30.691  32.945  1.00  0.00     0.074 A 
ATOM     41  C   UNL A   1      39.487  31.564  32.722  1.00  0.00     0.031 C 
ATOM     42  C   UNL A   1      40.695  27.004  27.703  1.00  0.00     0.029 A 
ATOM     43  C   UNL A   1      41.660  27.014  28.803  1.00  0.00     0.049 A 
ATOM     44  H   UNL A   1      41.643  28.252  30.477  1.00  0.00     0.167 HD
ATOM     45  C   UNL A   1      41.403  30.737  34.048  1.00  0.00     0.037 A 
ATOM     46  C   UNL A   1      42.739  26.212  28.916  1.00  0.00     0.037 A 
ATOM     47  C   UNL A   1      42.572  29.927  34.253  1.00  0.00     0.049 A 
ATOM     48  C   UNL A   1      43.660  26.360  30.105  1.00  0.00     0.074 A 
ATOM     49  C   UNL A   1      43.449  29.939  35.323  1.00  0.00     0.029 A 
ATOM     50  N   UNL A   1      43.044  28.981  33.357  1.00  0.00    -0.354 N 
ATOM     51  N   UNL A   1      43.533  27.128  31.160  1.00  0.00    -0.248 NA
ATOM     52  C   UNL A   1      44.884  25.541  30.105  1.00  0.00     0.031 C 
ATOM     53  C   UNL A   1      44.480  29.033  35.053  1.00  0.00     0.029 A 
ATOM     54  C   UNL A   1      44.219  28.425  33.834  1.00  0.00     0.049 A 
ATOM     55  H   UNL A   1      42.610  28.740  32.508  1.00  0.00     0.167 HD
ATOM     56  C   UNL A   1      44.647  26.870  31.956  1.00  0.00     0.074 A 
ATOM     57  C   UNL A   1      45.431  25.867  31.269  1.00  0.00     0.031 C 
ATOM     58  C   UNL A   1      44.989  27.420  33.148  1.00  0.00     0.037 A 
BRANCH  45  59
ATOM     59  C   UNL A   1      41.038  31.748  35.090  1.00  0.00     0.058 A 
ATOM     60  C   UNL A   1      40.076  31.472  36.074  1.00  0.00     0.135 A 
ATOM     61  C   UNL A   1      41.642  33.015  35.092  1.00  0.00     0.135 A 
ATOM     62  F   UNL A   1      39.454  30.282  36.095  1.00  0.00    -0.206 F 
ATOM     63  C   UNL A   1      39.704  32.430  37.008  1.00  0.00     0.059 A 
ATOM     64  C   UNL A   1      41.297  33.982  36.028  1.00  0.00     0.059 A 
ATOM     65  F   UNL A   1      42.558  33.327  34.162  1.00  0.00    -0.206 F 
ATOM     66  C   UNL A   1      40.314  33.685  36.972  1.00  0.00     0.060 A 
BRANCH  66  67
ATOM     67  S   UNL A   1      39.799  34.933  38.170  1.00  0.00     0.124 S 
ATOM     68  O   UNL A   1      40.016  36.164  37.415  1.00  0.00    -0.237 OA
ATOM     69  O   UNL A   1      38.404  34.578  38.414  1.00  0.00    -0.237 OA
ATOM     70  O   UNL A   1      40.703  34.718  39.294  1.00  0.00    -0.744 OA
ENDBRANCH  66  67
ENDBRANCH  45  59
BRANCH  46  71
ATOM     71  C   UNL A   1      43.046  25.199  27.869  1.00  0.00     0.058 A 
ATOM     72  C   UNL A   1      42.434  23.937  27.886  1.00  0.00     0.135 A 
ATOM     73  C   UNL A   1      43.999  25.449  26.870  1.00  0.00     0.135 A 
ATOM     74  F   UNL A   1      41.528  23.644  28.832  1.00  0.00    -0.206 F 
ATOM     75  C   UNL A   1      42.774  22.948  26.967  1.00  0.00     0.059 A 
ATOM     76  C   UNL A   1      44.339  24.485  25.925  1.00  0.00     0.059 A 
ATOM     77  F   UNL A   1      44.611  26.642  26.808  1.00  0.00    -0.206 F 
ATOM     78  C   UNL A   1      43.733  23.232  25.994  1.00  0.00     0.060 A 
BRANCH  78  79
ATOM     79  S   UNL A   1      44.167  21.946  24.800  1.00  0.00     0.124 S 
ATOM     80  O   UNL A   1      45.579  21.733  25.103  1.00  0.00    -0.237 OA
ATOM     81  O   UNL A   1      43.264  20.862  25.170  1.00  0.00    -0.237 OA
ATOM     82  O   UNL A   1      43.886  22.578  23.514  1.00  0.00    -0.744 OA
ENDBRANCH  78  79
ENDBRANCH  46  71
BRANCH  58  83
ATOM     83  C   UNL A   1      46.255  26.942  33.806  1.00  0.00     0.058 A 
ATOM     84  C   UNL A   1      46.270  25.812  34.638  1.00  0.00     0.135 A 
ATOM     85  C   UNL A   1      47.480  27.574  33.536  1.00  0.00     0.135 A 
ATOM     86  F   UNL A   1      45.127  25.173  34.931  1.00  0.00    -0.206 F 
ATOM     87  C   UNL A   1      47.455  25.329  35.188  1.00  0.00     0.059 A 
ATOM     88  C   UNL A   1      48.679  27.096  34.056  1.00  0.00     0.059 A 
ATOM     89  F   UNL A   1      47.523  28.653  32.738  1.00  0.00    -0.206 F 
ATOM     90  C   UNL A   1      48.656  25.976  34.887  1.00  0.00     0.060 A 
BRANCH  90  91
ATOM     91  S   UNL A   1      50.195  25.307  35.555  1.00  0.00     0.124 S 
ATOM     92  O   UNL A   1      49.873  23.890  35.674  1.00  0.00    -0.237 OA
ATOM     93  O   UNL A   1      51.165  25.653  34.521  1.00  0.00    -0.237 OA
ATOM     94  O   UNL A   1      50.354  26.024  36.818  1.00  0.00    -0.744 OA
ENDBRANCH  90  91
ENDBRANCH  58  83
ENDBRANCH  32  33
ENDBRANCH  25  27
ENDBRANCH  24  25
ENDBRANCH  23  24
ENDBRANCH   1  23
TORSDOF 17
ENDMDL
MODEL 3
REMARK VINA RESULT:     -11.1      2.284      3.214
REMARK SMILES C[C@@H](C(=O)OCCOC(=O)c1ccc(-c2c3nc(c(-c4c(F)cc(S(=O)(=O)[O-])cc4F)c4ccc([nH]4)c(-c4c(F)cc(S(=O)(=O)[O-])cc4F)c4nc(c(-c5c(F)cc(S(=O)(=O)[O-])cc5F)c5ccc2[nH]5)C=C4)C=C3)cc1)c1ccccc1-c1ccn(C(F)F)c(=O)c1
REMARK SMILES IDX 6 1 5 2 3 3 4 4 2 5 1 6 77 7 78 8 82 9 79 10 81 11 80 12
REMARK SMILES IDX 83 13 84 14 92 15 85 16 90 17 86 18 91 19 87 20 88 21 89 22
REMARK SMILES IDX 7 23 8 24 9 25 10 26 11 27 12 28 76 29 13 30 75 31 14 32
REMARK SMILES IDX 15 33 16 34 69 35 17 36 74 37 68 38 70 39 18 40 73 41 67 42
REMARK SMILES IDX 66 43 19 45 53 46 32 47 52 48 33 49 36 50 51 51 71 52 34 53
REMARK SMILES IDX 35 54 50 56 72 57 37 58 20 59 21 60 30 61 22 62 23 63 29 64
REMARK SMILES IDX 31 65 24 66 25 67 26 68 27 69 28 70 54 71 55 72 64 73 56 74
REMARK SMILES IDX 57 75 63 76 65 77 58 78 59 79 60 80 61 81 62 82 38 83 39 84
REMARK SMILES IDX 48 85 40 86 41 87 47 88 49 89 42 90 43 91 44 92 45 93 46 94
REMARK H PARENT 70 44 36 55
REMARK Flexibility Score: inf
ROOT
ATOM      1  C   UNL A   1      34.794  29.237  26.990  1.00  0.00     0.274 C 
ENDROOT
BRANCH   1   2
ATOM      2  O   UNL A   1      33.690  29.144  26.076  1.00  0.00    -0.462 OA
BRANCH   2   3
ATOM      3  C   UNL A   1      33.405  27.894  25.612  1.00  0.00     0.313 C 
ATOM      4  O   UNL A   1      33.609  26.866  26.246  1.00  0.00    -0.252 OA
BRANCH   3   5
ATOM      5  C   UNL A   1      32.884  27.929  24.182  1.00  0.00     0.127 C 
ATOM      6  C   UNL A   1      33.661  29.051  23.454  1.00  0.00     0.025 C 
BRANCH   5   7
ATOM      7  C   UNL A   1      31.362  27.948  23.940  1.00  0.00    -0.026 A 
ATOM      8  C   UNL A   1      30.793  29.189  23.544  1.00  0.00     0.005 A 
ATOM      9  C   UNL A   1      30.493  26.826  23.948  1.00  0.00    -0.014 A 
ATOM     10  C   UNL A   1      29.444  29.333  23.215  1.00  0.00     0.000 A 
ATOM     11  C   UNL A   1      29.135  26.990  23.588  1.00  0.00     0.009 A 
ATOM     12  C   UNL A   1      28.612  28.230  23.234  1.00  0.00     0.001 A 
BRANCH   9  13
ATOM     13  C   UNL A   1      30.845  25.462  24.401  1.00  0.00    -0.011 A 
ATOM     14  C   UNL A   1      31.458  24.515  23.498  1.00  0.00     0.027 A 
ATOM     15  C   UNL A   1      30.703  25.112  25.690  1.00  0.00     0.080 A 
ATOM     16  C   UNL A   1      31.735  23.266  23.876  1.00  0.00     0.095 A 
ATOM     17  C   UNL A   1      31.056  23.732  26.151  1.00  0.00     0.255 A 
ATOM     18  N   UNL A   1      31.483  22.853  25.167  1.00  0.00    -0.258 N 
ATOM     19  O   UNL A   1      30.932  23.456  27.340  1.00  0.00    -0.269 OA
BRANCH  18  20
ATOM     20  C   UNL A   1      31.720  21.485  25.543  1.00  0.00     0.451 C 
ATOM     21  F   UNL A   1      31.903  20.697  24.458  1.00  0.00    -0.185 F 
ATOM     22  F   UNL A   1      32.806  21.365  26.345  1.00  0.00    -0.185 F 
ENDBRANCH  18  20
ENDBRANCH   9  13
ENDBRANCH   5   7
ENDBRANCH   3   5
ENDBRANCH   2   3
ENDBRANCH   1   2
BRANCH   1  23
ATOM     23  C   UNL A   1      34.646  30.495  27.850  1.00  0.00     0.275 C 
BRANCH  23  24
ATOM     24  O   UNL A   1      35.931  31.114  28.057  1.00  0.00    -0.458 OA
BRANCH  24  25
ATOM     25  C   UNL A   1      36.561  30.736  29.202  1.00  0.00     0.338 C 
ATOM     26  O   UNL A   1      36.047  30.595  30.302  1.00  0.00    -0.246 OA
BRANCH  25  27
ATOM     27  C   UNL A   1      37.940  30.301  28.889  1.00  0.00     0.060 A 
ATOM     28  C   UNL A   1      38.874  30.333  29.930  1.00  0.00     0.016 A 
ATOM     29  C   UNL A   1      38.303  29.791  27.637  1.00  0.00     0.016 A 
ATOM     30  C   UNL A   1      40.167  29.851  29.725  1.00  0.00     0.010 A 
ATOM     31  C   UNL A   1      39.610  29.328  27.427  1.00  0.00     0.010 A 
ATOM     32  C   UNL A   1      40.553  29.364  28.467  1.00  0.00    -0.014 A 
BRANCH  32  33
ATOM     33  C   UNL A   1      41.986  29.062  28.221  1.00  0.00     0.031 A 
ATOM     34  C   UNL A   1      42.368  27.647  27.887  1.00  0.00     0.074 A 
ATOM     35  C   UNL A   1      42.932  30.019  28.243  1.00  0.00     0.049 A 
ATOM     36  N   UNL A   1      43.535  27.157  27.560  1.00  0.00    -0.248 NA
ATOM     37  C   UNL A   1      41.281  26.653  27.915  1.00  0.00     0.031 C 
ATOM     38  C   UNL A   1      42.701  31.435  28.519  1.00  0.00     0.029 A 
ATOM     39  N   UNL A   1      44.285  29.941  28.013  1.00  0.00    -0.354 N 
ATOM     40  C   UNL A   1      43.322  25.806  27.324  1.00  0.00     0.074 A 
ATOM     41  C   UNL A   1      41.916  25.549  27.556  1.00  0.00     0.031 C 
ATOM     42  C   UNL A   1      43.867  32.097  28.417  1.00  0.00     0.029 A 
ATOM     43  C   UNL A   1      44.936  31.148  28.107  1.00  0.00     0.049 A 
ATOM     44  H   UNL A   1      44.745  29.097  27.800  1.00  0.00     0.167 HD
ATOM     45  C   UNL A   1      44.214  24.855  26.960  1.00  0.00     0.037 A 
ATOM     46  C   UNL A   1      46.245  31.446  27.970  1.00  0.00     0.037 A 
ATOM     47  C   UNL A   1      45.624  25.079  26.795  1.00  0.00     0.049 A 
ATOM     48  C   UNL A   1      47.237  30.346  27.672  1.00  0.00     0.074 A 
ATOM     49  C   UNL A   1      46.607  24.162  26.469  1.00  0.00     0.029 A 
ATOM     50  N   UNL A   1      46.254  26.300  26.970  1.00  0.00    -0.354 N 
ATOM     51  N   UNL A   1      47.017  29.078  27.422  1.00  0.00    -0.248 NA
ATOM     52  C   UNL A   1      48.661  30.720  27.656  1.00  0.00     0.031 C 
ATOM     53  C   UNL A   1      47.842  24.819  26.495  1.00  0.00     0.029 A 
ATOM     54  C   UNL A   1      47.620  26.155  26.792  1.00  0.00     0.049 A 
ATOM     55  H   UNL A   1      45.801  27.146  27.190  1.00  0.00     0.167 HD
ATOM     56  C   UNL A   1      48.268  28.509  27.201  1.00  0.00     0.074 A 
ATOM     57  C   UNL A   1      49.242  29.571  27.333  1.00  0.00     0.031 C 
ATOM     58  C   UNL A   1      48.582  27.220  26.917  1.00  0.00     0.037 A 
BRANCH  45  59
ATOM     59  C   UNL A   1      43.680  23.468  26.775  1.00  0.00     0.058 A 
ATOM     60  C   UNL A   1      43.416  22.633  27.870  1.00  0.00     0.135 A 
ATOM     61  C   UNL A   1      43.450  22.963  25.486  1.00  0.00     0.135 A 
ATOM     62  F   UNL A   1      43.645  23.065  29.121  1.00  0.00    -0.206 F 
ATOM     63  C   UNL A   1      42.968  21.330  27.693  1.00  0.00     0.059 A 
ATOM     64  C   UNL A   1      42.986  21.668  25.286  1.00  0.00     0.059 A 
ATOM     65  F   UNL A   1      43.701  23.722  24.408  1.00  0.00    -0.206 F 
ATOM     66  C   UNL A   1      42.764  20.854  26.397  1.00  0.00     0.060 A 
BRANCH  66  67
ATOM     67  S   UNL A   1      42.214  19.149  26.176  1.00  0.00     0.124 S 
ATOM     68  O   UNL A   1      40.824  19.345  25.776  1.00  0.00    -0.237 OA
ATOM     69  O   UNL A   1      43.111  18.661  25.133  1.00  0.00    -0.237 OA
ATOM     70  O   UNL A   1      42.410  18.556  27.495  1.00  0.00    -0.744 OA
ENDBRANCH  66  67
ENDBRANCH  45  59
BRANCH  46  71
ATOM     71  C   UNL A   1      46.726  32.847  28.133  1.00  0.00     0.058 A 
ATOM     72  C   UNL A   1      46.763  33.728  27.042  1.00  0.00     0.135 A 
ATOM     73  C   UNL A   1      47.214  33.311  29.364  1.00  0.00     0.135 A 
ATOM     74  F   UNL A   1      46.323  33.324  25.840  1.00  0.00    -0.206 F 
ATOM     75  C   UNL A   1      47.290  35.010  27.157  1.00  0.00     0.059 A 
ATOM     76  C   UNL A   1      47.724  34.597  29.510  1.00  0.00     0.059 A 
ATOM     77  F   UNL A   1      47.198  32.507  30.439  1.00  0.00    -0.206 F 
ATOM     78  C   UNL A   1      47.774  35.433  28.396  1.00  0.00     0.060 A 
BRANCH  78  79
ATOM     79  S   UNL A   1      48.454  37.101  28.542  1.00  0.00     0.124 S 
ATOM     80  O   UNL A   1      47.610  37.841  27.609  1.00  0.00    -0.237 OA
ATOM     81  O   UNL A   1      48.251  37.395  29.956  1.00  0.00    -0.237 OA
ATOM     82  O   UNL A   1      49.845  36.931  28.136  1.00  0.00    -0.744 OA
ENDBRANCH  78  79
ENDBRANCH  46  71
BRANCH  58  83
ATOM     83  C   UNL A   1      50.032  26.877  26.708  1.00  0.00     0.058 A 
ATOM     84  C   UNL A   1      50.867  26.529  27.780  1.00  0.00     0.135 A 
ATOM     85  C   UNL A   1      50.569  26.818  25.411  1.00  0.00     0.135 A 
ATOM     86  F   UNL A   1      50.404  26.573  29.039  1.00  0.00    -0.206 F 
ATOM     87  C   UNL A   1      52.189  26.142  27.576  1.00  0.00     0.059 A 
ATOM     88  C   UNL A   1      51.881  26.412  25.182  1.00  0.00     0.059 A 
ATOM     89  F   UNL A   1      49.809  27.131  24.350  1.00  0.00    -0.206 F 
ATOM     90  C   UNL A   1      52.686  26.082  26.272  1.00  0.00     0.060 A 
BRANCH  90  91
ATOM     91  S   UNL A   1      54.383  25.521  26.012  1.00  0.00     0.124 S 
ATOM     92  O   UNL A   1      54.664  24.842  27.271  1.00  0.00    -0.237 OA
ATOM     93  O   UNL A   1      54.255  24.660  24.841  1.00  0.00    -0.237 OA
ATOM     94  O   UNL A   1      55.118  26.763  25.790  1.00  0.00    -0.744 OA
ENDBRANCH  90  91
ENDBRANCH  58  83
ENDBRANCH  32  33
ENDBRANCH  25  27
ENDBRANCH  24  25
ENDBRANCH  23  24
ENDBRANCH   1  23
TORSDOF 17
ENDMDL
