MODEL 1
REMARK VINA RESULT:     -11.9      0.000      0.000
REMARK SMILES CC(C)C(=O)Nc1ccc(NC(=O)[C@@H]2[C@@H](C(=O)OCCOC(=O)c3ccc(-c4c5nc(c(-c6c(F)cc(S(=O)(=O)[O-])cc6F)c6ccc([nH]6)c(-c6c(F)cc(S(=O)(=O)[O-])cc6F)c6nc(c(-c7c(F)cc(S(=O)(=O)[O-])cc7F)c7ccc4[nH]7)C=C6)C=C5)cc3)C2(C)C)cc1Cl
REMARK SMILES IDX 19 1 18 2 16 3 17 4 15 5 14 6 90 7 91 8 92 9 12 10 11 11
REMARK SMILES IDX 13 13 10 14 7 15 8 16 94 17 9 18 93 19 95 20 6 21 4 22 5 23
REMARK SMILES IDX 2 25 1 26 3 27 20 28 21 29 22 30 23 31 24 32 25 33 89 34
REMARK SMILES IDX 26 35 88 36 27 37 28 38 29 39 82 40 30 41 87 42 81 43 83 44
REMARK SMILES IDX 31 45 86 46 80 47 79 48 32 50 66 51 45 52 65 53 46 54 49 55
REMARK SMILES IDX 64 56 84 57 47 58 48 59 63 61 85 62 50 63 33 64 34 65 43 66
REMARK SMILES IDX 35 67 36 68 42 69 44 70 37 71 38 72 39 73 40 74 41 75 67 76
REMARK SMILES IDX 68 77 77 78 69 79 70 80 76 81 78 82 71 83 72 84 73 85 74 86
REMARK SMILES IDX 75 87 51 88 52 89 61 90 53 91 54 92 60 93 62 94 55 95 56 96
REMARK SMILES IDX 57 97 58 98 59 99
REMARK H PARENT 11 12 6 24 83 49 49 60
REMARK Flexibility Score: inf
ROOT
ATOM      1  C   UNL A   1      32.139  30.053  25.477  1.00  0.00     0.274 C 
ENDROOT
BRANCH   1   2
ATOM      2  O   UNL A   1      30.988  29.248  25.159  1.00  0.00    -0.462 OA
BRANCH   2   3
ATOM      3  C   UNL A   1      31.139  28.423  24.094  1.00  0.00     0.310 C 
ATOM      4  O   UNL A   1      30.412  28.406  23.110  1.00  0.00    -0.252 OA
BRANCH   3   5
ATOM      5  C   UNL A   1      32.343  27.562  24.140  1.00  0.00     0.118 C 
ATOM      6  C   UNL A   1      32.345  26.148  23.600  1.00  0.00     0.100 C 
ATOM      7  C   UNL A   1      32.648  26.408  25.086  1.00  0.00    -0.009 C 
ATOM      8  C   UNL A   1      31.634  25.878  26.083  1.00  0.00     0.013 C 
ATOM      9  C   UNL A   1      34.072  26.338  25.602  1.00  0.00     0.013 C 
BRANCH   6  10
ATOM     10  C   UNL A   1      33.363  25.860  22.556  1.00  0.00     0.228 C 
ATOM     11  N   UNL A   1      33.861  24.602  22.325  1.00  0.00    -0.326 N 
ATOM     12  H   UNL A   1      34.503  24.572  21.579  1.00  0.00     0.169 HD
ATOM     13  O   UNL A   1      33.764  26.781  21.848  1.00  0.00    -0.274 OA
BRANCH  11  14
ATOM     14  C   UNL A   1      33.653  23.353  22.924  1.00  0.00     0.042 A 
ATOM     15  C   UNL A   1      33.149  21.078  24.502  1.00  0.00     0.060 A 
ATOM     16  C   UNL A   1      32.347  21.368  23.401  1.00  0.00     0.030 A 
ATOM     17  C   UNL A   1      34.339  21.792  24.653  1.00  0.00     0.066 A 
ATOM     18  C   UNL A   1      32.620  22.484  22.606  1.00  0.00     0.028 A 
ATOM     19  C   UNL A   1      34.561  22.959  23.911  1.00  0.00     0.048 A 
ATOM     20  Cl  UNL A   1      35.693  21.133  25.506  1.00  0.00    -0.082 Cl
BRANCH  15  21
ATOM     21  N   UNL A   1      32.734  20.018  25.317  1.00  0.00    -0.325 N 
ATOM     22  C   UNL A   1      32.898  18.669  25.197  1.00  0.00     0.226 C 
ATOM     23  O   UNL A   1      32.326  17.976  26.051  1.00  0.00    -0.274 OA
ATOM     24  H   UNL A   1      32.237  20.296  26.121  1.00  0.00     0.169 HD
BRANCH  22  25
ATOM     25  C   UNL A   1      33.824  17.982  24.182  1.00  0.00     0.072 C 
ATOM     26  C   UNL A   1      34.707  16.878  24.735  1.00  0.00     0.018 C 
ATOM     27  C   UNL A   1      33.143  17.573  22.880  1.00  0.00     0.018 C 
ENDBRANCH  22  25
ENDBRANCH  15  21
ENDBRANCH  11  14
ENDBRANCH   6  10
ENDBRANCH   3   5
ENDBRANCH   2   3
ENDBRANCH   1   2
BRANCH   1  28
ATOM     28  C   UNL A   1      32.375  30.073  26.991  1.00  0.00     0.275 C 
BRANCH  28  29
ATOM     29  O   UNL A   1      33.712  29.646  27.316  1.00  0.00    -0.458 OA
BRANCH  29  30
ATOM     30  C   UNL A   1      34.453  30.521  28.037  1.00  0.00     0.338 C 
ATOM     31  O   UNL A   1      34.081  31.563  28.549  1.00  0.00    -0.246 OA
BRANCH  30  32
ATOM     32  C   UNL A   1      35.818  30.003  28.206  1.00  0.00     0.060 A 
ATOM     33  C   UNL A   1      36.235  29.636  29.485  1.00  0.00     0.016 A 
ATOM     34  C   UNL A   1      36.718  29.998  27.141  1.00  0.00     0.016 A 
ATOM     35  C   UNL A   1      37.555  29.265  29.716  1.00  0.00     0.010 A 
ATOM     36  C   UNL A   1      38.044  29.612  27.369  1.00  0.00     0.010 A 
ATOM     37  C   UNL A   1      38.475  29.256  28.662  1.00  0.00    -0.014 A 
BRANCH  37  38
ATOM     38  C   UNL A   1      39.896  28.928  28.934  1.00  0.00     0.031 A 
ATOM     39  C   UNL A   1      40.795  29.961  29.554  1.00  0.00     0.074 A 
ATOM     40  C   UNL A   1      40.364  27.696  28.661  1.00  0.00     0.049 A 
ATOM     41  N   UNL A   1      42.080  29.903  29.793  1.00  0.00    -0.248 NA
ATOM     42  C   UNL A   1      40.165  31.227  29.960  1.00  0.00     0.031 C 
ATOM     43  C   UNL A   1      39.573  26.595  28.110  1.00  0.00     0.029 A 
ATOM     44  N   UNL A   1      41.619  27.161  28.811  1.00  0.00    -0.354 N 
ATOM     45  C   UNL A   1      42.419  31.131  30.348  1.00  0.00     0.074 A 
ATOM     46  C   UNL A   1      41.206  31.919  30.403  1.00  0.00     0.031 C 
ATOM     47  C   UNL A   1      40.359  25.515  27.975  1.00  0.00     0.029 A 
ATOM     48  C   UNL A   1      41.719  25.860  28.378  1.00  0.00     0.049 A 
ATOM     49  H   UNL A   1      42.377  27.662  29.192  1.00  0.00     0.167 HD
ATOM     50  C   UNL A   1      43.632  31.558  30.774  1.00  0.00     0.037 A 
ATOM     51  C   UNL A   1      42.790  25.050  28.285  1.00  0.00     0.037 A 
ATOM     52  C   UNL A   1      44.829  30.757  30.736  1.00  0.00     0.049 A 
ATOM     53  C   UNL A   1      44.136  25.564  28.719  1.00  0.00     0.074 A 
ATOM     54  C   UNL A   1      46.106  31.096  31.147  1.00  0.00     0.029 A 
ATOM     55  N   UNL A   1      44.895  29.454  30.262  1.00  0.00    -0.354 N 
ATOM     56  N   UNL A   1      44.448  26.737  29.218  1.00  0.00    -0.248 NA
ATOM     57  C   UNL A   1      45.278  24.652  28.568  1.00  0.00     0.031 C 
ATOM     58  C   UNL A   1      46.952  30.012  30.888  1.00  0.00     0.029 A 
ATOM     59  C   UNL A   1      46.193  28.981  30.356  1.00  0.00     0.049 A 
ATOM     60  H   UNL A   1      44.130  28.942  29.912  1.00  0.00     0.167 HD
ATOM     61  C   UNL A   1      45.817  26.697  29.459  1.00  0.00     0.074 A 
ATOM     62  C   UNL A   1      46.271  25.379  29.062  1.00  0.00     0.031 C 
ATOM     63  C   UNL A   1      46.625  27.663  29.961  1.00  0.00     0.037 A 
BRANCH  50  64
ATOM     64  C   UNL A   1      43.731  32.969  31.285  1.00  0.00     0.058 A 
ATOM     65  C   UNL A   1      43.554  33.282  32.642  1.00  0.00     0.135 A 
ATOM     66  C   UNL A   1      44.033  34.020  30.405  1.00  0.00     0.135 A 
ATOM     67  F   UNL A   1      43.246  32.318  33.523  1.00  0.00    -0.206 F 
ATOM     68  C   UNL A   1      43.644  34.592  33.104  1.00  0.00     0.059 A 
ATOM     69  C   UNL A   1      44.152  35.335  30.848  1.00  0.00     0.059 A 
ATOM     70  F   UNL A   1      44.212  33.776  29.096  1.00  0.00    -0.206 F 
ATOM     71  C   UNL A   1      43.941  35.612  32.197  1.00  0.00     0.060 A 
BRANCH  71  72
ATOM     72  S   UNL A   1      44.047  37.308  32.808  1.00  0.00     0.124 S 
ATOM     73  O   UNL A   1      45.408  37.342  33.335  1.00  0.00    -0.237 OA
ATOM     74  O   UNL A   1      43.816  38.092  31.600  1.00  0.00    -0.237 OA
ATOM     75  O   UNL A   1      42.986  37.377  33.808  1.00  0.00    -0.744 OA
ENDBRANCH  71  72
ENDBRANCH  50  64
BRANCH  51  76
ATOM     76  C   UNL A   1      42.637  23.678  27.731  1.00  0.00     0.058 A 
ATOM     77  C   UNL A   1      42.511  22.565  28.574  1.00  0.00     0.135 A 
ATOM     78  C   UNL A   1      42.601  23.456  26.345  1.00  0.00     0.135 A 
ATOM     79  F   UNL A   1      42.551  22.724  29.906  1.00  0.00    -0.206 F 
ATOM     80  C   UNL A   1      42.363  21.278  28.064  1.00  0.00     0.059 A 
ATOM     81  C   UNL A   1      42.428  22.183  25.813  1.00  0.00     0.059 A 
ATOM     82  F   UNL A   1      42.708  24.489  25.495  1.00  0.00    -0.206 F 
ATOM     83  C   UNL A   1      42.321  21.098  26.680  1.00  0.00     0.060 A 
BRANCH  83  84
ATOM     84  S   UNL A   1      42.080  19.431  26.027  1.00  0.00     0.124 S 
ATOM     85  O   UNL A   1      42.953  19.445  24.860  1.00  0.00    -0.237 OA
ATOM     86  O   UNL A   1      42.515  18.596  27.142  1.00  0.00    -0.237 OA
ATOM     87  O   UNL A   1      40.648  19.387  25.744  1.00  0.00    -0.744 OA
ENDBRANCH  83  84
ENDBRANCH  51  76
BRANCH  63  88
ATOM     88  C   UNL A   1      48.078  27.322  30.137  1.00  0.00     0.058 A 
ATOM     89  C   UNL A   1      49.030  27.628  29.154  1.00  0.00     0.135 A 
ATOM     90  C   UNL A   1      48.528  26.726  31.327  1.00  0.00     0.135 A 
ATOM     91  F   UNL A   1      48.650  28.191  27.997  1.00  0.00    -0.206 F 
ATOM     92  C   UNL A   1      50.379  27.337  29.335  1.00  0.00     0.059 A 
ATOM     93  C   UNL A   1      49.874  26.448  31.539  1.00  0.00     0.059 A 
ATOM     94  F   UNL A   1      47.657  26.423  32.302  1.00  0.00    -0.206 F 
ATOM     95  C   UNL A   1      50.791  26.747  30.532  1.00  0.00     0.060 A 
BRANCH  95  96
ATOM     96  S   UNL A   1      52.547  26.404  30.770  1.00  0.00     0.124 S 
ATOM     97  O   UNL A   1      52.504  25.229  31.633  1.00  0.00    -0.237 OA
ATOM     98  O   UNL A   1      53.010  26.171  29.406  1.00  0.00    -0.237 OA
ATOM     99  O   UNL A   1      53.049  27.625  31.395  1.00  0.00    -0.744 OA
ENDBRANCH  95  96
ENDBRANCH  63  88
ENDBRANCH  37  38
ENDBRANCH  30  32
ENDBRANCH  29  30
ENDBRANCH  28  29
ENDBRANCH   1  28
TORSDOF 18
ENDMDL
MODEL 2
REMARK VINA RESULT:     -11.9      1.406      2.290
REMARK SMILES CC(C)C(=O)Nc1ccc(NC(=O)[C@@H]2[C@@H](C(=O)OCCOC(=O)c3ccc(-c4c5nc(c(-c6c(F)cc(S(=O)(=O)[O-])cc6F)c6ccc([nH]6)c(-c6c(F)cc(S(=O)(=O)[O-])cc6F)c6nc(c(-c7c(F)cc(S(=O)(=O)[O-])cc7F)c7ccc4[nH]7)C=C6)C=C5)cc3)C2(C)C)cc1Cl
REMARK SMILES IDX 19 1 18 2 16 3 17 4 15 5 14 6 90 7 91 8 92 9 12 10 11 11
REMARK SMILES IDX 13 13 10 14 7 15 8 16 94 17 9 18 93 19 95 20 6 21 4 22 5 23
REMARK SMILES IDX 2 25 1 26 3 27 20 28 21 29 22 30 23 31 24 32 25 33 89 34
REMARK SMILES IDX 26 35 88 36 27 37 28 38 29 39 82 40 30 41 87 42 81 43 83 44
REMARK SMILES IDX 31 45 86 46 80 47 79 48 32 50 66 51 45 52 65 53 46 54 49 55
REMARK SMILES IDX 64 56 84 57 47 58 48 59 63 61 85 62 50 63 33 64 34 65 43 66
REMARK SMILES IDX 35 67 36 68 42 69 44 70 37 71 38 72 39 73 40 74 41 75 67 76
REMARK SMILES IDX 68 77 77 78 69 79 70 80 76 81 78 82 71 83 72 84 73 85 74 86
REMARK SMILES IDX 75 87 51 88 52 89 61 90 53 91 54 92 60 93 62 94 55 95 56 96
REMARK SMILES IDX 57 97 58 98 59 99
REMARK H PARENT 11 12 6 24 83 49 49 60
REMARK Flexibility Score: inf
ROOT
ATOM      1  C   UNL A   1      32.184  29.815  25.681  1.00  0.00     0.274 C 
ENDROOT
BRANCH   1   2
ATOM      2  O   UNL A   1      31.197  28.793  25.452  1.00  0.00    -0.462 OA
BRANCH   2   3
ATOM      3  C   UNL A   1      31.315  28.130  24.276  1.00  0.00     0.310 C 
ATOM      4  O   UNL A   1      31.733  28.617  23.234  1.00  0.00    -0.252 OA
BRANCH   3   5
ATOM      5  C   UNL A   1      30.983  26.688  24.338  1.00  0.00     0.118 C 
ATOM      6  C   UNL A   1      31.615  25.758  25.350  1.00  0.00     0.100 C 
ATOM      7  C   UNL A   1      31.804  25.504  23.845  1.00  0.00    -0.009 C 
ATOM      8  C   UNL A   1      33.216  25.655  23.308  1.00  0.00     0.013 C 
ATOM      9  C   UNL A   1      31.025  24.406  23.148  1.00  0.00     0.013 C 
BRANCH   6  10
ATOM     10  C   UNL A   1      30.667  25.025  26.230  1.00  0.00     0.228 C 
ATOM     11  N   UNL A   1      30.941  23.788  26.757  1.00  0.00    -0.326 N 
ATOM     12  H   UNL A   1      30.226  23.451  27.344  1.00  0.00     0.169 HD
ATOM     13  O   UNL A   1      29.597  25.555  26.521  1.00  0.00    -0.274 OA
BRANCH  11  14
ATOM     14  C   UNL A   1      32.018  22.901  26.636  1.00  0.00     0.042 A 
ATOM     15  C   UNL A   1      34.295  21.361  26.034  1.00  0.00     0.060 A 
ATOM     16  C   UNL A   1      34.209  22.059  27.236  1.00  0.00     0.030 A 
ATOM     17  C   UNL A   1      33.139  21.244  25.260  1.00  0.00     0.066 A 
ATOM     18  C   UNL A   1      33.065  22.799  27.541  1.00  0.00     0.028 A 
ATOM     19  C   UNL A   1      32.028  22.056  25.524  1.00  0.00     0.048 A 
ATOM     20  Cl  UNL A   1      32.906  19.922  24.168  1.00  0.00    -0.082 Cl
BRANCH  15  21
ATOM     21  N   UNL A   1      35.522  20.749  25.750  1.00  0.00    -0.325 N 
ATOM     22  C   UNL A   1      36.576  21.151  24.983  1.00  0.00     0.226 C 
ATOM     23  O   UNL A   1      37.497  20.332  24.856  1.00  0.00    -0.274 OA
ATOM     24  H   UNL A   1      35.646  19.873  26.182  1.00  0.00     0.169 HD
BRANCH  22  25
ATOM     25  C   UNL A   1      36.749  22.560  24.395  1.00  0.00     0.072 C 
ATOM     26  C   UNL A   1      35.765  22.947  23.306  1.00  0.00     0.018 C 
ATOM     27  C   UNL A   1      36.914  23.664  25.435  1.00  0.00     0.018 C 
ENDBRANCH  22  25
ENDBRANCH  15  21
ENDBRANCH  11  14
ENDBRANCH   6  10
ENDBRANCH   3   5
ENDBRANCH   2   3
ENDBRANCH   1   2
BRANCH   1  28
ATOM     28  C   UNL A   1      32.398  30.026  27.183  1.00  0.00     0.275 C 
BRANCH  28  29
ATOM     29  O   UNL A   1      33.710  29.589  27.590  1.00  0.00    -0.458 OA
BRANCH  29  30
ATOM     30  C   UNL A   1      34.499  30.536  28.150  1.00  0.00     0.338 C 
ATOM     31  O   UNL A   1      34.165  31.633  28.563  1.00  0.00    -0.246 OA
BRANCH  30  32
ATOM     32  C   UNL A   1      35.873  30.030  28.282  1.00  0.00     0.060 A 
ATOM     33  C   UNL A   1      36.315  29.630  29.542  1.00  0.00     0.016 A 
ATOM     34  C   UNL A   1      36.756  30.066  27.202  1.00  0.00     0.016 A 
ATOM     35  C   UNL A   1      37.644  29.267  29.740  1.00  0.00     0.010 A 
ATOM     36  C   UNL A   1      38.089  29.690  27.397  1.00  0.00     0.010 A 
ATOM     37  C   UNL A   1      38.546  29.301  28.671  1.00  0.00    -0.014 A 
BRANCH  37  38
ATOM     38  C   UNL A   1      39.975  28.981  28.910  1.00  0.00     0.031 A 
ATOM     39  C   UNL A   1      40.884  30.023  29.500  1.00  0.00     0.074 A 
ATOM     40  C   UNL A   1      40.442  27.750  28.634  1.00  0.00     0.049 A 
ATOM     41  N   UNL A   1      42.175  29.973  29.707  1.00  0.00    -0.248 NA
ATOM     42  C   UNL A   1      40.257  31.289  29.912  1.00  0.00     0.031 C 
ATOM     43  C   UNL A   1      39.643  26.641  28.112  1.00  0.00     0.029 A 
ATOM     44  N   UNL A   1      41.703  27.222  28.757  1.00  0.00    -0.354 N 
ATOM     45  C   UNL A   1      42.521  31.207  30.245  1.00  0.00     0.074 A 
ATOM     46  C   UNL A   1      41.306  31.990  30.324  1.00  0.00     0.031 C 
ATOM     47  C   UNL A   1      40.431  25.564  27.965  1.00  0.00     0.029 A 
ATOM     48  C   UNL A   1      41.799  25.919  28.331  1.00  0.00     0.049 A 
ATOM     49  H   UNL A   1      42.468  27.730  29.115  1.00  0.00     0.167 HD
ATOM     50  C   UNL A   1      43.742  31.643  30.638  1.00  0.00     0.037 A 
ATOM     51  C   UNL A   1      42.871  25.113  28.217  1.00  0.00     0.037 A 
ATOM     52  C   UNL A   1      44.941  30.848  30.575  1.00  0.00     0.049 A 
ATOM     53  C   UNL A   1      44.225  25.636  28.614  1.00  0.00     0.074 A 
ATOM     54  C   UNL A   1      46.227  31.196  30.952  1.00  0.00     0.029 A 
ATOM     55  N   UNL A   1      45.002  29.541  30.110  1.00  0.00    -0.354 N 
ATOM     56  N   UNL A   1      44.543  26.814  29.097  1.00  0.00    -0.248 NA
ATOM     57  C   UNL A   1      45.367  24.729  28.442  1.00  0.00     0.031 C 
ATOM     58  C   UNL A   1      47.072  30.114  30.679  1.00  0.00     0.029 A 
ATOM     59  C   UNL A   1      46.305  29.075  30.174  1.00  0.00     0.049 A 
ATOM     60  H   UNL A   1      44.232  29.023  29.782  1.00  0.00     0.167 HD
ATOM     61  C   UNL A   1      45.918  26.783  29.303  1.00  0.00     0.074 A 
ATOM     62  C   UNL A   1      46.369  25.464  28.905  1.00  0.00     0.031 C 
ATOM     63  C   UNL A   1      46.734  27.757  29.778  1.00  0.00     0.037 A 
BRANCH  50  64
ATOM     64  C   UNL A   1      43.847  33.058  31.135  1.00  0.00     0.058 A 
ATOM     65  C   UNL A   1      44.089  34.135  30.268  1.00  0.00     0.135 A 
ATOM     66  C   UNL A   1      43.679  33.342  32.500  1.00  0.00     0.135 A 
ATOM     67  F   UNL A   1      44.275  33.917  28.957  1.00  0.00    -0.206 F 
ATOM     68  C   UNL A   1      44.188  35.441  30.740  1.00  0.00     0.059 A 
ATOM     69  C   UNL A   1      43.750  34.643  32.992  1.00  0.00     0.059 A 
ATOM     70  F   UNL A   1      43.447  32.349  33.374  1.00  0.00    -0.206 F 
ATOM     71  C   UNL A   1      44.020  35.684  32.104  1.00  0.00     0.060 A 
BRANCH  71  72
ATOM     72  S   UNL A   1      44.159  37.381  32.704  1.00  0.00     0.124 S 
ATOM     73  O   UNL A   1      45.516  37.388  33.242  1.00  0.00    -0.237 OA
ATOM     74  O   UNL A   1      43.956  38.162  31.489  1.00  0.00    -0.237 OA
ATOM     75  O   UNL A   1      43.092  37.480  33.696  1.00  0.00    -0.744 OA
ENDBRANCH  71  72
ENDBRANCH  50  64
BRANCH  51  76
ATOM     76  C   UNL A   1      42.711  23.736  27.678  1.00  0.00     0.058 A 
ATOM     77  C   UNL A   1      42.567  22.634  28.532  1.00  0.00     0.135 A 
ATOM     78  C   UNL A   1      42.686  23.499  26.294  1.00  0.00     0.135 A 
ATOM     79  F   UNL A   1      42.596  22.807  29.862  1.00  0.00    -0.206 F 
ATOM     80  C   UNL A   1      42.413  21.343  28.035  1.00  0.00     0.059 A 
ATOM     81  C   UNL A   1      42.508  22.221  25.774  1.00  0.00     0.059 A 
ATOM     82  F   UNL A   1      42.811  24.521  25.434  1.00  0.00    -0.206 F 
ATOM     83  C   UNL A   1      42.383  21.147  26.653  1.00  0.00     0.060 A 
BRANCH  83  84
ATOM     84  S   UNL A   1      42.133  19.475  26.017  1.00  0.00     0.124 S 
ATOM     85  O   UNL A   1      40.693  19.462  25.787  1.00  0.00    -0.237 OA
ATOM     86  O   UNL A   1      42.970  19.471  24.822  1.00  0.00    -0.237 OA
ATOM     87  O   UNL A   1      42.606  18.628  27.107  1.00  0.00    -0.744 OA
ENDBRANCH  83  84
ENDBRANCH  51  76
BRANCH  63  88
ATOM     88  C   UNL A   1      48.192  27.424  29.921  1.00  0.00     0.058 A 
ATOM     89  C   UNL A   1      49.129  27.789  28.943  1.00  0.00     0.135 A 
ATOM     90  C   UNL A   1      48.663  26.775  31.074  1.00  0.00     0.135 A 
ATOM     91  F   UNL A   1      48.729  28.405  27.819  1.00  0.00    -0.206 F 
ATOM     92  C   UNL A   1      50.483  27.505  29.094  1.00  0.00     0.059 A 
ATOM     93  C   UNL A   1      50.015  26.502  31.256  1.00  0.00     0.059 A 
ATOM     94  F   UNL A   1      47.807  26.414  32.042  1.00  0.00    -0.206 F 
ATOM     95  C   UNL A   1      50.916  26.861  30.255  1.00  0.00     0.060 A 
BRANCH  95  96
ATOM     96  S   UNL A   1      52.679  26.527  30.456  1.00  0.00     0.124 S 
ATOM     97  O   UNL A   1      52.665  25.468  31.458  1.00  0.00    -0.237 OA
ATOM     98  O   UNL A   1      53.077  26.122  29.111  1.00  0.00    -0.237 OA
ATOM     99  O   UNL A   1      53.218  27.809  30.902  1.00  0.00    -0.744 OA
ENDBRANCH  95  96
ENDBRANCH  63  88
ENDBRANCH  37  38
ENDBRANCH  30  32
ENDBRANCH  29  30
ENDBRANCH  28  29
ENDBRANCH   1  28
TORSDOF 18
ENDMDL
MODEL 3
REMARK VINA RESULT:     -11.8      2.753      3.719
REMARK SMILES CC(C)C(=O)Nc1ccc(NC(=O)[C@@H]2[C@@H](C(=O)OCCOC(=O)c3ccc(-c4c5nc(c(-c6c(F)cc(S(=O)(=O)[O-])cc6F)c6ccc([nH]6)c(-c6c(F)cc(S(=O)(=O)[O-])cc6F)c6nc(c(-c7c(F)cc(S(=O)(=O)[O-])cc7F)c7ccc4[nH]7)C=C6)C=C5)cc3)C2(C)C)cc1Cl
REMARK SMILES IDX 19 1 18 2 16 3 17 4 15 5 14 6 90 7 91 8 92 9 12 10 11 11
REMARK SMILES IDX 13 13 10 14 7 15 8 16 94 17 9 18 93 19 95 20 6 21 4 22 5 23
REMARK SMILES IDX 2 25 1 26 3 27 20 28 21 29 22 30 23 31 24 32 25 33 89 34
REMARK SMILES IDX 26 35 88 36 27 37 28 38 29 39 82 40 30 41 87 42 81 43 83 44
REMARK SMILES IDX 31 45 86 46 80 47 79 48 32 50 66 51 45 52 65 53 46 54 49 55
REMARK SMILES IDX 64 56 84 57 47 58 48 59 63 61 85 62 50 63 33 64 34 65 43 66
REMARK SMILES IDX 35 67 36 68 42 69 44 70 37 71 38 72 39 73 40 74 41 75 67 76
REMARK SMILES IDX 68 77 77 78 69 79 70 80 76 81 78 82 71 83 72 84 73 85 74 86
REMARK SMILES IDX 75 87 51 88 52 89 61 90 53 91 54 92 60 93 62 94 55 95 56 96
REMARK SMILES IDX 57 97 58 98 59 99
REMARK H PARENT 11 12 6 24 83 49 49 60
REMARK Flexibility Score: inf
ROOT
ATOM      1  C   UNL A   1      33.350  29.725  27.032  1.00  0.00     0.274 C 
ENDROOT
BRANCH   1   2
ATOM      2  O   UNL A   1      32.399  28.649  26.926  1.00  0.00    -0.462 OA
BRANCH   2   3
ATOM      3  C   UNL A   1      31.802  28.525  25.716  1.00  0.00     0.310 C 
ATOM      4  O   UNL A   1      31.538  29.453  24.963  1.00  0.00    -0.252 OA
BRANCH   3   5
ATOM      5  C   UNL A   1      31.554  27.129  25.285  1.00  0.00     0.118 C 
ATOM      6  C   UNL A   1      31.892  25.943  26.162  1.00  0.00     0.100 C 
ATOM      7  C   UNL A   1      32.559  26.099  24.784  1.00  0.00    -0.009 C 
ATOM      8  C   UNL A   1      34.056  26.350  24.784  1.00  0.00     0.013 C 
ATOM      9  C   UNL A   1      32.104  25.253  23.612  1.00  0.00     0.013 C 
BRANCH   6  10
ATOM     10  C   UNL A   1      30.762  25.026  26.468  1.00  0.00     0.228 C 
ATOM     11  N   UNL A   1      30.919  23.672  26.621  1.00  0.00    -0.326 N 
ATOM     12  H   UNL A   1      30.082  23.210  26.852  1.00  0.00     0.169 HD
ATOM     13  O   UNL A   1      29.638  25.500  26.614  1.00  0.00    -0.274 OA
BRANCH  11  14
ATOM     14  C   UNL A   1      32.015  22.806  26.517  1.00  0.00     0.042 A 
ATOM     15  C   UNL A   1      34.331  21.311  25.948  1.00  0.00     0.060 A 
ATOM     16  C   UNL A   1      34.214  22.007  27.149  1.00  0.00     0.030 A 
ATOM     17  C   UNL A   1      33.189  21.172  25.157  1.00  0.00     0.066 A 
ATOM     18  C   UNL A   1      33.051  22.725  27.436  1.00  0.00     0.028 A 
ATOM     19  C   UNL A   1      32.059  21.961  25.404  1.00  0.00     0.048 A 
ATOM     20  Cl  UNL A   1      32.998  19.845  24.062  1.00  0.00    -0.082 Cl
BRANCH  15  21
ATOM     21  N   UNL A   1      35.574  20.724  25.683  1.00  0.00    -0.325 N 
ATOM     22  C   UNL A   1      36.636  21.152  24.940  1.00  0.00     0.226 C 
ATOM     23  O   UNL A   1      37.573  20.350  24.824  1.00  0.00    -0.274 OA
ATOM     24  H   UNL A   1      35.705  19.846  26.109  1.00  0.00     0.169 HD
BRANCH  22  25
ATOM     25  C   UNL A   1      36.795  22.569  24.369  1.00  0.00     0.072 C 
ATOM     26  C   UNL A   1      35.765  22.984  23.335  1.00  0.00     0.018 C 
ATOM     27  C   UNL A   1      37.020  23.652  25.419  1.00  0.00     0.018 C 
ENDBRANCH  22  25
ENDBRANCH  15  21
ENDBRANCH  11  14
ENDBRANCH   6  10
ENDBRANCH   3   5
ENDBRANCH   2   3
ENDBRANCH   1   2
BRANCH   1  28
ATOM     28  C   UNL A   1      34.700  29.198  27.528  1.00  0.00     0.275 C 
BRANCH  28  29
ATOM     29  O   UNL A   1      35.592  30.281  27.861  1.00  0.00    -0.458 OA
BRANCH  29  30
ATOM     30  C   UNL A   1      36.205  30.191  29.065  1.00  0.00     0.338 C 
ATOM     31  O   UNL A   1      35.685  30.220  30.167  1.00  0.00    -0.246 OA
BRANCH  30  32
ATOM     32  C   UNL A   1      37.645  29.964  28.879  1.00  0.00     0.060 A 
ATOM     33  C   UNL A   1      38.121  29.743  27.588  1.00  0.00     0.016 A 
ATOM     34  C   UNL A   1      38.498  29.845  29.977  1.00  0.00     0.016 A 
ATOM     35  C   UNL A   1      39.452  29.396  27.377  1.00  0.00     0.010 A 
ATOM     36  C   UNL A   1      39.840  29.508  29.765  1.00  0.00     0.010 A 
ATOM     37  C   UNL A   1      40.323  29.267  28.465  1.00  0.00    -0.014 A 
BRANCH  37  38
ATOM     38  C   UNL A   1      41.720  28.827  28.234  1.00  0.00     0.031 A 
ATOM     39  C   UNL A   1      42.841  29.827  28.314  1.00  0.00     0.074 A 
ATOM     40  C   UNL A   1      41.984  27.529  27.993  1.00  0.00     0.049 A 
ATOM     41  N   UNL A   1      44.114  29.663  28.063  1.00  0.00    -0.248 NA
ATOM     42  C   UNL A   1      42.480  31.190  28.732  1.00  0.00     0.031 C 
ATOM     43  C   UNL A   1      40.987  26.459  27.947  1.00  0.00     0.029 A 
ATOM     44  N   UNL A   1      43.172  26.888  27.743  1.00  0.00    -0.354 N 
ATOM     45  C   UNL A   1      44.702  30.906  28.263  1.00  0.00     0.074 A 
ATOM     46  C   UNL A   1      43.645  31.817  28.647  1.00  0.00     0.031 C 
ATOM     47  C   UNL A   1      41.604  25.295  27.691  1.00  0.00     0.029 A 
ATOM     48  C   UNL A   1      43.031  25.542  27.502  1.00  0.00     0.049 A 
ATOM     49  H   UNL A   1      44.042  27.349  27.735  1.00  0.00     0.167 HD
ATOM     50  C   UNL A   1      46.007  31.252  28.138  1.00  0.00     0.037 A 
ATOM     51  C   UNL A   1      43.941  24.619  27.139  1.00  0.00     0.037 A 
ATOM     52  C   UNL A   1      47.054  30.332  27.777  1.00  0.00     0.049 A 
ATOM     53  C   UNL A   1      45.375  25.038  26.959  1.00  0.00     0.074 A 
ATOM     54  C   UNL A   1      48.407  30.582  27.628  1.00  0.00     0.029 A 
ATOM     55  N   UNL A   1      46.867  28.982  27.512  1.00  0.00    -0.354 N 
ATOM     56  N   UNL A   1      45.914  26.222  27.126  1.00  0.00    -0.248 NA
ATOM     57  C   UNL A   1      46.324  24.000  26.532  1.00  0.00     0.031 C 
ATOM     58  C   UNL A   1      49.032  29.392  27.237  1.00  0.00     0.029 A 
ATOM     59  C   UNL A   1      48.076  28.390  27.185  1.00  0.00     0.049 A 
ATOM     60  H   UNL A   1      46.001  28.515  27.552  1.00  0.00     0.167 HD
ATOM     61  C   UNL A   1      47.267  26.068  26.843  1.00  0.00     0.074 A 
ATOM     62  C   UNL A   1      47.466  24.673  26.507  1.00  0.00     0.031 C 
ATOM     63  C   UNL A   1      48.255  26.998  26.859  1.00  0.00     0.037 A 
BRANCH  50  64
ATOM     64  C   UNL A   1      46.367  32.695  28.359  1.00  0.00     0.058 A 
ATOM     65  C   UNL A   1      46.781  33.174  29.612  1.00  0.00     0.135 A 
ATOM     66  C   UNL A   1      46.318  33.608  27.294  1.00  0.00     0.135 A 
ATOM     67  F   UNL A   1      46.829  32.348  30.669  1.00  0.00    -0.206 F 
ATOM     68  C   UNL A   1      47.109  34.513  29.807  1.00  0.00     0.059 A 
ATOM     69  C   UNL A   1      46.664  34.946  27.459  1.00  0.00     0.059 A 
ATOM     70  F   UNL A   1      45.927  33.203  26.074  1.00  0.00    -0.206 F 
ATOM     71  C   UNL A   1      47.043  35.392  28.724  1.00  0.00     0.060 A 
BRANCH  71  72
ATOM     72  S   UNL A   1      47.463  37.127  28.992  1.00  0.00     0.124 S 
ATOM     73  O   UNL A   1      46.237  37.631  29.603  1.00  0.00    -0.237 OA
ATOM     74  O   UNL A   1      48.621  37.038  29.875  1.00  0.00    -0.237 OA
ATOM     75  O   UNL A   1      47.741  37.622  27.647  1.00  0.00    -0.744 OA
ENDBRANCH  71  72
ENDBRANCH  50  64
BRANCH  51  76
ATOM     76  C   UNL A   1      43.517  23.215  26.893  1.00  0.00     0.058 A 
ATOM     77  C   UNL A   1      43.428  22.701  25.592  1.00  0.00     0.135 A 
ATOM     78  C   UNL A   1      43.205  22.356  27.959  1.00  0.00     0.135 A 
ATOM     79  F   UNL A   1      43.704  23.486  24.539  1.00  0.00    -0.206 F 
ATOM     80  C   UNL A   1      43.035  21.387  25.353  1.00  0.00     0.059 A 
ATOM     81  C   UNL A   1      42.835  21.032  27.747  1.00  0.00     0.059 A 
ATOM     82  F   UNL A   1      43.284  22.796  29.224  1.00  0.00    -0.206 F 
ATOM     83  C   UNL A   1      42.742  20.558  26.439  1.00  0.00     0.060 A 
BRANCH  83  84
ATOM     84  S   UNL A   1      42.281  18.841  26.124  1.00  0.00     0.124 S 
ATOM     85  O   UNL A   1      43.230  18.470  25.080  1.00  0.00    -0.237 OA
ATOM     86  O   UNL A   1      42.491  18.220  27.427  1.00  0.00    -0.237 OA
ATOM     87  O   UNL A   1      40.887  18.941  25.703  1.00  0.00    -0.744 OA
ENDBRANCH  83  84
ENDBRANCH  51  76
BRANCH  63  88
ATOM     88  C   UNL A   1      49.644  26.530  26.530  1.00  0.00     0.058 A 
ATOM     89  C   UNL A   1      50.156  26.602  25.226  1.00  0.00     0.135 A 
ATOM     90  C   UNL A   1      50.490  26.051  27.544  1.00  0.00     0.135 A 
ATOM     91  F   UNL A   1      49.386  27.047  24.221  1.00  0.00    -0.206 F 
ATOM     92  C   UNL A   1      51.455  26.196  24.933  1.00  0.00     0.059 A 
ATOM     93  C   UNL A   1      51.799  25.661  27.277  1.00  0.00     0.059 A 
ATOM     94  F   UNL A   1      50.051  25.971  28.809  1.00  0.00    -0.206 F 
ATOM     95  C   UNL A   1      52.268  25.727  25.966  1.00  0.00     0.060 A 
BRANCH  95  96
ATOM     96  S   UNL A   1      53.962  25.234  25.581  1.00  0.00     0.124 S 
ATOM     97  O   UNL A   1      53.743  24.072  24.727  1.00  0.00    -0.237 OA
ATOM     98  O   UNL A   1      54.490  26.420  24.914  1.00  0.00    -0.237 OA
ATOM     99  O   UNL A   1      54.539  24.951  26.892  1.00  0.00    -0.744 OA
ENDBRANCH  95  96
ENDBRANCH  63  88
ENDBRANCH  37  38
ENDBRANCH  30  32
ENDBRANCH  29  30
ENDBRANCH  28  29
ENDBRANCH   1  28
TORSDOF 18
ENDMDL
