MODEL 1
REMARK VINA RESULT:     -11.3      0.000      0.000
REMARK SMILES O=C(Cn1c(-c2nc(-c3ccc(C(F)(F)F)cc3)no2)cc2ccccc21)OCCOC(=O)c1ccc(-c2c3nc(c(-c4c(F)cc(S(=O)(=O)[O-])cc4F)c4ccc([nH]4)c(-c4c(F)cc(S(=O)(=O)[O-])cc4F)c4nc(c(-c5c(F)cc(S(=O)(=O)[O-])cc5F)c5ccc2[nH]5)C=C4)C=C3)cc1
REMARK SMILES IDX 29 1 28 2 2 3 1 4 3 5 4 6 5 7 27 8 21 9 22 10 26 11 23 12
REMARK SMILES IDX 25 13 24 14 6 15 7 16 20 17 8 18 19 19 9 20 10 21 18 22
REMARK SMILES IDX 11 23 17 24 12 25 13 26 14 27 15 28 16 29 30 30 31 31 32 32
REMARK SMILES IDX 33 33 34 34 35 35 99 36 36 37 98 38 37 39 38 40 39 41 92 42
REMARK SMILES IDX 40 43 97 44 91 45 93 46 41 47 96 48 90 49 89 50 42 52 76 53
REMARK SMILES IDX 55 54 75 55 56 56 59 57 74 58 94 59 57 60 58 61 73 63 95 64
REMARK SMILES IDX 60 65 43 66 44 67 53 68 45 69 46 70 52 71 54 72 47 73 48 74
REMARK SMILES IDX 49 75 50 76 51 77 77 78 78 79 87 80 79 81 80 82 86 83 88 84
REMARK SMILES IDX 81 85 82 86 83 87 84 88 85 89 61 90 62 91 71 92 63 93 64 94
REMARK SMILES IDX 70 95 72 96 65 97 66 98 67 99 68 100 69 101
REMARK H PARENT 93 51 59 62
REMARK Flexibility Score: inf
ROOT
ATOM      1  C   UNL A   1      48.423  37.803  25.554  1.00  0.00     0.274 C 
ENDROOT
BRANCH   1   2
ATOM      2  O   UNL A   1      48.117  38.705  26.610  1.00  0.00    -0.461 OA
BRANCH   2   3
ATOM      3  C   UNL A   1      47.455  39.859  26.322  1.00  0.00     0.326 C 
ATOM      4  O   UNL A   1      47.714  40.859  26.980  1.00  0.00    -0.250 OA
BRANCH   3   5
ATOM      5  C   UNL A   1      46.276  39.761  25.395  1.00  0.00     0.245 C 
BRANCH   5   6
ATOM      6  N   UNL A   1      44.964  40.276  25.721  1.00  0.00    -0.325 N 
ATOM      7  C   UNL A   1      44.433  41.502  25.337  1.00  0.00     0.109 A 
ATOM      8  C   UNL A   1      44.222  39.710  26.743  1.00  0.00     0.049 A 
ATOM      9  C   UNL A   1      43.288  41.663  26.106  1.00  0.00     0.042 A 
ATOM     10  C   UNL A   1      43.039  40.431  26.795  1.00  0.00     0.000 A 
ATOM     11  C   UNL A   1      44.452  38.599  27.573  1.00  0.00     0.027 A 
ATOM     12  C   UNL A   1      41.956  39.848  27.482  1.00  0.00     0.010 A 
ATOM     13  C   UNL A   1      43.339  37.944  28.079  1.00  0.00     0.002 A 
ATOM     14  C   UNL A   1      42.093  38.546  27.997  1.00  0.00     0.001 A 
BRANCH   7  15
ATOM     15  C   UNL A   1      45.030  42.351  24.313  1.00  0.00     0.274 A 
ATOM     16  N   UNL A   1      45.002  42.261  22.610  1.00  0.00    -0.185 NA
ATOM     17  O   UNL A   1      45.704  44.117  24.699  1.00  0.00    -0.332 OA
ATOM     18  C   UNL A   1      45.568  43.908  21.709  1.00  0.00     0.202 A 
ATOM     19  N   UNL A   1      46.085  45.059  22.958  1.00  0.00    -0.057 NA
BRANCH  18  20
ATOM     20  C   UNL A   1      44.426  44.674  20.673  1.00  0.00     0.023 A 
ATOM     21  C   UNL A   1      45.150  46.013  19.859  1.00  0.00     0.013 A 
ATOM     22  C   UNL A   1      42.543  44.032  19.997  1.00  0.00     0.013 A 
ATOM     23  C   UNL A   1      44.313  46.638  18.497  1.00  0.00     0.014 A 
ATOM     24  C   UNL A   1      41.878  44.807  18.561  1.00  0.00     0.014 A 
ATOM     25  C   UNL A   1      42.800  46.059  17.859  1.00  0.00     0.056 A 
BRANCH  25  26
ATOM     26  C   UNL A   1      42.231  46.905  16.731  1.00  0.00     0.416 C 
ATOM     27  F   UNL A   1      41.254  47.746  17.177  1.00  0.00    -0.166 F 
ATOM     28  F   UNL A   1      43.159  47.683  16.122  1.00  0.00    -0.166 F 
ATOM     29  F   UNL A   1      41.640  46.168  15.747  1.00  0.00    -0.166 F 
ENDBRANCH  25  26
ENDBRANCH  18  20
ENDBRANCH   7  15
ENDBRANCH   5   6
ENDBRANCH   3   5
ENDBRANCH   2   3
ENDBRANCH   1   2
BRANCH   1  30
ATOM     30  C   UNL A   1      49.373  36.664  25.975  1.00  0.00     0.275 C 
BRANCH  30  31
ATOM     31  O   UNL A   1      48.747  35.605  26.739  1.00  0.00    -0.458 OA
BRANCH  31  32
ATOM     32  C   UNL A   1      47.716  34.934  26.146  1.00  0.00     0.338 C 
ATOM     33  O   UNL A   1      47.832  33.995  25.379  1.00  0.00    -0.246 OA
BRANCH  32  34
ATOM     34  C   UNL A   1      46.445  35.274  26.857  1.00  0.00     0.060 A 
ATOM     35  C   UNL A   1      46.403  35.606  28.219  1.00  0.00     0.016 A 
ATOM     36  C   UNL A   1      45.274  34.865  26.214  1.00  0.00     0.016 A 
ATOM     37  C   UNL A   1      45.343  35.112  28.986  1.00  0.00     0.010 A 
ATOM     38  C   UNL A   1      44.168  34.523  26.967  1.00  0.00     0.010 A 
ATOM     39  C   UNL A   1      44.325  34.357  28.347  1.00  0.00    -0.014 A 
BRANCH  39  40
ATOM     40  C   UNL A   1      43.286  33.345  29.198  1.00  0.00     0.031 A 
ATOM     41  C   UNL A   1      43.995  31.987  28.391  1.00  0.00     0.074 A 
ATOM     42  C   UNL A   1      42.017  33.464  30.658  1.00  0.00     0.049 A 
ATOM     43  N   UNL A   1      43.364  30.504  28.590  1.00  0.00    -0.248 NA
ATOM     44  C   UNL A   1      45.932  32.067  28.787  1.00  0.00     0.031 C 
ATOM     45  C   UNL A   1      41.180  34.755  31.334  1.00  0.00     0.029 A 
ATOM     46  N   UNL A   1      41.289  32.523  31.677  1.00  0.00    -0.354 N 
ATOM     47  C   UNL A   1      44.603  29.342  29.377  1.00  0.00     0.074 A 
ATOM     48  C   UNL A   1      46.314  30.602  29.395  1.00  0.00     0.031 C 
ATOM     49  C   UNL A   1      40.596  34.524  32.529  1.00  0.00     0.029 A 
ATOM     50  C   UNL A   1      40.695  33.145  32.906  1.00  0.00     0.049 A 
ATOM     51  H   UNL A   1      41.223  31.555  31.515  1.00  0.00     0.167 HD
ATOM     52  C   UNL A   1      43.886  28.236  29.873  1.00  0.00     0.037 A 
ATOM     53  C   UNL A   1      40.133  32.605  34.083  1.00  0.00     0.037 A 
ATOM     54  C   UNL A   1      42.497  28.260  29.399  1.00  0.00     0.049 A 
ATOM     55  C   UNL A   1      39.867  31.183  33.806  1.00  0.00     0.074 A 
ATOM     56  C   UNL A   1      41.807  28.385  28.199  1.00  0.00     0.029 A 
ATOM     57  N   UNL A   1      41.565  28.509  30.367  1.00  0.00    -0.354 N 
ATOM     58  N   UNL A   1      39.008  30.804  32.904  1.00  0.00    -0.248 NA
ATOM     59  C   UNL A   1      41.027  30.343  34.063  1.00  0.00     0.031 C 
ATOM     60  C   UNL A   1      40.592  29.086  28.500  1.00  0.00     0.029 A 
ATOM     61  C   UNL A   1      40.492  29.206  29.879  1.00  0.00     0.049 A 
ATOM     62  H   UNL A   1      41.654  28.221  31.304  1.00  0.00     0.167 HD
ATOM     63  C   UNL A   1      39.789  30.017  32.088  1.00  0.00     0.074 A 
ATOM     64  C   UNL A   1      41.044  29.825  32.836  1.00  0.00     0.031 C 
ATOM     65  C   UNL A   1      39.549  29.866  30.755  1.00  0.00     0.037 A 
BRANCH  52  66
ATOM     66  C   UNL A   1      44.206  27.292  31.005  1.00  0.00     0.058 A 
ATOM     67  C   UNL A   1      44.254  27.780  32.305  1.00  0.00     0.135 A 
ATOM     68  C   UNL A   1      44.583  25.940  30.863  1.00  0.00     0.135 A 
ATOM     69  F   UNL A   1      44.226  29.101  32.529  1.00  0.00    -0.206 F 
ATOM     70  C   UNL A   1      44.358  26.922  33.394  1.00  0.00     0.059 A 
ATOM     71  C   UNL A   1      44.495  25.034  31.906  1.00  0.00     0.059 A 
ATOM     72  F   UNL A   1      45.039  25.451  29.703  1.00  0.00    -0.206 F 
ATOM     73  C   UNL A   1      44.364  25.544  33.182  1.00  0.00     0.060 A 
BRANCH  73  74
ATOM     74  S   UNL A   1      44.203  24.424  34.574  1.00  0.00     0.124 S 
ATOM     75  O   UNL A   1      45.155  24.999  35.517  1.00  0.00    -0.237 OA
ATOM     76  O   UNL A   1      42.792  24.564  34.923  1.00  0.00    -0.237 OA
ATOM     77  O   UNL A   1      44.569  23.131  34.002  1.00  0.00    -0.744 OA
ENDBRANCH  73  74
ENDBRANCH  52  66
BRANCH  53  78
ATOM     78  C   UNL A   1      40.083  33.017  35.593  1.00  0.00     0.058 A 
ATOM     79  C   UNL A   1      38.944  32.909  36.470  1.00  0.00     0.135 A 
ATOM     80  C   UNL A   1      41.289  33.165  36.285  1.00  0.00     0.135 A 
ATOM     81  F   UNL A   1      37.704  32.780  35.964  1.00  0.00    -0.206 F 
ATOM     82  C   UNL A   1      39.032  32.874  37.900  1.00  0.00     0.059 A 
ATOM     83  C   UNL A   1      41.401  33.115  37.692  1.00  0.00     0.059 A 
ATOM     84  F   UNL A   1      42.433  33.277  35.601  1.00  0.00    -0.206 F 
ATOM     85  C   UNL A   1      40.284  32.938  38.502  1.00  0.00     0.060 A 
BRANCH  85  86
ATOM     86  S   UNL A   1      40.510  32.686  40.305  1.00  0.00     0.124 S 
ATOM     87  O   UNL A   1      40.576  34.051  40.817  1.00  0.00    -0.237 OA
ATOM     88  O   UNL A   1      39.321  31.928  40.679  1.00  0.00    -0.237 OA
ATOM     89  O   UNL A   1      41.764  31.939  40.385  1.00  0.00    -0.744 OA
ENDBRANCH  85  86
ENDBRANCH  53  78
BRANCH  65  90
ATOM     90  C   UNL A   1      38.279  30.433  30.152  1.00  0.00     0.058 A 
ATOM     91  C   UNL A   1      36.981  29.880  30.225  1.00  0.00     0.135 A 
ATOM     92  C   UNL A   1      38.378  31.710  29.587  1.00  0.00     0.135 A 
ATOM     93  F   UNL A   1      36.764  28.701  30.826  1.00  0.00    -0.206 F 
ATOM     94  C   UNL A   1      35.850  30.558  29.734  1.00  0.00     0.059 A 
ATOM     95  C   UNL A   1      37.271  32.411  29.120  1.00  0.00     0.059 A 
ATOM     96  F   UNL A   1      39.572  32.321  29.528  1.00  0.00    -0.206 F 
ATOM     97  C   UNL A   1      36.011  31.827  29.177  1.00  0.00     0.060 A 
BRANCH  97  98
ATOM     98  S   UNL A   1      34.576  32.728  28.542  1.00  0.00     0.124 S 
ATOM     99  O   UNL A   1      34.012  33.310  29.756  1.00  0.00    -0.237 OA
ATOM    100  O   UNL A   1      35.182  33.675  27.609  1.00  0.00    -0.237 OA
ATOM    101  O   UNL A   1      33.764  31.685  27.919  1.00  0.00    -0.744 OA
ENDBRANCH  97  98
ENDBRANCH  65  90
ENDBRANCH  39  40
ENDBRANCH  32  34
ENDBRANCH  31  32
ENDBRANCH  30  31
ENDBRANCH   1  30
TORSDOF 18
ENDMDL
MODEL 2
REMARK VINA RESULT:     -11.2      6.432     18.226
REMARK SMILES O=C(Cn1c(-c2nc(-c3ccc(C(F)(F)F)cc3)no2)cc2ccccc21)OCCOC(=O)c1ccc(-c2c3nc(c(-c4c(F)cc(S(=O)(=O)[O-])cc4F)c4ccc([nH]4)c(-c4c(F)cc(S(=O)(=O)[O-])cc4F)c4nc(c(-c5c(F)cc(S(=O)(=O)[O-])cc5F)c5ccc2[nH]5)C=C4)C=C3)cc1
REMARK SMILES IDX 29 1 28 2 2 3 1 4 3 5 4 6 5 7 27 8 21 9 22 10 26 11 23 12
REMARK SMILES IDX 25 13 24 14 6 15 7 16 20 17 8 18 19 19 9 20 10 21 18 22
REMARK SMILES IDX 11 23 17 24 12 25 13 26 14 27 15 28 16 29 30 30 31 31 32 32
REMARK SMILES IDX 33 33 34 34 35 35 99 36 36 37 98 38 37 39 38 40 39 41 92 42
REMARK SMILES IDX 40 43 97 44 91 45 93 46 41 47 96 48 90 49 89 50 42 52 76 53
REMARK SMILES IDX 55 54 75 55 56 56 59 57 74 58 94 59 57 60 58 61 73 63 95 64
REMARK SMILES IDX 60 65 43 66 44 67 53 68 45 69 46 70 52 71 54 72 47 73 48 74
REMARK SMILES IDX 49 75 50 76 51 77 77 78 78 79 87 80 79 81 80 82 86 83 88 84
REMARK SMILES IDX 81 85 82 86 83 87 84 88 85 89 61 90 62 91 71 92 63 93 64 94
REMARK SMILES IDX 70 95 72 96 65 97 66 98 67 99 68 100 69 101
REMARK H PARENT 93 51 59 62
REMARK Flexibility Score: inf
ROOT
ATOM      1  C   UNL A   1      44.585  22.395  35.445  1.00  0.00     0.274 C 
ENDROOT
BRANCH   1   2
ATOM      2  O   UNL A   1      45.372  22.269  36.623  1.00  0.00    -0.461 OA
BRANCH   2   3
ATOM      3  C   UNL A   1      46.209  21.203  36.747  1.00  0.00     0.326 C 
ATOM      4  O   UNL A   1      45.769  20.086  36.508  1.00  0.00    -0.250 OA
BRANCH   3   5
ATOM      5  C   UNL A   1      47.534  21.445  37.415  1.00  0.00     0.245 C 
BRANCH   5   6
ATOM      6  N   UNL A   1      48.684  20.586  37.234  1.00  0.00    -0.325 N 
ATOM      7  C   UNL A   1      49.288  19.792  38.201  1.00  0.00     0.109 A 
ATOM      8  C   UNL A   1      49.500  20.730  36.126  1.00  0.00     0.049 A 
ATOM      9  C   UNL A   1      50.490  19.382  37.640  1.00  0.00     0.042 A 
ATOM     10  C   UNL A   1      50.493  19.772  36.261  1.00  0.00     0.000 A 
ATOM     11  C   UNL A   1      49.420  21.562  34.996  1.00  0.00     0.027 A 
ATOM     12  C   UNL A   1      51.238  19.445  35.111  1.00  0.00     0.010 A 
ATOM     13  C   UNL A   1      50.016  21.107  33.829  1.00  0.00     0.002 A 
ATOM     14  C   UNL A   1      50.886  20.029  33.880  1.00  0.00     0.001 A 
BRANCH   7  15
ATOM     15  C   UNL A   1      48.684  19.502  39.496  1.00  0.00     0.274 A 
ATOM     16  N   UNL A   1      47.165  19.913  40.154  1.00  0.00    -0.185 NA
ATOM     17  O   UNL A   1      49.382  18.150  40.683  1.00  0.00    -0.332 OA
ATOM     18  C   UNL A   1      46.672  18.881  41.747  1.00  0.00     0.202 A 
ATOM     19  N   UNL A   1      48.045  17.831  42.158  1.00  0.00    -0.057 NA
BRANCH  18  20
ATOM     20  C   UNL A   1      45.240  17.930  41.660  1.00  0.00     0.023 A 
ATOM     21  C   UNL A   1      45.101  17.188  40.108  1.00  0.00     0.013 A 
ATOM     22  C   UNL A   1      43.944  17.264  43.173  1.00  0.00     0.013 A 
ATOM     23  C   UNL A   1      43.982  15.893  39.965  1.00  0.00     0.014 A 
ATOM     24  C   UNL A   1      42.888  15.901  42.808  1.00  0.00     0.014 A 
ATOM     25  C   UNL A   1      42.968  15.259  41.230  1.00  0.00     0.056 A 
BRANCH  25  26
ATOM     26  C   UNL A   1      41.974  14.206  40.768  1.00  0.00     0.416 C 
ATOM     27  F   UNL A   1      41.534  14.451  39.500  1.00  0.00    -0.166 F 
ATOM     28  F   UNL A   1      42.486  12.951  40.761  1.00  0.00    -0.166 F 
ATOM     29  F   UNL A   1      40.844  14.157  41.531  1.00  0.00    -0.166 F 
ENDBRANCH  25  26
ENDBRANCH  18  20
ENDBRANCH   7  15
ENDBRANCH   5   6
ENDBRANCH   3   5
ENDBRANCH   2   3
ENDBRANCH   1   2
BRANCH   1  30
ATOM     30  C   UNL A   1      45.325  23.085  34.283  1.00  0.00     0.275 C 
BRANCH  30  31
ATOM     31  O   UNL A   1      44.544  24.075  33.570  1.00  0.00    -0.458 OA
BRANCH  31  32
ATOM     32  C   UNL A   1      44.697  24.132  32.214  1.00  0.00     0.338 C 
ATOM     33  O   UNL A   1      44.432  23.235  31.435  1.00  0.00    -0.246 OA
BRANCH  32  34
ATOM     34  C   UNL A   1      44.876  25.560  31.808  1.00  0.00     0.060 A 
ATOM     35  C   UNL A   1      45.352  26.545  32.686  1.00  0.00     0.016 A 
ATOM     36  C   UNL A   1      44.185  25.944  30.657  1.00  0.00     0.016 A 
ATOM     37  C   UNL A   1      44.763  27.813  32.637  1.00  0.00     0.010 A 
ATOM     38  C   UNL A   1      43.733  27.243  30.535  1.00  0.00     0.010 A 
ATOM     39  C   UNL A   1      43.763  28.069  31.663  1.00  0.00    -0.014 A 
BRANCH  39  40
ATOM     40  C   UNL A   1      42.683  29.351  31.798  1.00  0.00     0.031 A 
ATOM     41  C   UNL A   1      44.022  30.409  32.096  1.00  0.00     0.074 A 
ATOM     42  C   UNL A   1      40.801  29.701  31.499  1.00  0.00     0.049 A 
ATOM     43  N   UNL A   1      43.757  31.956  32.511  1.00  0.00    -0.248 NA
ATOM     44  C   UNL A   1      45.227  30.216  30.538  1.00  0.00     0.031 C 
ATOM     45  C   UNL A   1      39.461  28.693  31.390  1.00  0.00     0.029 A 
ATOM     46  N   UNL A   1      39.837  30.920  31.298  1.00  0.00    -0.354 N 
ATOM     47  C   UNL A   1      44.475  33.129  31.240  1.00  0.00     0.074 A 
ATOM     48  C   UNL A   1      45.474  31.732  29.988  1.00  0.00     0.031 C 
ATOM     49  C   UNL A   1      38.337  29.249  30.887  1.00  0.00     0.029 A 
ATOM     50  C   UNL A   1      38.494  30.659  30.685  1.00  0.00     0.049 A 
ATOM     51  H   UNL A   1      40.106  31.828  31.567  1.00  0.00     0.167 HD
ATOM     52  C   UNL A   1      43.878  34.388  31.445  1.00  0.00     0.037 A 
ATOM     53  C   UNL A   1      37.469  31.508  30.215  1.00  0.00     0.037 A 
ATOM     54  C   UNL A   1      43.113  34.404  32.697  1.00  0.00     0.049 A 
ATOM     55  C   UNL A   1      37.759  32.850  30.748  1.00  0.00     0.074 A 
ATOM     56  C   UNL A   1      43.298  34.084  34.037  1.00  0.00     0.029 A 
ATOM     57  N   UNL A   1      41.757  34.481  32.540  1.00  0.00    -0.354 N 
ATOM     58  N   UNL A   1      37.747  33.104  32.024  1.00  0.00    -0.248 NA
ATOM     59  C   UNL A   1      38.669  33.599  29.894  1.00  0.00     0.031 C 
ATOM     60  C   UNL A   1      42.035  33.602  34.518  1.00  0.00     0.029 A 
ATOM     61  C   UNL A   1      41.087  33.809  33.527  1.00  0.00     0.049 A 
ATOM     62  H   UNL A   1      41.316  34.963  31.804  1.00  0.00     0.167 HD
ATOM     63  C   UNL A   1      39.017  33.598  32.222  1.00  0.00     0.074 A 
ATOM     64  C   UNL A   1      39.552  33.821  30.867  1.00  0.00     0.031 C 
ATOM     65  C   UNL A   1      39.687  33.468  33.402  1.00  0.00     0.037 A 
BRANCH  52  66
ATOM     66  C   UNL A   1      43.640  35.524  30.483  1.00  0.00     0.058 A 
ATOM     67  C   UNL A   1      44.042  36.807  30.833  1.00  0.00     0.135 A 
ATOM     68  C   UNL A   1      42.928  35.435  29.267  1.00  0.00     0.135 A 
ATOM     69  F   UNL A   1      44.439  37.070  32.085  1.00  0.00    -0.206 F 
ATOM     70  C   UNL A   1      44.017  37.848  29.911  1.00  0.00     0.059 A 
ATOM     71  C   UNL A   1      43.061  36.377  28.261  1.00  0.00     0.059 A 
ATOM     72  F   UNL A   1      42.091  34.422  29.012  1.00  0.00    -0.206 F 
ATOM     73  C   UNL A   1      43.629  37.590  28.597  1.00  0.00     0.060 A 
BRANCH  73  74
ATOM     74  S   UNL A   1      43.866  38.839  27.332  1.00  0.00     0.124 S 
ATOM     75  O   UNL A   1      42.668  38.659  26.521  1.00  0.00    -0.237 OA
ATOM     76  O   UNL A   1      43.927  40.068  28.118  1.00  0.00    -0.237 OA
ATOM     77  O   UNL A   1      45.126  38.445  26.710  1.00  0.00    -0.744 OA
ENDBRANCH  73  74
ENDBRANCH  52  66
BRANCH  53  78
ATOM     78  C   UNL A   1      36.412  31.457  29.061  1.00  0.00     0.058 A 
ATOM     79  C   UNL A   1      36.405  30.539  27.949  1.00  0.00     0.135 A 
ATOM     80  C   UNL A   1      35.174  32.076  29.260  1.00  0.00     0.135 A 
ATOM     81  F   UNL A   1      37.523  29.873  27.608  1.00  0.00    -0.206 F 
ATOM     82  C   UNL A   1      35.241  30.225  27.174  1.00  0.00     0.059 A 
ATOM     83  C   UNL A   1      34.010  31.769  28.522  1.00  0.00     0.059 A 
ATOM     84  F   UNL A   1      35.029  32.955  30.259  1.00  0.00    -0.206 F 
ATOM     85  C   UNL A   1      34.029  30.824  27.501  1.00  0.00     0.060 A 
BRANCH  85  86
ATOM     86  S   UNL A   1      32.453  30.324  26.708  1.00  0.00     0.124 S 
ATOM     87  O   UNL A   1      32.868  29.972  25.354  1.00  0.00    -0.237 OA
ATOM     88  O   UNL A   1      32.007  29.212  27.540  1.00  0.00    -0.237 OA
ATOM     89  O   UNL A   1      31.631  31.529  26.803  1.00  0.00    -0.744 OA
ENDBRANCH  85  86
ENDBRANCH  53  78
BRANCH  65  90
ATOM     90  C   UNL A   1      38.968  32.916  34.617  1.00  0.00     0.058 A 
ATOM     91  C   UNL A   1      38.858  31.560  34.998  1.00  0.00     0.135 A 
ATOM     92  C   UNL A   1      38.486  33.859  35.532  1.00  0.00     0.135 A 
ATOM     93  F   UNL A   1      39.368  30.583  34.235  1.00  0.00    -0.206 F 
ATOM     94  C   UNL A   1      38.272  31.171  36.217  1.00  0.00     0.059 A 
ATOM     95  C   UNL A   1      37.927  33.500  36.755  1.00  0.00     0.059 A 
ATOM     96  F   UNL A   1      38.600  35.169  35.262  1.00  0.00    -0.206 F 
ATOM     97  C   UNL A   1      37.804  32.156  37.088  1.00  0.00     0.060 A 
BRANCH  97  98
ATOM     98  S   UNL A   1      37.051  31.689  38.665  1.00  0.00     0.124 S 
ATOM     99  O   UNL A   1      35.884  32.564  38.725  1.00  0.00    -0.237 OA
ATOM    100  O   UNL A   1      36.767  30.268  38.474  1.00  0.00    -0.237 OA
ATOM    101  O   UNL A   1      38.096  31.980  39.644  1.00  0.00    -0.744 OA
ENDBRANCH  97  98
ENDBRANCH  65  90
ENDBRANCH  39  40
ENDBRANCH  32  34
ENDBRANCH  31  32
ENDBRANCH  30  31
ENDBRANCH   1  30
TORSDOF 18
ENDMDL
MODEL 3
REMARK VINA RESULT:     -11.2      4.659      9.322
REMARK SMILES O=C(Cn1c(-c2nc(-c3ccc(C(F)(F)F)cc3)no2)cc2ccccc21)OCCOC(=O)c1ccc(-c2c3nc(c(-c4c(F)cc(S(=O)(=O)[O-])cc4F)c4ccc([nH]4)c(-c4c(F)cc(S(=O)(=O)[O-])cc4F)c4nc(c(-c5c(F)cc(S(=O)(=O)[O-])cc5F)c5ccc2[nH]5)C=C4)C=C3)cc1
REMARK SMILES IDX 29 1 28 2 2 3 1 4 3 5 4 6 5 7 27 8 21 9 22 10 26 11 23 12
REMARK SMILES IDX 25 13 24 14 6 15 7 16 20 17 8 18 19 19 9 20 10 21 18 22
REMARK SMILES IDX 11 23 17 24 12 25 13 26 14 27 15 28 16 29 30 30 31 31 32 32
REMARK SMILES IDX 33 33 34 34 35 35 99 36 36 37 98 38 37 39 38 40 39 41 92 42
REMARK SMILES IDX 40 43 97 44 91 45 93 46 41 47 96 48 90 49 89 50 42 52 76 53
REMARK SMILES IDX 55 54 75 55 56 56 59 57 74 58 94 59 57 60 58 61 73 63 95 64
REMARK SMILES IDX 60 65 43 66 44 67 53 68 45 69 46 70 52 71 54 72 47 73 48 74
REMARK SMILES IDX 49 75 50 76 51 77 77 78 78 79 87 80 79 81 80 82 86 83 88 84
REMARK SMILES IDX 81 85 82 86 83 87 84 88 85 89 61 90 62 91 71 92 63 93 64 94
REMARK SMILES IDX 70 95 72 96 65 97 66 98 67 99 68 100 69 101
REMARK H PARENT 93 51 59 62
REMARK Flexibility Score: inf
ROOT
ATOM      1  C   UNL A   1      46.770  39.028  27.554  1.00  0.00     0.274 C 
ENDROOT
BRANCH   1   2
ATOM      2  O   UNL A   1      47.286  38.994  26.229  1.00  0.00    -0.461 OA
BRANCH   2   3
ATOM      3  C   UNL A   1      46.698  39.763  25.272  1.00  0.00     0.326 C 
ATOM      4  O   UNL A   1      46.929  39.507  24.096  1.00  0.00    -0.250 OA
BRANCH   3   5
ATOM      5  C   UNL A   1      46.017  41.024  25.725  1.00  0.00     0.245 C 
BRANCH   5   6
ATOM      6  N   UNL A   1      44.682  41.398  25.312  1.00  0.00    -0.325 N 
ATOM      7  C   UNL A   1      44.339  42.433  24.449  1.00  0.00     0.109 A 
ATOM      8  C   UNL A   1      43.578  40.947  26.013  1.00  0.00     0.049 A 
ATOM      9  C   UNL A   1      42.964  42.577  24.579  1.00  0.00     0.042 A 
ATOM     10  C   UNL A   1      42.475  41.485  25.367  1.00  0.00     0.000 A 
ATOM     11  C   UNL A   1      43.445  40.070  27.103  1.00  0.00     0.027 A 
ATOM     12  C   UNL A   1      41.221  40.901  25.634  1.00  0.00     0.010 A 
ATOM     13  C   UNL A   1      42.250  39.375  27.217  1.00  0.00     0.002 A 
ATOM     14  C   UNL A   1      41.157  39.762  26.457  1.00  0.00     0.001 A 
BRANCH   7  15
ATOM     15  C   UNL A   1      45.305  43.137  23.614  1.00  0.00     0.274 A 
ATOM     16  N   UNL A   1      45.582  43.106  21.932  1.00  0.00    -0.185 NA
ATOM     17  O   UNL A   1      46.293  44.670  24.246  1.00  0.00    -0.332 OA
ATOM     18  C   UNL A   1      46.685  44.588  21.272  1.00  0.00     0.202 A 
ATOM     19  N   UNL A   1      47.212  45.538  22.676  1.00  0.00    -0.057 NA
BRANCH  18  20
ATOM     20  C   UNL A   1      45.977  45.642  20.109  1.00  0.00     0.023 A 
ATOM     21  C   UNL A   1      44.978  44.754  19.017  1.00  0.00     0.013 A 
ATOM     22  C   UNL A   1      45.836  47.737  20.067  1.00  0.00     0.013 A 
ATOM     23  C   UNL A   1      43.876  45.661  18.062  1.00  0.00     0.014 A 
ATOM     24  C   UNL A   1      44.616  48.458  19.019  1.00  0.00     0.014 A 
ATOM     25  C   UNL A   1      43.673  47.390  18.080  1.00  0.00     0.056 A 
BRANCH  25  26
ATOM     26  C   UNL A   1      42.723  47.921  17.019  1.00  0.00     0.416 C 
ATOM     27  F   UNL A   1      42.239  46.918  16.230  1.00  0.00    -0.166 F 
ATOM     28  F   UNL A   1      41.643  48.557  17.535  1.00  0.00    -0.166 F 
ATOM     29  F   UNL A   1      43.311  48.798  16.156  1.00  0.00    -0.166 F 
ENDBRANCH  25  26
ENDBRANCH  18  20
ENDBRANCH   7  15
ENDBRANCH   5   6
ENDBRANCH   3   5
ENDBRANCH   2   3
ENDBRANCH   1   2
BRANCH   1  30
ATOM     30  C   UNL A   1      45.990  37.757  27.942  1.00  0.00     0.275 C 
BRANCH  30  31
ATOM     31  O   UNL A   1      45.466  37.002  26.822  1.00  0.00    -0.458 OA
BRANCH  31  32
ATOM     32  C   UNL A   1      44.506  36.069  27.092  1.00  0.00     0.338 C 
ATOM     33  O   UNL A   1      43.423  36.297  27.600  1.00  0.00    -0.246 OA
BRANCH  32  34
ATOM     34  C   UNL A   1      44.827  34.815  26.344  1.00  0.00     0.060 A 
ATOM     35  C   UNL A   1      43.857  33.854  26.022  1.00  0.00     0.016 A 
ATOM     36  C   UNL A   1      46.177  34.460  26.328  1.00  0.00     0.016 A 
ATOM     37  C   UNL A   1      44.207  32.503  26.129  1.00  0.00     0.010 A 
ATOM     38  C   UNL A   1      46.530  33.125  26.277  1.00  0.00     0.010 A 
ATOM     39  C   UNL A   1      45.536  32.164  26.491  1.00  0.00    -0.014 A 
BRANCH  39  40
ATOM     40  C   UNL A   1      45.946  30.648  27.093  1.00  0.00     0.031 A 
ATOM     41  C   UNL A   1      46.250  31.375  28.636  1.00  0.00     0.074 A 
ATOM     42  C   UNL A   1      45.882  28.796  26.527  1.00  0.00     0.049 A 
ATOM     43  N   UNL A   1      46.892  30.491  29.837  1.00  0.00    -0.248 NA
ATOM     44  C   UNL A   1      44.570  32.284  29.151  1.00  0.00     0.031 C 
ATOM     45  C   UNL A   1      45.772  28.073  25.014  1.00  0.00     0.029 A 
ATOM     46  N   UNL A   1      45.942  27.361  27.152  1.00  0.00    -0.354 N 
ATOM     47  C   UNL A   1      45.726  30.388  31.297  1.00  0.00     0.074 A 
ATOM     48  C   UNL A   1      44.206  31.719  30.637  1.00  0.00     0.031 C 
ATOM     49  C   UNL A   1      45.460  26.759  25.003  1.00  0.00     0.029 A 
ATOM     50  C   UNL A   1      45.433  26.215  26.329  1.00  0.00     0.049 A 
ATOM     51  H   UNL A   1      46.301  27.216  28.057  1.00  0.00     0.167 HD
ATOM     52  C   UNL A   1      46.154  29.315  32.103  1.00  0.00     0.037 A 
ATOM     53  C   UNL A   1      45.184  24.856  26.619  1.00  0.00     0.037 A 
ATOM     54  C   UNL A   1      47.466  28.825  31.663  1.00  0.00     0.049 A 
ATOM     55  C   UNL A   1      45.860  24.570  27.896  1.00  0.00     0.074 A 
ATOM     56  C   UNL A   1      48.726  29.335  31.375  1.00  0.00     0.029 A 
ATOM     57  N   UNL A   1      47.454  27.581  31.098  1.00  0.00    -0.354 N 
ATOM     58  N   UNL A   1      47.154  24.634  28.022  1.00  0.00    -0.248 NA
ATOM     59  C   UNL A   1      45.030  24.893  29.047  1.00  0.00     0.031 C 
ATOM     60  C   UNL A   1      49.260  28.526  30.317  1.00  0.00     0.029 A 
ATOM     61  C   UNL A   1      48.403  27.453  30.119  1.00  0.00     0.049 A 
ATOM     62  H   UNL A   1      46.836  26.863  31.364  1.00  0.00     0.167 HD
ATOM     63  C   UNL A   1      47.291  25.545  29.045  1.00  0.00     0.074 A 
ATOM     64  C   UNL A   1      45.932  25.707  29.591  1.00  0.00     0.031 C 
ATOM     65  C   UNL A   1      48.372  26.367  29.164  1.00  0.00     0.037 A 
BRANCH  52  66
ATOM     66  C   UNL A   1      45.381  28.438  33.055  1.00  0.00     0.058 A 
ATOM     67  C   UNL A   1      45.894  28.193  34.323  1.00  0.00     0.135 A 
ATOM     68  C   UNL A   1      44.202  27.728  32.743  1.00  0.00     0.135 A 
ATOM     69  F   UNL A   1      47.150  28.552  34.622  1.00  0.00    -0.206 F 
ATOM     70  C   UNL A   1      45.135  27.552  35.297  1.00  0.00     0.059 A 
ATOM     71  C   UNL A   1      43.338  27.261  33.720  1.00  0.00     0.059 A 
ATOM     72  F   UNL A   1      43.843  27.475  31.478  1.00  0.00    -0.206 F 
ATOM     73  C   UNL A   1      43.818  27.193  35.012  1.00  0.00     0.060 A 
BRANCH  73  74
ATOM     74  S   UNL A   1      42.739  26.635  36.332  1.00  0.00     0.124 S 
ATOM     75  O   UNL A   1      41.450  26.592  35.651  1.00  0.00    -0.237 OA
ATOM     76  O   UNL A   1      43.320  25.343  36.683  1.00  0.00    -0.237 OA
ATOM     77  O   UNL A   1      42.893  27.674  37.346  1.00  0.00    -0.744 OA
ENDBRANCH  73  74
ENDBRANCH  52  66
BRANCH  53  78
ATOM     78  C   UNL A   1      44.142  23.783  26.155  1.00  0.00     0.058 A 
ATOM     79  C   UNL A   1      44.423  22.408  25.826  1.00  0.00     0.135 A 
ATOM     80  C   UNL A   1      42.786  24.016  26.406  1.00  0.00     0.135 A 
ATOM     81  F   UNL A   1      45.677  22.018  25.538  1.00  0.00    -0.206 F 
ATOM     82  C   UNL A   1      43.440  21.365  25.831  1.00  0.00     0.059 A 
ATOM     83  C   UNL A   1      41.805  23.002  26.434  1.00  0.00     0.059 A 
ATOM     84  F   UNL A   1      42.376  25.249  26.724  1.00  0.00    -0.206 F 
ATOM     85  C   UNL A   1      42.129  21.672  26.180  1.00  0.00     0.060 A 
BRANCH  85  86
ATOM     86  S   UNL A   1      40.857  20.373  26.421  1.00  0.00     0.124 S 
ATOM     87  O   UNL A   1      39.619  21.063  26.072  1.00  0.00    -0.237 OA
ATOM     88  O   UNL A   1      41.279  19.328  25.495  1.00  0.00    -0.237 OA
ATOM     89  O   UNL A   1      40.990  20.031  27.836  1.00  0.00    -0.744 OA
ENDBRANCH  85  86
ENDBRANCH  53  78
BRANCH  65  90
ATOM     90  C   UNL A   1      49.566  26.175  28.252  1.00  0.00     0.058 A 
ATOM     91  C   UNL A   1      49.701  26.625  26.919  1.00  0.00     0.135 A 
ATOM     92  C   UNL A   1      50.710  25.619  28.836  1.00  0.00     0.135 A 
ATOM     93  F   UNL A   1      48.694  27.252  26.295  1.00  0.00    -0.206 F 
ATOM     94  C   UNL A   1      50.908  26.499  26.206  1.00  0.00     0.059 A 
ATOM     95  C   UNL A   1      51.921  25.508  28.161  1.00  0.00     0.059 A 
ATOM     96  F   UNL A   1      50.673  25.213  30.116  1.00  0.00    -0.206 F 
ATOM     97  C   UNL A   1      52.013  25.931  26.840  1.00  0.00     0.060 A 
BRANCH  97  98
ATOM     98  S   UNL A   1      53.580  25.761  25.952  1.00  0.00     0.124 S 
ATOM     99  O   UNL A   1      54.058  27.139  25.894  1.00  0.00    -0.237 OA
ATOM    100  O   UNL A   1      54.341  24.863  26.818  1.00  0.00    -0.237 OA
ATOM    101  O   UNL A   1      53.186  25.187  24.667  1.00  0.00    -0.744 OA
ENDBRANCH  97  98
ENDBRANCH  65  90
ENDBRANCH  39  40
ENDBRANCH  32  34
ENDBRANCH  31  32
ENDBRANCH  30  31
ENDBRANCH   1  30
TORSDOF 18
ENDMDL
