MODEL 1
REMARK VINA RESULT:     -11.1      0.000      0.000
REMARK SMILES O=C(OCCOC(=O)[C@H]1CC[C@@H]2CCCC[C@@H]2N1C(=O)NC1CC1)c1ccc(-c2c3nc(c(-c4c(F)cc(S(=O)(=O)[O-])cc4F)c4ccc([nH]4)c(-c4c(F)cc(S(=O)(=O)[O-])cc4F)c4nc(c(-c5c(F)cc(S(=O)(=O)[O-])cc5F)c5ccc2[nH]5)C=C4)C=C3)cc1
REMARK SMILES IDX 4 1 3 2 2 3 1 4 25 5 26 6 90 7 27 8 89 9 28 10 29 11 30 12
REMARK SMILES IDX 83 13 31 14 88 15 82 16 84 17 32 18 87 19 81 20 80 21 33 23
REMARK SMILES IDX 67 24 46 25 66 26 47 27 50 28 65 29 85 30 48 31 49 32 64 34
REMARK SMILES IDX 86 35 51 36 34 37 35 38 44 39 36 40 37 41 43 42 45 43 38 44
REMARK SMILES IDX 39 45 40 46 41 47 42 48 68 49 69 50 78 51 70 52 71 53 77 54
REMARK SMILES IDX 79 55 72 56 73 57 74 58 75 59 76 60 52 61 53 62 62 63 54 64
REMARK SMILES IDX 55 65 61 66 63 67 56 68 57 69 58 70 59 71 60 72 5 73 6 74
REMARK SMILES IDX 7 75 8 76 9 77 10 78 18 79 11 80 17 81 12 82 16 83 13 84
REMARK SMILES IDX 15 85 14 86 19 87 20 88 21 89 22 91 23 92 24 93
REMARK H PARENT 84 22 50 33 21 90
REMARK Flexibility Score: inf
ROOT
ATOM      1  C   UNL A   1      32.535  30.857  26.935  1.00  0.00     0.275 C 
ENDROOT
BRANCH   1   2
ATOM      2  O   UNL A   1      33.957  30.705  27.158  1.00  0.00    -0.458 OA
BRANCH   2   3
ATOM      3  C   UNL A   1      34.602  31.176  28.251  1.00  0.00     0.338 C 
ATOM      4  O   UNL A   1      34.285  32.131  28.928  1.00  0.00    -0.246 OA
BRANCH   3   5
ATOM      5  C   UNL A   1      35.809  30.296  28.421  1.00  0.00     0.060 A 
ATOM      6  C   UNL A   1      36.667  30.075  27.341  1.00  0.00     0.016 A 
ATOM      7  C   UNL A   1      36.174  29.760  29.650  1.00  0.00     0.016 A 
ATOM      8  C   UNL A   1      37.966  29.540  27.526  1.00  0.00     0.010 A 
ATOM      9  C   UNL A   1      37.497  29.264  29.833  1.00  0.00     0.010 A 
ATOM     10  C   UNL A   1      38.473  29.287  28.802  1.00  0.00    -0.014 A 
BRANCH  10  11
ATOM     11  C   UNL A   1      39.902  28.804  29.041  1.00  0.00     0.031 A 
ATOM     12  C   UNL A   1      40.830  29.887  29.498  1.00  0.00     0.074 A 
ATOM     13  C   UNL A   1      40.448  27.549  28.976  1.00  0.00     0.049 A 
ATOM     14  N   UNL A   1      42.117  29.844  29.704  1.00  0.00    -0.248 NA
ATOM     15  C   UNL A   1      40.197  31.171  29.848  1.00  0.00     0.031 C 
ATOM     16  C   UNL A   1      39.761  26.265  28.947  1.00  0.00     0.029 A 
ATOM     17  N   UNL A   1      41.775  27.125  28.882  1.00  0.00    -0.354 N 
ATOM     18  C   UNL A   1      42.435  31.073  30.248  1.00  0.00     0.074 A 
ATOM     19  C   UNL A   1      41.229  31.867  30.283  1.00  0.00     0.031 C 
ATOM     20  C   UNL A   1      40.586  25.263  28.607  1.00  0.00     0.029 A 
ATOM     21  C   UNL A   1      41.929  25.788  28.520  1.00  0.00     0.049 A 
ATOM     22  H   UNL A   1      42.539  27.721  29.057  1.00  0.00     0.167 HD
ATOM     23  C   UNL A   1      43.625  31.497  30.716  1.00  0.00     0.037 A 
ATOM     24  C   UNL A   1      43.000  25.023  28.203  1.00  0.00     0.037 A 
ATOM     25  C   UNL A   1      44.835  30.734  30.669  1.00  0.00     0.049 A 
ATOM     26  C   UNL A   1      44.352  25.601  28.486  1.00  0.00     0.074 A 
ATOM     27  C   UNL A   1      46.098  31.117  31.073  1.00  0.00     0.029 A 
ATOM     28  N   UNL A   1      44.940  29.444  30.169  1.00  0.00    -0.354 N 
ATOM     29  N   UNL A   1      44.626  26.773  29.000  1.00  0.00    -0.248 NA
ATOM     30  C   UNL A   1      45.528  24.754  28.239  1.00  0.00     0.031 C 
ATOM     31  C   UNL A   1      46.985  30.087  30.746  1.00  0.00     0.029 A 
ATOM     32  C   UNL A   1      46.263  29.042  30.193  1.00  0.00     0.049 A 
ATOM     33  H   UNL A   1      44.187  28.898  29.847  1.00  0.00     0.167 HD
ATOM     34  C   UNL A   1      45.994  26.788  29.190  1.00  0.00     0.074 A 
ATOM     35  C   UNL A   1      46.500  25.510  28.734  1.00  0.00     0.031 C 
ATOM     36  C   UNL A   1      46.755  27.776  29.715  1.00  0.00     0.037 A 
BRANCH  23  37
ATOM     37  C   UNL A   1      43.652  32.896  31.238  1.00  0.00     0.058 A 
ATOM     38  C   UNL A   1      43.813  34.001  30.388  1.00  0.00     0.135 A 
ATOM     39  C   UNL A   1      43.594  33.116  32.620  1.00  0.00     0.135 A 
ATOM     40  F   UNL A   1      43.939  33.826  29.062  1.00  0.00    -0.206 F 
ATOM     41  C   UNL A   1      43.923  35.286  30.899  1.00  0.00     0.059 A 
ATOM     42  C   UNL A   1      43.679  34.395  33.150  1.00  0.00     0.059 A 
ATOM     43  F   UNL A   1      43.488  32.079  33.466  1.00  0.00    -0.206 F 
ATOM     44  C   UNL A   1      43.850  35.472  32.282  1.00  0.00     0.060 A 
BRANCH  44  45
ATOM     45  S   UNL A   1      43.961  37.149  32.930  1.00  0.00     0.124 S 
ATOM     46  O   UNL A   1      45.242  37.108  33.631  1.00  0.00    -0.237 OA
ATOM     47  O   UNL A   1      43.930  37.955  31.714  1.00  0.00    -0.237 OA
ATOM     48  O   UNL A   1      42.783  37.261  33.784  1.00  0.00    -0.744 OA
ENDBRANCH  44  45
ENDBRANCH  23  37
BRANCH  24  49
ATOM     49  C   UNL A   1      42.870  23.638  27.626  1.00  0.00     0.058 A 
ATOM     50  C   UNL A   1      42.814  23.386  26.245  1.00  0.00     0.135 A 
ATOM     51  C   UNL A   1      42.706  22.529  28.476  1.00  0.00     0.135 A 
ATOM     52  F   UNL A   1      42.941  24.398  25.374  1.00  0.00    -0.206 F 
ATOM     53  C   UNL A   1      42.577  22.106  25.731  1.00  0.00     0.059 A 
ATOM     54  C   UNL A   1      42.487  21.237  27.988  1.00  0.00     0.059 A 
ATOM     55  F   UNL A   1      42.732  22.697  29.806  1.00  0.00    -0.206 F 
ATOM     56  C   UNL A   1      42.409  21.036  26.611  1.00  0.00     0.060 A 
BRANCH  56  57
ATOM     57  S   UNL A   1      42.096  19.383  25.938  1.00  0.00     0.124 S 
ATOM     58  O   UNL A   1      42.899  19.400  24.720  1.00  0.00    -0.237 OA
ATOM     59  O   UNL A   1      42.581  18.517  27.009  1.00  0.00    -0.237 OA
ATOM     60  O   UNL A   1      40.650  19.368  25.738  1.00  0.00    -0.744 OA
ENDBRANCH  56  57
ENDBRANCH  24  49
BRANCH  36  61
ATOM     61  C   UNL A   1      48.224  27.521  29.804  1.00  0.00     0.058 A 
ATOM     62  C   UNL A   1      49.087  27.913  28.770  1.00  0.00     0.135 A 
ATOM     63  C   UNL A   1      48.777  26.943  30.955  1.00  0.00     0.135 A 
ATOM     64  F   UNL A   1      48.595  28.455  27.644  1.00  0.00    -0.206 F 
ATOM     65  C   UNL A   1      50.458  27.733  28.874  1.00  0.00     0.059 A 
ATOM     66  C   UNL A   1      50.149  26.782  31.092  1.00  0.00     0.059 A 
ATOM     67  F   UNL A   1      47.985  26.557  31.968  1.00  0.00    -0.206 F 
ATOM     68  C   UNL A   1      50.980  27.176  30.042  1.00  0.00     0.060 A 
BRANCH  68  69
ATOM     69  S   UNL A   1      52.768  27.015  30.191  1.00  0.00     0.124 S 
ATOM     70  O   UNL A   1      53.142  28.342  30.668  1.00  0.00    -0.237 OA
ATOM     71  O   UNL A   1      52.903  25.931  31.159  1.00  0.00    -0.237 OA
ATOM     72  O   UNL A   1      53.193  26.691  28.833  1.00  0.00    -0.744 OA
ENDBRANCH  68  69
ENDBRANCH  36  61
ENDBRANCH  10  11
ENDBRANCH   3   5
ENDBRANCH   2   3
ENDBRANCH   1   2
BRANCH   1  73
ATOM     73  C   UNL A   1      31.962  29.514  26.414  1.00  0.00     0.274 C 
BRANCH  73  74
ATOM     74  O   UNL A   1      33.048  28.734  25.889  1.00  0.00    -0.461 OA
BRANCH  74  75
ATOM     75  C   UNL A   1      33.136  28.498  24.559  1.00  0.00     0.329 C 
ATOM     76  O   UNL A   1      33.326  29.372  23.722  1.00  0.00    -0.250 OA
BRANCH  75  77
ATOM     77  C   UNL A   1      33.335  26.988  24.283  1.00  0.00     0.197 C 
ATOM     78  C   UNL A   1      33.638  26.420  25.699  1.00  0.00     0.038 C 
ATOM     79  N   UNL A   1      32.295  26.175  23.612  1.00  0.00    -0.308 N 
ATOM     80  C   UNL A   1      33.987  24.941  25.723  1.00  0.00     0.008 C 
ATOM     81  C   UNL A   1      32.511  24.685  23.701  1.00  0.00     0.091 C 
ATOM     82  C   UNL A   1      32.825  24.185  25.109  1.00  0.00     0.012 C 
ATOM     83  C   UNL A   1      33.494  24.146  22.651  1.00  0.00     0.025 C 
ATOM     84  C   UNL A   1      32.972  22.664  25.134  1.00  0.00     0.006 C 
ATOM     85  C   UNL A   1      34.426  22.986  23.048  1.00  0.00     0.002 C 
ATOM     86  C   UNL A   1      34.153  22.186  24.320  1.00  0.00     0.000 C 
BRANCH  79  87
ATOM     87  C   UNL A   1      31.003  26.656  23.444  1.00  0.00     0.318 C 
ATOM     88  O   UNL A   1      30.065  26.192  24.056  1.00  0.00    -0.249 OA
ATOM     89  N   UNL A   1      30.775  27.644  22.523  1.00  0.00    -0.335 N 
ATOM     90  H   UNL A   1      31.445  27.765  21.811  1.00  0.00     0.165 HD
BRANCH  89  91
ATOM     91  C   UNL A   1      29.612  28.536  22.513  1.00  0.00     0.084 C 
ATOM     92  C   UNL A   1      29.375  29.766  23.367  1.00  0.00     0.027 C 
ATOM     93  C   UNL A   1      29.740  29.926  21.933  1.00  0.00     0.027 C 
ENDBRANCH  89  91
ENDBRANCH  79  87
ENDBRANCH  75  77
ENDBRANCH  74  75
ENDBRANCH  73  74
ENDBRANCH   1  73
TORSDOF 16
ENDMDL
MODEL 2
REMARK VINA RESULT:     -10.8      3.080      9.286
REMARK SMILES O=C(OCCOC(=O)[C@H]1CC[C@@H]2CCCC[C@@H]2N1C(=O)NC1CC1)c1ccc(-c2c3nc(c(-c4c(F)cc(S(=O)(=O)[O-])cc4F)c4ccc([nH]4)c(-c4c(F)cc(S(=O)(=O)[O-])cc4F)c4nc(c(-c5c(F)cc(S(=O)(=O)[O-])cc5F)c5ccc2[nH]5)C=C4)C=C3)cc1
REMARK SMILES IDX 4 1 3 2 2 3 1 4 25 5 26 6 90 7 27 8 89 9 28 10 29 11 30 12
REMARK SMILES IDX 83 13 31 14 88 15 82 16 84 17 32 18 87 19 81 20 80 21 33 23
REMARK SMILES IDX 67 24 46 25 66 26 47 27 50 28 65 29 85 30 48 31 49 32 64 34
REMARK SMILES IDX 86 35 51 36 34 37 35 38 44 39 36 40 37 41 43 42 45 43 38 44
REMARK SMILES IDX 39 45 40 46 41 47 42 48 68 49 69 50 78 51 70 52 71 53 77 54
REMARK SMILES IDX 79 55 72 56 73 57 74 58 75 59 76 60 52 61 53 62 62 63 54 64
REMARK SMILES IDX 55 65 61 66 63 67 56 68 57 69 58 70 59 71 60 72 5 73 6 74
REMARK SMILES IDX 7 75 8 76 9 77 10 78 18 79 11 80 17 81 12 82 16 83 13 84
REMARK SMILES IDX 15 85 14 86 19 87 20 88 21 89 22 91 23 92 24 93
REMARK H PARENT 84 22 50 33 21 90
REMARK Flexibility Score: inf
ROOT
ATOM      1  C   UNL A   1      37.708  20.675  24.974  1.00  0.00     0.275 C 
ENDROOT
BRANCH   1   2
ATOM      2  O   UNL A   1      38.270  21.801  25.689  1.00  0.00    -0.458 OA
BRANCH   2   3
ATOM      3  C   UNL A   1      39.507  21.801  26.238  1.00  0.00     0.338 C 
ATOM      4  O   UNL A   1      40.314  20.896  26.216  1.00  0.00    -0.246 OA
BRANCH   3   5
ATOM      5  C   UNL A   1      39.652  23.137  26.913  1.00  0.00     0.060 A 
ATOM      6  C   UNL A   1      40.613  23.312  27.912  1.00  0.00     0.016 A 
ATOM      7  C   UNL A   1      38.928  24.255  26.517  1.00  0.00     0.016 A 
ATOM      8  C   UNL A   1      41.010  24.604  28.338  1.00  0.00     0.010 A 
ATOM      9  C   UNL A   1      39.364  25.551  26.919  1.00  0.00     0.010 A 
ATOM     10  C   UNL A   1      40.517  25.756  27.721  1.00  0.00    -0.014 A 
BRANCH  10  11
ATOM     11  C   UNL A   1      40.998  27.158  28.090  1.00  0.00     0.031 A 
ATOM     12  C   UNL A   1      42.488  27.301  28.078  1.00  0.00     0.074 A 
ATOM     13  C   UNL A   1      40.297  28.306  28.354  1.00  0.00     0.049 A 
ATOM     14  N   UNL A   1      43.226  28.318  28.425  1.00  0.00    -0.248 NA
ATOM     15  C   UNL A   1      43.238  26.163  27.519  1.00  0.00     0.031 C 
ATOM     16  C   UNL A   1      38.898  28.596  28.073  1.00  0.00     0.029 A 
ATOM     17  N   UNL A   1      40.678  29.493  28.984  1.00  0.00    -0.354 N 
ATOM     18  C   UNL A   1      44.516  27.959  28.083  1.00  0.00     0.074 A 
ATOM     19  C   UNL A   1      44.477  26.612  27.564  1.00  0.00     0.031 C 
ATOM     20  C   UNL A   1      38.478  29.702  28.707  1.00  0.00     0.029 A 
ATOM     21  C   UNL A   1      39.615  30.316  29.353  1.00  0.00     0.049 A 
ATOM     22  H   UNL A   1      41.619  29.730  29.152  1.00  0.00     0.167 HD
ATOM     23  C   UNL A   1      45.638  28.701  28.160  1.00  0.00     0.037 A 
ATOM     24  C   UNL A   1      39.526  31.458  30.074  1.00  0.00     0.037 A 
ATOM     25  C   UNL A   1      45.699  30.029  28.691  1.00  0.00     0.049 A 
ATOM     26  C   UNL A   1      40.808  32.163  30.388  1.00  0.00     0.074 A 
ATOM     27  C   UNL A   1      46.812  30.828  28.855  1.00  0.00     0.029 A 
ATOM     28  N   UNL A   1      44.609  30.743  29.167  1.00  0.00    -0.354 N 
ATOM     29  N   UNL A   1      42.021  31.799  30.054  1.00  0.00    -0.248 NA
ATOM     30  C   UNL A   1      40.732  33.455  31.087  1.00  0.00     0.031 C 
ATOM     31  C   UNL A   1      46.409  32.000  29.503  1.00  0.00     0.029 A 
ATOM     32  C   UNL A   1      45.037  31.951  29.689  1.00  0.00     0.049 A 
ATOM     33  H   UNL A   1      43.674  30.437  29.138  1.00  0.00     0.167 HD
ATOM     34  C   UNL A   1      42.846  32.834  30.451  1.00  0.00     0.074 A 
ATOM     35  C   UNL A   1      42.000  33.844  31.054  1.00  0.00     0.031 C 
ATOM     36  C   UNL A   1      44.187  32.937  30.306  1.00  0.00     0.037 A 
BRANCH  23  37
ATOM     37  C   UNL A   1      46.892  28.022  27.720  1.00  0.00     0.058 A 
ATOM     38  C   UNL A   1      47.673  27.264  28.606  1.00  0.00     0.135 A 
ATOM     39  C   UNL A   1      47.350  28.203  26.409  1.00  0.00     0.135 A 
ATOM     40  F   UNL A   1      47.302  27.122  29.889  1.00  0.00    -0.206 F 
ATOM     41  C   UNL A   1      48.881  26.712  28.202  1.00  0.00     0.059 A 
ATOM     42  C   UNL A   1      48.543  27.641  25.979  1.00  0.00     0.059 A 
ATOM     43  F   UNL A   1      46.652  28.960  25.548  1.00  0.00    -0.206 F 
ATOM     44  C   UNL A   1      49.304  26.902  26.884  1.00  0.00     0.060 A 
BRANCH  44  45
ATOM     45  S   UNL A   1      50.857  26.153  26.363  1.00  0.00     0.124 S 
ATOM     46  O   UNL A   1      51.834  27.060  26.959  1.00  0.00    -0.237 OA
ATOM     47  O   UNL A   1      50.777  24.825  26.962  1.00  0.00    -0.237 OA
ATOM     48  O   UNL A   1      50.776  26.187  24.906  1.00  0.00    -0.744 OA
ENDBRANCH  44  45
ENDBRANCH  23  37
BRANCH  24  49
ATOM     49  C   UNL A   1      38.210  32.038  30.521  1.00  0.00     0.058 A 
ATOM     50  C   UNL A   1      37.503  32.998  29.777  1.00  0.00     0.135 A 
ATOM     51  C   UNL A   1      37.673  31.694  31.775  1.00  0.00     0.135 A 
ATOM     52  F   UNL A   1      37.967  33.391  28.581  1.00  0.00    -0.206 F 
ATOM     53  C   UNL A   1      36.342  33.610  30.263  1.00  0.00     0.059 A 
ATOM     54  C   UNL A   1      36.504  32.276  32.275  1.00  0.00     0.059 A 
ATOM     55  F   UNL A   1      38.302  30.796  32.547  1.00  0.00    -0.206 F 
ATOM     56  C   UNL A   1      35.852  33.246  31.518  1.00  0.00     0.060 A 
BRANCH  56  57
ATOM     57  S   UNL A   1      34.350  34.047  32.142  1.00  0.00     0.124 S 
ATOM     58  O   UNL A   1      34.902  35.132  32.945  1.00  0.00    -0.237 OA
ATOM     59  O   UNL A   1      33.679  34.445  30.909  1.00  0.00    -0.237 OA
ATOM     60  O   UNL A   1      33.687  32.983  32.891  1.00  0.00    -0.744 OA
ENDBRANCH  56  57
ENDBRANCH  24  49
BRANCH  36  61
ATOM     61  C   UNL A   1      44.829  34.178  30.831  1.00  0.00     0.058 A 
ATOM     62  C   UNL A   1      45.330  34.233  32.139  1.00  0.00     0.135 A 
ATOM     63  C   UNL A   1      45.002  35.295  30.001  1.00  0.00     0.135 A 
ATOM     64  F   UNL A   1      45.170  33.191  32.971  1.00  0.00    -0.206 F 
ATOM     65  C   UNL A   1      45.980  35.363  32.612  1.00  0.00     0.059 A 
ATOM     66  C   UNL A   1      45.676  36.424  30.444  1.00  0.00     0.059 A 
ATOM     67  F   UNL A   1      44.538  35.282  28.741  1.00  0.00    -0.206 F 
ATOM     68  C   UNL A   1      46.156  36.450  31.754  1.00  0.00     0.060 A 
BRANCH  68  69
ATOM     69  S   UNL A   1      47.066  37.882  32.360  1.00  0.00     0.124 S 
ATOM     70  O   UNL A   1      47.755  37.322  33.517  1.00  0.00    -0.237 OA
ATOM     71  O   UNL A   1      47.912  38.218  31.219  1.00  0.00    -0.237 OA
ATOM     72  O   UNL A   1      46.015  38.849  32.660  1.00  0.00    -0.744 OA
ENDBRANCH  68  69
ENDBRANCH  36  61
ENDBRANCH  10  11
ENDBRANCH   3   5
ENDBRANCH   2   3
ENDBRANCH   1   2
BRANCH   1  73
ATOM     73  C   UNL A   1      36.162  20.795  24.983  1.00  0.00     0.274 C 
BRANCH  73  74
ATOM     74  O   UNL A   1      35.819  22.183  25.116  1.00  0.00    -0.461 OA
BRANCH  74  75
ATOM     75  C   UNL A   1      35.375  22.880  24.044  1.00  0.00     0.329 C 
ATOM     76  O   UNL A   1      35.780  22.705  22.901  1.00  0.00    -0.250 OA
BRANCH  75  77
ATOM     77  C   UNL A   1      34.067  23.635  24.384  1.00  0.00     0.197 C 
ATOM     78  C   UNL A   1      34.104  24.838  23.399  1.00  0.00     0.038 C 
ATOM     79  N   UNL A   1      32.747  22.967  24.334  1.00  0.00    -0.308 N 
ATOM     80  C   UNL A   1      32.970  25.834  23.578  1.00  0.00     0.008 C 
ATOM     81  C   UNL A   1      31.568  23.906  24.384  1.00  0.00     0.091 C 
ATOM     82  C   UNL A   1      31.665  25.080  23.413  1.00  0.00     0.012 C 
ATOM     83  C   UNL A   1      31.199  24.349  25.808  1.00  0.00     0.025 C 
ATOM     84  C   UNL A   1      30.413  25.953  23.476  1.00  0.00     0.006 C 
ATOM     85  C   UNL A   1      30.687  25.786  26.019  1.00  0.00     0.002 C 
ATOM     86  C   UNL A   1      30.246  26.624  24.820  1.00  0.00     0.000 C 
BRANCH  79  87
ATOM     87  C   UNL A   1      32.591  21.727  23.729  1.00  0.00     0.318 C 
ATOM     88  O   UNL A   1      32.575  21.603  22.524  1.00  0.00    -0.249 OA
ATOM     89  N   UNL A   1      32.395  20.622  24.516  1.00  0.00    -0.335 N 
ATOM     90  H   UNL A   1      32.070  20.770  25.433  1.00  0.00     0.165 HD
BRANCH  89  91
ATOM     91  C   UNL A   1      32.631  19.238  24.099  1.00  0.00     0.084 C 
ATOM     92  C   UNL A   1      33.871  18.395  24.325  1.00  0.00     0.027 C 
ATOM     93  C   UNL A   1      32.648  18.136  25.134  1.00  0.00     0.027 C 
ENDBRANCH  89  91
ENDBRANCH  79  87
ENDBRANCH  75  77
ENDBRANCH  74  75
ENDBRANCH  73  74
ENDBRANCH   1  73
TORSDOF 16
ENDMDL
MODEL 3
REMARK VINA RESULT:     -10.8      2.887      3.539
REMARK SMILES O=C(OCCOC(=O)[C@H]1CC[C@@H]2CCCC[C@@H]2N1C(=O)NC1CC1)c1ccc(-c2c3nc(c(-c4c(F)cc(S(=O)(=O)[O-])cc4F)c4ccc([nH]4)c(-c4c(F)cc(S(=O)(=O)[O-])cc4F)c4nc(c(-c5c(F)cc(S(=O)(=O)[O-])cc5F)c5ccc2[nH]5)C=C4)C=C3)cc1
REMARK SMILES IDX 4 1 3 2 2 3 1 4 25 5 26 6 90 7 27 8 89 9 28 10 29 11 30 12
REMARK SMILES IDX 83 13 31 14 88 15 82 16 84 17 32 18 87 19 81 20 80 21 33 23
REMARK SMILES IDX 67 24 46 25 66 26 47 27 50 28 65 29 85 30 48 31 49 32 64 34
REMARK SMILES IDX 86 35 51 36 34 37 35 38 44 39 36 40 37 41 43 42 45 43 38 44
REMARK SMILES IDX 39 45 40 46 41 47 42 48 68 49 69 50 78 51 70 52 71 53 77 54
REMARK SMILES IDX 79 55 72 56 73 57 74 58 75 59 76 60 52 61 53 62 62 63 54 64
REMARK SMILES IDX 55 65 61 66 63 67 56 68 57 69 58 70 59 71 60 72 5 73 6 74
REMARK SMILES IDX 7 75 8 76 9 77 10 78 18 79 11 80 17 81 12 82 16 83 13 84
REMARK SMILES IDX 15 85 14 86 19 87 20 88 21 89 22 91 23 92 24 93
REMARK H PARENT 84 22 50 33 21 90
REMARK Flexibility Score: inf
ROOT
ATOM      1  C   UNL A   1      32.165  30.806  26.603  1.00  0.00     0.275 C 
ENDROOT
BRANCH   1   2
ATOM      2  O   UNL A   1      33.237  30.739  27.573  1.00  0.00    -0.458 OA
BRANCH   2   3
ATOM      3  C   UNL A   1      34.104  31.752  27.806  1.00  0.00     0.338 C 
ATOM      4  O   UNL A   1      33.853  32.938  27.814  1.00  0.00    -0.246 OA
BRANCH   3   5
ATOM      5  C   UNL A   1      35.444  31.101  28.011  1.00  0.00     0.060 A 
ATOM      6  C   UNL A   1      36.569  31.889  28.268  1.00  0.00     0.016 A 
ATOM      7  C   UNL A   1      35.604  29.721  28.054  1.00  0.00     0.016 A 
ATOM      8  C   UNL A   1      37.763  31.327  28.786  1.00  0.00     0.010 A 
ATOM      9  C   UNL A   1      36.792  29.170  28.616  1.00  0.00     0.010 A 
ATOM     10  C   UNL A   1      37.838  29.977  29.137  1.00  0.00    -0.014 A 
BRANCH  10  11
ATOM     11  C   UNL A   1      39.075  29.363  29.789  1.00  0.00     0.031 A 
ATOM     12  C   UNL A   1      39.575  30.135  30.970  1.00  0.00     0.074 A 
ATOM     13  C   UNL A   1      39.748  28.200  29.517  1.00  0.00     0.049 A 
ATOM     14  N   UNL A   1      40.643  29.947  31.692  1.00  0.00    -0.248 NA
ATOM     15  C   UNL A   1      38.697  31.220  31.446  1.00  0.00     0.031 C 
ATOM     16  C   UNL A   1      39.306  27.065  28.719  1.00  0.00     0.029 A 
ATOM     17  N   UNL A   1      41.029  27.773  29.873  1.00  0.00    -0.354 N 
ATOM     18  C   UNL A   1      40.541  30.855  32.729  1.00  0.00     0.074 A 
ATOM     19  C   UNL A   1      39.347  31.638  32.514  1.00  0.00     0.031 C 
ATOM     20  C   UNL A   1      40.316  26.226  28.440  1.00  0.00     0.029 A 
ATOM     21  C   UNL A   1      41.489  26.670  29.155  1.00  0.00     0.049 A 
ATOM     22  H   UNL A   1      41.564  28.214  30.573  1.00  0.00     0.167 HD
ATOM     23  C   UNL A   1      41.353  31.002  33.794  1.00  0.00     0.037 A 
ATOM     24  C   UNL A   1      42.679  26.028  29.090  1.00  0.00     0.037 A 
ATOM     25  C   UNL A   1      42.551  30.250  34.012  1.00  0.00     0.049 A 
ATOM     26  C   UNL A   1      43.696  26.379  30.131  1.00  0.00     0.074 A 
ATOM     27  C   UNL A   1      43.460  30.379  35.042  1.00  0.00     0.029 A 
ATOM     28  N   UNL A   1      43.020  29.246  33.177  1.00  0.00    -0.354 N 
ATOM     29  N   UNL A   1      43.574  27.248  31.103  1.00  0.00    -0.248 NA
ATOM     30  C   UNL A   1      44.960  25.629  30.140  1.00  0.00     0.031 C 
ATOM     31  C   UNL A   1      44.523  29.507  34.790  1.00  0.00     0.029 A 
ATOM     32  C   UNL A   1      44.245  28.795  33.635  1.00  0.00     0.049 A 
ATOM     33  H   UNL A   1      42.553  28.907  32.380  1.00  0.00     0.167 HD
ATOM     34  C   UNL A   1      44.716  27.115  31.870  1.00  0.00     0.074 A 
ATOM     35  C   UNL A   1      45.524  26.083  31.252  1.00  0.00     0.031 C 
ATOM     36  C   UNL A   1      45.048  27.783  32.998  1.00  0.00     0.037 A 
BRANCH  23  37
ATOM     37  C   UNL A   1      40.979  32.090  34.745  1.00  0.00     0.058 A 
ATOM     38  C   UNL A   1      41.531  33.376  34.653  1.00  0.00     0.135 A 
ATOM     39  C   UNL A   1      40.112  31.807  35.808  1.00  0.00     0.135 A 
ATOM     40  F   UNL A   1      42.417  33.668  33.687  1.00  0.00    -0.206 F 
ATOM     41  C   UNL A   1      41.238  34.350  35.598  1.00  0.00     0.059 A 
ATOM     42  C   UNL A   1      39.788  32.772  36.750  1.00  0.00     0.059 A 
ATOM     43  F   UNL A   1      39.601  30.574  35.954  1.00  0.00    -0.206 F 
ATOM     44  C   UNL A   1      40.361  34.038  36.640  1.00  0.00     0.060 A 
BRANCH  44  45
ATOM     45  S   UNL A   1      39.963  35.320  37.841  1.00  0.00     0.124 S 
ATOM     46  O   UNL A   1      41.196  35.384  38.621  1.00  0.00    -0.237 OA
ATOM     47  O   UNL A   1      39.693  36.472  36.987  1.00  0.00    -0.237 OA
ATOM     48  O   UNL A   1      38.804  34.778  38.543  1.00  0.00    -0.744 OA
ENDBRANCH  44  45
ENDBRANCH  23  37
BRANCH  24  49
ATOM     49  C   UNL A   1      42.983  24.979  28.053  1.00  0.00     0.058 A 
ATOM     50  C   UNL A   1      42.829  23.603  28.287  1.00  0.00     0.135 A 
ATOM     51  C   UNL A   1      43.531  25.349  26.811  1.00  0.00     0.135 A 
ATOM     52  F   UNL A   1      42.333  23.175  29.458  1.00  0.00    -0.206 F 
ATOM     53  C   UNL A   1      43.226  22.639  27.354  1.00  0.00     0.059 A 
ATOM     54  C   UNL A   1      43.917  24.407  25.852  1.00  0.00     0.059 A 
ATOM     55  F   UNL A   1      43.722  26.645  26.524  1.00  0.00    -0.206 F 
ATOM     56  C   UNL A   1      43.776  23.051  26.138  1.00  0.00     0.060 A 
BRANCH  56  57
ATOM     57  S   UNL A   1      44.292  21.796  24.936  1.00  0.00     0.124 S 
ATOM     58  O   UNL A   1      45.657  21.515  25.366  1.00  0.00    -0.237 OA
ATOM     59  O   UNL A   1      43.319  20.732  25.165  1.00  0.00    -0.237 OA
ATOM     60  O   UNL A   1      44.165  22.485  23.655  1.00  0.00    -0.744 OA
ENDBRANCH  56  57
ENDBRANCH  24  49
BRANCH  36  61
ATOM     61  C   UNL A   1      46.356  27.435  33.628  1.00  0.00     0.058 A 
ATOM     62  C   UNL A   1      47.525  28.135  33.297  1.00  0.00     0.135 A 
ATOM     63  C   UNL A   1      46.429  26.440  34.614  1.00  0.00     0.135 A 
ATOM     64  F   UNL A   1      47.502  29.083  32.346  1.00  0.00    -0.206 F 
ATOM     65  C   UNL A   1      48.730  27.855  33.923  1.00  0.00     0.059 A 
ATOM     66  C   UNL A   1      47.618  26.165  35.274  1.00  0.00     0.059 A 
ATOM     67  F   UNL A   1      45.332  25.748  34.961  1.00  0.00    -0.206 F 
ATOM     68  C   UNL A   1      48.765  26.876  34.916  1.00  0.00     0.060 A 
BRANCH  68  69
ATOM     69  S   UNL A   1      50.322  26.574  35.770  1.00  0.00     0.124 S 
ATOM     70  O   UNL A   1      50.876  25.475  34.988  1.00  0.00    -0.237 OA
ATOM     71  O   UNL A   1      51.005  27.857  35.633  1.00  0.00    -0.237 OA
ATOM     72  O   UNL A   1      49.905  26.235  37.127  1.00  0.00    -0.744 OA
ENDBRANCH  68  69
ENDBRANCH  36  61
ENDBRANCH  10  11
ENDBRANCH   3   5
ENDBRANCH   2   3
ENDBRANCH   1   2
BRANCH   1  73
ATOM     73  C   UNL A   1      31.807  29.367  26.150  1.00  0.00     0.274 C 
BRANCH  73  74
ATOM     74  O   UNL A   1      33.003  28.737  25.664  1.00  0.00    -0.461 OA
BRANCH  74  75
ATOM     75  C   UNL A   1      33.181  28.548  24.335  1.00  0.00     0.329 C 
ATOM     76  O   UNL A   1      33.591  29.415  23.572  1.00  0.00    -0.250 OA
BRANCH  75  77
ATOM     77  C   UNL A   1      33.160  27.040  23.988  1.00  0.00     0.197 C 
ATOM     78  C   UNL A   1      33.776  26.390  25.259  1.00  0.00     0.038 C 
ATOM     79  N   UNL A   1      31.908  26.346  23.607  1.00  0.00    -0.308 N 
ATOM     80  C   UNL A   1      33.981  24.887  25.161  1.00  0.00     0.008 C 
ATOM     81  C   UNL A   1      32.002  24.841  23.608  1.00  0.00     0.091 C 
ATOM     82  C   UNL A   1      32.633  24.257  24.869  1.00  0.00     0.012 C 
ATOM     83  C   UNL A   1      32.615  24.266  22.322  1.00  0.00     0.025 C 
ATOM     84  C   UNL A   1      32.641  22.730  24.826  1.00  0.00     0.006 C 
ATOM     85  C   UNL A   1      33.509  23.017  22.431  1.00  0.00     0.002 C 
ATOM     86  C   UNL A   1      33.513  22.189  23.715  1.00  0.00     0.000 C 
BRANCH  79  87
ATOM     87  C   UNL A   1      30.669  26.940  23.803  1.00  0.00     0.318 C 
ATOM     88  O   UNL A   1      29.953  26.633  24.732  1.00  0.00    -0.249 OA
ATOM     89  N   UNL A   1      30.219  27.859  22.891  1.00  0.00    -0.335 N 
ATOM     90  H   UNL A   1      30.626  27.845  21.995  1.00  0.00     0.165 HD
BRANCH  89  91
ATOM     91  C   UNL A   1      29.181  28.861  23.146  1.00  0.00     0.084 C 
ATOM     92  C   UNL A   1      28.349  29.620  22.130  1.00  0.00     0.027 C 
ATOM     93  C   UNL A   1      27.729  28.512  22.908  1.00  0.00     0.027 C 
ENDBRANCH  89  91
ENDBRANCH  79  87
ENDBRANCH  75  77
ENDBRANCH  74  75
ENDBRANCH  73  74
ENDBRANCH   1  73
TORSDOF 16
ENDMDL
