MODEL 1
REMARK VINA RESULT:     -10.6      0.000      0.000
REMARK SMILES CNC(=O)NC(=O)CCSc1csc(C(=O)OCCOC(=O)c2ccc(-c3c4nc(c(-c5c(F)cc(S(=O)(=O)[O-])cc5F)c5ccc([nH]5)c(-c5c(F)cc(S(=O)(=O)[O-])cc5F)c5nc(c(-c6c(F)cc(S(=O)(=O)[O-])cc6F)c6ccc3[nH]6)C=C5)C=C4)cc2)c1
REMARK SMILES IDX 18 1 17 2 15 3 16 4 14 5 11 6 12 7 89 8 13 9 10 10 9 11 8 12
REMARK SMILES IDX 6 13 1 14 2 15 3 16 4 18 5 19 7 21 19 22 20 23 21 24 22 25
REMARK SMILES IDX 23 26 24 27 88 28 25 29 87 30 26 31 27 32 28 33 81 34 29 35
REMARK SMILES IDX 86 36 80 37 82 38 30 39 85 40 79 41 78 42 31 44 65 45 44 46
REMARK SMILES IDX 64 47 45 48 48 49 63 50 83 51 46 52 47 53 62 55 84 56 49 57
REMARK SMILES IDX 32 58 33 59 42 60 34 61 35 62 41 63 43 64 36 65 37 66 38 67
REMARK SMILES IDX 39 68 40 69 66 70 67 71 76 72 68 73 69 74 75 75 77 76 70 77
REMARK SMILES IDX 71 78 72 79 73 80 74 81 50 82 51 83 60 84 52 85 53 86 59 87
REMARK SMILES IDX 61 88 54 89 55 90 56 91 57 92 58 93
REMARK H PARENT 2 17 5 20 82 43 48 54
REMARK Flexibility Score: inf
ROOT
ATOM      1  C   UNL A   1      42.415  21.816  25.957  1.00  0.00     0.275 C 
ENDROOT
BRANCH   1   2
ATOM      2  O   UNL A   1      41.031  21.583  25.641  1.00  0.00    -0.458 OA
BRANCH   2   3
ATOM      3  C   UNL A   1      40.145  21.762  26.666  1.00  0.00     0.348 C 
ATOM      4  O   UNL A   1      40.420  21.566  27.847  1.00  0.00    -0.245 OA
BRANCH   3   5
ATOM      5  C   UNL A   1      38.872  22.230  26.153  1.00  0.00     0.113 A 
ATOM      6  C   UNL A   1      36.790  22.376  25.109  1.00  0.00     0.019 A 
ATOM      7  C   UNL A   1      36.977  23.677  25.508  1.00  0.00     0.080 A 
ATOM      8  C   UNL A   1      37.885  21.541  25.469  1.00  0.00     0.042 A 
ATOM      9  S   UNL A   1      38.431  23.874  26.378  1.00  0.00    -0.136 S 
BRANCH   6  10
ATOM     10  S   UNL A   1      35.324  21.799  24.337  1.00  0.00    -0.125 SA
BRANCH  10  11
ATOM     11  C   UNL A   1      34.076  23.006  24.866  1.00  0.00     0.085 C 
BRANCH  11  12
ATOM     12  C   UNL A   1      32.626  22.719  24.499  1.00  0.00     0.112 C 
BRANCH  12  13
ATOM     13  C   UNL A   1      31.902  21.778  25.411  1.00  0.00     0.228 C 
ATOM     14  C   UNL A   1      31.746  25.334  26.350  1.00  0.00     0.144 C 
ATOM     15  N   UNL A   1      30.630  24.514  26.739  1.00  0.00    -0.341 N 
ATOM     16  C   UNL A   1      30.445  23.212  26.970  1.00  0.00     0.321 C 
ATOM     17  H   UNL A   1      29.806  25.037  26.864  1.00  0.00     0.165 HD
ATOM     18  O   UNL A   1      29.430  22.909  27.606  1.00  0.00    -0.248 OA
ATOM     19  N   UNL A   1      31.253  22.200  26.555  1.00  0.00    -0.278 N 
ATOM     20  H   UNL A   1      31.431  21.578  27.298  1.00  0.00     0.174 HD
ATOM     21  O   UNL A   1      31.903  20.570  25.154  1.00  0.00    -0.275 OA
ENDBRANCH  12  13
ENDBRANCH  11  12
ENDBRANCH  10  11
ENDBRANCH   6  10
ENDBRANCH   3   5
ENDBRANCH   2   3
ENDBRANCH   1   2
BRANCH   1  22
ATOM     22  C   UNL A   1      42.866  23.224  25.553  1.00  0.00     0.275 C 
BRANCH  22  23
ATOM     23  O   UNL A   1      42.665  24.193  26.601  1.00  0.00    -0.458 OA
BRANCH  23  24
ATOM     24  C   UNL A   1      42.364  25.441  26.166  1.00  0.00     0.338 C 
ATOM     25  O   UNL A   1      42.349  25.818  25.007  1.00  0.00    -0.246 OA
BRANCH  24  26
ATOM     26  C   UNL A   1      41.922  26.289  27.287  1.00  0.00     0.060 A 
ATOM     27  C   UNL A   1      42.574  27.508  27.470  1.00  0.00     0.016 A 
ATOM     28  C   UNL A   1      40.972  25.857  28.213  1.00  0.00     0.016 A 
ATOM     29  C   UNL A   1      42.305  28.292  28.589  1.00  0.00     0.010 A 
ATOM     30  C   UNL A   1      40.678  26.663  29.324  1.00  0.00     0.010 A 
ATOM     31  C   UNL A   1      41.352  27.883  29.532  1.00  0.00    -0.014 A 
BRANCH  31  32
ATOM     32  C   UNL A   1      41.091  28.722  30.736  1.00  0.00     0.031 A 
ATOM     33  C   UNL A   1      39.971  29.730  30.735  1.00  0.00     0.074 A 
ATOM     34  C   UNL A   1      41.844  28.566  31.843  1.00  0.00     0.049 A 
ATOM     35  N   UNL A   1      39.656  30.622  31.641  1.00  0.00    -0.248 NA
ATOM     36  C   UNL A   1      39.096  29.744  29.553  1.00  0.00     0.031 C 
ATOM     37  C   UNL A   1      42.928  27.594  31.997  1.00  0.00     0.029 A 
ATOM     38  N   UNL A   1      41.812  29.217  33.053  1.00  0.00    -0.354 N 
ATOM     39  C   UNL A   1      38.571  31.324  31.127  1.00  0.00     0.074 A 
ATOM     40  C   UNL A   1      38.298  30.770  29.819  1.00  0.00     0.031 C 
ATOM     41  C   UNL A   1      43.440  27.695  33.233  1.00  0.00     0.029 A 
ATOM     42  C   UNL A   1      42.777  28.788  33.935  1.00  0.00     0.049 A 
ATOM     43  H   UNL A   1      41.160  29.923  33.268  1.00  0.00     0.167 HD
ATOM     44  C   UNL A   1      37.868  32.336  31.696  1.00  0.00     0.037 A 
ATOM     45  C   UNL A   1      43.119  29.243  35.157  1.00  0.00     0.037 A 
ATOM     46  C   UNL A   1      38.134  32.864  33.012  1.00  0.00     0.049 A 
ATOM     47  C   UNL A   1      42.366  30.407  35.742  1.00  0.00     0.074 A 
ATOM     48  C   UNL A   1      37.467  33.874  33.685  1.00  0.00     0.029 A 
ATOM     49  N   UNL A   1      39.147  32.427  33.856  1.00  0.00    -0.354 N 
ATOM     50  N   UNL A   1      41.355  31.073  35.238  1.00  0.00    -0.248 NA
ATOM     51  C   UNL A   1      42.807  30.889  37.058  1.00  0.00     0.031 C 
ATOM     52  C   UNL A   1      38.113  34.089  34.907  1.00  0.00     0.029 A 
ATOM     53  C   UNL A   1      39.141  33.168  35.029  1.00  0.00     0.049 A 
ATOM     54  H   UNL A   1      39.776  31.699  33.652  1.00  0.00     0.167 HD
ATOM     55  C   UNL A   1      41.023  32.036  36.184  1.00  0.00     0.074 A 
ATOM     56  C   UNL A   1      41.933  31.856  37.297  1.00  0.00     0.031 C 
ATOM     57  C   UNL A   1      40.051  32.981  36.134  1.00  0.00     0.037 A 
BRANCH  44  58
ATOM     58  C   UNL A   1      36.768  32.968  30.880  1.00  0.00     0.058 A 
ATOM     59  C   UNL A   1      37.025  33.930  29.890  1.00  0.00     0.135 A 
ATOM     60  C   UNL A   1      35.430  32.588  31.083  1.00  0.00     0.135 A 
ATOM     61  F   UNL A   1      38.281  34.340  29.656  1.00  0.00    -0.206 F 
ATOM     62  C   UNL A   1      35.995  34.524  29.165  1.00  0.00     0.059 A 
ATOM     63  C   UNL A   1      34.387  33.144  30.346  1.00  0.00     0.059 A 
ATOM     64  F   UNL A   1      35.121  31.668  32.010  1.00  0.00    -0.206 F 
ATOM     65  C   UNL A   1      34.678  34.128  29.404  1.00  0.00     0.060 A 
BRANCH  65  66
ATOM     66  S   UNL A   1      33.353  34.925  28.473  1.00  0.00     0.124 S 
ATOM     67  O   UNL A   1      32.585  35.558  29.541  1.00  0.00    -0.237 OA
ATOM     68  O   UNL A   1      34.088  35.834  27.599  1.00  0.00    -0.237 OA
ATOM     69  O   UNL A   1      32.690  33.813  27.800  1.00  0.00    -0.744 OA
ENDBRANCH  65  66
ENDBRANCH  44  58
BRANCH  45  70
ATOM     70  C   UNL A   1      44.246  28.608  35.894  1.00  0.00     0.058 A 
ATOM     71  C   UNL A   1      45.567  29.044  35.717  1.00  0.00     0.135 A 
ATOM     72  C   UNL A   1      44.021  27.569  36.812  1.00  0.00     0.135 A 
ATOM     73  F   UNL A   1      45.837  30.023  34.841  1.00  0.00    -0.206 F 
ATOM     74  C   UNL A   1      46.624  28.474  36.420  1.00  0.00     0.059 A 
ATOM     75  C   UNL A   1      45.057  27.004  37.550  1.00  0.00     0.059 A 
ATOM     76  F   UNL A   1      42.775  27.116  37.025  1.00  0.00    -0.206 F 
ATOM     77  C   UNL A   1      46.357  27.460  37.342  1.00  0.00     0.060 A 
BRANCH  77  78
ATOM     78  S   UNL A   1      47.729  26.772  38.294  1.00  0.00     0.124 S 
ATOM     79  O   UNL A   1      48.105  25.621  37.480  1.00  0.00    -0.237 OA
ATOM     80  O   UNL A   1      48.676  27.881  38.310  1.00  0.00    -0.237 OA
ATOM     81  O   UNL A   1      47.119  26.458  39.583  1.00  0.00    -0.744 OA
ENDBRANCH  77  78
ENDBRANCH  45  70
BRANCH  57  82
ATOM     82  C   UNL A   1      39.890  33.875  37.336  1.00  0.00     0.058 A 
ATOM     83  C   UNL A   1      40.638  35.052  37.492  1.00  0.00     0.135 A 
ATOM     84  C   UNL A   1      38.938  33.570  38.323  1.00  0.00     0.135 A 
ATOM     85  F   UNL A   1      41.568  35.388  36.584  1.00  0.00    -0.206 F 
ATOM     86  C   UNL A   1      40.465  35.883  38.595  1.00  0.00     0.059 A 
ATOM     87  C   UNL A   1      38.725  34.403  39.418  1.00  0.00     0.059 A 
ATOM     88  F   UNL A   1      38.188  32.461  38.221  1.00  0.00    -0.206 F 
ATOM     89  C   UNL A   1      39.502  35.551  39.551  1.00  0.00     0.060 A 
BRANCH  89  90
ATOM     90  S   UNL A   1      39.263  36.658  40.958  1.00  0.00     0.124 S 
ATOM     91  O   UNL A   1      38.521  35.806  41.882  1.00  0.00    -0.237 OA
ATOM     92  O   UNL A   1      40.636  36.968  41.346  1.00  0.00    -0.237 OA
ATOM     93  O   UNL A   1      38.512  37.773  40.391  1.00  0.00    -0.744 OA
ENDBRANCH  89  90
ENDBRANCH  57  82
ENDBRANCH  31  32
ENDBRANCH  24  26
ENDBRANCH  23  24
ENDBRANCH  22  23
ENDBRANCH   1  22
TORSDOF 18
ENDMDL
MODEL 2
REMARK VINA RESULT:     -10.6      0.509      8.422
REMARK SMILES CNC(=O)NC(=O)CCSc1csc(C(=O)OCCOC(=O)c2ccc(-c3c4nc(c(-c5c(F)cc(S(=O)(=O)[O-])cc5F)c5ccc([nH]5)c(-c5c(F)cc(S(=O)(=O)[O-])cc5F)c5nc(c(-c6c(F)cc(S(=O)(=O)[O-])cc6F)c6ccc3[nH]6)C=C5)C=C4)cc2)c1
REMARK SMILES IDX 18 1 17 2 15 3 16 4 14 5 11 6 12 7 89 8 13 9 10 10 9 11 8 12
REMARK SMILES IDX 6 13 1 14 2 15 3 16 4 18 5 19 7 21 19 22 20 23 21 24 22 25
REMARK SMILES IDX 23 26 24 27 88 28 25 29 87 30 26 31 27 32 28 33 81 34 29 35
REMARK SMILES IDX 86 36 80 37 82 38 30 39 85 40 79 41 78 42 31 44 65 45 44 46
REMARK SMILES IDX 64 47 45 48 48 49 63 50 83 51 46 52 47 53 62 55 84 56 49 57
REMARK SMILES IDX 32 58 33 59 42 60 34 61 35 62 41 63 43 64 36 65 37 66 38 67
REMARK SMILES IDX 39 68 40 69 66 70 67 71 76 72 68 73 69 74 75 75 77 76 70 77
REMARK SMILES IDX 71 78 72 79 73 80 74 81 50 82 51 83 60 84 52 85 53 86 59 87
REMARK SMILES IDX 61 88 54 89 55 90 56 91 57 92 58 93
REMARK H PARENT 2 17 5 20 82 43 48 54
REMARK Flexibility Score: inf
ROOT
ATOM      1  C   UNL A   1      42.539  21.640  25.946  1.00  0.00     0.275 C 
ENDROOT
BRANCH   1   2
ATOM      2  O   UNL A   1      41.137  21.397  25.729  1.00  0.00    -0.458 OA
BRANCH   2   3
ATOM      3  C   UNL A   1      40.307  21.722  26.765  1.00  0.00     0.348 C 
ATOM      4  O   UNL A   1      40.621  21.622  27.948  1.00  0.00    -0.245 OA
BRANCH   3   5
ATOM      5  C   UNL A   1      39.041  22.212  26.257  1.00  0.00     0.113 A 
ATOM      6  C   UNL A   1      36.979  22.410  25.180  1.00  0.00     0.019 A 
ATOM      7  C   UNL A   1      37.143  23.683  25.672  1.00  0.00     0.080 A 
ATOM      8  C   UNL A   1      38.076  21.564  25.505  1.00  0.00     0.042 A 
ATOM      9  S   UNL A   1      38.575  23.832  26.587  1.00  0.00    -0.136 S 
BRANCH   6  10
ATOM     10  S   UNL A   1      35.538  21.875  24.337  1.00  0.00    -0.125 SA
BRANCH  10  11
ATOM     11  C   UNL A   1      34.223  22.875  25.090  1.00  0.00     0.085 C 
BRANCH  11  12
ATOM     12  C   UNL A   1      32.801  22.652  24.591  1.00  0.00     0.112 C 
BRANCH  12  13
ATOM     13  C   UNL A   1      31.943  21.780  25.453  1.00  0.00     0.228 C 
ATOM     14  C   UNL A   1      32.016  25.343  26.374  1.00  0.00     0.144 C 
ATOM     15  N   UNL A   1      30.813  24.619  26.687  1.00  0.00    -0.341 N 
ATOM     16  C   UNL A   1      30.506  23.339  26.907  1.00  0.00     0.321 C 
ATOM     17  H   UNL A   1      30.027  25.209  26.755  1.00  0.00     0.165 HD
ATOM     18  O   UNL A   1      29.429  23.124  27.473  1.00  0.00    -0.248 OA
ATOM     19  N   UNL A   1      31.255  22.261  26.550  1.00  0.00    -0.278 N 
ATOM     20  H   UNL A   1      31.330  21.632  27.304  1.00  0.00     0.174 HD
ATOM     21  O   UNL A   1      31.862  20.574  25.199  1.00  0.00    -0.275 OA
ENDBRANCH  12  13
ENDBRANCH  11  12
ENDBRANCH  10  11
ENDBRANCH   6  10
ENDBRANCH   3   5
ENDBRANCH   2   3
ENDBRANCH   1   2
BRANCH   1  22
ATOM     22  C   UNL A   1      42.963  23.028  25.453  1.00  0.00     0.275 C 
BRANCH  22  23
ATOM     23  O   UNL A   1      42.842  24.039  26.472  1.00  0.00    -0.458 OA
BRANCH  23  24
ATOM     24  C   UNL A   1      42.580  25.284  26.004  1.00  0.00     0.338 C 
ATOM     25  O   UNL A   1      42.581  25.631  24.836  1.00  0.00    -0.246 OA
BRANCH  24  26
ATOM     26  C   UNL A   1      42.157  26.174  27.100  1.00  0.00     0.060 A 
ATOM     27  C   UNL A   1      42.719  27.448  27.150  1.00  0.00     0.016 A 
ATOM     28  C   UNL A   1      41.320  25.737  28.127  1.00  0.00     0.016 A 
ATOM     29  C   UNL A   1      42.473  28.287  28.234  1.00  0.00     0.010 A 
ATOM     30  C   UNL A   1      41.048  26.594  29.205  1.00  0.00     0.010 A 
ATOM     31  C   UNL A   1      41.633  27.874  29.276  1.00  0.00    -0.014 A 
BRANCH  31  32
ATOM     32  C   UNL A   1      41.397  28.774  30.441  1.00  0.00     0.031 A 
ATOM     33  C   UNL A   1      42.284  28.699  31.656  1.00  0.00     0.074 A 
ATOM     34  C   UNL A   1      40.397  29.679  30.403  1.00  0.00     0.049 A 
ATOM     35  N   UNL A   1      42.174  29.320  32.804  1.00  0.00    -0.248 NA
ATOM     36  C   UNL A   1      43.444  27.799  31.572  1.00  0.00     0.031 C 
ATOM     37  C   UNL A   1      39.494  29.890  29.270  1.00  0.00     0.029 A 
ATOM     38  N   UNL A   1      39.974  30.593  31.337  1.00  0.00    -0.354 N 
ATOM     39  C   UNL A   1      43.227  28.862  33.591  1.00  0.00     0.074 A 
ATOM     40  C   UNL A   1      43.949  27.893  32.795  1.00  0.00     0.031 C 
ATOM     41  C   UNL A   1      38.642  30.884  29.565  1.00  0.00     0.029 A 
ATOM     42  C   UNL A   1      38.885  31.330  30.933  1.00  0.00     0.049 A 
ATOM     43  H   UNL A   1      40.410  30.710  32.212  1.00  0.00     0.167 HD
ATOM     44  C   UNL A   1      43.559  29.220  34.856  1.00  0.00     0.037 A 
ATOM     45  C   UNL A   1      38.138  32.236  31.596  1.00  0.00     0.037 A 
ATOM     46  C   UNL A   1      42.845  30.205  35.631  1.00  0.00     0.049 A 
ATOM     47  C   UNL A   1      38.487  32.570  33.020  1.00  0.00     0.074 A 
ATOM     48  C   UNL A   1      43.114  30.651  36.914  1.00  0.00     0.029 A 
ATOM     49  N   UNL A   1      41.722  30.898  35.198  1.00  0.00    -0.354 N 
ATOM     50  N   UNL A   1      39.473  32.116  33.757  1.00  0.00    -0.248 NA
ATOM     51  C   UNL A   1      37.615  33.532  33.709  1.00  0.00     0.031 C 
ATOM     52  C   UNL A   1      42.120  31.566  37.279  1.00  0.00     0.029 A 
ATOM     53  C   UNL A   1      41.270  31.744  36.199  1.00  0.00     0.049 A 
ATOM     54  H   UNL A   1      41.308  30.804  34.310  1.00  0.00     0.167 HD
ATOM     55  C   UNL A   1      39.355  32.755  34.987  1.00  0.00     0.074 A 
ATOM     56  C   UNL A   1      38.210  33.637  34.889  1.00  0.00     0.031 C 
ATOM     57  C   UNL A   1      40.128  32.623  36.093  1.00  0.00     0.037 A 
BRANCH  44  58
ATOM     58  C   UNL A   1      44.723  28.508  35.501  1.00  0.00     0.058 A 
ATOM     59  C   UNL A   1      44.565  27.323  36.236  1.00  0.00     0.135 A 
ATOM     60  C   UNL A   1      46.025  29.017  35.363  1.00  0.00     0.135 A 
ATOM     61  F   UNL A   1      43.344  26.793  36.411  1.00  0.00    -0.206 F 
ATOM     62  C   UNL A   1      45.647  26.695  36.848  1.00  0.00     0.059 A 
ATOM     63  C   UNL A   1      47.126  28.387  35.938  1.00  0.00     0.059 A 
ATOM     64  F   UNL A   1      46.241  30.144  34.665  1.00  0.00    -0.206 F 
ATOM     65  C   UNL A   1      46.924  27.237  36.698  1.00  0.00     0.060 A 
BRANCH  65  66
ATOM     66  S   UNL A   1      48.311  26.424  37.518  1.00  0.00     0.124 S 
ATOM     67  O   UNL A   1      47.643  25.761  38.634  1.00  0.00    -0.237 OA
ATOM     68  O   UNL A   1      48.820  25.544  36.471  1.00  0.00    -0.237 OA
ATOM     69  O   UNL A   1      49.189  27.531  37.883  1.00  0.00    -0.744 OA
ENDBRANCH  65  66
ENDBRANCH  44  58
BRANCH  45  70
ATOM     70  C   UNL A   1      36.971  32.868  30.921  1.00  0.00     0.058 A 
ATOM     71  C   UNL A   1      37.143  33.916  30.005  1.00  0.00     0.135 A 
ATOM     72  C   UNL A   1      35.662  32.418  31.158  1.00  0.00     0.135 A 
ATOM     73  F   UNL A   1      38.371  34.393  29.755  1.00  0.00    -0.206 F 
ATOM     74  C   UNL A   1      36.061  34.497  29.349  1.00  0.00     0.059 A 
ATOM     75  C   UNL A   1      34.568  32.961  30.492  1.00  0.00     0.059 A 
ATOM     76  F   UNL A   1      35.441  31.414  32.021  1.00  0.00    -0.206 F 
ATOM     77  C   UNL A   1      34.777  34.006  29.594  1.00  0.00     0.060 A 
BRANCH  77  78
ATOM     78  S   UNL A   1      33.388  34.725  28.690  1.00  0.00     0.124 S 
ATOM     79  O   UNL A   1      32.449  35.009  29.770  1.00  0.00    -0.237 OA
ATOM     80  O   UNL A   1      34.003  35.886  28.057  1.00  0.00    -0.237 OA
ATOM     81  O   UNL A   1      32.993  33.657  27.776  1.00  0.00    -0.744 OA
ENDBRANCH  77  78
ENDBRANCH  45  70
BRANCH  57  82
ATOM     82  C   UNL A   1      39.788  33.480  37.283  1.00  0.00     0.058 A 
ATOM     83  C   UNL A   1      38.794  33.114  38.204  1.00  0.00     0.135 A 
ATOM     84  C   UNL A   1      40.502  34.665  37.530  1.00  0.00     0.135 A 
ATOM     85  F   UNL A   1      38.074  31.998  38.014  1.00  0.00    -0.206 F 
ATOM     86  C   UNL A   1      38.504  33.904  39.313  1.00  0.00     0.059 A 
ATOM     87  C   UNL A   1      40.252  35.453  38.649  1.00  0.00     0.059 A 
ATOM     88  F   UNL A   1      41.470  35.060  36.687  1.00  0.00    -0.206 F 
ATOM     89  C   UNL A   1      39.242  35.070  39.530  1.00  0.00     0.060 A 
BRANCH  89  90
ATOM     90  S   UNL A   1      38.879  36.064  40.992  1.00  0.00     0.124 S 
ATOM     91  O   UNL A   1      38.587  37.365  40.401  1.00  0.00    -0.237 OA
ATOM     92  O   UNL A   1      37.739  35.360  41.572  1.00  0.00    -0.237 OA
ATOM     93  O   UNL A   1      40.113  35.990  41.769  1.00  0.00    -0.744 OA
ENDBRANCH  89  90
ENDBRANCH  57  82
ENDBRANCH  31  32
ENDBRANCH  24  26
ENDBRANCH  23  24
ENDBRANCH  22  23
ENDBRANCH   1  22
TORSDOF 18
ENDMDL
MODEL 3
REMARK VINA RESULT:     -10.6      6.592     11.986
REMARK SMILES CNC(=O)NC(=O)CCSc1csc(C(=O)OCCOC(=O)c2ccc(-c3c4nc(c(-c5c(F)cc(S(=O)(=O)[O-])cc5F)c5ccc([nH]5)c(-c5c(F)cc(S(=O)(=O)[O-])cc5F)c5nc(c(-c6c(F)cc(S(=O)(=O)[O-])cc6F)c6ccc3[nH]6)C=C5)C=C4)cc2)c1
REMARK SMILES IDX 18 1 17 2 15 3 16 4 14 5 11 6 12 7 89 8 13 9 10 10 9 11 8 12
REMARK SMILES IDX 6 13 1 14 2 15 3 16 4 18 5 19 7 21 19 22 20 23 21 24 22 25
REMARK SMILES IDX 23 26 24 27 88 28 25 29 87 30 26 31 27 32 28 33 81 34 29 35
REMARK SMILES IDX 86 36 80 37 82 38 30 39 85 40 79 41 78 42 31 44 65 45 44 46
REMARK SMILES IDX 64 47 45 48 48 49 63 50 83 51 46 52 47 53 62 55 84 56 49 57
REMARK SMILES IDX 32 58 33 59 42 60 34 61 35 62 41 63 43 64 36 65 37 66 38 67
REMARK SMILES IDX 39 68 40 69 66 70 67 71 76 72 68 73 69 74 75 75 77 76 70 77
REMARK SMILES IDX 71 78 72 79 73 80 74 81 50 82 51 83 60 84 52 85 53 86 59 87
REMARK SMILES IDX 61 88 54 89 55 90 56 91 57 92 58 93
REMARK H PARENT 2 17 5 20 82 43 48 54
REMARK Flexibility Score: inf
ROOT
ATOM      1  C   UNL A   1      33.843  31.865  27.628  1.00  0.00     0.275 C 
ENDROOT
BRANCH   1   2
ATOM      2  O   UNL A   1      34.033  30.587  26.994  1.00  0.00    -0.458 OA
BRANCH   2   3
ATOM      3  C   UNL A   1      32.900  29.856  26.772  1.00  0.00     0.348 C 
ATOM      4  O   UNL A   1      31.794  30.162  27.209  1.00  0.00    -0.245 OA
BRANCH   3   5
ATOM      5  C   UNL A   1      33.200  28.707  25.939  1.00  0.00     0.113 A 
ATOM      6  C   UNL A   1      33.688  26.558  25.170  1.00  0.00     0.019 A 
ATOM      7  C   UNL A   1      33.768  27.280  24.004  1.00  0.00     0.080 A 
ATOM      8  C   UNL A   1      33.372  27.379  26.289  1.00  0.00     0.042 A 
ATOM      9  S   UNL A   1      33.389  28.925  24.246  1.00  0.00    -0.136 S 
BRANCH   6  10
ATOM     10  S   UNL A   1      33.856  24.814  25.245  1.00  0.00    -0.125 SA
BRANCH  10  11
ATOM     11  C   UNL A   1      33.452  24.287  23.556  1.00  0.00     0.085 C 
BRANCH  11  12
ATOM     12  C   UNL A   1      32.048  23.751  23.307  1.00  0.00     0.112 C 
BRANCH  12  13
ATOM     13  C   UNL A   1      30.963  24.371  24.131  1.00  0.00     0.228 C 
ATOM     14  C   UNL A   1      32.039  21.015  25.193  1.00  0.00     0.144 C 
ATOM     15  N   UNL A   1      31.535  21.887  26.220  1.00  0.00    -0.341 N 
ATOM     16  C   UNL A   1      30.715  22.940  26.252  1.00  0.00     0.321 C 
ATOM     17  H   UNL A   1      31.876  21.651  27.113  1.00  0.00     0.165 HD
ATOM     18  O   UNL A   1      30.249  23.236  27.357  1.00  0.00    -0.248 OA
ATOM     19  N   UNL A   1      30.367  23.719  25.193  1.00  0.00    -0.278 N 
ATOM     20  H   UNL A   1      29.393  23.861  25.179  1.00  0.00     0.174 HD
ATOM     21  O   UNL A   1      30.556  25.501  23.840  1.00  0.00    -0.275 OA
ENDBRANCH  12  13
ENDBRANCH  11  12
ENDBRANCH  10  11
ENDBRANCH   6  10
ENDBRANCH   3   5
ENDBRANCH   2   3
ENDBRANCH   1   2
BRANCH   1  22
ATOM     22  C   UNL A   1      34.547  31.940  28.987  1.00  0.00     0.275 C 
BRANCH  22  23
ATOM     23  O   UNL A   1      35.970  31.735  28.887  1.00  0.00    -0.458 OA
BRANCH  23  24
ATOM     24  C   UNL A   1      36.522  31.079  29.938  1.00  0.00     0.338 C 
ATOM     25  O   UNL A   1      36.012  30.910  31.032  1.00  0.00    -0.246 OA
BRANCH  24  26
ATOM     26  C   UNL A   1      37.806  30.467  29.552  1.00  0.00     0.060 A 
ATOM     27  C   UNL A   1      38.775  30.323  30.544  1.00  0.00     0.016 A 
ATOM     28  C   UNL A   1      38.105  30.146  28.228  1.00  0.00     0.016 A 
ATOM     29  C   UNL A   1      40.057  29.884  30.221  1.00  0.00     0.010 A 
ATOM     30  C   UNL A   1      39.388  29.675  27.908  1.00  0.00     0.010 A 
ATOM     31  C   UNL A   1      40.382  29.552  28.899  1.00  0.00    -0.014 A 
BRANCH  31  32
ATOM     32  C   UNL A   1      41.764  29.104  28.565  1.00  0.00     0.031 A 
ATOM     33  C   UNL A   1      42.911  30.081  28.594  1.00  0.00     0.074 A 
ATOM     34  C   UNL A   1      41.999  27.813  28.255  1.00  0.00     0.049 A 
ATOM     35  N   UNL A   1      44.158  29.908  28.234  1.00  0.00    -0.248 NA
ATOM     36  C   UNL A   1      42.613  31.435  29.084  1.00  0.00     0.031 C 
ATOM     37  C   UNL A   1      40.989  26.753  28.236  1.00  0.00     0.029 A 
ATOM     38  N   UNL A   1      43.159  27.168  27.901  1.00  0.00    -0.354 N 
ATOM     39  C   UNL A   1      44.785  31.136  28.420  1.00  0.00     0.074 A 
ATOM     40  C   UNL A   1      43.773  32.051  28.904  1.00  0.00     0.031 C 
ATOM     41  C   UNL A   1      41.576  25.590  27.913  1.00  0.00     0.029 A 
ATOM     42  C   UNL A   1      42.986  25.831  27.627  1.00  0.00     0.049 A 
ATOM     43  H   UNL A   1      44.033  27.620  27.849  1.00  0.00     0.167 HD
ATOM     44  C   UNL A   1      46.084  31.467  28.210  1.00  0.00     0.037 A 
ATOM     45  C   UNL A   1      43.850  24.907  27.161  1.00  0.00     0.037 A 
ATOM     46  C   UNL A   1      47.089  30.540  27.751  1.00  0.00     0.049 A 
ATOM     47  C   UNL A   1      45.271  25.312  26.875  1.00  0.00     0.074 A 
ATOM     48  C   UNL A   1      48.436  30.773  27.525  1.00  0.00     0.029 A 
ATOM     49  N   UNL A   1      46.862  29.204  27.446  1.00  0.00    -0.354 N 
ATOM     50  N   UNL A   1      45.845  26.480  27.038  1.00  0.00    -0.248 NA
ATOM     51  C   UNL A   1      46.159  24.276  26.331  1.00  0.00     0.031 C 
ATOM     52  C   UNL A   1      49.007  29.596  27.027  1.00  0.00     0.029 A 
ATOM     53  C   UNL A   1      48.035  28.610  27.006  1.00  0.00     0.049 A 
ATOM     54  H   UNL A   1      45.994  28.746  27.531  1.00  0.00     0.167 HD
ATOM     55  C   UNL A   1      47.167  26.314  26.641  1.00  0.00     0.074 A 
ATOM     56  C   UNL A   1      47.310  24.929  26.242  1.00  0.00     0.031 C 
ATOM     57  C   UNL A   1      48.169  27.227  26.612  1.00  0.00     0.037 A 
BRANCH  44  58
ATOM     58  C   UNL A   1      46.484  32.904  28.433  1.00  0.00     0.058 A 
ATOM     59  C   UNL A   1      46.917  33.378  29.682  1.00  0.00     0.135 A 
ATOM     60  C   UNL A   1      46.450  33.820  27.369  1.00  0.00     0.135 A 
ATOM     61  F   UNL A   1      46.963  32.552  30.740  1.00  0.00    -0.206 F 
ATOM     62  C   UNL A   1      47.256  34.714  29.878  1.00  0.00     0.059 A 
ATOM     63  C   UNL A   1      46.817  35.154  27.533  1.00  0.00     0.059 A 
ATOM     64  F   UNL A   1      46.051  33.426  26.149  1.00  0.00    -0.206 F 
ATOM     65  C   UNL A   1      47.198  35.597  28.798  1.00  0.00     0.060 A 
BRANCH  65  66
ATOM     66  S   UNL A   1      47.617  37.330  29.074  1.00  0.00     0.124 S 
ATOM     67  O   UNL A   1      47.543  37.421  30.529  1.00  0.00    -0.237 OA
ATOM     68  O   UNL A   1      48.956  37.423  28.502  1.00  0.00    -0.237 OA
ATOM     69  O   UNL A   1      46.577  38.054  28.349  1.00  0.00    -0.744 OA
ENDBRANCH  65  66
ENDBRANCH  44  58
BRANCH  45  70
ATOM     70  C   UNL A   1      43.383  23.515  26.915  1.00  0.00     0.058 A 
ATOM     71  C   UNL A   1      43.149  23.047  25.614  1.00  0.00     0.135 A 
ATOM     72  C   UNL A   1      43.187  22.615  27.976  1.00  0.00     0.135 A 
ATOM     73  F   UNL A   1      43.308  23.871  24.567  1.00  0.00    -0.206 F 
ATOM     74  C   UNL A   1      42.738  21.740  25.372  1.00  0.00     0.059 A 
ATOM     75  C   UNL A   1      42.805  21.296  27.757  1.00  0.00     0.059 A 
ATOM     76  F   UNL A   1      43.401  23.009  29.241  1.00  0.00    -0.206 F 
ATOM     77  C   UNL A   1      42.576  20.869  26.451  1.00  0.00     0.060 A 
BRANCH  77  78
ATOM     78  S   UNL A   1      42.103  19.157  26.119  1.00  0.00     0.124 S 
ATOM     79  O   UNL A   1      40.662  19.283  25.926  1.00  0.00    -0.237 OA
ATOM     80  O   UNL A   1      42.883  18.851  24.925  1.00  0.00    -0.237 OA
ATOM     81  O   UNL A   1      42.517  18.454  27.329  1.00  0.00    -0.744 OA
ENDBRANCH  77  78
ENDBRANCH  45  70
BRANCH  57  82
ATOM     82  C   UNL A   1      49.528  26.752  26.169  1.00  0.00     0.058 A 
ATOM     83  C   UNL A   1      49.971  26.897  24.845  1.00  0.00     0.135 A 
ATOM     84  C   UNL A   1      50.417  26.182  27.096  1.00  0.00     0.135 A 
ATOM     85  F   UNL A   1      49.161  27.426  23.915  1.00  0.00    -0.206 F 
ATOM     86  C   UNL A   1      51.237  26.475  24.451  1.00  0.00     0.059 A 
ATOM     87  C   UNL A   1      51.699  25.783  26.732  1.00  0.00     0.059 A 
ATOM     88  F   UNL A   1      50.049  26.026  28.378  1.00  0.00    -0.206 F 
ATOM     89  C   UNL A   1      52.097  25.923  25.404  1.00  0.00     0.060 A 
BRANCH  89  90
ATOM     90  S   UNL A   1      53.749  25.413  24.886  1.00  0.00     0.124 S 
ATOM     91  O   UNL A   1      54.568  25.890  25.996  1.00  0.00    -0.237 OA
ATOM     92  O   UNL A   1      53.609  23.964  24.779  1.00  0.00    -0.237 OA
ATOM     93  O   UNL A   1      53.941  26.113  23.619  1.00  0.00    -0.744 OA
ENDBRANCH  89  90
ENDBRANCH  57  82
ENDBRANCH  31  32
ENDBRANCH  24  26
ENDBRANCH  23  24
ENDBRANCH  22  23
ENDBRANCH   1  22
TORSDOF 18
ENDMDL
