MODEL 1
REMARK VINA RESULT:      -9.7      0.000      0.000
REMARK SMILES CC[C@@H](C)[C@H](C(=O)OCCOC(=O)c1ccc(-c2c3nc(c(-c4c(F)cc(S(=O)(=O)[O-])cc4F)c4ccc([nH]4)c(-c4c(F)cc(S(=O)(=O)[O-])cc4F)c4nc(c(-c5c(F)cc(S(=O)(=O)[O-])cc5F)c5ccc2[nH]5)C=C4)C=C3)cc1)S(=O)(=O)c1cccc(OC)c1
REMARK SMILES IDX 9 1 8 2 6 3 7 4 5 5 3 6 4 7 2 8 1 9 80 10 81 11 82 12 83 13
REMARK SMILES IDX 84 14 90 15 85 16 87 17 86 18 88 19 89 20 10 21 11 22 12 23
REMARK SMILES IDX 13 24 14 25 15 26 79 27 16 28 78 29 17 30 18 31 19 32 72 33
REMARK SMILES IDX 20 34 77 35 71 36 73 37 21 38 76 39 70 40 69 41 22 43 56 44
REMARK SMILES IDX 35 45 55 46 36 47 39 48 54 49 74 50 37 51 38 52 53 54 75 55
REMARK SMILES IDX 40 56 23 57 24 58 33 59 25 60 26 61 32 62 34 63 27 64 28 65
REMARK SMILES IDX 29 66 30 67 31 68 57 69 58 70 67 71 59 72 60 73 66 74 68 75
REMARK SMILES IDX 61 76 62 77 63 78 64 79 65 80 41 81 42 82 51 83 43 84 44 85
REMARK SMILES IDX 50 86 52 87 45 88 46 89 47 90 48 91 49 92
REMARK H PARENT 73 42 39 53
REMARK Flexibility Score: inf
ROOT
ATOM      1  C   UNL A   1      35.924  21.500  25.320  1.00  0.00     0.274 C 
ENDROOT
BRANCH   1   2
ATOM      2  O   UNL A   1      35.029  22.084  26.293  1.00  0.00    -0.461 OA
BRANCH   2   3
ATOM      3  C   UNL A   1      33.750  21.626  26.308  1.00  0.00     0.325 C 
ATOM      4  O   UNL A   1      33.413  20.706  27.040  1.00  0.00    -0.251 OA
BRANCH   3   5
ATOM      5  C   UNL A   1      32.810  22.386  25.368  1.00  0.00     0.225 C 
BRANCH   5   6
ATOM      6  C   UNL A   1      32.180  21.741  24.068  1.00  0.00     0.015 C 
ATOM      7  C   UNL A   1      32.610  20.318  23.666  1.00  0.00     0.009 C 
BRANCH   6   8
ATOM      8  C   UNL A   1      32.248  22.653  22.821  1.00  0.00     0.002 C 
ATOM      9  C   UNL A   1      33.633  23.196  22.490  1.00  0.00     0.004 C 
ENDBRANCH   6   8
ENDBRANCH   5   6
BRANCH   5  10
ATOM     10  S   UNL A   1      31.610  23.266  26.401  1.00  0.00     0.192 S 
ATOM     11  O   UNL A   1      30.317  22.619  26.292  1.00  0.00    -0.223 OA
ATOM     12  O   UNL A   1      32.189  23.424  27.725  1.00  0.00    -0.223 OA
BRANCH  10  13
ATOM     13  C   UNL A   1      31.422  24.919  25.734  1.00  0.00     0.071 A 
ATOM     14  C   UNL A   1      30.153  25.349  25.354  1.00  0.00     0.020 A 
ATOM     15  C   UNL A   1      32.518  25.780  25.599  1.00  0.00     0.066 A 
ATOM     16  C   UNL A   1      29.996  26.642  24.848  1.00  0.00     0.005 A 
ATOM     17  C   UNL A   1      32.372  27.064  25.087  1.00  0.00     0.120 A 
ATOM     18  C   UNL A   1      31.101  27.493  24.717  1.00  0.00     0.046 A 
BRANCH  17  19
ATOM     19  O   UNL A   1      33.397  27.958  24.926  1.00  0.00    -0.497 OA
ATOM     20  C   UNL A   1      33.345  29.144  25.719  1.00  0.00     0.278 C 
ENDBRANCH  17  19
ENDBRANCH  10  13
ENDBRANCH   5  10
ENDBRANCH   3   5
ENDBRANCH   2   3
ENDBRANCH   1   2
BRANCH   1  21
ATOM     21  C   UNL A   1      36.823  22.550  24.661  1.00  0.00     0.275 C 
BRANCH  21  22
ATOM     22  O   UNL A   1      37.360  23.472  25.624  1.00  0.00    -0.458 OA
BRANCH  22  23
ATOM     23  C   UNL A   1      38.624  23.201  26.032  1.00  0.00     0.338 C 
ATOM     24  O   UNL A   1      39.302  22.239  25.703  1.00  0.00    -0.246 OA
BRANCH  23  25
ATOM     25  C   UNL A   1      39.165  24.354  26.773  1.00  0.00     0.060 A 
ATOM     26  C   UNL A   1      38.774  24.489  28.108  1.00  0.00     0.016 A 
ATOM     27  C   UNL A   1      40.031  25.284  26.195  1.00  0.00     0.016 A 
ATOM     28  C   UNL A   1      39.268  25.527  28.886  1.00  0.00     0.010 A 
ATOM     29  C   UNL A   1      40.502  26.349  26.969  1.00  0.00     0.010 A 
ATOM     30  C   UNL A   1      40.120  26.473  28.318  1.00  0.00    -0.014 A 
BRANCH  30  31
ATOM     31  C   UNL A   1      40.513  27.652  29.117  1.00  0.00     0.031 A 
ATOM     32  C   UNL A   1      41.836  27.636  29.824  1.00  0.00     0.074 A 
ATOM     33  C   UNL A   1      39.720  28.736  29.166  1.00  0.00     0.049 A 
ATOM     34  N   UNL A   1      42.358  28.523  30.627  1.00  0.00    -0.248 NA
ATOM     35  C   UNL A   1      42.687  26.458  29.586  1.00  0.00     0.031 C 
ATOM     36  C   UNL A   1      38.455  28.890  28.447  1.00  0.00     0.029 A 
ATOM     37  N   UNL A   1      39.861  29.914  29.855  1.00  0.00    -0.354 N 
ATOM     38  C   UNL A   1      43.592  28.010  31.002  1.00  0.00     0.074 A 
ATOM     39  C   UNL A   1      43.732  26.722  30.356  1.00  0.00     0.031 C 
ATOM     40  C   UNL A   1      37.925  30.087  28.750  1.00  0.00     0.029 A 
ATOM     41  C   UNL A   1      38.791  30.764  29.713  1.00  0.00     0.049 A 
ATOM     42  H   UNL A   1      40.653  30.129  30.399  1.00  0.00     0.167 HD
ATOM     43  C   UNL A   1      44.520  28.566  31.815  1.00  0.00     0.037 A 
ATOM     44  C   UNL A   1      38.530  31.939  30.318  1.00  0.00     0.037 A 
ATOM     45  C   UNL A   1      44.360  29.847  32.452  1.00  0.00     0.049 A 
ATOM     46  C   UNL A   1      39.539  32.498  31.289  1.00  0.00     0.074 A 
ATOM     47  C   UNL A   1      45.237  30.503  33.296  1.00  0.00     0.029 A 
ATOM     48  N   UNL A   1      43.244  30.662  32.322  1.00  0.00    -0.354 N 
ATOM     49  N   UNL A   1      40.700  32.003  31.649  1.00  0.00    -0.248 NA
ATOM     50  C   UNL A   1      39.202  33.772  31.938  1.00  0.00     0.031 C 
ATOM     51  C   UNL A   1      44.626  31.686  33.724  1.00  0.00     0.029 A 
ATOM     52  C   UNL A   1      43.396  31.802  33.095  1.00  0.00     0.049 A 
ATOM     53  H   UNL A   1      42.460  30.460  31.763  1.00  0.00     0.167 HD
ATOM     54  C   UNL A   1      41.247  32.920  32.541  1.00  0.00     0.074 A 
ATOM     55  C   UNL A   1      40.292  34.002  32.660  1.00  0.00     0.031 C 
ATOM     56  C   UNL A   1      42.434  32.873  33.198  1.00  0.00     0.037 A 
BRANCH  43  57
ATOM     57  C   UNL A   1      45.762  27.766  32.098  1.00  0.00     0.058 A 
ATOM     58  C   UNL A   1      46.937  27.917  31.345  1.00  0.00     0.135 A 
ATOM     59  C   UNL A   1      45.775  26.835  33.150  1.00  0.00     0.135 A 
ATOM     60  F   UNL A   1      46.973  28.775  30.313  1.00  0.00    -0.206 F 
ATOM     61  C   UNL A   1      48.070  27.151  31.604  1.00  0.00     0.059 A 
ATOM     62  C   UNL A   1      46.907  26.082  33.447  1.00  0.00     0.059 A 
ATOM     63  F   UNL A   1      44.679  26.646  33.900  1.00  0.00    -0.206 F 
ATOM     64  C   UNL A   1      48.044  26.234  32.656  1.00  0.00     0.060 A 
BRANCH  64  65
ATOM     65  S   UNL A   1      49.518  25.242  32.974  1.00  0.00     0.124 S 
ATOM     66  O   UNL A   1      49.935  24.898  31.617  1.00  0.00    -0.237 OA
ATOM     67  O   UNL A   1      50.380  26.182  33.682  1.00  0.00    -0.237 OA
ATOM     68  O   UNL A   1      49.015  24.130  33.773  1.00  0.00    -0.744 OA
ENDBRANCH  64  65
ENDBRANCH  43  57
BRANCH  44  69
ATOM     69  C   UNL A   1      37.251  32.648  30.043  1.00  0.00     0.058 A 
ATOM     70  C   UNL A   1      36.083  32.351  30.758  1.00  0.00     0.135 A 
ATOM     71  C   UNL A   1      37.176  33.649  29.059  1.00  0.00     0.135 A 
ATOM     72  F   UNL A   1      36.096  31.393  31.697  1.00  0.00    -0.206 F 
ATOM     73  C   UNL A   1      34.883  33.009  30.503  1.00  0.00     0.059 A 
ATOM     74  C   UNL A   1      35.996  34.341  28.806  1.00  0.00     0.059 A 
ATOM     75  F   UNL A   1      38.265  33.977  28.348  1.00  0.00    -0.206 F 
ATOM     76  C   UNL A   1      34.851  34.008  29.528  1.00  0.00     0.060 A 
BRANCH  76  77
ATOM     77  S   UNL A   1      33.302  34.891  29.241  1.00  0.00     0.124 S 
ATOM     78  O   UNL A   1      33.778  36.150  28.678  1.00  0.00    -0.237 OA
ATOM     79  O   UNL A   1      32.609  34.001  28.315  1.00  0.00    -0.237 OA
ATOM     80  O   UNL A   1      32.713  34.980  30.574  1.00  0.00    -0.744 OA
ENDBRANCH  76  77
ENDBRANCH  44  69
BRANCH  56  81
ATOM     81  C   UNL A   1      42.791  34.043  34.075  1.00  0.00     0.058 A 
ATOM     82  C   UNL A   1      42.487  34.064  35.444  1.00  0.00     0.135 A 
ATOM     83  C   UNL A   1      43.507  35.131  33.546  1.00  0.00     0.135 A 
ATOM     84  F   UNL A   1      41.801  33.053  36.001  1.00  0.00    -0.206 F 
ATOM     85  C   UNL A   1      42.861  35.131  36.256  1.00  0.00     0.059 A 
ATOM     86  C   UNL A   1      43.918  36.194  34.344  1.00  0.00     0.059 A 
ATOM     87  F   UNL A   1      43.833  35.158  32.244  1.00  0.00    -0.206 F 
ATOM     88  C   UNL A   1      43.582  36.190  35.697  1.00  0.00     0.060 A 
BRANCH  88  89
ATOM     89  S   UNL A   1      44.096  37.547  36.769  1.00  0.00     0.124 S 
ATOM     90  O   UNL A   1      44.097  38.673  35.841  1.00  0.00    -0.237 OA
ATOM     91  O   UNL A   1      43.045  37.562  37.781  1.00  0.00    -0.237 OA
ATOM     92  O   UNL A   1      45.411  37.126  37.245  1.00  0.00    -0.744 OA
ENDBRANCH  88  89
ENDBRANCH  56  81
ENDBRANCH  30  31
ENDBRANCH  23  25
ENDBRANCH  22  23
ENDBRANCH  21  22
ENDBRANCH   1  21
TORSDOF 19
ENDMDL
MODEL 2
REMARK VINA RESULT:      -9.7      2.661      3.634
REMARK SMILES CC[C@@H](C)[C@H](C(=O)OCCOC(=O)c1ccc(-c2c3nc(c(-c4c(F)cc(S(=O)(=O)[O-])cc4F)c4ccc([nH]4)c(-c4c(F)cc(S(=O)(=O)[O-])cc4F)c4nc(c(-c5c(F)cc(S(=O)(=O)[O-])cc5F)c5ccc2[nH]5)C=C4)C=C3)cc1)S(=O)(=O)c1cccc(OC)c1
REMARK SMILES IDX 9 1 8 2 6 3 7 4 5 5 3 6 4 7 2 8 1 9 80 10 81 11 82 12 83 13
REMARK SMILES IDX 84 14 90 15 85 16 87 17 86 18 88 19 89 20 10 21 11 22 12 23
REMARK SMILES IDX 13 24 14 25 15 26 79 27 16 28 78 29 17 30 18 31 19 32 72 33
REMARK SMILES IDX 20 34 77 35 71 36 73 37 21 38 76 39 70 40 69 41 22 43 56 44
REMARK SMILES IDX 35 45 55 46 36 47 39 48 54 49 74 50 37 51 38 52 53 54 75 55
REMARK SMILES IDX 40 56 23 57 24 58 33 59 25 60 26 61 32 62 34 63 27 64 28 65
REMARK SMILES IDX 29 66 30 67 31 68 57 69 58 70 67 71 59 72 60 73 66 74 68 75
REMARK SMILES IDX 61 76 62 77 63 78 64 79 65 80 41 81 42 82 51 83 43 84 44 85
REMARK SMILES IDX 50 86 52 87 45 88 46 89 47 90 48 91 49 92
REMARK H PARENT 73 42 39 53
REMARK Flexibility Score: inf
ROOT
ATOM      1  C   UNL A   1      36.883  23.759  25.418  1.00  0.00     0.274 C 
ENDROOT
BRANCH   1   2
ATOM      2  O   UNL A   1      35.607  23.665  26.091  1.00  0.00    -0.461 OA
BRANCH   2   3
ATOM      3  C   UNL A   1      34.858  22.559  25.842  1.00  0.00     0.325 C 
ATOM      4  O   UNL A   1      35.093  21.494  26.397  1.00  0.00    -0.251 OA
BRANCH   3   5
ATOM      5  C   UNL A   1      33.713  22.798  24.854  1.00  0.00     0.225 C 
BRANCH   5   6
ATOM      6  C   UNL A   1      33.149  21.673  23.896  1.00  0.00     0.015 C 
ATOM      7  C   UNL A   1      32.389  22.097  22.625  1.00  0.00     0.009 C 
BRANCH   6   8
ATOM      8  C   UNL A   1      32.330  20.582  24.625  1.00  0.00     0.002 C 
ATOM      9  C   UNL A   1      32.572  19.158  24.140  1.00  0.00     0.004 C 
ENDBRANCH   6   8
ENDBRANCH   5   6
BRANCH   5  10
ATOM     10  S   UNL A   1      32.426  23.720  25.733  1.00  0.00     0.192 S 
ATOM     11  O   UNL A   1      31.142  23.466  25.109  1.00  0.00    -0.223 OA
ATOM     12  O   UNL A   1      32.564  23.441  27.153  1.00  0.00    -0.223 OA
BRANCH  10  13
ATOM     13  C   UNL A   1      32.767  25.467  25.529  1.00  0.00     0.071 A 
ATOM     14  C   UNL A   1      33.584  25.872  24.475  1.00  0.00     0.020 A 
ATOM     15  C   UNL A   1      32.224  26.423  26.395  1.00  0.00     0.066 A 
ATOM     16  C   UNL A   1      33.842  27.235  24.300  1.00  0.00     0.005 A 
ATOM     17  C   UNL A   1      32.484  27.779  26.233  1.00  0.00     0.120 A 
ATOM     18  C   UNL A   1      33.293  28.181  25.174  1.00  0.00     0.046 A 
BRANCH  17  19
ATOM     19  O   UNL A   1      31.990  28.768  27.041  1.00  0.00    -0.497 OA
ATOM     20  C   UNL A   1      32.795  29.937  27.192  1.00  0.00     0.278 C 
ENDBRANCH  17  19
ENDBRANCH  10  13
ENDBRANCH   5  10
ENDBRANCH   3   5
ENDBRANCH   2   3
ENDBRANCH   1   2
BRANCH   1  21
ATOM     21  C   UNL A   1      38.056  23.703  26.400  1.00  0.00     0.275 C 
BRANCH  21  22
ATOM     22  O   UNL A   1      39.021  24.736  26.138  1.00  0.00    -0.458 OA
BRANCH  22  23
ATOM     23  C   UNL A   1      40.195  24.604  26.803  1.00  0.00     0.338 C 
ATOM     24  O   UNL A   1      41.121  23.868  26.500  1.00  0.00    -0.246 OA
BRANCH  23  25
ATOM     25  C   UNL A   1      40.297  25.644  27.842  1.00  0.00     0.060 A 
ATOM     26  C   UNL A   1      39.284  25.682  28.803  1.00  0.00     0.016 A 
ATOM     27  C   UNL A   1      41.347  26.562  27.889  1.00  0.00     0.016 A 
ATOM     28  C   UNL A   1      39.325  26.607  29.837  1.00  0.00     0.010 A 
ATOM     29  C   UNL A   1      41.372  27.517  28.911  1.00  0.00     0.010 A 
ATOM     30  C   UNL A   1      40.359  27.542  29.887  1.00  0.00    -0.014 A 
BRANCH  30  31
ATOM     31  C   UNL A   1      40.304  28.612  30.904  1.00  0.00     0.031 A 
ATOM     32  C   UNL A   1      41.236  28.540  32.077  1.00  0.00     0.074 A 
ATOM     33  C   UNL A   1      39.470  29.655  30.751  1.00  0.00     0.049 A 
ATOM     34  N   UNL A   1      41.322  29.326  33.116  1.00  0.00    -0.248 NA
ATOM     35  C   UNL A   1      42.206  27.433  32.072  1.00  0.00     0.031 C 
ATOM     36  C   UNL A   1      38.585  29.866  29.605  1.00  0.00     0.029 A 
ATOM     37  N   UNL A   1      39.229  30.732  31.566  1.00  0.00    -0.354 N 
ATOM     38  C   UNL A   1      42.345  28.804  33.897  1.00  0.00     0.074 A 
ATOM     39  C   UNL A   1      42.835  27.622  33.222  1.00  0.00     0.031 C 
ATOM     40  C   UNL A   1      37.881  30.994  29.801  1.00  0.00     0.029 A 
ATOM     41  C   UNL A   1      38.236  31.560  31.101  1.00  0.00     0.049 A 
ATOM     42  H   UNL A   1      39.720  30.895  32.403  1.00  0.00     0.167 HD
ATOM     43  C   UNL A   1      42.827  29.273  35.072  1.00  0.00     0.037 A 
ATOM     44  C   UNL A   1      37.661  32.633  31.677  1.00  0.00     0.037 A 
ATOM     45  C   UNL A   1      42.322  30.450  35.730  1.00  0.00     0.049 A 
ATOM     46  C   UNL A   1      38.153  33.085  33.029  1.00  0.00     0.074 A 
ATOM     47  C   UNL A   1      42.736  31.011  36.925  1.00  0.00     0.029 A 
ATOM     48  N   UNL A   1      41.285  31.241  35.254  1.00  0.00    -0.354 N 
ATOM     49  N   UNL A   1      39.114  32.582  33.768  1.00  0.00    -0.248 NA
ATOM     50  C   UNL A   1      37.483  34.248  33.626  1.00  0.00     0.031 C 
ATOM     51  C   UNL A   1      41.910  32.106  37.200  1.00  0.00     0.029 A 
ATOM     52  C   UNL A   1      41.024  32.268  36.146  1.00  0.00     0.049 A 
ATOM     53  H   UNL A   1      40.806  31.093  34.407  1.00  0.00     0.167 HD
ATOM     54  C   UNL A   1      39.185  33.385  34.902  1.00  0.00     0.074 A 
ATOM     55  C   UNL A   1      38.174  34.411  34.747  1.00  0.00     0.031 C 
ATOM     56  C   UNL A   1      40.015  33.286  35.971  1.00  0.00     0.037 A 
BRANCH  43  57
ATOM     57  C   UNL A   1      43.916  28.480  35.740  1.00  0.00     0.058 A 
ATOM     58  C   UNL A   1      43.638  27.445  36.648  1.00  0.00     0.135 A 
ATOM     59  C   UNL A   1      45.264  28.759  35.460  1.00  0.00     0.135 A 
ATOM     60  F   UNL A   1      42.368  27.151  36.970  1.00  0.00    -0.206 F 
ATOM     61  C   UNL A   1      44.657  26.736  37.277  1.00  0.00     0.059 A 
ATOM     62  C   UNL A   1      46.298  28.042  36.054  1.00  0.00     0.059 A 
ATOM     63  F   UNL A   1      45.587  29.740  34.605  1.00  0.00    -0.206 F 
ATOM     64  C   UNL A   1      45.985  27.045  36.975  1.00  0.00     0.060 A 
BRANCH  64  65
ATOM     65  S   UNL A   1      47.296  26.123  37.806  1.00  0.00     0.124 S 
ATOM     66  O   UNL A   1      47.324  24.889  37.025  1.00  0.00    -0.237 OA
ATOM     67  O   UNL A   1      48.447  27.002  37.643  1.00  0.00    -0.237 OA
ATOM     68  O   UNL A   1      46.802  25.986  39.172  1.00  0.00    -0.744 OA
ENDBRANCH  64  65
ENDBRANCH  43  57
BRANCH  44  69
ATOM     69  C   UNL A   1      36.541  33.333  30.992  1.00  0.00     0.058 A 
ATOM     70  C   UNL A   1      36.757  34.106  29.842  1.00  0.00     0.135 A 
ATOM     71  C   UNL A   1      35.225  33.236  31.473  1.00  0.00     0.135 A 
ATOM     72  F   UNL A   1      37.998  34.246  29.351  1.00  0.00    -0.206 F 
ATOM     73  C   UNL A   1      35.714  34.765  29.199  1.00  0.00     0.059 A 
ATOM     74  C   UNL A   1      34.161  33.862  30.830  1.00  0.00     0.059 A 
ATOM     75  F   UNL A   1      34.960  32.506  32.567  1.00  0.00    -0.206 F 
ATOM     76  C   UNL A   1      34.417  34.632  29.698  1.00  0.00     0.060 A 
BRANCH  76  77
ATOM     77  S   UNL A   1      33.063  35.451  28.825  1.00  0.00     0.124 S 
ATOM     78  O   UNL A   1      33.776  36.469  28.063  1.00  0.00    -0.237 OA
ATOM     79  O   UNL A   1      32.493  34.355  28.048  1.00  0.00    -0.237 OA
ATOM     80  O   UNL A   1      32.218  35.949  29.907  1.00  0.00    -0.744 OA
ENDBRANCH  76  77
ENDBRANCH  44  69
BRANCH  56  81
ATOM     81  C   UNL A   1      39.897  34.336  37.044  1.00  0.00     0.058 A 
ATOM     82  C   UNL A   1      40.521  35.587  36.929  1.00  0.00     0.135 A 
ATOM     83  C   UNL A   1      39.094  34.105  38.173  1.00  0.00     0.135 A 
ATOM     84  F   UNL A   1      41.303  35.859  35.872  1.00  0.00    -0.206 F 
ATOM     85  C   UNL A   1      40.369  36.568  37.905  1.00  0.00     0.059 A 
ATOM     86  C   UNL A   1      38.903  35.081  39.147  1.00  0.00     0.059 A 
ATOM     87  F   UNL A   1      38.466  32.929  38.329  1.00  0.00    -0.206 F 
ATOM     88  C   UNL A   1      39.553  36.306  39.009  1.00  0.00     0.060 A 
BRANCH  88  89
ATOM     89  S   UNL A   1      39.332  37.601  40.247  1.00  0.00     0.124 S 
ATOM     90  O   UNL A   1      38.935  36.826  41.417  1.00  0.00    -0.237 OA
ATOM     91  O   UNL A   1      40.660  38.205  40.308  1.00  0.00    -0.237 OA
ATOM     92  O   UNL A   1      38.291  38.448  39.672  1.00  0.00    -0.744 OA
ENDBRANCH  88  89
ENDBRANCH  56  81
ENDBRANCH  30  31
ENDBRANCH  23  25
ENDBRANCH  22  23
ENDBRANCH  21  22
ENDBRANCH   1  21
TORSDOF 19
ENDMDL
MODEL 3
REMARK VINA RESULT:      -9.6      2.713      4.131
REMARK SMILES CC[C@@H](C)[C@H](C(=O)OCCOC(=O)c1ccc(-c2c3nc(c(-c4c(F)cc(S(=O)(=O)[O-])cc4F)c4ccc([nH]4)c(-c4c(F)cc(S(=O)(=O)[O-])cc4F)c4nc(c(-c5c(F)cc(S(=O)(=O)[O-])cc5F)c5ccc2[nH]5)C=C4)C=C3)cc1)S(=O)(=O)c1cccc(OC)c1
REMARK SMILES IDX 9 1 8 2 6 3 7 4 5 5 3 6 4 7 2 8 1 9 80 10 81 11 82 12 83 13
REMARK SMILES IDX 84 14 90 15 85 16 87 17 86 18 88 19 89 20 10 21 11 22 12 23
REMARK SMILES IDX 13 24 14 25 15 26 79 27 16 28 78 29 17 30 18 31 19 32 72 33
REMARK SMILES IDX 20 34 77 35 71 36 73 37 21 38 76 39 70 40 69 41 22 43 56 44
REMARK SMILES IDX 35 45 55 46 36 47 39 48 54 49 74 50 37 51 38 52 53 54 75 55
REMARK SMILES IDX 40 56 23 57 24 58 33 59 25 60 26 61 32 62 34 63 27 64 28 65
REMARK SMILES IDX 29 66 30 67 31 68 57 69 58 70 67 71 59 72 60 73 66 74 68 75
REMARK SMILES IDX 61 76 62 77 63 78 64 79 65 80 41 81 42 82 51 83 43 84 44 85
REMARK SMILES IDX 50 86 52 87 45 88 46 89 47 90 48 91 49 92
REMARK H PARENT 73 42 39 53
REMARK Flexibility Score: inf
ROOT
ATOM      1  C   UNL A   1      37.713  22.680  25.326  1.00  0.00     0.274 C 
ENDROOT
BRANCH   1   2
ATOM      2  O   UNL A   1      36.539  23.308  25.889  1.00  0.00    -0.461 OA
BRANCH   2   3
ATOM      3  C   UNL A   1      35.417  22.548  25.980  1.00  0.00     0.325 C 
ATOM      4  O   UNL A   1      35.460  21.401  26.405  1.00  0.00    -0.251 OA
BRANCH   3   5
ATOM      5  C   UNL A   1      34.142  23.272  25.542  1.00  0.00     0.225 C 
BRANCH   5   6
ATOM      6  C   UNL A   1      33.929  23.844  24.083  1.00  0.00     0.015 C 
ATOM      7  C   UNL A   1      34.860  23.359  22.956  1.00  0.00     0.009 C 
BRANCH   6   8
ATOM      8  C   UNL A   1      33.837  25.387  24.023  1.00  0.00     0.002 C 
ATOM      9  C   UNL A   1      34.006  26.098  25.360  1.00  0.00     0.004 C 
ENDBRANCH   6   8
ENDBRANCH   5   6
BRANCH   5  10
ATOM     10  S   UNL A   1      32.736  22.311  26.161  1.00  0.00     0.192 S 
ATOM     11  O   UNL A   1      32.979  21.941  27.542  1.00  0.00    -0.223 OA
ATOM     12  O   UNL A   1      31.520  23.044  25.851  1.00  0.00    -0.223 OA
BRANCH  10  13
ATOM     13  C   UNL A   1      32.659  20.787  25.220  1.00  0.00     0.071 A 
ATOM     14  C   UNL A   1      32.366  20.852  23.860  1.00  0.00     0.020 A 
ATOM     15  C   UNL A   1      32.896  19.546  25.822  1.00  0.00     0.066 A 
ATOM     16  C   UNL A   1      32.320  19.670  23.117  1.00  0.00     0.005 A 
ATOM     17  C   UNL A   1      32.841  18.364  25.093  1.00  0.00     0.120 A 
ATOM     18  C   UNL A   1      32.558  18.434  23.731  1.00  0.00     0.046 A 
BRANCH  17  19
ATOM     19  O   UNL A   1      33.060  17.117  25.614  1.00  0.00    -0.497 OA
ATOM     20  C   UNL A   1      33.972  16.277  24.907  1.00  0.00     0.278 C 
ENDBRANCH  17  19
ENDBRANCH  10  13
ENDBRANCH   5  10
ENDBRANCH   3   5
ENDBRANCH   2   3
ENDBRANCH   1   2
BRANCH   1  21
ATOM     21  C   UNL A   1      38.927  22.795  26.253  1.00  0.00     0.275 C 
BRANCH  21  22
ATOM     22  O   UNL A   1      39.041  24.110  26.821  1.00  0.00    -0.458 OA
BRANCH  22  23
ATOM     23  C   UNL A   1      40.299  24.616  26.844  1.00  0.00     0.338 C 
ATOM     24  O   UNL A   1      41.184  24.395  26.030  1.00  0.00    -0.246 OA
BRANCH  23  25
ATOM     25  C   UNL A   1      40.397  25.658  27.881  1.00  0.00     0.060 A 
ATOM     26  C   UNL A   1      39.351  25.734  28.804  1.00  0.00     0.016 A 
ATOM     27  C   UNL A   1      41.475  26.542  27.963  1.00  0.00     0.016 A 
ATOM     28  C   UNL A   1      39.385  26.663  29.835  1.00  0.00     0.010 A 
ATOM     29  C   UNL A   1      41.493  27.501  28.981  1.00  0.00     0.010 A 
ATOM     30  C   UNL A   1      40.447  27.564  29.919  1.00  0.00    -0.014 A 
BRANCH  30  31
ATOM     31  C   UNL A   1      40.390  28.641  30.929  1.00  0.00     0.031 A 
ATOM     32  C   UNL A   1      41.331  28.586  32.095  1.00  0.00     0.074 A 
ATOM     33  C   UNL A   1      39.545  29.675  30.774  1.00  0.00     0.049 A 
ATOM     34  N   UNL A   1      41.418  29.379  33.128  1.00  0.00    -0.248 NA
ATOM     35  C   UNL A   1      42.311  27.487  32.091  1.00  0.00     0.031 C 
ATOM     36  C   UNL A   1      38.650  29.870  29.633  1.00  0.00     0.029 A 
ATOM     37  N   UNL A   1      39.301  30.755  31.583  1.00  0.00    -0.354 N 
ATOM     38  C   UNL A   1      42.451  28.872  33.905  1.00  0.00     0.074 A 
ATOM     39  C   UNL A   1      42.947  27.690  33.234  1.00  0.00     0.031 C 
ATOM     40  C   UNL A   1      37.937  30.992  29.827  1.00  0.00     0.029 A 
ATOM     41  C   UNL A   1      38.297  31.571  31.120  1.00  0.00     0.049 A 
ATOM     42  H   UNL A   1      39.797  30.929  32.416  1.00  0.00     0.167 HD
ATOM     43  C   UNL A   1      42.938  29.354  35.073  1.00  0.00     0.037 A 
ATOM     44  C   UNL A   1      37.716  32.643  31.693  1.00  0.00     0.037 A 
ATOM     45  C   UNL A   1      42.427  30.531  35.726  1.00  0.00     0.049 A 
ATOM     46  C   UNL A   1      38.215  33.109  33.038  1.00  0.00     0.074 A 
ATOM     47  C   UNL A   1      42.845  31.105  36.913  1.00  0.00     0.029 A 
ATOM     48  N   UNL A   1      41.380  31.309  35.252  1.00  0.00    -0.354 N 
ATOM     49  N   UNL A   1      39.185  32.620  33.773  1.00  0.00    -0.248 NA
ATOM     50  C   UNL A   1      37.539  34.271  33.631  1.00  0.00     0.031 C 
ATOM     51  C   UNL A   1      42.011  32.194  37.187  1.00  0.00     0.029 A 
ATOM     52  C   UNL A   1      41.116  32.341  36.138  1.00  0.00     0.049 A 
ATOM     53  H   UNL A   1      40.895  31.151  34.410  1.00  0.00     0.167 HD
ATOM     54  C   UNL A   1      39.258  33.432  34.901  1.00  0.00     0.074 A 
ATOM     55  C   UNL A   1      38.237  34.448  34.746  1.00  0.00     0.031 C 
ATOM     56  C   UNL A   1      40.097  33.348  35.965  1.00  0.00     0.037 A 
BRANCH  43  57
ATOM     57  C   UNL A   1      44.039  28.575  35.738  1.00  0.00     0.058 A 
ATOM     58  C   UNL A   1      45.396  28.861  35.515  1.00  0.00     0.135 A 
ATOM     59  C   UNL A   1      43.728  27.529  36.622  1.00  0.00     0.135 A 
ATOM     60  F   UNL A   1      45.751  29.835  34.663  1.00  0.00    -0.206 F 
ATOM     61  C   UNL A   1      46.404  28.115  36.120  1.00  0.00     0.059 A 
ATOM     62  C   UNL A   1      44.720  26.791  37.261  1.00  0.00     0.059 A 
ATOM     63  F   UNL A   1      42.448  27.210  36.867  1.00  0.00    -0.206 F 
ATOM     64  C   UNL A   1      46.055  27.080  36.989  1.00  0.00     0.060 A 
BRANCH  64  65
ATOM     65  S   UNL A   1      47.374  26.117  37.758  1.00  0.00     0.124 S 
ATOM     66  O   UNL A   1      47.842  25.313  36.632  1.00  0.00    -0.237 OA
ATOM     67  O   UNL A   1      48.289  27.154  38.219  1.00  0.00    -0.237 OA
ATOM     68  O   UNL A   1      46.686  25.377  38.810  1.00  0.00    -0.744 OA
ENDBRANCH  64  65
ENDBRANCH  43  57
BRANCH  44  69
ATOM     69  C   UNL A   1      36.586  33.329  31.011  1.00  0.00     0.058 A 
ATOM     70  C   UNL A   1      35.269  33.209  31.479  1.00  0.00     0.135 A 
ATOM     71  C   UNL A   1      36.803  34.127  29.876  1.00  0.00     0.135 A 
ATOM     72  F   UNL A   1      35.005  32.446  32.551  1.00  0.00    -0.206 F 
ATOM     73  C   UNL A   1      34.208  33.847  30.844  1.00  0.00     0.059 A 
ATOM     74  C   UNL A   1      35.761  34.797  29.240  1.00  0.00     0.059 A 
ATOM     75  F   UNL A   1      38.043  34.280  29.387  1.00  0.00    -0.206 F 
ATOM     76  C   UNL A   1      34.465  34.644  29.727  1.00  0.00     0.060 A 
BRANCH  76  77
ATOM     77  S   UNL A   1      33.086  35.506  28.940  1.00  0.00     0.124 S 
ATOM     78  O   UNL A   1      33.779  36.538  28.178  1.00  0.00    -0.237 OA
ATOM     79  O   UNL A   1      32.467  34.442  28.158  1.00  0.00    -0.237 OA
ATOM     80  O   UNL A   1      32.297  35.983  30.073  1.00  0.00    -0.744 OA
ENDBRANCH  76  77
ENDBRANCH  44  69
BRANCH  56  81
ATOM     81  C   UNL A   1      39.978  34.405  37.030  1.00  0.00     0.058 A 
ATOM     82  C   UNL A   1      39.125  34.254  38.134  1.00  0.00     0.135 A 
ATOM     83  C   UNL A   1      40.781  35.557  36.975  1.00  0.00     0.135 A 
ATOM     84  F   UNL A   1      38.332  33.174  38.234  1.00  0.00    -0.206 F 
ATOM     85  C   UNL A   1      39.056  35.216  39.136  1.00  0.00     0.059 A 
ATOM     86  C   UNL A   1      40.751  36.517  37.982  1.00  0.00     0.059 A 
ATOM     87  F   UNL A   1      41.623  35.747  35.948  1.00  0.00    -0.206 F 
ATOM     88  C   UNL A   1      39.877  36.343  39.053  1.00  0.00     0.060 A 
BRANCH  88  89
ATOM     89  S   UNL A   1      39.808  37.564  40.382  1.00  0.00     0.124 S 
ATOM     90  O   UNL A   1      40.209  36.767  41.536  1.00  0.00    -0.237 OA
ATOM     91  O   UNL A   1      40.772  38.565  39.937  1.00  0.00    -0.237 OA
ATOM     92  O   UNL A   1      38.413  37.997  40.373  1.00  0.00    -0.744 OA
ENDBRANCH  88  89
ENDBRANCH  56  81
ENDBRANCH  30  31
ENDBRANCH  23  25
ENDBRANCH  22  23
ENDBRANCH  21  22
ENDBRANCH   1  21
TORSDOF 19
ENDMDL
