MODEL 1
REMARK VINA RESULT:     -10.9      0.000      0.000
REMARK SMILES CC[C@@H](C)S(=O)(=O)c1cc(C(=O)OCCOC(=O)c2ccc(-c3c4nc(c(-c5c(F)cc(S(=O)(=O)[O-])cc5F)c5ccc([nH]5)c(-c5c(F)cc(S(=O)(=O)[O-])cc5F)c5nc(c(-c6c(F)cc(S(=O)(=O)[O-])cc6F)c6ccc3[nH]6)C=C5)C=C4)cc2)c(C)cc1C
REMARK SMILES IDX 14 1 13 2 11 3 12 4 10 5 8 6 9 7 88 8 87 9 89 10 85 11 86 12
REMARK SMILES IDX 5 13 6 14 7 15 3 16 4 17 2 18 1 19 15 20 16 21 17 22 18 23
REMARK SMILES IDX 19 24 20 25 84 26 21 27 83 28 22 29 23 30 24 31 77 32 25 33
REMARK SMILES IDX 82 34 76 35 78 36 26 37 81 38 75 39 74 40 27 42 61 43 40 44
REMARK SMILES IDX 60 45 41 46 44 47 59 48 79 49 42 50 43 51 58 53 80 54 45 55
REMARK SMILES IDX 28 56 29 57 38 58 30 59 31 60 37 61 39 62 32 63 33 64 34 65
REMARK SMILES IDX 35 66 36 67 62 68 63 69 72 70 64 71 65 72 71 73 73 74 66 75
REMARK SMILES IDX 67 76 68 77 69 78 70 79 46 80 47 81 56 82 48 83 49 84 55 85
REMARK SMILES IDX 57 86 50 87 51 88 52 89 53 90 54 91
REMARK H PARENT 78 41 44 52
REMARK Flexibility Score: inf
ROOT
ATOM      1  C   UNL A   1      38.175  21.670  25.446  1.00  0.00     0.275 C 
ENDROOT
BRANCH   1   2
ATOM      2  O   UNL A   1      37.063  22.575  25.609  1.00  0.00    -0.458 OA
BRANCH   2   3
ATOM      3  C   UNL A   1      36.381  22.909  24.486  1.00  0.00     0.338 C 
ATOM      4  O   UNL A   1      36.857  23.162  23.395  1.00  0.00    -0.246 OA
BRANCH   3   5
ATOM      5  C   UNL A   1      34.913  22.879  24.721  1.00  0.00     0.064 A 
ATOM      6  C   UNL A   1      32.931  24.201  25.286  1.00  0.00     0.071 A 
ATOM      7  C   UNL A   1      34.286  24.127  24.939  1.00  0.00     0.036 A 
ATOM      8  C   UNL A   1      32.167  23.016  25.340  1.00  0.00    -0.032 A 
ATOM      9  C   UNL A   1      32.806  21.783  25.127  1.00  0.00     0.009 A 
ATOM     10  C   UNL A   1      30.701  22.988  25.694  1.00  0.00     0.046 C 
ATOM     11  C   UNL A   1      34.180  21.689  24.848  1.00  0.00    -0.036 A 
ATOM     12  C   UNL A   1      34.756  20.302  24.760  1.00  0.00     0.045 C 
BRANCH   6  13
ATOM     13  S   UNL A   1      32.125  25.747  25.736  1.00  0.00     0.181 S 
ATOM     14  O   UNL A   1      31.648  25.542  27.094  1.00  0.00    -0.223 OA
ATOM     15  O   UNL A   1      31.178  25.999  24.665  1.00  0.00    -0.223 OA
BRANCH  13  16
ATOM     16  C   UNL A   1      33.248  27.140  25.801  1.00  0.00     0.110 C 
ATOM     17  C   UNL A   1      32.758  28.207  26.769  1.00  0.00     0.025 C 
BRANCH  16  18
ATOM     18  C   UNL A   1      33.709  27.609  24.411  1.00  0.00     0.016 C 
ATOM     19  C   UNL A   1      33.156  28.959  23.976  1.00  0.00     0.005 C 
ENDBRANCH  16  18
ENDBRANCH  13  16
ENDBRANCH   6  13
ENDBRANCH   3   5
ENDBRANCH   2   3
ENDBRANCH   1   2
BRANCH   1  20
ATOM     20  C   UNL A   1      39.347  22.116  26.312  1.00  0.00     0.275 C 
BRANCH  20  21
ATOM     21  O   UNL A   1      39.461  23.543  26.214  1.00  0.00    -0.458 OA
BRANCH  21  22
ATOM     22  C   UNL A   1      40.621  24.081  26.643  1.00  0.00     0.338 C 
ATOM     23  O   UNL A   1      41.760  23.724  26.367  1.00  0.00    -0.246 OA
BRANCH  22  24
ATOM     24  C   UNL A   1      40.313  25.244  27.487  1.00  0.00     0.060 A 
ATOM     25  C   UNL A   1      41.025  26.422  27.292  1.00  0.00     0.016 A 
ATOM     26  C   UNL A   1      39.400  25.146  28.536  1.00  0.00     0.016 A 
ATOM     27  C   UNL A   1      40.890  27.463  28.204  1.00  0.00     0.010 A 
ATOM     28  C   UNL A   1      39.218  26.231  29.407  1.00  0.00     0.010 A 
ATOM     29  C   UNL A   1      40.009  27.389  29.296  1.00  0.00    -0.014 A 
BRANCH  29  30
ATOM     30  C   UNL A   1      40.014  28.457  30.353  1.00  0.00     0.031 A 
ATOM     31  C   UNL A   1      41.122  28.507  31.388  1.00  0.00     0.074 A 
ATOM     32  C   UNL A   1      39.103  29.457  30.359  1.00  0.00     0.049 A 
ATOM     33  N   UNL A   1      41.206  29.232  32.477  1.00  0.00    -0.248 NA
ATOM     34  C   UNL A   1      42.277  27.619  31.179  1.00  0.00     0.031 C 
ATOM     35  C   UNL A   1      38.012  29.621  29.398  1.00  0.00     0.029 A 
ATOM     36  N   UNL A   1      38.981  30.557  31.176  1.00  0.00    -0.354 N 
ATOM     37  C   UNL A   1      42.364  28.814  33.129  1.00  0.00     0.074 A 
ATOM     38  C   UNL A   1      42.965  27.794  32.299  1.00  0.00     0.031 C 
ATOM     39  C   UNL A   1      37.413  30.803  29.605  1.00  0.00     0.029 A 
ATOM     40  C   UNL A   1      37.976  31.420  30.801  1.00  0.00     0.049 A 
ATOM     41  H   UNL A   1      39.558  30.713  31.958  1.00  0.00     0.167 HD
ATOM     42  C   UNL A   1      42.872  29.230  34.315  1.00  0.00     0.037 A 
ATOM     43  C   UNL A   1      37.516  32.553  31.371  1.00  0.00     0.037 A 
ATOM     44  C   UNL A   1      42.335  30.317  35.096  1.00  0.00     0.049 A 
ATOM     45  C   UNL A   1      38.088  33.001  32.688  1.00  0.00     0.074 A 
ATOM     46  C   UNL A   1      42.771  30.797  36.319  1.00  0.00     0.029 A 
ATOM     47  N   UNL A   1      41.272  31.117  34.711  1.00  0.00    -0.354 N 
ATOM     48  N   UNL A   1      39.088  32.497  33.367  1.00  0.00    -0.248 NA
ATOM     49  C   UNL A   1      37.430  34.143  33.342  1.00  0.00     0.031 C 
ATOM     50  C   UNL A   1      41.951  31.869  36.689  1.00  0.00     0.029 A 
ATOM     51  C   UNL A   1      41.030  32.082  35.677  1.00  0.00     0.049 A 
ATOM     52  H   UNL A   1      40.762  31.016  33.875  1.00  0.00     0.167 HD
ATOM     53  C   UNL A   1      39.169  33.246  34.536  1.00  0.00     0.074 A 
ATOM     54  C   UNL A   1      38.143  34.265  34.454  1.00  0.00     0.031 C 
ATOM     55  C   UNL A   1      40.004  33.089  35.592  1.00  0.00     0.037 A 
BRANCH  42  56
ATOM     56  C   UNL A   1      44.032  28.461  34.887  1.00  0.00     0.058 A 
ATOM     57  C   UNL A   1      43.870  27.269  35.608  1.00  0.00     0.135 A 
ATOM     58  C   UNL A   1      45.342  28.927  34.679  1.00  0.00     0.135 A 
ATOM     59  F   UNL A   1      42.642  26.788  35.850  1.00  0.00    -0.206 F 
ATOM     60  C   UNL A   1      44.965  26.583  36.130  1.00  0.00     0.059 A 
ATOM     61  C   UNL A   1      46.450  28.245  35.168  1.00  0.00     0.059 A 
ATOM     62  F   UNL A   1      45.554  30.061  33.992  1.00  0.00    -0.206 F 
ATOM     63  C   UNL A   1      46.251  27.083  35.909  1.00  0.00     0.060 A 
BRANCH  63  64
ATOM     64  S   UNL A   1      47.663  26.196  36.604  1.00  0.00     0.124 S 
ATOM     65  O   UNL A   1      48.723  27.191  36.472  1.00  0.00    -0.237 OA
ATOM     66  O   UNL A   1      47.222  25.917  37.966  1.00  0.00    -0.237 OA
ATOM     67  O   UNL A   1      47.789  25.028  35.738  1.00  0.00    -0.744 OA
ENDBRANCH  63  64
ENDBRANCH  42  56
BRANCH  43  68
ATOM     68  C   UNL A   1      36.405  33.312  30.733  1.00  0.00     0.058 A 
ATOM     69  C   UNL A   1      35.103  33.259  31.255  1.00  0.00     0.135 A 
ATOM     70  C   UNL A   1      36.621  34.114  29.602  1.00  0.00     0.135 A 
ATOM     71  F   UNL A   1      34.839  32.490  32.323  1.00  0.00    -0.206 F 
ATOM     72  C   UNL A   1      34.059  33.980  30.683  1.00  0.00     0.059 A 
ATOM     73  C   UNL A   1      35.601  34.868  29.033  1.00  0.00     0.059 A 
ATOM     74  F   UNL A   1      37.847  34.199  29.062  1.00  0.00    -0.206 F 
ATOM     75  C   UNL A   1      34.321  34.790  29.577  1.00  0.00     0.060 A 
BRANCH  75  76
ATOM     76  S   UNL A   1      32.987  35.792  28.887  1.00  0.00     0.124 S 
ATOM     77  O   UNL A   1      32.320  34.831  28.015  1.00  0.00    -0.237 OA
ATOM     78  O   UNL A   1      32.248  36.194  30.079  1.00  0.00    -0.237 OA
ATOM     79  O   UNL A   1      33.700  36.872  28.211  1.00  0.00    -0.744 OA
ENDBRANCH  75  76
ENDBRANCH  43  68
BRANCH  55  80
ATOM     80  C   UNL A   1      39.845  34.037  36.747  1.00  0.00     0.058 A 
ATOM     81  C   UNL A   1      40.388  35.331  36.710  1.00  0.00     0.135 A 
ATOM     82  C   UNL A   1      39.107  33.668  37.882  1.00  0.00     0.135 A 
ATOM     83  F   UNL A   1      41.107  35.731  35.649  1.00  0.00    -0.206 F 
ATOM     84  C   UNL A   1      40.222  36.219  37.768  1.00  0.00     0.059 A 
ATOM     85  C   UNL A   1      38.911  34.547  38.943  1.00  0.00     0.059 A 
ATOM     86  F   UNL A   1      38.559  32.444  37.964  1.00  0.00    -0.206 F 
ATOM     87  C   UNL A   1      39.483  35.818  38.881  1.00  0.00     0.060 A 
BRANCH  87  88
ATOM     88  S   UNL A   1      39.251  36.989  40.236  1.00  0.00     0.124 S 
ATOM     89  O   UNL A   1      38.649  38.124  39.544  1.00  0.00    -0.237 OA
ATOM     90  O   UNL A   1      38.368  36.255  41.138  1.00  0.00    -0.237 OA
ATOM     91  O   UNL A   1      40.607  37.204  40.734  1.00  0.00    -0.744 OA
ENDBRANCH  87  88
ENDBRANCH  55  80
ENDBRANCH  29  30
ENDBRANCH  22  24
ENDBRANCH  21  22
ENDBRANCH  20  21
ENDBRANCH   1  20
TORSDOF 17
ENDMDL
MODEL 2
REMARK VINA RESULT:     -10.6      1.392      8.476
REMARK SMILES CC[C@@H](C)S(=O)(=O)c1cc(C(=O)OCCOC(=O)c2ccc(-c3c4nc(c(-c5c(F)cc(S(=O)(=O)[O-])cc5F)c5ccc([nH]5)c(-c5c(F)cc(S(=O)(=O)[O-])cc5F)c5nc(c(-c6c(F)cc(S(=O)(=O)[O-])cc6F)c6ccc3[nH]6)C=C5)C=C4)cc2)c(C)cc1C
REMARK SMILES IDX 14 1 13 2 11 3 12 4 10 5 8 6 9 7 88 8 87 9 89 10 85 11 86 12
REMARK SMILES IDX 5 13 6 14 7 15 3 16 4 17 2 18 1 19 15 20 16 21 17 22 18 23
REMARK SMILES IDX 19 24 20 25 84 26 21 27 83 28 22 29 23 30 24 31 77 32 25 33
REMARK SMILES IDX 82 34 76 35 78 36 26 37 81 38 75 39 74 40 27 42 61 43 40 44
REMARK SMILES IDX 60 45 41 46 44 47 59 48 79 49 42 50 43 51 58 53 80 54 45 55
REMARK SMILES IDX 28 56 29 57 38 58 30 59 31 60 37 61 39 62 32 63 33 64 34 65
REMARK SMILES IDX 35 66 36 67 62 68 63 69 72 70 64 71 65 72 71 73 73 74 66 75
REMARK SMILES IDX 67 76 68 77 69 78 70 79 46 80 47 81 56 82 48 83 49 84 55 85
REMARK SMILES IDX 57 86 50 87 51 88 52 89 53 90 54 91
REMARK H PARENT 78 41 44 52
REMARK Flexibility Score: inf
ROOT
ATOM      1  C   UNL A   1      37.608  22.508  25.572  1.00  0.00     0.275 C 
ENDROOT
BRANCH   1   2
ATOM      2  O   UNL A   1      36.856  23.698  25.891  1.00  0.00    -0.458 OA
BRANCH   2   3
ATOM      3  C   UNL A   1      35.515  23.552  26.028  1.00  0.00     0.338 C 
ATOM      4  O   UNL A   1      34.939  22.901  26.880  1.00  0.00    -0.246 OA
BRANCH   3   5
ATOM      5  C   UNL A   1      34.781  24.352  25.012  1.00  0.00     0.064 A 
ATOM      6  C   UNL A   1      33.562  26.431  24.575  1.00  0.00     0.071 A 
ATOM      7  C   UNL A   1      34.361  25.642  25.413  1.00  0.00     0.036 A 
ATOM      8  C   UNL A   1      33.241  25.960  23.285  1.00  0.00    -0.032 A 
ATOM      9  C   UNL A   1      33.662  24.674  22.904  1.00  0.00     0.009 A 
ATOM     10  C   UNL A   1      32.396  26.734  22.305  1.00  0.00     0.046 C 
ATOM     11  C   UNL A   1      34.403  23.844  23.761  1.00  0.00    -0.036 A 
ATOM     12  C   UNL A   1      34.683  22.449  23.270  1.00  0.00     0.045 C 
BRANCH   6  13
ATOM     13  S   UNL A   1      32.862  28.005  25.099  1.00  0.00     0.181 S 
ATOM     14  O   UNL A   1      31.429  27.863  24.904  1.00  0.00    -0.223 OA
ATOM     15  O   UNL A   1      33.600  29.007  24.351  1.00  0.00    -0.223 OA
BRANCH  13  16
ATOM     16  C   UNL A   1      33.104  28.345  26.840  1.00  0.00     0.110 C 
ATOM     17  C   UNL A   1      31.808  28.191  27.624  1.00  0.00     0.025 C 
BRANCH  16  18
ATOM     18  C   UNL A   1      33.937  29.612  27.098  1.00  0.00     0.016 C 
ATOM     19  C   UNL A   1      35.340  29.357  27.630  1.00  0.00     0.005 C 
ENDBRANCH  16  18
ENDBRANCH  13  16
ENDBRANCH   6  13
ENDBRANCH   3   5
ENDBRANCH   2   3
ENDBRANCH   1   2
BRANCH   1  20
ATOM     20  C   UNL A   1      39.022  22.615  26.131  1.00  0.00     0.275 C 
BRANCH  20  21
ATOM     21  O   UNL A   1      39.074  23.750  27.008  1.00  0.00    -0.458 OA
BRANCH  21  22
ATOM     22  C   UNL A   1      40.281  24.331  27.162  1.00  0.00     0.338 C 
ATOM     23  O   UNL A   1      41.342  24.004  26.646  1.00  0.00    -0.246 OA
BRANCH  22  24
ATOM     24  C   UNL A   1      40.126  25.502  28.038  1.00  0.00     0.060 A 
ATOM     25  C   UNL A   1      41.186  26.394  28.158  1.00  0.00     0.016 A 
ATOM     26  C   UNL A   1      38.983  25.666  28.819  1.00  0.00     0.016 A 
ATOM     27  C   UNL A   1      41.136  27.391  29.127  1.00  0.00     0.010 A 
ATOM     28  C   UNL A   1      38.915  26.722  29.742  1.00  0.00     0.010 A 
ATOM     29  C   UNL A   1      40.018  27.566  29.959  1.00  0.00    -0.014 A 
BRANCH  29  30
ATOM     30  C   UNL A   1      40.066  28.538  31.105  1.00  0.00     0.031 A 
ATOM     31  C   UNL A   1      39.053  29.663  31.199  1.00  0.00     0.074 A 
ATOM     32  C   UNL A   1      40.934  28.387  32.130  1.00  0.00     0.049 A 
ATOM     33  N   UNL A   1      39.038  30.699  32.003  1.00  0.00    -0.248 NA
ATOM     34  C   UNL A   1      37.919  29.627  30.262  1.00  0.00     0.031 C 
ATOM     35  C   UNL A   1      41.929  27.321  32.255  1.00  0.00     0.029 A 
ATOM     36  N   UNL A   1      41.087  29.106  33.294  1.00  0.00    -0.354 N 
ATOM     37  C   UNL A   1      37.959  31.483  31.600  1.00  0.00     0.074 A 
ATOM     38  C   UNL A   1      37.326  30.789  30.501  1.00  0.00     0.031 C 
ATOM     39  C   UNL A   1      42.498  27.384  33.467  1.00  0.00     0.029 A 
ATOM     40  C   UNL A   1      42.020  28.578  34.156  1.00  0.00     0.049 A 
ATOM     41  H   UNL A   1      40.575  29.924  33.491  1.00  0.00     0.167 HD
ATOM     42  C   UNL A   1      37.543  32.677  32.090  1.00  0.00     0.037 A 
ATOM     43  C   UNL A   1      42.485  29.018  35.344  1.00  0.00     0.037 A 
ATOM     44  C   UNL A   1      38.105  33.323  33.249  1.00  0.00     0.049 A 
ATOM     45  C   UNL A   1      42.016  30.345  35.874  1.00  0.00     0.074 A 
ATOM     46  C   UNL A   1      37.762  34.542  33.808  1.00  0.00     0.029 A 
ATOM     47  N   UNL A   1      39.099  32.785  34.051  1.00  0.00    -0.354 N 
ATOM     48  N   UNL A   1      41.100  31.149  35.392  1.00  0.00    -0.248 NA
ATOM     49  C   UNL A   1      42.685  30.851  37.083  1.00  0.00     0.031 C 
ATOM     50  C   UNL A   1      38.569  34.756  34.931  1.00  0.00     0.029 A 
ATOM     51  C   UNL A   1      39.388  33.651  35.094  1.00  0.00     0.049 A 
ATOM     52  H   UNL A   1      39.536  31.916  33.902  1.00  0.00     0.167 HD
ATOM     53  C   UNL A   1      41.095  32.261  36.226  1.00  0.00     0.074 A 
ATOM     54  C   UNL A   1      42.069  32.011  37.267  1.00  0.00     0.031 C 
ATOM     55  C   UNL A   1      40.363  33.398  36.124  1.00  0.00     0.037 A 
BRANCH  42  56
ATOM     56  C   UNL A   1      36.469  33.407  31.330  1.00  0.00     0.058 A 
ATOM     57  C   UNL A   1      36.706  34.043  30.103  1.00  0.00     0.135 A 
ATOM     58  C   UNL A   1      35.161  33.444  31.845  1.00  0.00     0.135 A 
ATOM     59  F   UNL A   1      37.939  34.053  29.575  1.00  0.00    -0.206 F 
ATOM     60  C   UNL A   1      35.690  34.717  29.427  1.00  0.00     0.059 A 
ATOM     61  C   UNL A   1      34.127  34.088  31.174  1.00  0.00     0.059 A 
ATOM     62  F   UNL A   1      34.878  32.848  33.014  1.00  0.00    -0.206 F 
ATOM     63  C   UNL A   1      34.405  34.738  29.974  1.00  0.00     0.060 A 
BRANCH  63  64
ATOM     64  S   UNL A   1      33.099  35.628  29.099  1.00  0.00     0.124 S 
ATOM     65  O   UNL A   1      33.869  36.637  28.378  1.00  0.00    -0.237 OA
ATOM     66  O   UNL A   1      32.501  34.581  28.278  1.00  0.00    -0.237 OA
ATOM     67  O   UNL A   1      32.254  36.135  30.176  1.00  0.00    -0.744 OA
ENDBRANCH  63  64
ENDBRANCH  42  56
BRANCH  43  68
ATOM     68  C   UNL A   1      43.506  28.228  36.086  1.00  0.00     0.058 A 
ATOM     69  C   UNL A   1      43.129  27.157  36.912  1.00  0.00     0.135 A 
ATOM     70  C   UNL A   1      44.875  28.514  35.976  1.00  0.00     0.135 A 
ATOM     71  F   UNL A   1      41.831  26.856  37.068  1.00  0.00    -0.206 F 
ATOM     72  C   UNL A   1      44.073  26.396  37.594  1.00  0.00     0.059 A 
ATOM     73  C   UNL A   1      45.838  27.747  36.621  1.00  0.00     0.059 A 
ATOM     74  F   UNL A   1      45.290  29.528  35.199  1.00  0.00    -0.206 F 
ATOM     75  C   UNL A   1      45.427  26.693  37.434  1.00  0.00     0.060 A 
BRANCH  75  76
ATOM     76  S   UNL A   1      46.657  25.653  38.250  1.00  0.00     0.124 S 
ATOM     77  O   UNL A   1      46.312  24.333  37.733  1.00  0.00    -0.237 OA
ATOM     78  O   UNL A   1      47.913  26.219  37.771  1.00  0.00    -0.237 OA
ATOM     79  O   UNL A   1      46.384  25.869  39.668  1.00  0.00    -0.744 OA
ENDBRANCH  75  76
ENDBRANCH  43  68
BRANCH  55  80
ATOM     80  C   UNL A   1      40.588  34.460  37.163  1.00  0.00     0.058 A 
ATOM     81  C   UNL A   1      41.520  35.491  36.965  1.00  0.00     0.135 A 
ATOM     82  C   UNL A   1      39.835  34.475  38.348  1.00  0.00     0.135 A 
ATOM     83  F   UNL A   1      42.269  35.519  35.851  1.00  0.00    -0.206 F 
ATOM     84  C   UNL A   1      41.713  36.489  37.915  1.00  0.00     0.059 A 
ATOM     85  C   UNL A   1      39.997  35.475  39.302  1.00  0.00     0.059 A 
ATOM     86  F   UNL A   1      38.924  33.517  38.582  1.00  0.00    -0.206 F 
ATOM     87  C   UNL A   1      40.947  36.472  39.081  1.00  0.00     0.060 A 
BRANCH  87  88
ATOM     88  S   UNL A   1      41.187  37.788  40.295  1.00  0.00     0.124 S 
ATOM     89  O   UNL A   1      40.059  38.667  40.001  1.00  0.00    -0.237 OA
ATOM     90  O   UNL A   1      41.113  37.065  41.560  1.00  0.00    -0.237 OA
ATOM     91  O   UNL A   1      42.503  38.322  39.960  1.00  0.00    -0.744 OA
ENDBRANCH  87  88
ENDBRANCH  55  80
ENDBRANCH  29  30
ENDBRANCH  22  24
ENDBRANCH  21  22
ENDBRANCH  20  21
ENDBRANCH   1  20
TORSDOF 17
ENDMDL
MODEL 3
REMARK VINA RESULT:     -10.6      3.135      9.647
REMARK SMILES CC[C@@H](C)S(=O)(=O)c1cc(C(=O)OCCOC(=O)c2ccc(-c3c4nc(c(-c5c(F)cc(S(=O)(=O)[O-])cc5F)c5ccc([nH]5)c(-c5c(F)cc(S(=O)(=O)[O-])cc5F)c5nc(c(-c6c(F)cc(S(=O)(=O)[O-])cc6F)c6ccc3[nH]6)C=C5)C=C4)cc2)c(C)cc1C
REMARK SMILES IDX 14 1 13 2 11 3 12 4 10 5 8 6 9 7 88 8 87 9 89 10 85 11 86 12
REMARK SMILES IDX 5 13 6 14 7 15 3 16 4 17 2 18 1 19 15 20 16 21 17 22 18 23
REMARK SMILES IDX 19 24 20 25 84 26 21 27 83 28 22 29 23 30 24 31 77 32 25 33
REMARK SMILES IDX 82 34 76 35 78 36 26 37 81 38 75 39 74 40 27 42 61 43 40 44
REMARK SMILES IDX 60 45 41 46 44 47 59 48 79 49 42 50 43 51 58 53 80 54 45 55
REMARK SMILES IDX 28 56 29 57 38 58 30 59 31 60 37 61 39 62 32 63 33 64 34 65
REMARK SMILES IDX 35 66 36 67 62 68 63 69 72 70 64 71 65 72 71 73 73 74 66 75
REMARK SMILES IDX 67 76 68 77 69 78 70 79 46 80 47 81 56 82 48 83 49 84 55 85
REMARK SMILES IDX 57 86 50 87 51 88 52 89 53 90 54 91
REMARK H PARENT 78 41 44 52
REMARK Flexibility Score: inf
ROOT
ATOM      1  C   UNL A   1      46.697  24.494  26.151  1.00  0.00     0.275 C 
ENDROOT
BRANCH   1   2
ATOM      2  O   UNL A   1      46.336  23.101  26.047  1.00  0.00    -0.458 OA
BRANCH   2   3
ATOM      3  C   UNL A   1      45.717  22.717  24.904  1.00  0.00     0.338 C 
ATOM      4  O   UNL A   1      45.823  23.241  23.809  1.00  0.00    -0.246 OA
BRANCH   3   5
ATOM      5  C   UNL A   1      44.896  21.497  25.121  1.00  0.00     0.064 A 
ATOM      6  C   UNL A   1      42.763  20.618  25.943  1.00  0.00     0.071 A 
ATOM      7  C   UNL A   1      43.579  21.702  25.594  1.00  0.00     0.036 A 
ATOM      8  C   UNL A   1      43.238  19.305  25.744  1.00  0.00    -0.032 A 
ATOM      9  C   UNL A   1      44.552  19.118  25.279  1.00  0.00     0.009 A 
ATOM     10  C   UNL A   1      42.437  18.072  26.079  1.00  0.00     0.046 C 
ATOM     11  C   UNL A   1      45.405  20.196  24.992  1.00  0.00    -0.036 A 
ATOM     12  C   UNL A   1      46.821  19.852  24.618  1.00  0.00     0.045 C 
BRANCH   6  13
ATOM     13  S   UNL A   1      41.145  20.826  26.705  1.00  0.00     0.181 S 
ATOM     14  O   UNL A   1      41.265  20.211  28.016  1.00  0.00    -0.223 OA
ATOM     15  O   UNL A   1      40.206  20.289  25.736  1.00  0.00    -0.223 OA
BRANCH  13  16
ATOM     16  C   UNL A   1      40.707  22.538  26.987  1.00  0.00     0.110 C 
ATOM     17  C   UNL A   1      41.161  23.010  28.362  1.00  0.00     0.025 C 
BRANCH  16  18
ATOM     18  C   UNL A   1      39.265  22.870  26.569  1.00  0.00     0.016 C 
ATOM     19  C   UNL A   1      38.859  24.323  26.773  1.00  0.00     0.005 C 
ENDBRANCH  16  18
ENDBRANCH  13  16
ENDBRANCH   6  13
ENDBRANCH   3   5
ENDBRANCH   2   3
ENDBRANCH   1   2
BRANCH   1  20
ATOM     20  C   UNL A   1      45.894  25.164  27.260  1.00  0.00     0.275 C 
BRANCH  20  21
ATOM     21  O   UNL A   1      44.503  24.884  27.039  1.00  0.00    -0.458 OA
BRANCH  21  22
ATOM     22  C   UNL A   1      43.791  25.846  26.418  1.00  0.00     0.338 C 
ATOM     23  O   UNL A   1      43.665  26.025  25.213  1.00  0.00    -0.246 OA
BRANCH  22  24
ATOM     24  C   UNL A   1      43.112  26.656  27.439  1.00  0.00     0.060 A 
ATOM     25  C   UNL A   1      43.382  28.019  27.502  1.00  0.00     0.016 A 
ATOM     26  C   UNL A   1      42.292  26.061  28.397  1.00  0.00     0.016 A 
ATOM     27  C   UNL A   1      42.907  28.761  28.578  1.00  0.00     0.010 A 
ATOM     28  C   UNL A   1      41.759  26.838  29.437  1.00  0.00     0.010 A 
ATOM     29  C   UNL A   1      42.110  28.191  29.584  1.00  0.00    -0.014 A 
BRANCH  29  30
ATOM     30  C   UNL A   1      41.760  28.978  30.817  1.00  0.00     0.031 A 
ATOM     31  C   UNL A   1      40.472  29.777  30.876  1.00  0.00     0.074 A 
ATOM     32  C   UNL A   1      42.516  28.920  31.936  1.00  0.00     0.049 A 
ATOM     33  N   UNL A   1      40.083  30.655  31.768  1.00  0.00    -0.248 NA
ATOM     34  C   UNL A   1      39.505  29.575  29.785  1.00  0.00     0.031 C 
ATOM     35  C   UNL A   1      43.745  28.143  32.096  1.00  0.00     0.029 A 
ATOM     36  N   UNL A   1      42.332  29.490  33.175  1.00  0.00    -0.354 N 
ATOM     37  C   UNL A   1      38.882  31.179  31.295  1.00  0.00     0.074 A 
ATOM     38  C   UNL A   1      38.592  30.499  30.051  1.00  0.00     0.031 C 
ATOM     39  C   UNL A   1      44.135  28.187  33.378  1.00  0.00     0.029 A 
ATOM     40  C   UNL A   1      43.273  29.111  34.107  1.00  0.00     0.049 A 
ATOM     41  H   UNL A   1      41.597  30.112  33.378  1.00  0.00     0.167 HD
ATOM     42  C   UNL A   1      38.101  32.146  31.836  1.00  0.00     0.037 A 
ATOM     43  C   UNL A   1      43.462  29.492  35.387  1.00  0.00     0.037 A 
ATOM     44  C   UNL A   1      38.329  32.752  33.123  1.00  0.00     0.049 A 
ATOM     45  C   UNL A   1      42.589  30.567  35.974  1.00  0.00     0.074 A 
ATOM     46  C   UNL A   1      37.603  33.754  33.746  1.00  0.00     0.029 A 
ATOM     47  N   UNL A   1      39.336  32.388  34.003  1.00  0.00    -0.354 N 
ATOM     48  N   UNL A   1      41.547  31.162  35.447  1.00  0.00    -0.248 NA
ATOM     49  C   UNL A   1      42.953  31.060  37.311  1.00  0.00     0.031 C 
ATOM     50  C   UNL A   1      38.189  34.015  34.990  1.00  0.00     0.029 A 
ATOM     51  C   UNL A   1      39.257  33.150  35.158  1.00  0.00     0.049 A 
ATOM     52  H   UNL A   1      40.010  31.691  33.831  1.00  0.00     0.167 HD
ATOM     53  C   UNL A   1      41.142  32.112  36.379  1.00  0.00     0.074 A 
ATOM     54  C   UNL A   1      42.025  31.985  37.520  1.00  0.00     0.031 C 
ATOM     55  C   UNL A   1      40.142  33.022  36.287  1.00  0.00     0.037 A 
BRANCH  42  56
ATOM     56  C   UNL A   1      36.959  32.668  31.006  1.00  0.00     0.058 A 
ATOM     57  C   UNL A   1      35.633  32.250  31.193  1.00  0.00     0.135 A 
ATOM     58  C   UNL A   1      37.208  33.632  30.015  1.00  0.00     0.135 A 
ATOM     59  F   UNL A   1      35.342  31.319  32.113  1.00  0.00    -0.206 F 
ATOM     60  C   UNL A   1      34.598  32.747  30.403  1.00  0.00     0.059 A 
ATOM     61  C   UNL A   1      36.186  34.161  29.233  1.00  0.00     0.059 A 
ATOM     62  F   UNL A   1      38.458  34.071  29.797  1.00  0.00    -0.206 F 
ATOM     63  C   UNL A   1      34.886  33.699  29.422  1.00  0.00     0.060 A 
BRANCH  63  64
ATOM     64  S   UNL A   1      33.541  34.326  28.392  1.00  0.00     0.124 S 
ATOM     65  O   UNL A   1      32.617  34.834  29.402  1.00  0.00    -0.237 OA
ATOM     66  O   UNL A   1      34.210  35.336  27.580  1.00  0.00    -0.237 OA
ATOM     67  O   UNL A   1      33.088  33.143  27.668  1.00  0.00    -0.744 OA
ENDBRANCH  63  64
ENDBRANCH  42  56
BRANCH  43  68
ATOM     68  C   UNL A   1      44.571  28.901  36.186  1.00  0.00     0.058 A 
ATOM     69  C   UNL A   1      44.369  27.745  36.956  1.00  0.00     0.135 A 
ATOM     70  C   UNL A   1      45.855  29.468  36.186  1.00  0.00     0.135 A 
ATOM     71  F   UNL A   1      43.155  27.176  37.006  1.00  0.00    -0.206 F 
ATOM     72  C   UNL A   1      45.401  27.168  37.690  1.00  0.00     0.059 A 
ATOM     73  C   UNL A   1      46.910  28.891  36.885  1.00  0.00     0.059 A 
ATOM     74  F   UNL A   1      46.103  30.574  35.468  1.00  0.00    -0.206 F 
ATOM     75  C   UNL A   1      46.672  27.745  37.640  1.00  0.00     0.060 A 
BRANCH  75  76
ATOM     76  S   UNL A   1      48.032  26.949  38.523  1.00  0.00     0.124 S 
ATOM     77  O   UNL A   1      48.207  25.727  37.747  1.00  0.00    -0.237 OA
ATOM     78  O   UNL A   1      49.099  27.938  38.408  1.00  0.00    -0.237 OA
ATOM     79  O   UNL A   1      47.495  26.775  39.869  1.00  0.00    -0.744 OA
ENDBRANCH  75  76
ENDBRANCH  43  68
BRANCH  55  80
ATOM     80  C   UNL A   1      39.948  33.955  37.448  1.00  0.00     0.058 A 
ATOM     81  C   UNL A   1      40.554  35.221  37.479  1.00  0.00     0.135 A 
ATOM     82  C   UNL A   1      39.113  33.602  38.521  1.00  0.00     0.135 A 
ATOM     83  F   UNL A   1      41.366  35.604  36.481  1.00  0.00    -0.206 F 
ATOM     84  C   UNL A   1      40.357  36.096  38.542  1.00  0.00     0.059 A 
ATOM     85  C   UNL A   1      38.885  34.470  39.584  1.00  0.00     0.059 A 
ATOM     86  F   UNL A   1      38.502  32.406  38.536  1.00  0.00    -0.206 F 
ATOM     87  C   UNL A   1      39.521  35.712  39.591  1.00  0.00     0.060 A 
BRANCH  87  88
ATOM     88  S   UNL A   1      39.250  36.867  40.953  1.00  0.00     0.124 S 
ATOM     89  O   UNL A   1      40.620  37.205  41.327  1.00  0.00    -0.237 OA
ATOM     90  O   UNL A   1      38.487  37.934  40.312  1.00  0.00    -0.237 OA
ATOM     91  O   UNL A   1      38.510  36.073  41.929  1.00  0.00    -0.744 OA
ENDBRANCH  87  88
ENDBRANCH  55  80
ENDBRANCH  29  30
ENDBRANCH  22  24
ENDBRANCH  21  22
ENDBRANCH  20  21
ENDBRANCH   1  20
TORSDOF 17
ENDMDL
