MODEL 1
REMARK VINA RESULT:     -11.4      0.000      0.000
REMARK SMILES Cn1cc(C(=O)N2CC[NH+](C)CC2)c(C(=O)OCCOC(=O)c2ccc(-c3c4nc(c(-c5c(F)cc(S(=O)(=O)[O-])cc5F)c5ccc([nH]5)c(-c5c(F)cc(S(=O)(=O)[O-])cc5F)c5nc(c(-c6c(F)cc(S(=O)(=O)[O-])cc6F)c6ccc3[nH]6)C=C5)C=C4)cc2)n1
REMARK SMILES IDX 19 1 18 2 17 3 15 4 16 5 14 6 4 7 3 8 2 9 89 10 1 11 5 12
REMARK SMILES IDX 11 13 10 14 9 15 12 16 8 18 13 19 7 20 6 21 20 22 21 23
REMARK SMILES IDX 22 24 23 25 24 26 88 27 25 28 87 29 26 30 27 31 28 32 81 33
REMARK SMILES IDX 29 34 86 35 80 36 82 37 30 38 85 39 79 40 78 41 31 43 65 44
REMARK SMILES IDX 44 45 64 46 45 47 48 48 63 49 83 50 46 51 47 52 62 54 84 55
REMARK SMILES IDX 49 56 32 57 33 58 42 59 34 60 35 61 41 62 43 63 36 64 37 65
REMARK SMILES IDX 38 66 39 67 40 68 66 69 67 70 76 71 68 72 69 73 75 74 77 75
REMARK SMILES IDX 70 76 71 77 72 78 73 79 74 80 50 81 51 82 60 83 52 84 53 85
REMARK SMILES IDX 59 86 61 87 54 88 55 89 56 90 57 91 58 92
REMARK H PARENT 10 17 82 42 48 53
REMARK Flexibility Score: inf
ROOT
ATOM      1  C   UNL A   1      38.037  23.910  26.124  1.00  0.00     0.275 C 
ENDROOT
BRANCH   1   2
ATOM      2  C   UNL A   1      37.578  22.498  25.740  1.00  0.00     0.275 C 
BRANCH   2   3
ATOM      3  O   UNL A   1      36.313  22.538  25.057  1.00  0.00    -0.457 OA
BRANCH   3   4
ATOM      4  C   UNL A   1      35.223  22.118  25.778  1.00  0.00     0.359 C 
ATOM      5  O   UNL A   1      34.777  22.721  26.739  1.00  0.00    -0.244 OA
BRANCH   4   6
ATOM      6  C   UNL A   1      34.586  20.928  25.183  1.00  0.00     0.183 A 
ATOM      7  C   UNL A   1      33.216  20.724  24.836  1.00  0.00     0.092 A 
ATOM      8  C   UNL A   1      33.154  19.412  24.398  1.00  0.00     0.123 A 
ATOM      9  N   UNL A   1      34.407  18.902  24.551  1.00  0.00    -0.274 N 
ATOM     10  N   UNL A   1      35.306  19.811  24.943  1.00  0.00    -0.165 NA
ATOM     11  C   UNL A   1      34.821  17.529  24.387  1.00  0.00     0.173 C 
BRANCH   7  12
ATOM     12  C   UNL A   1      32.160  21.721  24.831  1.00  0.00     0.258 C 
ATOM     13  C   UNL A   1      32.846  25.959  21.375  1.00  0.00     0.332 C 
ATOM     14  N   UNL A   1      32.215  24.724  21.836  1.00  0.00    -0.334 N 
ATOM     15  C   UNL A   1      31.644  24.906  23.189  1.00  0.00     0.283 C 
ATOM     16  C   UNL A   1      33.185  23.605  21.836  1.00  0.00     0.283 C 
ATOM     17  H   UNL A   1      31.459  24.495  21.191  1.00  0.00     0.347 HD
ATOM     18  C   UNL A   1      31.023  23.609  23.745  1.00  0.00     0.181 C 
ATOM     19  C   UNL A   1      32.565  22.297  22.372  1.00  0.00     0.181 C 
ATOM     20  N   UNL A   1      31.984  22.510  23.701  1.00  0.00    -0.327 N 
ATOM     21  O   UNL A   1      31.469  21.872  25.838  1.00  0.00    -0.269 OA
ENDBRANCH   7  12
ENDBRANCH   4   6
ENDBRANCH   3   4
ENDBRANCH   2   3
ENDBRANCH   1   2
BRANCH   1  22
ATOM     22  O   UNL A   1      39.268  23.893  26.872  1.00  0.00    -0.458 OA
BRANCH  22  23
ATOM     23  C   UNL A   1      40.136  24.892  26.576  1.00  0.00     0.338 C 
ATOM     24  O   UNL A   1      40.695  25.079  25.507  1.00  0.00    -0.246 OA
BRANCH  23  25
ATOM     25  C   UNL A   1      40.243  25.824  27.715  1.00  0.00     0.060 A 
ATOM     26  C   UNL A   1      39.292  25.713  28.730  1.00  0.00     0.016 A 
ATOM     27  C   UNL A   1      41.207  26.834  27.764  1.00  0.00     0.016 A 
ATOM     28  C   UNL A   1      39.291  26.607  29.798  1.00  0.00     0.010 A 
ATOM     29  C   UNL A   1      41.200  27.742  28.832  1.00  0.00     0.010 A 
ATOM     30  C   UNL A   1      40.233  27.640  29.846  1.00  0.00    -0.014 A 
BRANCH  30  31
ATOM     31  C   UNL A   1      40.137  28.649  30.929  1.00  0.00     0.031 A 
ATOM     32  C   UNL A   1      41.082  28.576  32.095  1.00  0.00     0.074 A 
ATOM     33  C   UNL A   1      39.259  29.665  30.831  1.00  0.00     0.049 A 
ATOM     34  N   UNL A   1      41.162  29.352  33.145  1.00  0.00    -0.248 NA
ATOM     35  C   UNL A   1      42.075  27.490  32.073  1.00  0.00     0.031 C 
ATOM     36  C   UNL A   1      38.329  29.871  29.721  1.00  0.00     0.029 A 
ATOM     37  N   UNL A   1      39.017  30.719  31.673  1.00  0.00    -0.354 N 
ATOM     38  C   UNL A   1      42.205  28.849  33.911  1.00  0.00     0.074 A 
ATOM     39  C   UNL A   1      42.720  27.689  33.214  1.00  0.00     0.031 C 
ATOM     40  C   UNL A   1      37.620  30.990  29.948  1.00  0.00     0.029 A 
ATOM     41  C   UNL A   1      38.026  31.562  31.230  1.00  0.00     0.049 A 
ATOM     42  H   UNL A   1      39.505  30.859  32.516  1.00  0.00     0.167 HD
ATOM     43  C   UNL A   1      42.692  29.312  35.087  1.00  0.00     0.037 A 
ATOM     44  C   UNL A   1      37.500  32.663  31.801  1.00  0.00     0.037 A 
ATOM     45  C   UNL A   1      42.182  30.467  35.778  1.00  0.00     0.049 A 
ATOM     46  C   UNL A   1      38.029  33.133  33.128  1.00  0.00     0.074 A 
ATOM     47  C   UNL A   1      42.586  30.994  36.993  1.00  0.00     0.029 A 
ATOM     48  N   UNL A   1      41.160  31.279  35.310  1.00  0.00    -0.354 N 
ATOM     49  N   UNL A   1      38.994  32.625  33.857  1.00  0.00    -0.248 NA
ATOM     50  C   UNL A   1      37.396  34.323  33.714  1.00  0.00     0.031 C 
ATOM     51  C   UNL A   1      41.796  32.116  37.268  1.00  0.00     0.029 A 
ATOM     52  C   UNL A   1      40.919  32.302  36.212  1.00  0.00     0.049 A 
ATOM     53  H   UNL A   1      40.677  31.147  34.462  1.00  0.00     0.167 HD
ATOM     54  C   UNL A   1      39.095  33.443  34.977  1.00  0.00     0.074 A 
ATOM     55  C   UNL A   1      38.101  34.485  34.826  1.00  0.00     0.031 C 
ATOM     56  C   UNL A   1      39.933  33.337  36.037  1.00  0.00     0.037 A 
BRANCH  43  57
ATOM     57  C   UNL A   1      43.825  28.552  35.710  1.00  0.00     0.058 A 
ATOM     58  C   UNL A   1      45.163  28.862  35.418  1.00  0.00     0.135 A 
ATOM     59  C   UNL A   1      43.573  27.518  36.626  1.00  0.00     0.135 A 
ATOM     60  F   UNL A   1      45.454  29.829  34.534  1.00  0.00    -0.206 F 
ATOM     61  C   UNL A   1      46.214  28.159  35.998  1.00  0.00     0.059 A 
ATOM     62  C   UNL A   1      44.609  26.813  37.231  1.00  0.00     0.059 A 
ATOM     63  F   UNL A   1      42.312  27.182  36.933  1.00  0.00    -0.206 F 
ATOM     64  C   UNL A   1      45.926  27.133  36.899  1.00  0.00     0.060 A 
BRANCH  64  65
ATOM     65  S   UNL A   1      47.297  26.223  37.646  1.00  0.00     0.124 S 
ATOM     66  O   UNL A   1      47.170  26.608  39.048  1.00  0.00    -0.237 OA
ATOM     67  O   UNL A   1      46.960  24.836  37.337  1.00  0.00    -0.237 OA
ATOM     68  O   UNL A   1      48.468  26.749  36.952  1.00  0.00    -0.744 OA
ENDBRANCH  64  65
ENDBRANCH  43  57
BRANCH  44  69
ATOM     69  C   UNL A   1      36.395  33.395  31.127  1.00  0.00     0.058 A 
ATOM     70  C   UNL A   1      36.631  34.162  29.978  1.00  0.00     0.135 A 
ATOM     71  C   UNL A   1      35.087  33.352  31.632  1.00  0.00     0.135 A 
ATOM     72  F   UNL A   1      37.869  34.242  29.466  1.00  0.00    -0.206 F 
ATOM     73  C   UNL A   1      35.611  34.877  29.359  1.00  0.00     0.059 A 
ATOM     74  C   UNL A   1      34.047  34.042  31.019  1.00  0.00     0.059 A 
ATOM     75  F   UNL A   1      34.811  32.624  32.725  1.00  0.00    -0.206 F 
ATOM     76  C   UNL A   1      34.321  34.814  29.892  1.00  0.00     0.060 A 
BRANCH  76  77
ATOM     77  S   UNL A   1      32.989  35.720  29.072  1.00  0.00     0.124 S 
ATOM     78  O   UNL A   1      32.399  34.679  28.241  1.00  0.00    -0.237 OA
ATOM     79  O   UNL A   1      32.178  36.173  30.198  1.00  0.00    -0.237 OA
ATOM     80  O   UNL A   1      33.700  36.776  28.356  1.00  0.00    -0.744 OA
ENDBRANCH  76  77
ENDBRANCH  44  69
BRANCH  56  81
ATOM     81  C   UNL A   1      39.831  34.393  37.100  1.00  0.00     0.058 A 
ATOM     82  C   UNL A   1      40.508  35.616  36.983  1.00  0.00     0.135 A 
ATOM     83  C   UNL A   1      39.013  34.195  38.222  1.00  0.00     0.135 A 
ATOM     84  F   UNL A   1      41.306  35.849  35.930  1.00  0.00    -0.206 F 
ATOM     85  C   UNL A   1      40.392  36.603  37.955  1.00  0.00     0.059 A 
ATOM     86  C   UNL A   1      38.869  35.175  39.198  1.00  0.00     0.059 A 
ATOM     87  F   UNL A   1      38.338  33.044  38.373  1.00  0.00    -0.206 F 
ATOM     88  C   UNL A   1      39.571  36.373  39.062  1.00  0.00     0.060 A 
BRANCH  88  89
ATOM     89  S   UNL A   1      39.397  37.671  40.306  1.00  0.00     0.124 S 
ATOM     90  O   UNL A   1      39.269  36.888  41.530  1.00  0.00    -0.237 OA
ATOM     91  O   UNL A   1      40.640  38.421  40.160  1.00  0.00    -0.237 OA
ATOM     92  O   UNL A   1      38.193  38.381  39.883  1.00  0.00    -0.744 OA
ENDBRANCH  88  89
ENDBRANCH  56  81
ENDBRANCH  30  31
ENDBRANCH  23  25
ENDBRANCH  22  23
ENDBRANCH   1  22
TORSDOF 15
ENDMDL
MODEL 2
REMARK VINA RESULT:     -11.4      5.260     10.760
REMARK SMILES Cn1cc(C(=O)N2CC[NH+](C)CC2)c(C(=O)OCCOC(=O)c2ccc(-c3c4nc(c(-c5c(F)cc(S(=O)(=O)[O-])cc5F)c5ccc([nH]5)c(-c5c(F)cc(S(=O)(=O)[O-])cc5F)c5nc(c(-c6c(F)cc(S(=O)(=O)[O-])cc6F)c6ccc3[nH]6)C=C5)C=C4)cc2)n1
REMARK SMILES IDX 19 1 18 2 17 3 15 4 16 5 14 6 4 7 3 8 2 9 89 10 1 11 5 12
REMARK SMILES IDX 11 13 10 14 9 15 12 16 8 18 13 19 7 20 6 21 20 22 21 23
REMARK SMILES IDX 22 24 23 25 24 26 88 27 25 28 87 29 26 30 27 31 28 32 81 33
REMARK SMILES IDX 29 34 86 35 80 36 82 37 30 38 85 39 79 40 78 41 31 43 65 44
REMARK SMILES IDX 44 45 64 46 45 47 48 48 63 49 83 50 46 51 47 52 62 54 84 55
REMARK SMILES IDX 49 56 32 57 33 58 42 59 34 60 35 61 41 62 43 63 36 64 37 65
REMARK SMILES IDX 38 66 39 67 40 68 66 69 67 70 76 71 68 72 69 73 75 74 77 75
REMARK SMILES IDX 70 76 71 77 72 78 73 79 74 80 50 81 51 82 60 83 52 84 53 85
REMARK SMILES IDX 59 86 61 87 54 88 55 89 56 90 57 91 58 92
REMARK H PARENT 10 17 82 42 48 53
REMARK Flexibility Score: inf
ROOT
ATOM      1  C   UNL A   1      33.710  28.041  26.517  1.00  0.00     0.275 C 
ENDROOT
BRANCH   1   2
ATOM      2  C   UNL A   1      32.811  26.800  26.537  1.00  0.00     0.275 C 
BRANCH   2   3
ATOM      3  O   UNL A   1      31.422  27.172  26.505  1.00  0.00    -0.457 OA
BRANCH   3   4
ATOM      4  C   UNL A   1      30.654  26.559  25.547  1.00  0.00     0.359 C 
ATOM      5  O   UNL A   1      29.656  25.906  25.798  1.00  0.00    -0.244 OA
BRANCH   4   6
ATOM      6  C   UNL A   1      31.103  26.884  24.179  1.00  0.00     0.183 A 
ATOM      7  C   UNL A   1      30.989  28.117  23.468  1.00  0.00     0.092 A 
ATOM      8  C   UNL A   1      31.495  27.845  22.207  1.00  0.00     0.123 A 
ATOM      9  N   UNL A   1      31.813  26.522  22.205  1.00  0.00    -0.274 N 
ATOM     10  N   UNL A   1      31.666  25.937  23.398  1.00  0.00    -0.165 NA
ATOM     11  C   UNL A   1      32.226  25.721  21.076  1.00  0.00     0.173 C 
BRANCH   7  12
ATOM     12  C   UNL A   1      30.555  29.395  24.002  1.00  0.00     0.258 C 
ATOM     13  C   UNL A   1      27.712  32.620  20.554  1.00  0.00     0.332 C 
ATOM     14  N   UNL A   1      27.865  31.745  21.714  1.00  0.00    -0.334 N 
ATOM     15  C   UNL A   1      28.864  32.299  22.655  1.00  0.00     0.283 C 
ATOM     16  C   UNL A   1      28.259  30.380  21.295  1.00  0.00     0.283 C 
ATOM     17  H   UNL A   1      26.965  31.689  22.190  1.00  0.00     0.347 HD
ATOM     18  C   UNL A   1      29.107  31.376  23.866  1.00  0.00     0.181 C 
ATOM     19  C   UNL A   1      28.485  29.443  22.501  1.00  0.00     0.181 C 
ATOM     20  N   UNL A   1      29.457  30.026  23.430  1.00  0.00    -0.327 N 
ATOM     21  O   UNL A   1      31.188  29.910  24.923  1.00  0.00    -0.269 OA
ENDBRANCH   7  12
ENDBRANCH   4   6
ENDBRANCH   3   4
ENDBRANCH   2   3
ENDBRANCH   1   2
BRANCH   1  22
ATOM     22  O   UNL A   1      33.568  28.830  27.714  1.00  0.00    -0.458 OA
BRANCH  22  23
ATOM     23  C   UNL A   1      34.202  30.028  27.694  1.00  0.00     0.338 C 
ATOM     24  O   UNL A   1      33.697  31.116  27.467  1.00  0.00    -0.246 OA
BRANCH  23  25
ATOM     25  C   UNL A   1      35.610  29.864  28.102  1.00  0.00     0.060 A 
ATOM     26  C   UNL A   1      36.591  30.056  27.128  1.00  0.00     0.016 A 
ATOM     27  C   UNL A   1      35.971  29.462  29.391  1.00  0.00     0.016 A 
ATOM     28  C   UNL A   1      37.934  29.848  27.427  1.00  0.00     0.010 A 
ATOM     29  C   UNL A   1      37.323  29.239  29.690  1.00  0.00     0.010 A 
ATOM     30  C   UNL A   1      38.308  29.419  28.705  1.00  0.00    -0.014 A 
BRANCH  30  31
ATOM     31  C   UNL A   1      39.731  29.089  28.964  1.00  0.00     0.031 A 
ATOM     32  C   UNL A   1      40.614  30.097  29.643  1.00  0.00     0.074 A 
ATOM     33  C   UNL A   1      40.207  27.866  28.661  1.00  0.00     0.049 A 
ATOM     34  N   UNL A   1      41.881  30.011  29.955  1.00  0.00    -0.248 NA
ATOM     35  C   UNL A   1      39.984  31.371  30.028  1.00  0.00     0.031 C 
ATOM     36  C   UNL A   1      39.432  26.786  28.051  1.00  0.00     0.029 A 
ATOM     37  N   UNL A   1      41.455  27.327  28.837  1.00  0.00    -0.354 N 
ATOM     38  C   UNL A   1      42.205  31.215  30.566  1.00  0.00     0.074 A 
ATOM     39  C   UNL A   1      41.004  32.024  30.568  1.00  0.00     0.031 C 
ATOM     40  C   UNL A   1      40.222  25.708  27.909  1.00  0.00     0.029 A 
ATOM     41  C   UNL A   1      41.563  26.030  28.392  1.00  0.00     0.049 A 
ATOM     42  H   UNL A   1      42.204  27.820  29.243  1.00  0.00     0.167 HD
ATOM     43  C   UNL A   1      43.393  31.609  31.082  1.00  0.00     0.037 A 
ATOM     44  C   UNL A   1      42.626  25.204  28.367  1.00  0.00     0.037 A 
ATOM     45  C   UNL A   1      44.585  30.803  31.083  1.00  0.00     0.049 A 
ATOM     46  C   UNL A   1      43.947  25.681  28.908  1.00  0.00     0.074 A 
ATOM     47  C   UNL A   1      45.847  31.129  31.551  1.00  0.00     0.029 A 
ATOM     48  N   UNL A   1      44.661  29.506  30.599  1.00  0.00    -0.354 N 
ATOM     49  N   UNL A   1      44.245  26.836  29.452  1.00  0.00    -0.248 NA
ATOM     50  C   UNL A   1      45.076  24.745  28.827  1.00  0.00     0.031 C 
ATOM     51  C   UNL A   1      46.691  30.033  31.334  1.00  0.00     0.029 A 
ATOM     52  C   UNL A   1      45.948  29.017  30.756  1.00  0.00     0.049 A 
ATOM     53  H   UNL A   1      43.911  29.006  30.203  1.00  0.00     0.167 HD
ATOM     54  C   UNL A   1      45.590  26.759  29.794  1.00  0.00     0.074 A 
ATOM     55  C   UNL A   1      46.046  25.440  29.406  1.00  0.00     0.031 C 
ATOM     56  C   UNL A   1      46.378  27.697  30.374  1.00  0.00     0.037 A 
BRANCH  43  57
ATOM     57  C   UNL A   1      43.464  32.986  31.672  1.00  0.00     0.058 A 
ATOM     58  C   UNL A   1      43.242  33.210  33.040  1.00  0.00     0.135 A 
ATOM     59  C   UNL A   1      43.780  34.093  30.866  1.00  0.00     0.135 A 
ATOM     60  F   UNL A   1      42.918  32.188  33.847  1.00  0.00    -0.206 F 
ATOM     61  C   UNL A   1      43.311  34.488  33.587  1.00  0.00     0.059 A 
ATOM     62  C   UNL A   1      43.871  35.376  31.395  1.00  0.00     0.059 A 
ATOM     63  F   UNL A   1      43.996  33.931  29.552  1.00  0.00    -0.206 F 
ATOM     64  C   UNL A   1      43.621  35.565  32.755  1.00  0.00     0.060 A 
BRANCH  64  65
ATOM     65  S   UNL A   1      43.706  37.220  33.473  1.00  0.00     0.124 S 
ATOM     66  O   UNL A   1      43.693  38.055  32.277  1.00  0.00    -0.237 OA
ATOM     67  O   UNL A   1      42.499  37.270  34.293  1.00  0.00    -0.237 OA
ATOM     68  O   UNL A   1      44.962  37.202  34.215  1.00  0.00    -0.744 OA
ENDBRANCH  64  65
ENDBRANCH  43  57
BRANCH  44  69
ATOM     69  C   UNL A   1      42.494  23.838  27.796  1.00  0.00     0.058 A 
ATOM     70  C   UNL A   1      42.415  22.711  28.626  1.00  0.00     0.135 A 
ATOM     71  C   UNL A   1      42.461  23.636  26.408  1.00  0.00     0.135 A 
ATOM     72  F   UNL A   1      42.454  22.856  29.960  1.00  0.00    -0.206 F 
ATOM     73  C   UNL A   1      42.324  21.426  28.101  1.00  0.00     0.059 A 
ATOM     74  C   UNL A   1      42.351  22.363  25.859  1.00  0.00     0.059 A 
ATOM     75  F   UNL A   1      42.526  24.685  25.573  1.00  0.00    -0.206 F 
ATOM     76  C   UNL A   1      42.298  21.262  26.714  1.00  0.00     0.060 A 
BRANCH  76  77
ATOM     77  S   UNL A   1      42.151  19.596  26.031  1.00  0.00     0.124 S 
ATOM     78  O   UNL A   1      40.742  19.556  25.662  1.00  0.00    -0.237 OA
ATOM     79  O   UNL A   1      43.100  19.626  24.922  1.00  0.00    -0.237 OA
ATOM     80  O   UNL A   1      42.537  18.745  27.153  1.00  0.00    -0.744 OA
ENDBRANCH  76  77
ENDBRANCH  44  69
BRANCH  56  81
ATOM     81  C   UNL A   1      47.805  27.319  30.651  1.00  0.00     0.058 A 
ATOM     82  C   UNL A   1      48.177  26.699  31.853  1.00  0.00     0.135 A 
ATOM     83  C   UNL A   1      48.799  27.540  29.686  1.00  0.00     0.135 A 
ATOM     84  F   UNL A   1      47.261  26.471  32.808  1.00  0.00    -0.206 F 
ATOM     85  C   UNL A   1      49.493  26.325  32.097  1.00  0.00     0.059 A 
ATOM     86  C   UNL A   1      50.119  27.160  29.903  1.00  0.00     0.059 A 
ATOM     87  F   UNL A   1      48.490  28.124  28.517  1.00  0.00    -0.206 F 
ATOM     88  C   UNL A   1      50.459  26.562  31.117  1.00  0.00     0.060 A 
BRANCH  88  89
ATOM     89  S   UNL A   1      52.162  26.046  31.425  1.00  0.00     0.124 S 
ATOM     90  O   UNL A   1      51.973  24.677  31.892  1.00  0.00    -0.237 OA
ATOM     91  O   UNL A   1      52.780  26.187  30.110  1.00  0.00    -0.237 OA
ATOM     92  O   UNL A   1      52.625  26.997  32.431  1.00  0.00    -0.744 OA
ENDBRANCH  88  89
ENDBRANCH  56  81
ENDBRANCH  30  31
ENDBRANCH  23  25
ENDBRANCH  22  23
ENDBRANCH   1  22
TORSDOF 15
ENDMDL
MODEL 3
REMARK VINA RESULT:     -11.3      4.956     10.529
REMARK SMILES Cn1cc(C(=O)N2CC[NH+](C)CC2)c(C(=O)OCCOC(=O)c2ccc(-c3c4nc(c(-c5c(F)cc(S(=O)(=O)[O-])cc5F)c5ccc([nH]5)c(-c5c(F)cc(S(=O)(=O)[O-])cc5F)c5nc(c(-c6c(F)cc(S(=O)(=O)[O-])cc6F)c6ccc3[nH]6)C=C5)C=C4)cc2)n1
REMARK SMILES IDX 19 1 18 2 17 3 15 4 16 5 14 6 4 7 3 8 2 9 89 10 1 11 5 12
REMARK SMILES IDX 11 13 10 14 9 15 12 16 8 18 13 19 7 20 6 21 20 22 21 23
REMARK SMILES IDX 22 24 23 25 24 26 88 27 25 28 87 29 26 30 27 31 28 32 81 33
REMARK SMILES IDX 29 34 86 35 80 36 82 37 30 38 85 39 79 40 78 41 31 43 65 44
REMARK SMILES IDX 44 45 64 46 45 47 48 48 63 49 83 50 46 51 47 52 62 54 84 55
REMARK SMILES IDX 49 56 32 57 33 58 42 59 34 60 35 61 41 62 43 63 36 64 37 65
REMARK SMILES IDX 38 66 39 67 40 68 66 69 67 70 76 71 68 72 69 73 75 74 77 75
REMARK SMILES IDX 70 76 71 77 72 78 73 79 74 80 50 81 51 82 60 83 52 84 53 85
REMARK SMILES IDX 59 86 61 87 54 88 55 89 56 90 57 91 58 92
REMARK H PARENT 10 17 82 42 48 53
REMARK Flexibility Score: inf
ROOT
ATOM      1  C   UNL A   1      32.640  28.802  26.671  1.00  0.00     0.275 C 
ENDROOT
BRANCH   1   2
ATOM      2  C   UNL A   1      31.512  27.874  27.137  1.00  0.00     0.275 C 
BRANCH   2   3
ATOM      3  O   UNL A   1      30.995  27.103  26.039  1.00  0.00    -0.457 OA
BRANCH   3   4
ATOM      4  C   UNL A   1      31.338  25.775  26.018  1.00  0.00     0.359 C 
ATOM      5  O   UNL A   1      31.291  25.050  26.998  1.00  0.00    -0.244 OA
BRANCH   4   6
ATOM      6  C   UNL A   1      31.650  25.299  24.657  1.00  0.00     0.183 A 
ATOM      7  C   UNL A   1      32.321  24.105  24.257  1.00  0.00     0.092 A 
ATOM      8  C   UNL A   1      32.417  24.199  22.878  1.00  0.00     0.123 A 
ATOM      9  N   UNL A   1      31.883  25.405  22.543  1.00  0.00    -0.274 N 
ATOM     10  N   UNL A   1      31.341  26.052  23.579  1.00  0.00    -0.165 NA
ATOM     11  C   UNL A   1      31.894  26.039  21.246  1.00  0.00     0.173 C 
BRANCH   7  12
ATOM     12  C   UNL A   1      32.699  22.990  25.107  1.00  0.00     0.258 C 
ATOM     13  C   UNL A   1      38.105  22.025  25.573  1.00  0.00     0.332 C 
ATOM     14  N   UNL A   1      36.798  22.462  26.060  1.00  0.00    -0.334 N 
ATOM     15  C   UNL A   1      35.815  21.360  25.967  1.00  0.00     0.283 C 
ATOM     16  C   UNL A   1      36.320  23.640  25.301  1.00  0.00     0.283 C 
ATOM     17  H   UNL A   1      36.898  22.728  27.039  1.00  0.00     0.347 HD
ATOM     18  C   UNL A   1      34.403  21.792  26.411  1.00  0.00     0.181 C 
ATOM     19  C   UNL A   1      34.916  24.092  25.753  1.00  0.00     0.181 C 
ATOM     20  N   UNL A   1      33.966  22.977  25.677  1.00  0.00    -0.327 N 
ATOM     21  O   UNL A   1      31.907  22.065  25.276  1.00  0.00    -0.269 OA
ENDBRANCH   7  12
ENDBRANCH   4   6
ENDBRANCH   3   4
ENDBRANCH   2   3
ENDBRANCH   1   2
BRANCH   1  22
ATOM     22  O   UNL A   1      33.759  28.790  27.578  1.00  0.00    -0.458 OA
BRANCH  22  23
ATOM     23  C   UNL A   1      34.318  30.001  27.820  1.00  0.00     0.338 C 
ATOM     24  O   UNL A   1      33.746  31.079  27.835  1.00  0.00    -0.246 OA
BRANCH  23  25
ATOM     25  C   UNL A   1      35.739  29.839  28.185  1.00  0.00     0.060 A 
ATOM     26  C   UNL A   1      36.687  30.005  27.174  1.00  0.00     0.016 A 
ATOM     27  C   UNL A   1      36.141  29.465  29.469  1.00  0.00     0.016 A 
ATOM     28  C   UNL A   1      38.039  29.797  27.432  1.00  0.00     0.010 A 
ATOM     29  C   UNL A   1      37.501  29.242  29.728  1.00  0.00     0.010 A 
ATOM     30  C   UNL A   1      38.454  29.395  28.707  1.00  0.00    -0.014 A 
BRANCH  30  31
ATOM     31  C   UNL A   1      39.883  29.064  28.925  1.00  0.00     0.031 A 
ATOM     32  C   UNL A   1      40.788  30.077  29.568  1.00  0.00     0.074 A 
ATOM     33  C   UNL A   1      40.348  27.838  28.618  1.00  0.00     0.049 A 
ATOM     34  N   UNL A   1      42.064  29.990  29.842  1.00  0.00    -0.248 NA
ATOM     35  C   UNL A   1      40.173  31.355  29.962  1.00  0.00     0.031 C 
ATOM     36  C   UNL A   1      39.552  26.754  28.041  1.00  0.00     0.029 A 
ATOM     37  N   UNL A   1      41.599  27.298  28.760  1.00  0.00    -0.354 N 
ATOM     38  C   UNL A   1      42.409  31.199  30.433  1.00  0.00     0.074 A 
ATOM     39  C   UNL A   1      41.210  32.011  30.465  1.00  0.00     0.031 C 
ATOM     40  C   UNL A   1      40.336  25.673  27.884  1.00  0.00     0.029 A 
ATOM     41  C   UNL A   1      41.691  25.997  28.323  1.00  0.00     0.049 A 
ATOM     42  H   UNL A   1      42.361  27.793  29.139  1.00  0.00     0.167 HD
ATOM     43  C   UNL A   1      43.613  31.595  30.910  1.00  0.00     0.037 A 
ATOM     44  C   UNL A   1      42.752  25.169  28.273  1.00  0.00     0.037 A 
ATOM     45  C   UNL A   1      44.803  30.787  30.881  1.00  0.00     0.049 A 
ATOM     46  C   UNL A   1      44.089  25.648  28.770  1.00  0.00     0.074 A 
ATOM     47  C   UNL A   1      46.079  31.113  31.308  1.00  0.00     0.029 A 
ATOM     48  N   UNL A   1      44.862  29.485  30.406  1.00  0.00    -0.354 N 
ATOM     49  N   UNL A   1      44.406  26.806  29.295  1.00  0.00    -0.248 NA
ATOM     50  C   UNL A   1      45.214  24.708  28.663  1.00  0.00     0.031 C 
ATOM     51  C   UNL A   1      46.914  30.014  31.074  1.00  0.00     0.029 A 
ATOM     52  C   UNL A   1      46.151  28.995  30.528  1.00  0.00     0.049 A 
ATOM     53  H   UNL A   1      44.099  28.984  30.037  1.00  0.00     0.167 HD
ATOM     54  C   UNL A   1      45.761  26.729  29.596  1.00  0.00     0.074 A 
ATOM     55  C   UNL A   1      46.202  25.407  29.206  1.00  0.00     0.031 C 
ATOM     56  C   UNL A   1      46.568  27.671  30.144  1.00  0.00     0.037 A 
BRANCH  43  57
ATOM     57  C   UNL A   1      43.704  32.977  31.485  1.00  0.00     0.058 A 
ATOM     58  C   UNL A   1      44.086  34.074  30.698  1.00  0.00     0.135 A 
ATOM     59  C   UNL A   1      43.385  33.211  32.833  1.00  0.00     0.135 A 
ATOM     60  F   UNL A   1      44.420  33.898  29.411  1.00  0.00    -0.206 F 
ATOM     61  C   UNL A   1      44.167  35.357  31.232  1.00  0.00     0.059 A 
ATOM     62  C   UNL A   1      43.443  34.488  33.383  1.00  0.00     0.059 A 
ATOM     63  F   UNL A   1      43.019  32.194  33.627  1.00  0.00    -0.206 F 
ATOM     64  C   UNL A   1      43.849  35.552  32.577  1.00  0.00     0.060 A 
BRANCH  64  65
ATOM     65  S   UNL A   1      43.961  37.219  33.263  1.00  0.00     0.124 S 
ATOM     66  O   UNL A   1      45.293  37.199  33.858  1.00  0.00    -0.237 OA
ATOM     67  O   UNL A   1      43.811  38.058  32.078  1.00  0.00    -0.237 OA
ATOM     68  O   UNL A   1      42.849  37.271  34.207  1.00  0.00    -0.744 OA
ENDBRANCH  64  65
ENDBRANCH  43  57
BRANCH  44  69
ATOM     69  C   UNL A   1      42.600  23.799  27.717  1.00  0.00     0.058 A 
ATOM     70  C   UNL A   1      42.472  22.686  28.561  1.00  0.00     0.135 A 
ATOM     71  C   UNL A   1      42.597  23.577  26.333  1.00  0.00     0.135 A 
ATOM     72  F   UNL A   1      42.482  22.848  29.893  1.00  0.00    -0.206 F 
ATOM     73  C   UNL A   1      42.362  21.396  28.051  1.00  0.00     0.059 A 
ATOM     74  C   UNL A   1      42.468  22.299  25.799  1.00  0.00     0.059 A 
ATOM     75  F   UNL A   1      42.708  24.612  25.485  1.00  0.00    -0.206 F 
ATOM     76  C   UNL A   1      42.367  21.213  26.667  1.00  0.00     0.060 A 
BRANCH  76  77
ATOM     77  S   UNL A   1      42.195  19.541  26.003  1.00  0.00     0.124 S 
ATOM     78  O   UNL A   1      42.574  18.731  27.154  1.00  0.00    -0.237 OA
ATOM     79  O   UNL A   1      40.786  19.495  25.626  1.00  0.00    -0.237 OA
ATOM     80  O   UNL A   1      43.135  19.532  24.886  1.00  0.00    -0.744 OA
ENDBRANCH  76  77
ENDBRANCH  44  69
BRANCH  56  81
ATOM     81  C   UNL A   1      48.001  27.292  30.381  1.00  0.00     0.058 A 
ATOM     82  C   UNL A   1      49.002  27.597  29.447  1.00  0.00     0.135 A 
ATOM     83  C   UNL A   1      48.382  26.658  31.574  1.00  0.00     0.135 A 
ATOM     84  F   UNL A   1      48.685  28.198  28.289  1.00  0.00    -0.206 F 
ATOM     85  C   UNL A   1      50.333  27.270  29.679  1.00  0.00     0.059 A 
ATOM     86  C   UNL A   1      49.710  26.336  31.834  1.00  0.00     0.059 A 
ATOM     87  F   UNL A   1      47.461  26.354  32.502  1.00  0.00    -0.206 F 
ATOM     88  C   UNL A   1      50.677  26.636  30.875  1.00  0.00     0.060 A 
BRANCH  88  89
ATOM     89  S   UNL A   1      52.412  26.242  31.187  1.00  0.00     0.124 S 
ATOM     90  O   UNL A   1      52.844  27.406  31.953  1.00  0.00    -0.237 OA
ATOM     91  O   UNL A   1      52.325  24.990  31.932  1.00  0.00    -0.237 OA
ATOM     92  O   UNL A   1      52.977  26.126  29.845  1.00  0.00    -0.744 OA
ENDBRANCH  88  89
ENDBRANCH  56  81
ENDBRANCH  30  31
ENDBRANCH  23  25
ENDBRANCH  22  23
ENDBRANCH   1  22
TORSDOF 15
ENDMDL
