MODEL 1
REMARK VINA RESULT:      -9.8      0.000      0.000
REMARK SMILES O=C(OCCOC(=O)[C@H](F)Sc1cc2ccccc2[nH]1)c1ccc(-c2c3nc(c(-c4c(F)cc(S(=O)(=O)[O-])cc4F)c4ccc([nH]4)c(-c4c(F)cc(S(=O)(=O)[O-])cc4F)c4nc(c(-c5c(F)cc(S(=O)(=O)[O-])cc5F)c5ccc2[nH]5)C=C4)C=C3)cc1
REMARK SMILES IDX 4 1 3 2 2 3 1 4 21 5 22 6 86 7 23 8 85 9 24 10 25 11 26 12
REMARK SMILES IDX 79 13 27 14 84 15 78 16 80 17 28 18 83 19 77 20 76 21 29 23
REMARK SMILES IDX 63 24 42 25 62 26 43 27 46 28 61 29 81 30 44 31 45 32 60 34
REMARK SMILES IDX 82 35 47 36 30 37 31 38 40 39 32 40 33 41 39 42 41 43 34 44
REMARK SMILES IDX 35 45 36 46 37 47 38 48 64 49 65 50 74 51 66 52 67 53 73 54
REMARK SMILES IDX 75 55 68 56 69 57 70 58 71 59 72 60 48 61 49 62 58 63 50 64
REMARK SMILES IDX 51 65 57 66 59 67 52 68 53 69 54 70 55 71 56 72 5 73 6 74
REMARK SMILES IDX 7 75 8 76 9 77 10 78 11 79 12 80 13 81 20 82 14 83 19 84
REMARK SMILES IDX 15 86 18 87 16 88 17 89
REMARK H PARENT 80 22 46 33 20 85
REMARK Flexibility Score: inf
ROOT
ATOM      1  C   UNL A   1      40.869  21.363  26.841  1.00  0.00     0.275 C 
ENDROOT
BRANCH   1   2
ATOM      2  O   UNL A   1      39.524  21.664  26.418  1.00  0.00    -0.458 OA
BRANCH   2   3
ATOM      3  C   UNL A   1      38.832  22.828  26.501  1.00  0.00     0.338 C 
ATOM      4  O   UNL A   1      37.670  22.848  26.096  1.00  0.00    -0.246 OA
BRANCH   3   5
ATOM      5  C   UNL A   1      39.466  24.136  26.865  1.00  0.00     0.060 A 
ATOM      6  C   UNL A   1      40.072  25.028  25.978  1.00  0.00     0.016 A 
ATOM      7  C   UNL A   1      39.398  24.505  28.224  1.00  0.00     0.016 A 
ATOM      8  C   UNL A   1      40.491  26.293  26.400  1.00  0.00     0.010 A 
ATOM      9  C   UNL A   1      39.824  25.765  28.654  1.00  0.00     0.010 A 
ATOM     10  C   UNL A   1      40.358  26.674  27.734  1.00  0.00    -0.014 A 
BRANCH  10  11
ATOM     11  C   UNL A   1      40.904  27.973  28.184  1.00  0.00     0.031 A 
ATOM     12  C   UNL A   1      42.387  28.167  28.146  1.00  0.00     0.074 A 
ATOM     13  C   UNL A   1      40.087  28.963  28.591  1.00  0.00     0.049 A 
ATOM     14  N   UNL A   1      43.083  29.218  28.481  1.00  0.00    -0.248 NA
ATOM     15  C   UNL A   1      43.190  27.046  27.628  1.00  0.00     0.031 C 
ATOM     16  C   UNL A   1      38.629  28.908  28.566  1.00  0.00     0.029 A 
ATOM     17  N   UNL A   1      40.356  30.195  29.130  1.00  0.00    -0.354 N 
ATOM     18  C   UNL A   1      44.401  28.899  28.185  1.00  0.00     0.074 A 
ATOM     19  C   UNL A   1      44.417  27.544  27.685  1.00  0.00     0.031 C 
ATOM     20  C   UNL A   1      38.127  30.003  29.161  1.00  0.00     0.029 A 
ATOM     21  C   UNL A   1      39.233  30.854  29.582  1.00  0.00     0.049 A 
ATOM     22  H   UNL A   1      41.263  30.573  29.187  1.00  0.00     0.167 HD
ATOM     23  C   UNL A   1      45.492  29.686  28.304  1.00  0.00     0.037 A 
ATOM     24  C   UNL A   1      39.121  32.006  30.272  1.00  0.00     0.037 A 
ATOM     25  C   UNL A   1      45.453  31.025  28.825  1.00  0.00     0.049 A 
ATOM     26  C   UNL A   1      40.376  32.800  30.529  1.00  0.00     0.074 A 
ATOM     27  C   UNL A   1      46.494  31.924  28.962  1.00  0.00     0.029 A 
ATOM     28  N   UNL A   1      44.314  31.644  29.321  1.00  0.00    -0.354 N 
ATOM     29  N   UNL A   1      41.606  32.527  30.159  1.00  0.00    -0.248 NA
ATOM     30  C   UNL A   1      40.234  34.063  31.265  1.00  0.00     0.031 C 
ATOM     31  C   UNL A   1      45.997  33.063  29.602  1.00  0.00     0.029 A 
ATOM     32  C   UNL A   1      44.636  32.895  29.816  1.00  0.00     0.049 A 
ATOM     33  H   UNL A   1      43.412  31.252  29.319  1.00  0.00     0.167 HD
ATOM     34  C   UNL A   1      42.378  33.599  30.586  1.00  0.00     0.074 A 
ATOM     35  C   UNL A   1      41.475  34.530  31.234  1.00  0.00     0.031 C 
ATOM     36  C   UNL A   1      43.712  33.801  30.450  1.00  0.00     0.037 A 
BRANCH  23  37
ATOM     37  C   UNL A   1      46.810  29.109  27.890  1.00  0.00     0.058 A 
ATOM     38  C   UNL A   1      47.665  28.489  28.815  1.00  0.00     0.135 A 
ATOM     39  C   UNL A   1      47.209  29.149  26.546  1.00  0.00     0.135 A 
ATOM     40  F   UNL A   1      47.342  28.454  30.118  1.00  0.00    -0.206 F 
ATOM     41  C   UNL A   1      48.872  27.924  28.419  1.00  0.00     0.059 A 
ATOM     42  C   UNL A   1      48.405  28.575  26.125  1.00  0.00     0.059 A 
ATOM     43  F   UNL A   1      46.435  29.750  25.630  1.00  0.00    -0.206 F 
ATOM     44  C   UNL A   1      49.231  27.968  27.070  1.00  0.00     0.060 A 
BRANCH  44  45
ATOM     45  S   UNL A   1      50.784  27.199  26.568  1.00  0.00     0.124 S 
ATOM     46  O   UNL A   1      51.332  28.211  25.670  1.00  0.00    -0.237 OA
ATOM     47  O   UNL A   1      51.477  27.040  27.843  1.00  0.00    -0.237 OA
ATOM     48  O   UNL A   1      50.358  25.958  25.929  1.00  0.00    -0.744 OA
ENDBRANCH  44  45
ENDBRANCH  23  37
BRANCH  24  49
ATOM     49  C   UNL A   1      37.801  32.472  30.784  1.00  0.00     0.058 A 
ATOM     50  C   UNL A   1      36.975  33.317  30.030  1.00  0.00     0.135 A 
ATOM     51  C   UNL A   1      37.366  32.124  32.075  1.00  0.00     0.135 A 
ATOM     52  F   UNL A   1      37.342  33.682  28.792  1.00  0.00    -0.206 F 
ATOM     53  C   UNL A   1      35.791  33.839  30.549  1.00  0.00     0.059 A 
ATOM     54  C   UNL A   1      36.175  32.611  32.607  1.00  0.00     0.059 A 
ATOM     55  F   UNL A   1      38.111  31.309  32.838  1.00  0.00    -0.206 F 
ATOM     56  C   UNL A   1      35.405  33.487  31.844  1.00  0.00     0.060 A 
BRANCH  56  57
ATOM     57  S   UNL A   1      33.883  34.194  32.515  1.00  0.00     0.124 S 
ATOM     58  O   UNL A   1      34.403  35.275  33.345  1.00  0.00    -0.237 OA
ATOM     59  O   UNL A   1      33.177  34.603  31.305  1.00  0.00    -0.237 OA
ATOM     60  O   UNL A   1      33.282  33.078  33.238  1.00  0.00    -0.744 OA
ENDBRANCH  56  57
ENDBRANCH  24  49
BRANCH  36  61
ATOM     61  C   UNL A   1      44.274  35.078  31.000  1.00  0.00     0.058 A 
ATOM     62  C   UNL A   1      44.278  36.259  30.243  1.00  0.00     0.135 A 
ATOM     63  C   UNL A   1      44.730  35.142  32.328  1.00  0.00     0.135 A 
ATOM     64  F   UNL A   1      43.862  36.245  28.966  1.00  0.00    -0.206 F 
ATOM     65  C   UNL A   1      44.722  37.461  30.781  1.00  0.00     0.059 A 
ATOM     66  C   UNL A   1      45.150  36.339  32.894  1.00  0.00     0.059 A 
ATOM     67  F   UNL A   1      44.736  34.039  33.094  1.00  0.00    -0.206 F 
ATOM     68  C   UNL A   1      45.146  37.492  32.111  1.00  0.00     0.060 A 
BRANCH  68  69
ATOM     69  S   UNL A   1      45.649  39.075  32.815  1.00  0.00     0.124 S 
ATOM     70  O   UNL A   1      45.424  38.849  34.238  1.00  0.00    -0.237 OA
ATOM     71  O   UNL A   1      47.044  39.173  32.400  1.00  0.00    -0.237 OA
ATOM     72  O   UNL A   1      44.743  40.031  32.180  1.00  0.00    -0.744 OA
ENDBRANCH  68  69
ENDBRANCH  36  61
ENDBRANCH  10  11
ENDBRANCH   3   5
ENDBRANCH   2   3
ENDBRANCH   1   2
BRANCH   1  73
ATOM     73  C   UNL A   1      41.503  20.162  26.130  1.00  0.00     0.274 C 
BRANCH  73  74
ATOM     74  O   UNL A   1      42.669  20.532  25.379  1.00  0.00    -0.459 OA
BRANCH  74  75
ATOM     75  C   UNL A   1      43.651  19.585  25.316  1.00  0.00     0.351 C 
ATOM     76  O   UNL A   1      43.471  18.394  25.559  1.00  0.00    -0.248 OA
BRANCH  75  77
ATOM     77  C   UNL A   1      44.977  20.147  24.815  1.00  0.00     0.339 C 
ATOM     78  F   UNL A   1      45.963  19.994  25.754  1.00  0.00    -0.222 F 
BRANCH  77  79
ATOM     79  S   UNL A   1      44.892  21.893  24.367  1.00  0.00    -0.059 SA
BRANCH  79  80
ATOM     80  C   UNL A   1      45.254  22.703  25.844  1.00  0.00     0.077 A 
ATOM     81  C   UNL A   1      46.299  23.524  26.189  1.00  0.00     0.043 A 
ATOM     82  N   UNL A   1      44.438  22.563  26.927  1.00  0.00    -0.350 N 
ATOM     83  C   UNL A   1      46.035  24.001  27.504  1.00  0.00     0.001 A 
ATOM     84  C   UNL A   1      44.842  23.413  27.926  1.00  0.00     0.046 A 
ATOM     85  H   UNL A   1      43.674  21.946  26.984  1.00  0.00     0.167 HD
ATOM     86  C   UNL A   1      46.689  24.891  28.374  1.00  0.00     0.010 A 
ATOM     87  C   UNL A   1      44.246  23.689  29.157  1.00  0.00     0.027 A 
ATOM     88  C   UNL A   1      46.109  25.178  29.616  1.00  0.00     0.001 A 
ATOM     89  C   UNL A   1      44.902  24.591  29.995  1.00  0.00     0.002 A 
ENDBRANCH  79  80
ENDBRANCH  77  79
ENDBRANCH  75  77
ENDBRANCH  74  75
ENDBRANCH  73  74
ENDBRANCH   1  73
TORSDOF 16
ENDMDL
MODEL 2
REMARK VINA RESULT:      -9.7      3.037     11.902
REMARK SMILES O=C(OCCOC(=O)[C@H](F)Sc1cc2ccccc2[nH]1)c1ccc(-c2c3nc(c(-c4c(F)cc(S(=O)(=O)[O-])cc4F)c4ccc([nH]4)c(-c4c(F)cc(S(=O)(=O)[O-])cc4F)c4nc(c(-c5c(F)cc(S(=O)(=O)[O-])cc5F)c5ccc2[nH]5)C=C4)C=C3)cc1
REMARK SMILES IDX 4 1 3 2 2 3 1 4 21 5 22 6 86 7 23 8 85 9 24 10 25 11 26 12
REMARK SMILES IDX 79 13 27 14 84 15 78 16 80 17 28 18 83 19 77 20 76 21 29 23
REMARK SMILES IDX 63 24 42 25 62 26 43 27 46 28 61 29 81 30 44 31 45 32 60 34
REMARK SMILES IDX 82 35 47 36 30 37 31 38 40 39 32 40 33 41 39 42 41 43 34 44
REMARK SMILES IDX 35 45 36 46 37 47 38 48 64 49 65 50 74 51 66 52 67 53 73 54
REMARK SMILES IDX 75 55 68 56 69 57 70 58 71 59 72 60 48 61 49 62 58 63 50 64
REMARK SMILES IDX 51 65 57 66 59 67 52 68 53 69 54 70 55 71 56 72 5 73 6 74
REMARK SMILES IDX 7 75 8 76 9 77 10 78 11 79 12 80 13 81 20 82 14 83 19 84
REMARK SMILES IDX 15 86 18 87 16 88 17 89
REMARK H PARENT 80 22 46 33 20 85
REMARK Flexibility Score: inf
ROOT
ATOM      1  C   UNL A   1      36.272  33.144  31.542  1.00  0.00     0.275 C 
ENDROOT
BRANCH   1   2
ATOM      2  O   UNL A   1      36.238  31.962  30.719  1.00  0.00    -0.458 OA
BRANCH   2   3
ATOM      3  C   UNL A   1      36.733  30.723  30.966  1.00  0.00     0.338 C 
ATOM      4  O   UNL A   1      36.199  30.043  31.842  1.00  0.00    -0.246 OA
BRANCH   3   5
ATOM      5  C   UNL A   1      38.016  30.218  30.378  1.00  0.00     0.060 A 
ATOM      6  C   UNL A   1      38.285  30.053  29.017  1.00  0.00     0.016 A 
ATOM      7  C   UNL A   1      39.050  29.930  31.292  1.00  0.00     0.016 A 
ATOM      8  C   UNL A   1      39.568  29.728  28.570  1.00  0.00     0.010 A 
ATOM      9  C   UNL A   1      40.333  29.594  30.851  1.00  0.00     0.010 A 
ATOM     10  C   UNL A   1      40.602  29.509  29.480  1.00  0.00    -0.014 A 
BRANCH  10  11
ATOM     11  C   UNL A   1      41.924  29.061  28.995  1.00  0.00     0.031 A 
ATOM     12  C   UNL A   1      42.997  30.090  28.819  1.00  0.00     0.074 A 
ATOM     13  C   UNL A   1      42.166  27.761  28.743  1.00  0.00     0.049 A 
ATOM     14  N   UNL A   1      44.228  29.928  28.417  1.00  0.00    -0.248 NA
ATOM     15  C   UNL A   1      42.653  31.476  29.178  1.00  0.00     0.031 C 
ATOM     16  C   UNL A   1      41.222  26.673  28.983  1.00  0.00     0.029 A 
ATOM     17  N   UNL A   1      43.259  27.129  28.209  1.00  0.00    -0.354 N 
ATOM     18  C   UNL A   1      44.814  31.182  28.505  1.00  0.00     0.074 A 
ATOM     19  C   UNL A   1      43.798  32.105  28.956  1.00  0.00     0.031 C 
ATOM     20  C   UNL A   1      41.727  25.525  28.502  1.00  0.00     0.029 A 
ATOM     21  C   UNL A   1      43.049  25.792  27.948  1.00  0.00     0.049 A 
ATOM     22  H   UNL A   1      44.112  27.586  28.030  1.00  0.00     0.167 HD
ATOM     23  C   UNL A   1      46.097  31.518  28.250  1.00  0.00     0.037 A 
ATOM     24  C   UNL A   1      43.833  24.896  27.318  1.00  0.00     0.037 A 
ATOM     25  C   UNL A   1      47.084  30.585  27.781  1.00  0.00     0.049 A 
ATOM     26  C   UNL A   1      45.214  25.336  26.903  1.00  0.00     0.074 A 
ATOM     27  C   UNL A   1      48.423  30.810  27.519  1.00  0.00     0.029 A 
ATOM     28  N   UNL A   1      46.830  29.255  27.478  1.00  0.00    -0.354 N 
ATOM     29  N   UNL A   1      45.787  26.504  27.078  1.00  0.00    -0.248 NA
ATOM     30  C   UNL A   1      46.064  24.341  26.235  1.00  0.00     0.031 C 
ATOM     31  C   UNL A   1      48.963  29.632  26.995  1.00  0.00     0.029 A 
ATOM     32  C   UNL A   1      47.974  28.659  26.979  1.00  0.00     0.049 A 
ATOM     33  H   UNL A   1      45.965  28.803  27.602  1.00  0.00     0.167 HD
ATOM     34  C   UNL A   1      47.074  26.374  26.574  1.00  0.00     0.074 A 
ATOM     35  C   UNL A   1      47.200  25.012  26.096  1.00  0.00     0.031 C 
ATOM     36  C   UNL A   1      48.068  27.296  26.517  1.00  0.00     0.037 A 
BRANCH  23  37
ATOM     37  C   UNL A   1      46.491  32.950  28.446  1.00  0.00     0.058 A 
ATOM     38  C   UNL A   1      46.404  33.886  27.404  1.00  0.00     0.135 A 
ATOM     39  C   UNL A   1      46.927  33.398  29.702  1.00  0.00     0.135 A 
ATOM     40  F   UNL A   1      46.022  33.499  26.176  1.00  0.00    -0.206 F 
ATOM     41  C   UNL A   1      46.739  35.221  27.601  1.00  0.00     0.059 A 
ATOM     42  C   UNL A   1      47.249  34.732  29.926  1.00  0.00     0.059 A 
ATOM     43  F   UNL A   1      47.045  32.534  30.722  1.00  0.00    -0.206 F 
ATOM     44  C   UNL A   1      47.155  35.635  28.868  1.00  0.00     0.060 A 
BRANCH  44  45
ATOM     45  S   UNL A   1      47.549  37.379  29.117  1.00  0.00     0.124 S 
ATOM     46  O   UNL A   1      47.708  37.840  27.741  1.00  0.00    -0.237 OA
ATOM     47  O   UNL A   1      46.365  37.867  29.816  1.00  0.00    -0.237 OA
ATOM     48  O   UNL A   1      48.773  37.342  29.911  1.00  0.00    -0.744 OA
ENDBRANCH  44  45
ENDBRANCH  23  37
BRANCH  24  49
ATOM     49  C   UNL A   1      43.345  23.519  27.021  1.00  0.00     0.058 A 
ATOM     50  C   UNL A   1      43.259  22.538  28.018  1.00  0.00     0.135 A 
ATOM     51  C   UNL A   1      43.012  23.141  25.709  1.00  0.00     0.135 A 
ATOM     52  F   UNL A   1      43.567  22.843  29.288  1.00  0.00    -0.206 F 
ATOM     53  C   UNL A   1      42.905  21.222  27.723  1.00  0.00     0.059 A 
ATOM     54  C   UNL A   1      42.630  21.840  25.392  1.00  0.00     0.059 A 
ATOM     55  F   UNL A   1      43.066  24.042  24.716  1.00  0.00    -0.206 F 
ATOM     56  C   UNL A   1      42.602  20.882  26.403  1.00  0.00     0.060 A 
BRANCH  56  57
ATOM     57  S   UNL A   1      42.174  19.166  26.030  1.00  0.00     0.124 S 
ATOM     58  O   UNL A   1      43.004  18.904  24.860  1.00  0.00    -0.237 OA
ATOM     59  O   UNL A   1      42.566  18.479  27.257  1.00  0.00    -0.237 OA
ATOM     60  O   UNL A   1      40.736  19.222  25.782  1.00  0.00    -0.744 OA
ENDBRANCH  56  57
ENDBRANCH  24  49
BRANCH  36  61
ATOM     61  C   UNL A   1      49.377  26.861  25.929  1.00  0.00     0.058 A 
ATOM     62  C   UNL A   1      49.686  27.100  24.582  1.00  0.00     0.135 A 
ATOM     63  C   UNL A   1      50.364  26.280  26.742  1.00  0.00     0.135 A 
ATOM     64  F   UNL A   1      48.770  27.643  23.764  1.00  0.00    -0.206 F 
ATOM     65  C   UNL A   1      50.930  26.772  24.057  1.00  0.00     0.059 A 
ATOM     66  C   UNL A   1      51.625  25.972  26.245  1.00  0.00     0.059 A 
ATOM     67  F   UNL A   1      50.117  26.040  28.040  1.00  0.00    -0.206 F 
ATOM     68  C   UNL A   1      51.896  26.218  24.900  1.00  0.00     0.060 A 
BRANCH  68  69
ATOM     69  S   UNL A   1      53.530  25.867  24.220  1.00  0.00     0.124 S 
ATOM     70  O   UNL A   1      53.276  25.948  22.786  1.00  0.00    -0.237 OA
ATOM     71  O   UNL A   1      54.341  26.939  24.785  1.00  0.00    -0.237 OA
ATOM     72  O   UNL A   1      53.828  24.529  24.730  1.00  0.00    -0.744 OA
ENDBRANCH  68  69
ENDBRANCH  36  61
ENDBRANCH  10  11
ENDBRANCH   3   5
ENDBRANCH   2   3
ENDBRANCH   1   2
BRANCH   1  73
ATOM     73  C   UNL A   1      34.893  33.729  31.867  1.00  0.00     0.274 C 
BRANCH  73  74
ATOM     74  O   UNL A   1      34.048  33.798  30.708  1.00  0.00    -0.459 OA
BRANCH  74  75
ATOM     75  C   UNL A   1      33.285  34.926  30.605  1.00  0.00     0.351 C 
ATOM     76  O   UNL A   1      32.566  35.353  31.506  1.00  0.00    -0.248 OA
BRANCH  75  77
ATOM     77  C   UNL A   1      33.496  35.658  29.283  1.00  0.00     0.339 C 
ATOM     78  F   UNL A   1      32.332  35.716  28.562  1.00  0.00    -0.222 F 
BRANCH  77  79
ATOM     79  S   UNL A   1      34.765  34.907  28.243  1.00  0.00    -0.059 SA
BRANCH  79  80
ATOM     80  C   UNL A   1      34.164  33.316  27.964  1.00  0.00     0.077 A 
ATOM     81  C   UNL A   1      32.939  32.879  27.524  1.00  0.00     0.043 A 
ATOM     82  N   UNL A   1      34.951  32.228  28.201  1.00  0.00    -0.350 N 
ATOM     83  C   UNL A   1      33.033  31.467  27.371  1.00  0.00     0.001 A 
ATOM     84  C   UNL A   1      34.318  31.092  27.766  1.00  0.00     0.046 A 
ATOM     85  H   UNL A   1      35.841  32.254  28.622  1.00  0.00     0.167 HD
ATOM     86  C   UNL A   1      32.151  30.469  26.920  1.00  0.00     0.010 A 
ATOM     87  C   UNL A   1      34.784  29.779  27.703  1.00  0.00     0.027 A 
ATOM     88  C   UNL A   1      32.599  29.144  26.855  1.00  0.00     0.001 A 
ATOM     89  C   UNL A   1      33.899  28.809  27.233  1.00  0.00     0.002 A 
ENDBRANCH  79  80
ENDBRANCH  77  79
ENDBRANCH  75  77
ENDBRANCH  74  75
ENDBRANCH  73  74
ENDBRANCH   1  73
TORSDOF 16
ENDMDL
MODEL 3
REMARK VINA RESULT:      -9.6      5.686     10.447
REMARK SMILES O=C(OCCOC(=O)[C@H](F)Sc1cc2ccccc2[nH]1)c1ccc(-c2c3nc(c(-c4c(F)cc(S(=O)(=O)[O-])cc4F)c4ccc([nH]4)c(-c4c(F)cc(S(=O)(=O)[O-])cc4F)c4nc(c(-c5c(F)cc(S(=O)(=O)[O-])cc5F)c5ccc2[nH]5)C=C4)C=C3)cc1
REMARK SMILES IDX 4 1 3 2 2 3 1 4 21 5 22 6 86 7 23 8 85 9 24 10 25 11 26 12
REMARK SMILES IDX 79 13 27 14 84 15 78 16 80 17 28 18 83 19 77 20 76 21 29 23
REMARK SMILES IDX 63 24 42 25 62 26 43 27 46 28 61 29 81 30 44 31 45 32 60 34
REMARK SMILES IDX 82 35 47 36 30 37 31 38 40 39 32 40 33 41 39 42 41 43 34 44
REMARK SMILES IDX 35 45 36 46 37 47 38 48 64 49 65 50 74 51 66 52 67 53 73 54
REMARK SMILES IDX 75 55 68 56 69 57 70 58 71 59 72 60 48 61 49 62 58 63 50 64
REMARK SMILES IDX 51 65 57 66 59 67 52 68 53 69 54 70 55 71 56 72 5 73 6 74
REMARK SMILES IDX 7 75 8 76 9 77 10 78 11 79 12 80 13 81 20 82 14 83 19 84
REMARK SMILES IDX 15 86 18 87 16 88 17 89
REMARK H PARENT 80 22 46 33 20 85
REMARK Flexibility Score: inf
ROOT
ATOM      1  C   UNL A   1      41.771  23.186  27.294  1.00  0.00     0.275 C 
ENDROOT
BRANCH   1   2
ATOM      2  O   UNL A   1      41.897  24.100  26.187  1.00  0.00    -0.458 OA
BRANCH   2   3
ATOM      3  C   UNL A   1      41.558  25.412  26.107  1.00  0.00     0.338 C 
ATOM      4  O   UNL A   1      41.662  25.977  25.019  1.00  0.00    -0.246 OA
BRANCH   3   5
ATOM      5  C   UNL A   1      41.262  26.258  27.308  1.00  0.00     0.060 A 
ATOM      6  C   UNL A   1      40.177  26.102  28.173  1.00  0.00     0.016 A 
ATOM      7  C   UNL A   1      42.196  27.273  27.601  1.00  0.00     0.016 A 
ATOM      8  C   UNL A   1      40.083  26.845  29.353  1.00  0.00     0.010 A 
ATOM      9  C   UNL A   1      42.101  28.027  28.774  1.00  0.00     0.010 A 
ATOM     10  C   UNL A   1      41.048  27.801  29.667  1.00  0.00    -0.014 A 
BRANCH  10  11
ATOM     11  C   UNL A   1      40.875  28.652  30.864  1.00  0.00     0.031 A 
ATOM     12  C   UNL A   1      39.860  29.751  30.809  1.00  0.00     0.074 A 
ATOM     13  C   UNL A   1      41.591  28.429  31.982  1.00  0.00     0.049 A 
ATOM     14  N   UNL A   1      39.533  30.610  31.734  1.00  0.00    -0.248 NA
ATOM     15  C   UNL A   1      39.086  29.877  29.562  1.00  0.00     0.031 C 
ATOM     16  C   UNL A   1      42.525  27.323  32.170  1.00  0.00     0.029 A 
ATOM     17  N   UNL A   1      41.673  29.125  33.161  1.00  0.00    -0.354 N 
ATOM     18  C   UNL A   1      38.495  31.357  31.197  1.00  0.00     0.074 A 
ATOM     19  C   UNL A   1      38.272  30.882  29.850  1.00  0.00     0.031 C 
ATOM     20  C   UNL A   1      43.166  27.469  33.342  1.00  0.00     0.029 A 
ATOM     21  C   UNL A   1      42.662  28.666  34.003  1.00  0.00     0.049 A 
ATOM     22  H   UNL A   1      41.082  29.880  33.383  1.00  0.00     0.167 HD
ATOM     23  C   UNL A   1      37.782  32.336  31.793  1.00  0.00     0.037 A 
ATOM     24  C   UNL A   1      43.114  29.170  35.168  1.00  0.00     0.037 A 
ATOM     25  C   UNL A   1      38.037  32.805  33.127  1.00  0.00     0.049 A 
ATOM     26  C   UNL A   1      42.397  30.363  35.746  1.00  0.00     0.074 A 
ATOM     27  C   UNL A   1      37.356  33.772  33.843  1.00  0.00     0.029 A 
ATOM     28  N   UNL A   1      39.074  32.358  33.935  1.00  0.00    -0.354 N 
ATOM     29  N   UNL A   1      41.354  31.001  35.267  1.00  0.00    -0.248 NA
ATOM     30  C   UNL A   1      42.890  30.889  37.026  1.00  0.00     0.031 C 
ATOM     31  C   UNL A   1      38.022  33.956  35.058  1.00  0.00     0.029 A 
ATOM     32  C   UNL A   1      39.086  33.068  35.121  1.00  0.00     0.049 A 
ATOM     33  H   UNL A   1      39.705  31.641  33.698  1.00  0.00     0.167 HD
ATOM     34  C   UNL A   1      41.045  31.980  36.203  1.00  0.00     0.074 A 
ATOM     35  C   UNL A   1      42.005  31.844  37.280  1.00  0.00     0.031 C 
ATOM     36  C   UNL A   1      40.053  32.904  36.178  1.00  0.00     0.037 A 
BRANCH  23  37
ATOM     37  C   UNL A   1      36.685  32.976  31.000  1.00  0.00     0.058 A 
ATOM     38  C   UNL A   1      35.334  32.681  31.241  1.00  0.00     0.135 A 
ATOM     39  C   UNL A   1      36.987  33.921  30.008  1.00  0.00     0.135 A 
ATOM     40  F   UNL A   1      34.995  31.760  32.157  1.00  0.00    -0.206 F 
ATOM     41  C   UNL A   1      34.318  33.304  30.524  1.00  0.00     0.059 A 
ATOM     42  C   UNL A   1      35.987  34.570  29.292  1.00  0.00     0.059 A 
ATOM     43  F   UNL A   1      38.266  34.220  29.728  1.00  0.00    -0.206 F 
ATOM     44  C   UNL A   1      34.655  34.251  29.555  1.00  0.00     0.060 A 
BRANCH  44  45
ATOM     45  S   UNL A   1      33.324  35.078  28.660  1.00  0.00     0.124 S 
ATOM     46  O   UNL A   1      32.748  33.969  27.907  1.00  0.00    -0.237 OA
ATOM     47  O   UNL A   1      32.500  35.601  29.746  1.00  0.00    -0.237 OA
ATOM     48  O   UNL A   1      34.020  36.083  27.864  1.00  0.00    -0.744 OA
ENDBRANCH  44  45
ENDBRANCH  23  37
BRANCH  24  49
ATOM     49  C   UNL A   1      44.300  28.582  35.854  1.00  0.00     0.058 A 
ATOM     50  C   UNL A   1      45.604  29.005  35.563  1.00  0.00     0.135 A 
ATOM     51  C   UNL A   1      44.150  27.533  36.778  1.00  0.00     0.135 A 
ATOM     52  F   UNL A   1      45.805  30.001  34.686  1.00  0.00    -0.206 F 
ATOM     53  C   UNL A   1      46.718  28.384  36.124  1.00  0.00     0.059 A 
ATOM     54  C   UNL A   1      45.246  26.913  37.372  1.00  0.00     0.059 A 
ATOM     55  F   UNL A   1      42.924  27.095  37.104  1.00  0.00    -0.206 F 
ATOM     56  C   UNL A   1      46.528  27.330  37.020  1.00  0.00     0.060 A 
BRANCH  56  57
ATOM     57  S   UNL A   1      47.982  26.514  37.717  1.00  0.00     0.124 S 
ATOM     58  O   UNL A   1      49.059  27.370  37.232  1.00  0.00    -0.237 OA
ATOM     59  O   UNL A   1      47.712  26.580  39.150  1.00  0.00    -0.237 OA
ATOM     60  O   UNL A   1      47.931  25.177  37.136  1.00  0.00    -0.744 OA
ENDBRANCH  56  57
ENDBRANCH  24  49
BRANCH  36  61
ATOM     61  C   UNL A   1      39.948  33.831  37.352  1.00  0.00     0.058 A 
ATOM     62  C   UNL A   1      40.569  35.089  37.345  1.00  0.00     0.135 A 
ATOM     63  C   UNL A   1      39.146  33.495  38.456  1.00  0.00     0.135 A 
ATOM     64  F   UNL A   1      41.354  35.450  36.318  1.00  0.00    -0.206 F 
ATOM     65  C   UNL A   1      40.404  35.982  38.397  1.00  0.00     0.059 A 
ATOM     66  C   UNL A   1      38.944  34.385  39.503  1.00  0.00     0.059 A 
ATOM     67  F   UNL A   1      38.524  32.306  38.502  1.00  0.00    -0.206 F 
ATOM     68  C   UNL A   1      39.580  35.624  39.467  1.00  0.00     0.060 A 
BRANCH  68  69
ATOM     69  S   UNL A   1      39.318  36.824  40.788  1.00  0.00     0.124 S 
ATOM     70  O   UNL A   1      40.688  37.187  41.133  1.00  0.00    -0.237 OA
ATOM     71  O   UNL A   1      38.535  37.857  40.121  1.00  0.00    -0.237 OA
ATOM     72  O   UNL A   1      38.597  36.057  41.804  1.00  0.00    -0.744 OA
ENDBRANCH  68  69
ENDBRANCH  36  61
ENDBRANCH  10  11
ENDBRANCH   3   5
ENDBRANCH   2   3
ENDBRANCH   1   2
BRANCH   1  73
ATOM     73  C   UNL A   1      40.387  22.539  27.427  1.00  0.00     0.274 C 
BRANCH  73  74
ATOM     74  O   UNL A   1      39.731  22.402  26.158  1.00  0.00    -0.459 OA
BRANCH  74  75
ATOM     75  C   UNL A   1      38.458  22.894  26.100  1.00  0.00     0.351 C 
ATOM     76  O   UNL A   1      38.158  24.053  26.378  1.00  0.00    -0.248 OA
BRANCH  75  77
ATOM     77  C   UNL A   1      37.459  21.877  25.559  1.00  0.00     0.339 C 
ATOM     78  F   UNL A   1      37.581  21.741  24.202  1.00  0.00    -0.222 F 
BRANCH  77  79
ATOM     79  S   UNL A   1      35.742  22.290  25.930  1.00  0.00    -0.059 SA
BRANCH  79  80
ATOM     80  C   UNL A   1      34.855  20.999  25.214  1.00  0.00     0.077 A 
ATOM     81  C   UNL A   1      33.650  20.989  24.556  1.00  0.00     0.043 A 
ATOM     82  N   UNL A   1      35.332  19.722  25.262  1.00  0.00    -0.350 N 
ATOM     83  C   UNL A   1      33.450  19.664  24.077  1.00  0.00     0.001 A 
ATOM     84  C   UNL A   1      34.539  18.901  24.501  1.00  0.00     0.046 A 
ATOM     85  H   UNL A   1      36.126  19.433  25.767  1.00  0.00     0.167 HD
ATOM     86  C   UNL A   1      32.452  19.039  23.308  1.00  0.00     0.010 A 
ATOM     87  C   UNL A   1      34.705  17.555  24.172  1.00  0.00     0.027 A 
ATOM     88  C   UNL A   1      32.599  17.687  22.971  1.00  0.00     0.001 A 
ATOM     89  C   UNL A   1      33.713  16.962  23.391  1.00  0.00     0.002 A 
ENDBRANCH  79  80
ENDBRANCH  77  79
ENDBRANCH  75  77
ENDBRANCH  74  75
ENDBRANCH  73  74
ENDBRANCH   1  73
TORSDOF 16
ENDMDL
