MODEL 1
REMARK VINA RESULT:     -12.3      0.000      0.000
REMARK SMILES CC(C)c1ccc(-c2cnc([C@@H]3[NH2+][C@H](C(=O)OCCOC(=O)c4ccc(-c5c6nc(c(-c7c(F)cc(S(=O)(=O)[O-])cc7F)c7ccc([nH]7)c(-c7c(F)cc(S(=O)(=O)[O-])cc7F)c7nc(c(-c8c(F)cc(S(=O)(=O)[O-])cc8F)c8ccc5[nH]8)C=C7)C=C6)cc4)C(C)(C)S3)s2)cc1
REMARK SMILES IDX 18 1 17 2 15 3 16 4 14 5 12 6 13 7 92 8 89 11 90 12 91 13
REMARK SMILES IDX 11 14 8 15 9 16 93 17 10 18 7 19 4 20 5 21 95 22 6 23 94 24
REMARK SMILES IDX 2 25 1 26 3 27 19 28 20 29 21 30 22 31 23 32 24 33 88 34
REMARK SMILES IDX 25 35 87 36 26 37 27 38 28 39 81 40 29 41 86 42 80 43 82 44
REMARK SMILES IDX 30 45 85 46 79 47 78 48 31 50 65 51 44 52 64 53 45 54 48 55
REMARK SMILES IDX 63 56 83 57 46 58 47 59 62 61 84 62 49 63 32 64 33 65 42 66
REMARK SMILES IDX 34 67 35 68 41 69 43 70 36 71 37 72 38 73 39 74 40 75 66 76
REMARK SMILES IDX 67 77 76 78 68 79 69 80 75 81 77 82 70 83 71 84 72 85 73 86
REMARK SMILES IDX 74 87 50 88 51 89 60 90 52 91 53 92 59 93 61 94 54 95 55 96
REMARK SMILES IDX 56 97 57 98 58 99
REMARK H PARENT 13 9 13 10 82 49 48 60
REMARK Flexibility Score: inf
ROOT
ATOM      1  C   UNL A   1      31.849  28.142  27.579  1.00  0.00     0.274 C 
ENDROOT
BRANCH   1   2
ATOM      2  O   UNL A   1      32.229  27.074  26.690  1.00  0.00    -0.458 OA
BRANCH   2   3
ATOM      3  C   UNL A   1      31.253  26.708  25.821  1.00  0.00     0.366 C 
ATOM      4  O   UNL A   1      30.635  25.647  25.913  1.00  0.00    -0.245 OA
BRANCH   3   5
ATOM      5  C   UNL A   1      31.004  27.701  24.656  1.00  0.00     0.310 C 
ATOM      6  C   UNL A   1      32.569  27.112  22.913  1.00  0.00     0.304 C 
ATOM      7  N   UNL A   1      32.315  28.068  24.010  1.00  0.00    -0.317 N 
ATOM      8  S   UNL A   1      30.943  26.895  22.108  1.00  0.00    -0.079 SA
ATOM      9  H   UNL A   1      32.264  29.016  23.638  1.00  0.00     0.348 HD
ATOM     10  H   UNL A   1      33.070  28.028  24.695  1.00  0.00     0.348 HD
ATOM     11  C   UNL A   1      29.952  27.466  23.540  1.00  0.00     0.079 C 
ATOM     12  C   UNL A   1      29.322  28.804  23.086  1.00  0.00     0.030 C 
ATOM     13  C   UNL A   1      28.781  26.533  23.868  1.00  0.00     0.030 C 
BRANCH   6  14
ATOM     14  C   UNL A   1      33.227  25.795  23.334  1.00  0.00     0.162 A 
ATOM     15  C   UNL A   1      33.703  23.413  23.787  1.00  0.00     0.055 A 
ATOM     16  C   UNL A   1      34.481  24.342  24.445  1.00  0.00     0.132 A 
ATOM     17  S   UNL A   1      32.722  24.279  22.655  1.00  0.00    -0.112 S 
ATOM     18  N   UNL A   1      34.200  25.674  24.214  1.00  0.00    -0.242 NA
BRANCH  15  19
ATOM     19  C   UNL A   1      33.642  21.951  24.019  1.00  0.00    -0.007 A 
ATOM     20  C   UNL A   1      33.639  19.116  24.494  1.00  0.00    -0.045 A 
ATOM     21  C   UNL A   1      32.535  19.774  23.931  1.00  0.00     0.004 A 
ATOM     22  C   UNL A   1      34.738  19.911  24.845  1.00  0.00     0.004 A 
ATOM     23  C   UNL A   1      32.535  21.164  23.695  1.00  0.00     0.010 A 
ATOM     24  C   UNL A   1      34.736  21.297  24.617  1.00  0.00     0.010 A 
BRANCH  20  25
ATOM     25  C   UNL A   1      33.717  17.597  24.662  1.00  0.00     0.013 C 
ATOM     26  C   UNL A   1      32.460  16.987  25.301  1.00  0.00     0.012 C 
ATOM     27  C   UNL A   1      34.041  16.811  23.384  1.00  0.00     0.012 C 
ENDBRANCH  20  25
ENDBRANCH  15  19
ENDBRANCH   6  14
ENDBRANCH   3   5
ENDBRANCH   2   3
ENDBRANCH   1   2
BRANCH   1  28
ATOM     28  C   UNL A   1      32.622  29.426  27.250  1.00  0.00     0.275 C 
BRANCH  28  29
ATOM     29  O   UNL A   1      33.999  29.307  27.661  1.00  0.00    -0.458 OA
BRANCH  29  30
ATOM     30  C   UNL A   1      34.641  30.445  28.017  1.00  0.00     0.338 C 
ATOM     31  O   UNL A   1      34.145  31.546  28.199  1.00  0.00    -0.246 OA
BRANCH  30  32
ATOM     32  C   UNL A   1      36.049  30.116  28.322  1.00  0.00     0.060 A 
ATOM     33  C   UNL A   1      36.932  30.107  27.249  1.00  0.00     0.016 A 
ATOM     34  C   UNL A   1      36.514  29.788  29.591  1.00  0.00     0.016 A 
ATOM     35  C   UNL A   1      38.287  29.831  27.420  1.00  0.00     0.010 A 
ATOM     36  C   UNL A   1      37.881  29.490  29.769  1.00  0.00     0.010 A 
ATOM     37  C   UNL A   1      38.780  29.518  28.685  1.00  0.00    -0.014 A 
BRANCH  37  38
ATOM     38  C   UNL A   1      40.212  29.146  28.836  1.00  0.00     0.031 A 
ATOM     39  C   UNL A   1      41.185  30.159  29.337  1.00  0.00     0.074 A 
ATOM     40  C   UNL A   1      40.643  27.885  28.646  1.00  0.00     0.049 A 
ATOM     41  N   UNL A   1      42.488  30.098  29.367  1.00  0.00    -0.248 NA
ATOM     42  C   UNL A   1      40.613  31.384  29.913  1.00  0.00     0.031 C 
ATOM     43  C   UNL A   1      39.767  26.756  28.406  1.00  0.00     0.029 A 
ATOM     44  N   UNL A   1      41.898  27.330  28.636  1.00  0.00    -0.354 N 
ATOM     45  C   UNL A   1      42.901  31.287  29.946  1.00  0.00     0.074 A 
ATOM     46  C   UNL A   1      41.707  32.043  30.263  1.00  0.00     0.031 C 
ATOM     47  C   UNL A   1      40.493  25.640  28.245  1.00  0.00     0.029 A 
ATOM     48  C   UNL A   1      41.903  25.997  28.284  1.00  0.00     0.049 A 
ATOM     49  H   UNL A   1      42.715  27.834  28.858  1.00  0.00     0.167 HD
ATOM     50  C   UNL A   1      44.168  31.707  30.169  1.00  0.00     0.037 A 
ATOM     51  C   UNL A   1      42.925  25.178  27.961  1.00  0.00     0.037 A 
ATOM     52  C   UNL A   1      45.340  30.945  29.820  1.00  0.00     0.049 A 
ATOM     53  C   UNL A   1      44.317  25.741  27.981  1.00  0.00     0.074 A 
ATOM     54  C   UNL A   1      46.668  31.317  29.908  1.00  0.00     0.029 A 
ATOM     55  N   UNL A   1      45.321  29.654  29.307  1.00  0.00    -0.354 N 
ATOM     56  N   UNL A   1      44.715  26.922  28.391  1.00  0.00    -0.248 NA
ATOM     57  C   UNL A   1      45.395  24.885  27.471  1.00  0.00     0.031 C 
ATOM     58  C   UNL A   1      47.449  30.275  29.396  1.00  0.00     0.029 A 
ATOM     59  C   UNL A   1      46.612  29.228  29.040  1.00  0.00     0.049 A 
ATOM     60  H   UNL A   1      44.508  29.120  29.155  1.00  0.00     0.167 HD
ATOM     61  C   UNL A   1      46.091  26.943  28.211  1.00  0.00     0.074 A 
ATOM     62  C   UNL A   1      46.459  25.655  27.658  1.00  0.00     0.031 C 
ATOM     63  C   UNL A   1      46.966  27.942  28.486  1.00  0.00     0.037 A 
BRANCH  50  64
ATOM     64  C   UNL A   1      44.325  33.097  30.709  1.00  0.00     0.058 A 
ATOM     65  C   UNL A   1      44.437  33.359  32.084  1.00  0.00     0.135 A 
ATOM     66  C   UNL A   1      44.297  34.192  29.831  1.00  0.00     0.135 A 
ATOM     67  F   UNL A   1      44.437  32.349  32.968  1.00  0.00    -0.206 F 
ATOM     68  C   UNL A   1      44.469  34.662  32.572  1.00  0.00     0.059 A 
ATOM     69  C   UNL A   1      44.355  35.501  30.294  1.00  0.00     0.059 A 
ATOM     70  F   UNL A   1      44.181  33.994  28.508  1.00  0.00    -0.206 F 
ATOM     71  C   UNL A   1      44.417  35.726  31.668  1.00  0.00     0.060 A 
BRANCH  71  72
ATOM     72  S   UNL A   1      44.398  37.412  32.313  1.00  0.00     0.124 S 
ATOM     73  O   UNL A   1      45.820  37.649  32.546  1.00  0.00    -0.237 OA
ATOM     74  O   UNL A   1      43.804  38.161  31.212  1.00  0.00    -0.237 OA
ATOM     75  O   UNL A   1      43.575  37.307  33.513  1.00  0.00    -0.744 OA
ENDBRANCH  71  72
ENDBRANCH  50  64
BRANCH  51  76
ATOM     76  C   UNL A   1      42.665  23.782  27.511  1.00  0.00     0.058 A 
ATOM     77  C   UNL A   1      42.527  22.733  28.433  1.00  0.00     0.135 A 
ATOM     78  C   UNL A   1      42.555  23.465  26.147  1.00  0.00     0.135 A 
ATOM     79  F   UNL A   1      42.649  22.976  29.747  1.00  0.00    -0.206 F 
ATOM     80  C   UNL A   1      42.283  21.426  28.021  1.00  0.00     0.059 A 
ATOM     81  C   UNL A   1      42.286  22.170  25.712  1.00  0.00     0.059 A 
ATOM     82  F   UNL A   1      42.696  24.422  25.218  1.00  0.00    -0.206 F 
ATOM     83  C   UNL A   1      42.156  21.155  26.657  1.00  0.00     0.060 A 
BRANCH  83  84
ATOM     84  S   UNL A   1      41.780  19.468  26.134  1.00  0.00     0.124 S 
ATOM     85  O   UNL A   1      40.351  19.553  25.859  1.00  0.00    -0.237 OA
ATOM     86  O   UNL A   1      42.647  19.308  24.971  1.00  0.00    -0.237 OA
ATOM     87  O   UNL A   1      42.152  18.667  27.298  1.00  0.00    -0.744 OA
ENDBRANCH  83  84
ENDBRANCH  51  76
BRANCH  63  88
ATOM     88  C   UNL A   1      48.420  27.674  28.223  1.00  0.00     0.058 A 
ATOM     89  C   UNL A   1      49.237  27.044  29.174  1.00  0.00     0.135 A 
ATOM     90  C   UNL A   1      48.985  27.992  26.977  1.00  0.00     0.135 A 
ATOM     91  F   UNL A   1      48.751  26.734  30.386  1.00  0.00    -0.206 F 
ATOM     92  C   UNL A   1      50.568  26.742  28.901  1.00  0.00     0.059 A 
ATOM     93  C   UNL A   1      50.305  27.677  26.673  1.00  0.00     0.059 A 
ATOM     94  F   UNL A   1      48.244  28.593  26.034  1.00  0.00    -0.206 F 
ATOM     95  C   UNL A   1      51.090  27.056  27.644  1.00  0.00     0.060 A 
BRANCH  95  96
ATOM     96  S   UNL A   1      52.799  26.600  27.279  1.00  0.00     0.124 S 
ATOM     97  O   UNL A   1      53.391  26.588  28.613  1.00  0.00    -0.237 OA
ATOM     98  O   UNL A   1      52.643  25.295  26.643  1.00  0.00    -0.237 OA
ATOM     99  O   UNL A   1      53.256  27.670  26.398  1.00  0.00    -0.744 OA
ENDBRANCH  95  96
ENDBRANCH  63  88
ENDBRANCH  37  38
ENDBRANCH  30  32
ENDBRANCH  29  30
ENDBRANCH  28  29
ENDBRANCH   1  28
TORSDOF 17
ENDMDL
MODEL 2
REMARK VINA RESULT:     -12.1      1.461      4.347
REMARK SMILES CC(C)c1ccc(-c2cnc([C@@H]3[NH2+][C@H](C(=O)OCCOC(=O)c4ccc(-c5c6nc(c(-c7c(F)cc(S(=O)(=O)[O-])cc7F)c7ccc([nH]7)c(-c7c(F)cc(S(=O)(=O)[O-])cc7F)c7nc(c(-c8c(F)cc(S(=O)(=O)[O-])cc8F)c8ccc5[nH]8)C=C7)C=C6)cc4)C(C)(C)S3)s2)cc1
REMARK SMILES IDX 18 1 17 2 15 3 16 4 14 5 12 6 13 7 92 8 89 11 90 12 91 13
REMARK SMILES IDX 11 14 8 15 9 16 93 17 10 18 7 19 4 20 5 21 95 22 6 23 94 24
REMARK SMILES IDX 2 25 1 26 3 27 19 28 20 29 21 30 22 31 23 32 24 33 88 34
REMARK SMILES IDX 25 35 87 36 26 37 27 38 28 39 81 40 29 41 86 42 80 43 82 44
REMARK SMILES IDX 30 45 85 46 79 47 78 48 31 50 65 51 44 52 64 53 45 54 48 55
REMARK SMILES IDX 63 56 83 57 46 58 47 59 62 61 84 62 49 63 32 64 33 65 42 66
REMARK SMILES IDX 34 67 35 68 41 69 43 70 36 71 37 72 38 73 39 74 40 75 66 76
REMARK SMILES IDX 67 77 76 78 68 79 69 80 75 81 77 82 70 83 71 84 72 85 73 86
REMARK SMILES IDX 74 87 50 88 51 89 60 90 52 91 53 92 59 93 61 94 54 95 55 96
REMARK SMILES IDX 56 97 57 98 58 99
REMARK H PARENT 13 9 13 10 82 49 48 60
REMARK Flexibility Score: inf
ROOT
ATOM      1  C   UNL A   1      32.971  27.057  26.165  1.00  0.00     0.274 C 
ENDROOT
BRANCH   1   2
ATOM      2  O   UNL A   1      33.695  25.842  26.440  1.00  0.00    -0.458 OA
BRANCH   2   3
ATOM      3  C   UNL A   1      34.072  25.162  25.327  1.00  0.00     0.366 C 
ATOM      4  O   UNL A   1      34.263  25.708  24.240  1.00  0.00    -0.245 OA
BRANCH   3   5
ATOM      5  C   UNL A   1      34.189  23.626  25.503  1.00  0.00     0.310 C 
ATOM      6  C   UNL A   1      31.942  22.807  25.843  1.00  0.00     0.304 C 
ATOM      7  N   UNL A   1      33.199  23.155  26.537  1.00  0.00    -0.317 N 
ATOM      8  S   UNL A   1      32.481  21.940  24.326  1.00  0.00    -0.079 SA
ATOM      9  H   UNL A   1      33.566  22.335  27.019  1.00  0.00     0.348 HD
ATOM     10  H   UNL A   1      33.030  23.889  27.225  1.00  0.00     0.348 HD
ATOM     11  C   UNL A   1      34.181  22.625  24.318  1.00  0.00     0.079 C 
ATOM     12  C   UNL A   1      35.103  21.418  24.610  1.00  0.00     0.030 C 
ATOM     13  C   UNL A   1      34.603  23.162  22.945  1.00  0.00     0.030 C 
BRANCH   6  14
ATOM     14  C   UNL A   1      30.996  23.981  25.576  1.00  0.00     0.162 A 
ATOM     15  C   UNL A   1      29.904  25.990  24.639  1.00  0.00     0.055 A 
ATOM     16  C   UNL A   1      29.565  25.638  25.929  1.00  0.00     0.132 A 
ATOM     17  S   UNL A   1      30.898  24.721  24.009  1.00  0.00    -0.112 S 
ATOM     18  N   UNL A   1      30.194  24.531  26.464  1.00  0.00    -0.242 NA
BRANCH  15  19
ATOM     19  C   UNL A   1      29.557  27.234  23.915  1.00  0.00    -0.007 A 
ATOM     20  C   UNL A   1      28.994  29.687  22.525  1.00  0.00    -0.045 A 
ATOM     21  C   UNL A   1      27.978  28.783  22.874  1.00  0.00     0.004 A 
ATOM     22  C   UNL A   1      30.306  29.325  22.858  1.00  0.00     0.004 A 
ATOM     23  C   UNL A   1      28.253  27.580  23.558  1.00  0.00     0.010 A 
ATOM     24  C   UNL A   1      30.579  28.123  23.532  1.00  0.00     0.010 A 
BRANCH  20  25
ATOM     25  C   UNL A   1      28.723  31.049  21.883  1.00  0.00     0.013 C 
ATOM     26  C   UNL A   1      27.962  30.957  20.552  1.00  0.00     0.012 C 
ATOM     27  C   UNL A   1      28.007  32.067  22.782  1.00  0.00     0.012 C 
ENDBRANCH  20  25
ENDBRANCH  15  19
ENDBRANCH   6  14
ENDBRANCH   3   5
ENDBRANCH   2   3
ENDBRANCH   1   2
BRANCH   1  28
ATOM     28  C   UNL A   1      33.871  28.284  26.359  1.00  0.00     0.275 C 
BRANCH  28  29
ATOM     29  O   UNL A   1      33.638  28.883  27.650  1.00  0.00    -0.458 OA
BRANCH  29  30
ATOM     30  C   UNL A   1      34.252  30.062  27.907  1.00  0.00     0.338 C 
ATOM     31  O   UNL A   1      33.730  31.164  27.991  1.00  0.00    -0.246 OA
BRANCH  30  32
ATOM     32  C   UNL A   1      35.665  29.793  28.243  1.00  0.00     0.060 A 
ATOM     33  C   UNL A   1      36.595  29.991  27.229  1.00  0.00     0.016 A 
ATOM     34  C   UNL A   1      36.097  29.329  29.482  1.00  0.00     0.016 A 
ATOM     35  C   UNL A   1      37.957  29.788  27.436  1.00  0.00     0.010 A 
ATOM     36  C   UNL A   1      37.473  29.106  29.694  1.00  0.00     0.010 A 
ATOM     37  C   UNL A   1      38.415  29.343  28.674  1.00  0.00    -0.014 A 
BRANCH  37  38
ATOM     38  C   UNL A   1      39.862  29.054  28.854  1.00  0.00     0.031 A 
ATOM     39  C   UNL A   1      40.763  30.116  29.385  1.00  0.00     0.074 A 
ATOM     40  C   UNL A   1      40.371  27.822  28.662  1.00  0.00     0.049 A 
ATOM     41  N   UNL A   1      42.067  30.132  29.444  1.00  0.00    -0.248 NA
ATOM     42  C   UNL A   1      40.108  31.299  29.959  1.00  0.00     0.031 C 
ATOM     43  C   UNL A   1      39.569  26.646  28.392  1.00  0.00     0.029 A 
ATOM     44  N   UNL A   1      41.657  27.342  28.674  1.00  0.00    -0.354 N 
ATOM     45  C   UNL A   1      42.397  31.337  30.043  1.00  0.00     0.074 A 
ATOM     46  C   UNL A   1      41.153  32.018  30.340  1.00  0.00     0.031 C 
ATOM     47  C   UNL A   1      40.362  25.576  28.236  1.00  0.00     0.029 A 
ATOM     48  C   UNL A   1      41.748  26.015  28.310  1.00  0.00     0.049 A 
ATOM     49  H   UNL A   1      42.437  27.891  28.919  1.00  0.00     0.167 HD
ATOM     50  C   UNL A   1      43.632  31.828  30.297  1.00  0.00     0.037 A 
ATOM     51  C   UNL A   1      42.822  25.261  28.002  1.00  0.00     0.037 A 
ATOM     52  C   UNL A   1      44.853  31.140  29.968  1.00  0.00     0.049 A 
ATOM     53  C   UNL A   1      44.179  25.905  28.058  1.00  0.00     0.074 A 
ATOM     54  C   UNL A   1      46.155  31.588  30.088  1.00  0.00     0.029 A 
ATOM     55  N   UNL A   1      44.921  29.856  29.443  1.00  0.00    -0.354 N 
ATOM     56  N   UNL A   1      44.497  27.103  28.488  1.00  0.00    -0.248 NA
ATOM     57  C   UNL A   1      45.316  25.118  27.564  1.00  0.00     0.031 C 
ATOM     58  C   UNL A   1      47.007  30.599  29.584  1.00  0.00     0.029 A 
ATOM     59  C   UNL A   1      46.241  29.509  29.200  1.00  0.00     0.049 A 
ATOM     60  H   UNL A   1      44.145  29.276  29.268  1.00  0.00     0.167 HD
ATOM     61  C   UNL A   1      45.873  27.206  28.339  1.00  0.00     0.074 A 
ATOM     62  C   UNL A   1      46.328  25.948  27.782  1.00  0.00     0.031 C 
ATOM     63  C   UNL A   1      46.682  28.251  28.643  1.00  0.00     0.037 A 
BRANCH  50  64
ATOM     64  C   UNL A   1      43.694  33.219  30.854  1.00  0.00     0.058 A 
ATOM     65  C   UNL A   1      43.711  34.356  30.031  1.00  0.00     0.135 A 
ATOM     66  C   UNL A   1      43.804  33.409  32.240  1.00  0.00     0.135 A 
ATOM     67  F   UNL A   1      43.640  34.227  28.696  1.00  0.00    -0.206 F 
ATOM     68  C   UNL A   1      43.882  35.631  30.561  1.00  0.00     0.059 A 
ATOM     69  C   UNL A   1      43.948  34.675  32.795  1.00  0.00     0.059 A 
ATOM     70  F   UNL A   1      43.803  32.353  33.070  1.00  0.00    -0.206 F 
ATOM     71  C   UNL A   1      44.010  35.778  31.945  1.00  0.00     0.060 A 
BRANCH  71  72
ATOM     72  S   UNL A   1      44.291  37.429  32.619  1.00  0.00     0.124 S 
ATOM     73  O   UNL A   1      45.695  37.346  33.013  1.00  0.00    -0.237 OA
ATOM     74  O   UNL A   1      44.005  38.287  31.474  1.00  0.00    -0.237 OA
ATOM     75  O   UNL A   1      43.335  37.514  33.717  1.00  0.00    -0.744 OA
ENDBRANCH  71  72
ENDBRANCH  50  64
BRANCH  51  76
ATOM     76  C   UNL A   1      42.655  23.857  27.534  1.00  0.00     0.058 A 
ATOM     77  C   UNL A   1      42.573  22.791  28.442  1.00  0.00     0.135 A 
ATOM     78  C   UNL A   1      42.580  23.550  26.165  1.00  0.00     0.135 A 
ATOM     79  F   UNL A   1      42.667  23.025  29.760  1.00  0.00    -0.206 F 
ATOM     80  C   UNL A   1      42.416  21.475  28.013  1.00  0.00     0.059 A 
ATOM     81  C   UNL A   1      42.396  22.246  25.712  1.00  0.00     0.059 A 
ATOM     82  F   UNL A   1      42.670  24.525  25.248  1.00  0.00    -0.206 F 
ATOM     83  C   UNL A   1      42.320  21.213  26.644  1.00  0.00     0.060 A 
BRANCH  83  84
ATOM     84  S   UNL A   1      42.056  19.513  26.098  1.00  0.00     0.124 S 
ATOM     85  O   UNL A   1      42.425  18.758  27.289  1.00  0.00    -0.237 OA
ATOM     86  O   UNL A   1      40.636  19.518  25.759  1.00  0.00    -0.237 OA
ATOM     87  O   UNL A   1      42.963  19.382  24.961  1.00  0.00    -0.744 OA
ENDBRANCH  83  84
ENDBRANCH  51  76
BRANCH  63  88
ATOM     88  C   UNL A   1      48.155  28.072  28.409  1.00  0.00     0.058 A 
ATOM     89  C   UNL A   1      48.988  27.485  29.374  1.00  0.00     0.135 A 
ATOM     90  C   UNL A   1      48.725  28.431  27.178  1.00  0.00     0.135 A 
ATOM     91  F   UNL A   1      48.495  27.138  30.574  1.00  0.00    -0.206 F 
ATOM     92  C   UNL A   1      50.340  27.265  29.128  1.00  0.00     0.059 A 
ATOM     93  C   UNL A   1      50.069  28.197  26.900  1.00  0.00     0.059 A 
ATOM     94  F   UNL A   1      47.971  28.994  26.221  1.00  0.00    -0.206 F 
ATOM     95  C   UNL A   1      50.868  27.617  27.884  1.00  0.00     0.060 A 
BRANCH  95  96
ATOM     96  S   UNL A   1      52.608  27.266  27.553  1.00  0.00     0.124 S 
ATOM     97  O   UNL A   1      52.636  27.264  26.094  1.00  0.00    -0.237 OA
ATOM     98  O   UNL A   1      53.280  28.390  28.199  1.00  0.00    -0.237 OA
ATOM     99  O   UNL A   1      52.820  25.969  28.187  1.00  0.00    -0.744 OA
ENDBRANCH  95  96
ENDBRANCH  63  88
ENDBRANCH  37  38
ENDBRANCH  30  32
ENDBRANCH  29  30
ENDBRANCH  28  29
ENDBRANCH   1  28
TORSDOF 17
ENDMDL
MODEL 3
REMARK VINA RESULT:     -11.2      4.013      8.864
REMARK SMILES CC(C)c1ccc(-c2cnc([C@@H]3[NH2+][C@H](C(=O)OCCOC(=O)c4ccc(-c5c6nc(c(-c7c(F)cc(S(=O)(=O)[O-])cc7F)c7ccc([nH]7)c(-c7c(F)cc(S(=O)(=O)[O-])cc7F)c7nc(c(-c8c(F)cc(S(=O)(=O)[O-])cc8F)c8ccc5[nH]8)C=C7)C=C6)cc4)C(C)(C)S3)s2)cc1
REMARK SMILES IDX 18 1 17 2 15 3 16 4 14 5 12 6 13 7 92 8 89 11 90 12 91 13
REMARK SMILES IDX 11 14 8 15 9 16 93 17 10 18 7 19 4 20 5 21 95 22 6 23 94 24
REMARK SMILES IDX 2 25 1 26 3 27 19 28 20 29 21 30 22 31 23 32 24 33 88 34
REMARK SMILES IDX 25 35 87 36 26 37 27 38 28 39 81 40 29 41 86 42 80 43 82 44
REMARK SMILES IDX 30 45 85 46 79 47 78 48 31 50 65 51 44 52 64 53 45 54 48 55
REMARK SMILES IDX 63 56 83 57 46 58 47 59 62 61 84 62 49 63 32 64 33 65 42 66
REMARK SMILES IDX 34 67 35 68 41 69 43 70 36 71 37 72 38 73 39 74 40 75 66 76
REMARK SMILES IDX 67 77 76 78 68 79 69 80 75 81 77 82 70 83 71 84 72 85 73 86
REMARK SMILES IDX 74 87 50 88 51 89 60 90 52 91 53 92 59 93 61 94 54 95 55 96
REMARK SMILES IDX 56 97 57 98 58 99
REMARK H PARENT 13 9 13 10 82 49 48 60
REMARK Flexibility Score: inf
ROOT
ATOM      1  C   UNL A   1      31.995  28.253  27.614  1.00  0.00     0.274 C 
ENDROOT
BRANCH   1   2
ATOM      2  O   UNL A   1      32.350  27.189  26.710  1.00  0.00    -0.458 OA
BRANCH   2   3
ATOM      3  C   UNL A   1      31.355  26.837  25.856  1.00  0.00     0.366 C 
ATOM      4  O   UNL A   1      30.699  25.803  25.980  1.00  0.00    -0.245 OA
BRANCH   3   5
ATOM      5  C   UNL A   1      31.136  27.808  24.667  1.00  0.00     0.310 C 
ATOM      6  C   UNL A   1      32.723  27.165  22.963  1.00  0.00     0.304 C 
ATOM      7  N   UNL A   1      32.462  28.146  24.035  1.00  0.00    -0.317 N 
ATOM      8  S   UNL A   1      31.107  26.949  22.136  1.00  0.00    -0.079 SA
ATOM      9  H   UNL A   1      32.428  29.087  23.643  1.00  0.00     0.348 HD
ATOM     10  H   UNL A   1      33.205  28.113  24.733  1.00  0.00     0.348 HD
ATOM     11  C   UNL A   1      30.100  27.561  23.539  1.00  0.00     0.079 C 
ATOM     12  C   UNL A   1      29.493  28.895  23.047  1.00  0.00     0.030 C 
ATOM     13  C   UNL A   1      28.913  26.647  23.867  1.00  0.00     0.030 C 
BRANCH   6  14
ATOM     14  C   UNL A   1      33.359  25.850  23.422  1.00  0.00     0.162 A 
ATOM     15  C   UNL A   1      33.826  23.467  23.883  1.00  0.00     0.055 A 
ATOM     16  C   UNL A   1      34.530  24.396  24.620  1.00  0.00     0.132 A 
ATOM     17  S   UNL A   1      32.937  24.338  22.680  1.00  0.00    -0.112 S 
ATOM     18  N   UNL A   1      34.251  25.728  24.383  1.00  0.00    -0.242 NA
BRANCH  15  19
ATOM     19  C   UNL A   1      33.765  22.002  24.087  1.00  0.00    -0.007 A 
ATOM     20  C   UNL A   1      33.763  19.158  24.508  1.00  0.00    -0.045 A 
ATOM     21  C   UNL A   1      32.650  19.830  23.978  1.00  0.00     0.004 A 
ATOM     22  C   UNL A   1      34.870  19.943  24.854  1.00  0.00     0.004 A 
ATOM     23  C   UNL A   1      32.650  21.224  23.769  1.00  0.00     0.010 A 
ATOM     24  C   UNL A   1      34.868  21.333  24.652  1.00  0.00     0.010 A 
BRANCH  20  25
ATOM     25  C   UNL A   1      33.839  17.636  24.646  1.00  0.00     0.013 C 
ATOM     26  C   UNL A   1      32.626  17.025  25.362  1.00  0.00     0.012 C 
ATOM     27  C   UNL A   1      34.065  16.870  23.335  1.00  0.00     0.012 C 
ENDBRANCH  20  25
ENDBRANCH  15  19
ENDBRANCH   6  14
ENDBRANCH   3   5
ENDBRANCH   2   3
ENDBRANCH   1   2
BRANCH   1  28
ATOM     28  C   UNL A   1      32.777  29.531  27.286  1.00  0.00     0.275 C 
BRANCH  28  29
ATOM     29  O   UNL A   1      34.175  29.364  27.602  1.00  0.00    -0.458 OA
BRANCH  29  30
ATOM     30  C   UNL A   1      34.932  30.483  27.676  1.00  0.00     0.338 C 
ATOM     31  O   UNL A   1      34.635  31.603  27.287  1.00  0.00    -0.246 OA
BRANCH  30  32
ATOM     32  C   UNL A   1      36.143  30.181  28.466  1.00  0.00     0.060 A 
ATOM     33  C   UNL A   1      37.338  30.723  28.006  1.00  0.00     0.016 A 
ATOM     34  C   UNL A   1      36.153  29.373  29.599  1.00  0.00     0.016 A 
ATOM     35  C   UNL A   1      38.540  30.522  28.681  1.00  0.00     0.010 A 
ATOM     36  C   UNL A   1      37.369  29.151  30.277  1.00  0.00     0.010 A 
ATOM     37  C   UNL A   1      38.570  29.732  29.828  1.00  0.00    -0.014 A 
BRANCH  37  38
ATOM     38  C   UNL A   1      39.874  29.461  30.490  1.00  0.00     0.031 A 
ATOM     39  C   UNL A   1      40.756  28.382  29.961  1.00  0.00     0.074 A 
ATOM     40  C   UNL A   1      40.341  30.237  31.486  1.00  0.00     0.049 A 
ATOM     41  N   UNL A   1      41.831  27.867  30.493  1.00  0.00    -0.248 NA
ATOM     42  C   UNL A   1      40.401  27.837  28.643  1.00  0.00     0.031 C 
ATOM     43  C   UNL A   1      39.706  31.464  31.925  1.00  0.00     0.029 A 
ATOM     44  N   UNL A   1      41.444  30.135  32.296  1.00  0.00    -0.354 N 
ATOM     45  C   UNL A   1      42.276  26.919  29.586  1.00  0.00     0.074 A 
ATOM     46  C   UNL A   1      41.360  26.940  28.465  1.00  0.00     0.031 C 
ATOM     47  C   UNL A   1      40.400  32.001  32.939  1.00  0.00     0.029 A 
ATOM     48  C   UNL A   1      41.490  31.099  33.280  1.00  0.00     0.049 A 
ATOM     49  H   UNL A   1      42.135  29.441  32.186  1.00  0.00     0.167 HD
ATOM     50  C   UNL A   1      43.344  26.096  29.701  1.00  0.00     0.037 A 
ATOM     51  C   UNL A   1      42.276  31.204  34.371  1.00  0.00     0.037 A 
ATOM     52  C   UNL A   1      44.226  26.078  30.840  1.00  0.00     0.049 A 
ATOM     53  C   UNL A   1      43.304  30.134  34.609  1.00  0.00     0.074 A 
ATOM     54  C   UNL A   1      45.275  25.218  31.105  1.00  0.00     0.029 A 
ATOM     55  N   UNL A   1      44.153  26.960  31.911  1.00  0.00    -0.354 N 
ATOM     56  N   UNL A   1      43.642  29.138  33.825  1.00  0.00    -0.248 NA
ATOM     57  C   UNL A   1      44.036  30.177  35.881  1.00  0.00     0.031 C 
ATOM     58  C   UNL A   1      45.801  25.544  32.361  1.00  0.00     0.029 A 
ATOM     59  C   UNL A   1      45.116  26.643  32.856  1.00  0.00     0.049 A 
ATOM     60  H   UNL A   1      43.511  27.702  31.987  1.00  0.00     0.167 HD
ATOM     61  C   UNL A   1      44.642  28.449  34.497  1.00  0.00     0.074 A 
ATOM     62  C   UNL A   1      44.857  29.143  35.751  1.00  0.00     0.031 C 
ATOM     63  C   UNL A   1      45.320  27.342  34.103  1.00  0.00     0.037 A 
BRANCH  50  64
ATOM     64  C   UNL A   1      43.525  25.081  28.611  1.00  0.00     0.058 A 
ATOM     65  C   UNL A   1      44.119  25.401  27.380  1.00  0.00     0.135 A 
ATOM     66  C   UNL A   1      43.032  23.778  28.786  1.00  0.00     0.135 A 
ATOM     67  F   UNL A   1      44.578  26.641  27.152  1.00  0.00    -0.206 F 
ATOM     68  C   UNL A   1      44.176  24.475  26.343  1.00  0.00     0.059 A 
ATOM     69  C   UNL A   1      43.102  22.829  27.773  1.00  0.00     0.059 A 
ATOM     70  F   UNL A   1      42.446  23.426  29.942  1.00  0.00    -0.206 F 
ATOM     71  C   UNL A   1      43.654  23.195  26.546  1.00  0.00     0.060 A 
BRANCH  71  72
ATOM     72  S   UNL A   1      43.679  22.021  25.176  1.00  0.00     0.124 S 
ATOM     73  O   UNL A   1      43.350  22.886  24.047  1.00  0.00    -0.237 OA
ATOM     74  O   UNL A   1      45.050  21.524  25.215  1.00  0.00    -0.237 OA
ATOM     75  O   UNL A   1      42.652  21.051  25.542  1.00  0.00    -0.744 OA
ENDBRANCH  71  72
ENDBRANCH  50  64
BRANCH  51  76
ATOM     76  C   UNL A   1      42.065  32.302  35.356  1.00  0.00     0.058 A 
ATOM     77  C   UNL A   1      41.062  32.222  36.333  1.00  0.00     0.135 A 
ATOM     78  C   UNL A   1      42.861  33.459  35.338  1.00  0.00     0.135 A 
ATOM     79  F   UNL A   1      40.255  31.150  36.378  1.00  0.00    -0.206 F 
ATOM     80  C   UNL A   1      40.859  33.242  37.258  1.00  0.00     0.059 A 
ATOM     81  C   UNL A   1      42.695  34.481  36.268  1.00  0.00     0.059 A 
ATOM     82  F   UNL A   1      43.825  33.602  34.415  1.00  0.00    -0.206 F 
ATOM     83  C   UNL A   1      41.687  34.366  37.223  1.00  0.00     0.060 A 
BRANCH  83  84
ATOM     84  S   UNL A   1      41.456  35.658  38.463  1.00  0.00     0.124 S 
ATOM     85  O   UNL A   1      42.830  36.074  38.718  1.00  0.00    -0.237 OA
ATOM     86  O   UNL A   1      40.618  36.618  37.753  1.00  0.00    -0.237 OA
ATOM     87  O   UNL A   1      40.797  34.954  39.561  1.00  0.00    -0.744 OA
ENDBRANCH  83  84
ENDBRANCH  51  76
BRANCH  63  88
ATOM     88  C   UNL A   1      46.387  26.825  35.025  1.00  0.00     0.058 A 
ATOM     89  C   UNL A   1      47.701  27.316  34.980  1.00  0.00     0.135 A 
ATOM     90  C   UNL A   1      46.073  25.875  36.009  1.00  0.00     0.135 A 
ATOM     91  F   UNL A   1      48.056  28.214  34.047  1.00  0.00    -0.206 F 
ATOM     92  C   UNL A   1      48.670  26.878  35.877  1.00  0.00     0.059 A 
ATOM     93  C   UNL A   1      47.019  25.442  36.933  1.00  0.00     0.059 A 
ATOM     94  F   UNL A   1      44.830  25.376  36.095  1.00  0.00    -0.206 F 
ATOM     95  C   UNL A   1      48.316  25.946  36.856  1.00  0.00     0.060 A 
BRANCH  95  96
ATOM     96  S   UNL A   1      49.565  25.436  38.055  1.00  0.00     0.124 S 
ATOM     97  O   UNL A   1      50.692  26.286  37.685  1.00  0.00    -0.237 OA
ATOM     98  O   UNL A   1      48.923  25.752  39.327  1.00  0.00    -0.237 OA
ATOM     99  O   UNL A   1      49.737  24.013  37.783  1.00  0.00    -0.744 OA
ENDBRANCH  95  96
ENDBRANCH  63  88
ENDBRANCH  37  38
ENDBRANCH  30  32
ENDBRANCH  29  30
ENDBRANCH  28  29
ENDBRANCH   1  28
TORSDOF 17
ENDMDL
