MODEL 1
REMARK VINA RESULT:     -11.7      0.000      0.000
REMARK SMILES O=C(COc1ccccc1/C=C1/SC(=S)N(c2ccc(F)c(Cl)c2)C1=O)OCCOC(=O)c1ccc(-c2c3nc(c(-c4c(F)cc(S(=O)(=O)[O-])cc4F)c4ccc([nH]4)c(-c4c(F)cc(S(=O)(=O)[O-])cc4F)c4nc(c(-c5c(F)cc(S(=O)(=O)[O-])cc5F)c5ccc2[nH]5)C=C4)C=C3)cc1
REMARK SMILES IDX 28 1 27 2 2 3 1 4 3 5 4 6 5 7 6 8 10 9 7 10 9 11 8 12 11 13
REMARK SMILES IDX 12 14 13 15 25 16 14 17 16 18 26 19 15 20 17 21 18 22 24 23
REMARK SMILES IDX 19 24 22 25 20 26 23 27 21 28 29 29 30 30 31 31 32 32 33 33
REMARK SMILES IDX 34 34 98 35 35 36 97 37 36 38 37 39 38 40 91 41 39 42 96 43
REMARK SMILES IDX 90 44 92 45 40 46 95 47 89 48 88 49 41 51 75 52 54 53 74 54
REMARK SMILES IDX 55 55 58 56 73 57 93 58 56 59 57 60 72 62 94 63 59 64 42 65
REMARK SMILES IDX 43 66 52 67 44 68 45 69 51 70 53 71 46 72 47 73 48 74 49 75
REMARK SMILES IDX 50 76 76 77 77 78 86 79 78 80 79 81 85 82 87 83 80 84 81 85
REMARK SMILES IDX 82 86 83 87 84 88 60 89 61 90 70 91 62 92 63 93 69 94 71 95
REMARK SMILES IDX 64 96 65 97 66 98 67 99 68 100
REMARK H PARENT 92 50 58 61
REMARK Flexibility Score: inf
ROOT
ATOM      1  C   UNL A   1      34.315  30.624  27.173  1.00  0.00     0.274 C 
ENDROOT
BRANCH   1   2
ATOM      2  O   UNL A   1      33.004  30.039  27.321  1.00  0.00    -0.460 OA
BRANCH   2   3
ATOM      3  C   UNL A   1      31.926  30.365  26.566  1.00  0.00     0.344 C 
ATOM      4  O   UNL A   1      31.462  31.503  26.610  1.00  0.00    -0.248 OA
BRANCH   3   5
ATOM      5  C   UNL A   1      31.372  29.323  25.611  1.00  0.00     0.352 C 
BRANCH   5   6
ATOM      6  O   UNL A   1      32.214  28.171  25.578  1.00  0.00    -0.481 OA
BRANCH   6   7
ATOM      7  C   UNL A   1      32.704  27.972  24.309  1.00  0.00     0.127 A 
ATOM      8  C   UNL A   1      33.359  29.044  23.695  1.00  0.00     0.047 A 
ATOM      9  C   UNL A   1      32.529  26.749  23.637  1.00  0.00     0.018 A 
ATOM     10  C   UNL A   1      33.907  28.883  22.425  1.00  0.00     0.004 A 
ATOM     11  C   UNL A   1      33.105  26.598  22.369  1.00  0.00     0.012 A 
ATOM     12  C   UNL A   1      33.790  27.659  21.767  1.00  0.00     0.001 A 
BRANCH   9  13
ATOM     13  C   UNL A   1      31.847  25.590  24.235  1.00  0.00     0.033 C 
ATOM     14  C   UNL A   1      32.426  24.580  24.898  1.00  0.00     0.081 C 
ATOM     15  S   UNL A   1      31.586  23.146  25.340  1.00  0.00    -0.054 SA
ATOM     16  C   UNL A   1      33.865  24.444  25.258  1.00  0.00     0.270 C 
ATOM     17  C   UNL A   1      33.082  22.248  25.617  1.00  0.00     0.152 C 
ATOM     18  N   UNL A   1      34.174  23.103  25.506  1.00  0.00    -0.261 N 
ATOM     19  O   UNL A   1      34.622  25.402  25.330  1.00  0.00    -0.268 OA
ATOM     20  S   UNL A   1      33.020  20.634  26.058  1.00  0.00    -0.051 S 
BRANCH  18  21
ATOM     21  C   UNL A   1      35.550  22.711  25.641  1.00  0.00     0.052 A 
ATOM     22  C   UNL A   1      36.515  23.634  26.084  1.00  0.00     0.030 A 
ATOM     23  C   UNL A   1      35.996  21.437  25.250  1.00  0.00     0.050 A 
ATOM     24  C   UNL A   1      37.873  23.305  26.123  1.00  0.00     0.043 A 
ATOM     25  C   UNL A   1      37.359  21.115  25.270  1.00  0.00     0.078 A 
ATOM     26  C   UNL A   1      38.290  22.050  25.706  1.00  0.00     0.141 A 
ATOM     27  Cl  UNL A   1      37.866  19.567  24.709  1.00  0.00    -0.081 Cl
ATOM     28  F   UNL A   1      39.599  21.761  25.726  1.00  0.00    -0.205 F 
ENDBRANCH  18  21
ENDBRANCH   9  13
ENDBRANCH   6   7
ENDBRANCH   5   6
ENDBRANCH   3   5
ENDBRANCH   2   3
ENDBRANCH   1   2
BRANCH   1  29
ATOM     29  C   UNL A   1      34.536  31.725  28.207  1.00  0.00     0.275 C 
BRANCH  29  30
ATOM     30  O   UNL A   1      35.930  31.783  28.524  1.00  0.00    -0.458 OA
BRANCH  30  31
ATOM     31  C   UNL A   1      36.274  31.310  29.748  1.00  0.00     0.338 C 
ATOM     32  O   UNL A   1      35.588  31.298  30.752  1.00  0.00    -0.246 OA
BRANCH  31  33
ATOM     33  C   UNL A   1      37.549  30.587  29.584  1.00  0.00     0.060 A 
ATOM     34  C   UNL A   1      38.205  30.108  30.727  1.00  0.00     0.016 A 
ATOM     35  C   UNL A   1      38.060  30.336  28.309  1.00  0.00     0.016 A 
ATOM     36  C   UNL A   1      39.395  29.394  30.596  1.00  0.00     0.010 A 
ATOM     37  C   UNL A   1      39.251  29.636  28.178  1.00  0.00     0.010 A 
ATOM     38  C   UNL A   1      39.937  29.193  29.321  1.00  0.00    -0.014 A 
BRANCH  38  39
ATOM     39  C   UNL A   1      41.331  28.746  29.143  1.00  0.00     0.031 A 
ATOM     40  C   UNL A   1      42.396  29.802  29.162  1.00  0.00     0.074 A 
ATOM     41  C   UNL A   1      41.615  27.471  28.835  1.00  0.00     0.049 A 
ATOM     42  N   UNL A   1      43.648  29.727  28.803  1.00  0.00    -0.248 NA
ATOM     43  C   UNL A   1      41.974  31.138  29.620  1.00  0.00     0.031 C 
ATOM     44  C   UNL A   1      40.649  26.375  28.795  1.00  0.00     0.029 A 
ATOM     45  N   UNL A   1      42.797  26.899  28.447  1.00  0.00    -0.354 N 
ATOM     46  C   UNL A   1      44.157  31.009  28.963  1.00  0.00     0.074 A 
ATOM     47  C   UNL A   1      43.077  31.846  29.436  1.00  0.00     0.031 C 
ATOM     48  C   UNL A   1      41.272  25.266  28.359  1.00  0.00     0.029 A 
ATOM     49  C   UNL A   1      42.667  25.588  28.058  1.00  0.00     0.049 A 
ATOM     50  H   UNL A   1      43.657  27.380  28.448  1.00  0.00     0.167 HD
ATOM     51  C   UNL A   1      45.415  31.449  28.729  1.00  0.00     0.037 A 
ATOM     52  C   UNL A   1      43.564  24.761  27.486  1.00  0.00     0.037 A 
ATOM     53  C   UNL A   1      46.470  30.606  28.241  1.00  0.00     0.049 A 
ATOM     54  C   UNL A   1      44.956  25.268  27.217  1.00  0.00     0.074 A 
ATOM     55  C   UNL A   1      47.790  30.932  27.990  1.00  0.00     0.029 A 
ATOM     56  N   UNL A   1      46.315  29.265  27.917  1.00  0.00    -0.354 N 
ATOM     57  N   UNL A   1      45.446  26.471  27.410  1.00  0.00    -0.248 NA
ATOM     58  C   UNL A   1      45.919  24.311  26.656  1.00  0.00     0.031 C 
ATOM     59  C   UNL A   1      48.425  29.794  27.480  1.00  0.00     0.029 A 
ATOM     60  C   UNL A   1      47.511  28.749  27.454  1.00  0.00     0.049 A 
ATOM     61  H   UNL A   1      45.477  28.756  28.004  1.00  0.00     0.167 HD
ATOM     62  C   UNL A   1      46.779  26.409  27.022  1.00  0.00     0.074 A 
ATOM     63  C   UNL A   1      47.019  25.049  26.579  1.00  0.00     0.031 C 
ATOM     64  C   UNL A   1      47.722  27.384  27.034  1.00  0.00     0.037 A 
BRANCH  51  65
ATOM     65  C   UNL A   1      45.676  32.910  28.956  1.00  0.00     0.058 A 
ATOM     66  C   UNL A   1      45.488  33.861  27.939  1.00  0.00     0.135 A 
ATOM     67  C   UNL A   1      46.173  33.359  30.190  1.00  0.00     0.135 A 
ATOM     68  F   UNL A   1      45.039  33.479  26.732  1.00  0.00    -0.206 F 
ATOM     69  C   UNL A   1      45.833  35.196  28.120  1.00  0.00     0.059 A 
ATOM     70  C   UNL A   1      46.499  34.695  30.402  1.00  0.00     0.059 A 
ATOM     71  F   UNL A   1      46.376  32.492  31.194  1.00  0.00    -0.206 F 
ATOM     72  C   UNL A   1      46.350  35.601  29.352  1.00  0.00     0.060 A 
BRANCH  72  73
ATOM     73  S   UNL A   1      46.844  37.324  29.560  1.00  0.00     0.124 S 
ATOM     74  O   UNL A   1      46.267  37.937  28.368  1.00  0.00    -0.237 OA
ATOM     75  O   UNL A   1      46.214  37.683  30.826  1.00  0.00    -0.237 OA
ATOM     76  O   UNL A   1      48.302  37.256  29.588  1.00  0.00    -0.744 OA
ENDBRANCH  72  73
ENDBRANCH  51  65
BRANCH  52  77
ATOM     77  C   UNL A   1      43.158  23.377  27.134  1.00  0.00     0.058 A 
ATOM     78  C   UNL A   1      42.960  23.003  25.797  1.00  0.00     0.135 A 
ATOM     79  C   UNL A   1      43.029  22.384  28.117  1.00  0.00     0.135 A 
ATOM     80  F   UNL A   1      43.064  23.920  24.823  1.00  0.00    -0.206 F 
ATOM     81  C   UNL A   1      42.658  21.691  25.445  1.00  0.00     0.059 A 
ATOM     82  C   UNL A   1      42.746  21.062  27.789  1.00  0.00     0.059 A 
ATOM     83  F   UNL A   1      43.223  22.689  29.411  1.00  0.00    -0.206 F 
ATOM     84  C   UNL A   1      42.565  20.725  26.448  1.00  0.00     0.060 A 
BRANCH  84  85
ATOM     85  S   UNL A   1      42.280  19.006  25.969  1.00  0.00     0.124 S 
ATOM     86  O   UNL A   1      42.783  18.288  27.133  1.00  0.00    -0.237 OA
ATOM     87  O   UNL A   1      40.833  18.979  25.777  1.00  0.00    -0.237 OA
ATOM     88  O   UNL A   1      43.067  18.864  24.747  1.00  0.00    -0.744 OA
ENDBRANCH  84  85
ENDBRANCH  52  77
BRANCH  64  89
ATOM     89  C   UNL A   1      49.112  27.016  26.602  1.00  0.00     0.058 A 
ATOM     90  C   UNL A   1      50.066  26.540  27.513  1.00  0.00     0.135 A 
ATOM     91  C   UNL A   1      49.454  27.042  25.240  1.00  0.00     0.135 A 
ATOM     92  F   UNL A   1      49.786  26.501  28.825  1.00  0.00    -0.206 F 
ATOM     93  C   UNL A   1      51.315  26.101  27.088  1.00  0.00     0.059 A 
ATOM     94  C   UNL A   1      50.690  26.588  24.791  1.00  0.00     0.059 A 
ATOM     95  F   UNL A   1      48.571  27.479  24.329  1.00  0.00    -0.206 F 
ATOM     96  C   UNL A   1      51.616  26.122  25.724  1.00  0.00     0.060 A 
BRANCH  96  97
ATOM     97  S   UNL A   1      53.212  25.482  25.176  1.00  0.00     0.124 S 
ATOM     98  O   UNL A   1      53.229  25.896  23.777  1.00  0.00    -0.237 OA
ATOM     99  O   UNL A   1      54.148  26.178  26.055  1.00  0.00    -0.237 OA
ATOM    100  O   UNL A   1      53.099  24.045  25.406  1.00  0.00    -0.744 OA
ENDBRANCH  96  97
ENDBRANCH  64  89
ENDBRANCH  38  39
ENDBRANCH  31  33
ENDBRANCH  30  31
ENDBRANCH  29  30
ENDBRANCH   1  29
TORSDOF 18
ENDMDL
MODEL 2
REMARK VINA RESULT:     -11.7      2.395      3.297
REMARK SMILES O=C(COc1ccccc1/C=C1/SC(=S)N(c2ccc(F)c(Cl)c2)C1=O)OCCOC(=O)c1ccc(-c2c3nc(c(-c4c(F)cc(S(=O)(=O)[O-])cc4F)c4ccc([nH]4)c(-c4c(F)cc(S(=O)(=O)[O-])cc4F)c4nc(c(-c5c(F)cc(S(=O)(=O)[O-])cc5F)c5ccc2[nH]5)C=C4)C=C3)cc1
REMARK SMILES IDX 28 1 27 2 2 3 1 4 3 5 4 6 5 7 6 8 10 9 7 10 9 11 8 12 11 13
REMARK SMILES IDX 12 14 13 15 25 16 14 17 16 18 26 19 15 20 17 21 18 22 24 23
REMARK SMILES IDX 19 24 22 25 20 26 23 27 21 28 29 29 30 30 31 31 32 32 33 33
REMARK SMILES IDX 34 34 98 35 35 36 97 37 36 38 37 39 38 40 91 41 39 42 96 43
REMARK SMILES IDX 90 44 92 45 40 46 95 47 89 48 88 49 41 51 75 52 54 53 74 54
REMARK SMILES IDX 55 55 58 56 73 57 93 58 56 59 57 60 72 62 94 63 59 64 42 65
REMARK SMILES IDX 43 66 52 67 44 68 45 69 51 70 53 71 46 72 47 73 48 74 49 75
REMARK SMILES IDX 50 76 76 77 77 78 86 79 78 80 79 81 85 82 87 83 80 84 81 85
REMARK SMILES IDX 82 86 83 87 84 88 60 89 61 90 70 91 62 92 63 93 69 94 71 95
REMARK SMILES IDX 64 96 65 97 66 98 67 99 68 100
REMARK H PARENT 92 50 58 61
REMARK Flexibility Score: inf
ROOT
ATOM      1  C   UNL A   1      31.951  30.228  26.165  1.00  0.00     0.274 C 
ENDROOT
BRANCH   1   2
ATOM      2  O   UNL A   1      32.170  29.635  24.868  1.00  0.00    -0.460 OA
BRANCH   2   3
ATOM      3  C   UNL A   1      31.186  29.172  24.057  1.00  0.00     0.344 C 
ATOM      4  O   UNL A   1      30.194  29.863  23.832  1.00  0.00    -0.248 OA
BRANCH   3   5
ATOM      5  C   UNL A   1      31.386  27.832  23.373  1.00  0.00     0.352 C 
BRANCH   5   6
ATOM      6  O   UNL A   1      32.337  27.039  24.084  1.00  0.00    -0.481 OA
BRANCH   6   7
ATOM      7  C   UNL A   1      31.694  26.169  24.933  1.00  0.00     0.127 A 
ATOM      8  C   UNL A   1      30.341  26.403  25.193  1.00  0.00     0.047 A 
ATOM      9  C   UNL A   1      32.376  25.100  25.543  1.00  0.00     0.018 A 
ATOM     10  C   UNL A   1      29.634  25.529  26.015  1.00  0.00     0.004 A 
ATOM     11  C   UNL A   1      31.644  24.219  26.350  1.00  0.00     0.012 A 
ATOM     12  C   UNL A   1      30.281  24.433  26.584  1.00  0.00     0.001 A 
BRANCH   9  13
ATOM     13  C   UNL A   1      33.799  24.809  25.306  1.00  0.00     0.033 C 
ATOM     14  C   UNL A   1      34.325  23.620  24.980  1.00  0.00     0.081 C 
ATOM     15  S   UNL A   1      36.018  23.318  24.971  1.00  0.00    -0.054 SA
ATOM     16  C   UNL A   1      33.592  22.356  24.697  1.00  0.00     0.270 C 
ATOM     17  C   UNL A   1      35.794  21.566  24.994  1.00  0.00     0.152 C 
ATOM     18  N   UNL A   1      34.444  21.259  24.862  1.00  0.00    -0.261 N 
ATOM     19  O   UNL A   1      32.418  22.334  24.355  1.00  0.00    -0.268 OA
ATOM     20  S   UNL A   1      37.127  20.553  25.050  1.00  0.00    -0.051 S 
BRANCH  18  21
ATOM     21  C   UNL A   1      33.890  19.933  24.869  1.00  0.00     0.052 A 
ATOM     22  C   UNL A   1      33.060  19.512  25.924  1.00  0.00     0.030 A 
ATOM     23  C   UNL A   1      34.228  18.987  23.887  1.00  0.00     0.050 A 
ATOM     24  C   UNL A   1      32.595  18.196  26.004  1.00  0.00     0.043 A 
ATOM     25  C   UNL A   1      33.779  17.663  23.979  1.00  0.00     0.078 A 
ATOM     26  C   UNL A   1      32.965  17.275  25.036  1.00  0.00     0.141 A 
ATOM     27  Cl  UNL A   1      34.282  16.520  22.792  1.00  0.00    -0.081 Cl
ATOM     28  F   UNL A   1      32.531  16.011  25.144  1.00  0.00    -0.205 F 
ENDBRANCH  18  21
ENDBRANCH   9  13
ENDBRANCH   6   7
ENDBRANCH   5   6
ENDBRANCH   3   5
ENDBRANCH   2   3
ENDBRANCH   1   2
BRANCH   1  29
ATOM     29  C   UNL A   1      33.027  29.784  27.152  1.00  0.00     0.275 C 
BRANCH  29  30
ATOM     30  O   UNL A   1      34.175  30.622  26.986  1.00  0.00    -0.458 OA
BRANCH  30  31
ATOM     31  C   UNL A   1      34.677  31.162  28.125  1.00  0.00     0.338 C 
ATOM     32  O   UNL A   1      34.106  31.900  28.904  1.00  0.00    -0.246 OA
BRANCH  31  33
ATOM     33  C   UNL A   1      35.969  30.496  28.380  1.00  0.00     0.060 A 
ATOM     34  C   UNL A   1      36.301  30.149  29.698  1.00  0.00     0.016 A 
ATOM     35  C   UNL A   1      36.815  30.166  27.319  1.00  0.00     0.016 A 
ATOM     36  C   UNL A   1      37.501  29.491  29.960  1.00  0.00     0.010 A 
ATOM     37  C   UNL A   1      38.015  29.522  27.581  1.00  0.00     0.010 A 
ATOM     38  C   UNL A   1      38.376  29.213  28.902  1.00  0.00    -0.014 A 
BRANCH  38  39
ATOM     39  C   UNL A   1      39.778  28.827  29.150  1.00  0.00     0.031 A 
ATOM     40  C   UNL A   1      40.729  29.917  29.543  1.00  0.00     0.074 A 
ATOM     41  C   UNL A   1      40.208  27.581  28.893  1.00  0.00     0.049 A 
ATOM     42  N   UNL A   1      42.033  29.907  29.588  1.00  0.00    -0.248 NA
ATOM     43  C   UNL A   1      40.119  31.210  29.901  1.00  0.00     0.031 C 
ATOM     44  C   UNL A   1      39.359  26.454  28.510  1.00  0.00     0.029 A 
ATOM     45  N   UNL A   1      41.480  27.074  28.871  1.00  0.00    -0.354 N 
ATOM     46  C   UNL A   1      42.401  31.196  29.952  1.00  0.00     0.074 A 
ATOM     47  C   UNL A   1      41.187  31.966  30.098  1.00  0.00     0.031 C 
ATOM     48  C   UNL A   1      40.142  25.394  28.245  1.00  0.00     0.029 A 
ATOM     49  C   UNL A   1      41.543  25.783  28.407  1.00  0.00     0.049 A 
ATOM     50  H   UNL A   1      42.272  27.585  29.159  1.00  0.00     0.167 HD
ATOM     51  C   UNL A   1      43.645  31.693  30.139  1.00  0.00     0.037 A 
ATOM     52  C   UNL A   1      42.615  25.021  28.109  1.00  0.00     0.037 A 
ATOM     53  C   UNL A   1      44.842  30.916  29.971  1.00  0.00     0.049 A 
ATOM     54  C   UNL A   1      43.994  25.591  28.308  1.00  0.00     0.074 A 
ATOM     55  C   UNL A   1      46.155  31.302  30.157  1.00  0.00     0.029 A 
ATOM     56  N   UNL A   1      44.863  29.590  29.560  1.00  0.00    -0.354 N 
ATOM     57  N   UNL A   1      44.338  26.799  28.693  1.00  0.00    -0.248 NA
ATOM     58  C   UNL A   1      45.131  24.702  28.037  1.00  0.00     0.031 C 
ATOM     59  C   UNL A   1      46.975  30.218  29.824  1.00  0.00     0.029 A 
ATOM     60  C   UNL A   1      46.169  29.144  29.472  1.00  0.00     0.049 A 
ATOM     61  H   UNL A   1      44.067  29.047  29.361  1.00  0.00     0.167 HD
ATOM     62  C   UNL A   1      45.727  26.807  28.738  1.00  0.00     0.074 A 
ATOM     63  C   UNL A   1      46.161  25.482  28.336  1.00  0.00     0.031 C 
ATOM     64  C   UNL A   1      46.569  27.813  29.083  1.00  0.00     0.037 A 
BRANCH  51  65
ATOM     65  C   UNL A   1      43.748  33.148  30.496  1.00  0.00     0.058 A 
ATOM     66  C   UNL A   1      43.752  34.151  29.513  1.00  0.00     0.135 A 
ATOM     67  C   UNL A   1      43.900  33.541  31.835  1.00  0.00     0.135 A 
ATOM     68  F   UNL A   1      43.635  33.825  28.215  1.00  0.00    -0.206 F 
ATOM     69  C   UNL A   1      43.955  35.488  29.839  1.00  0.00     0.059 A 
ATOM     70  C   UNL A   1      44.078  34.876  32.187  1.00  0.00     0.059 A 
ATOM     71  F   UNL A   1      43.910  32.623  32.814  1.00  0.00    -0.206 F 
ATOM     72  C   UNL A   1      44.130  35.838  31.179  1.00  0.00     0.060 A 
BRANCH  72  73
ATOM     73  S   UNL A   1      44.446  37.567  31.587  1.00  0.00     0.124 S 
ATOM     74  O   UNL A   1      43.669  37.722  32.813  1.00  0.00    -0.237 OA
ATOM     75  O   UNL A   1      45.896  37.594  31.749  1.00  0.00    -0.237 OA
ATOM     76  O   UNL A   1      43.936  38.288  30.425  1.00  0.00    -0.744 OA
ENDBRANCH  72  73
ENDBRANCH  51  65
BRANCH  52  77
ATOM     77  C   UNL A   1      42.409  23.645  27.592  1.00  0.00     0.058 A 
ATOM     78  C   UNL A   1      42.397  23.388  26.214  1.00  0.00     0.135 A 
ATOM     79  C   UNL A   1      42.292  22.549  28.463  1.00  0.00     0.135 A 
ATOM     80  F   UNL A   1      42.497  24.403  25.343  1.00  0.00    -0.206 F 
ATOM     81  C   UNL A   1      42.286  22.094  25.715  1.00  0.00     0.059 A 
ATOM     82  C   UNL A   1      42.198  21.245  27.989  1.00  0.00     0.059 A 
ATOM     83  F   UNL A   1      42.313  22.742  29.792  1.00  0.00    -0.206 F 
ATOM     84  C   UNL A   1      42.198  21.027  26.611  1.00  0.00     0.060 A 
BRANCH  84  85
ATOM     85  S   UNL A   1      42.164  19.345  25.953  1.00  0.00     0.124 S 
ATOM     86  O   UNL A   1      42.637  18.572  27.094  1.00  0.00    -0.237 OA
ATOM     87  O   UNL A   1      40.754  19.181  25.610  1.00  0.00    -0.237 OA
ATOM     88  O   UNL A   1      43.072  19.414  24.812  1.00  0.00    -0.744 OA
ENDBRANCH  84  85
ENDBRANCH  52  77
BRANCH  64  89
ATOM     89  C   UNL A   1      48.041  27.519  29.091  1.00  0.00     0.058 A 
ATOM     90  C   UNL A   1      48.876  27.907  28.034  1.00  0.00     0.135 A 
ATOM     91  C   UNL A   1      48.635  26.937  30.223  1.00  0.00     0.135 A 
ATOM     92  F   UNL A   1      48.353  28.462  26.929  1.00  0.00    -0.206 F 
ATOM     93  C   UNL A   1      50.253  27.726  28.096  1.00  0.00     0.059 A 
ATOM     94  C   UNL A   1      50.012  26.767  30.316  1.00  0.00     0.059 A 
ATOM     95  F   UNL A   1      47.878  26.560  31.266  1.00  0.00    -0.206 F 
ATOM     96  C   UNL A   1      50.814  27.162  29.245  1.00  0.00     0.060 A 
BRANCH  96  97
ATOM     97  S   UNL A   1      52.608  26.998  29.347  1.00  0.00     0.124 S 
ATOM     98  O   UNL A   1      52.770  26.330  30.633  1.00  0.00    -0.237 OA
ATOM     99  O   UNL A   1      52.918  26.192  28.170  1.00  0.00    -0.237 OA
ATOM    100  O   UNL A   1      53.078  28.379  29.292  1.00  0.00    -0.744 OA
ENDBRANCH  96  97
ENDBRANCH  64  89
ENDBRANCH  38  39
ENDBRANCH  31  33
ENDBRANCH  30  31
ENDBRANCH  29  30
ENDBRANCH   1  29
TORSDOF 18
ENDMDL
MODEL 3
REMARK VINA RESULT:     -11.1      6.644     10.462
REMARK SMILES O=C(COc1ccccc1/C=C1/SC(=S)N(c2ccc(F)c(Cl)c2)C1=O)OCCOC(=O)c1ccc(-c2c3nc(c(-c4c(F)cc(S(=O)(=O)[O-])cc4F)c4ccc([nH]4)c(-c4c(F)cc(S(=O)(=O)[O-])cc4F)c4nc(c(-c5c(F)cc(S(=O)(=O)[O-])cc5F)c5ccc2[nH]5)C=C4)C=C3)cc1
REMARK SMILES IDX 28 1 27 2 2 3 1 4 3 5 4 6 5 7 6 8 10 9 7 10 9 11 8 12 11 13
REMARK SMILES IDX 12 14 13 15 25 16 14 17 16 18 26 19 15 20 17 21 18 22 24 23
REMARK SMILES IDX 19 24 22 25 20 26 23 27 21 28 29 29 30 30 31 31 32 32 33 33
REMARK SMILES IDX 34 34 98 35 35 36 97 37 36 38 37 39 38 40 91 41 39 42 96 43
REMARK SMILES IDX 90 44 92 45 40 46 95 47 89 48 88 49 41 51 75 52 54 53 74 54
REMARK SMILES IDX 55 55 58 56 73 57 93 58 56 59 57 60 72 62 94 63 59 64 42 65
REMARK SMILES IDX 43 66 52 67 44 68 45 69 51 70 53 71 46 72 47 73 48 74 49 75
REMARK SMILES IDX 50 76 76 77 77 78 86 79 78 80 79 81 85 82 87 83 80 84 81 85
REMARK SMILES IDX 82 86 83 87 84 88 60 89 61 90 70 91 62 92 63 93 69 94 71 95
REMARK SMILES IDX 64 96 65 97 66 98 67 99 68 100
REMARK H PARENT 92 50 58 61
REMARK Flexibility Score: inf
ROOT
ATOM      1  C   UNL A   1      33.388  33.310  28.213  1.00  0.00     0.274 C 
ENDROOT
BRANCH   1   2
ATOM      2  O   UNL A   1      34.709  33.274  27.634  1.00  0.00    -0.460 OA
BRANCH   2   3
ATOM      3  C   UNL A   1      35.781  32.665  28.199  1.00  0.00     0.344 C 
ATOM      4  O   UNL A   1      36.792  33.313  28.464  1.00  0.00    -0.248 OA
BRANCH   3   5
ATOM      5  C   UNL A   1      35.663  31.199  28.573  1.00  0.00     0.352 C 
BRANCH   5   6
ATOM      6  O   UNL A   1      36.862  30.497  28.243  1.00  0.00    -0.481 OA
BRANCH   6   7
ATOM      7  C   UNL A   1      37.445  29.985  29.378  1.00  0.00     0.127 A 
ATOM      8  C   UNL A   1      36.657  29.913  30.531  1.00  0.00     0.047 A 
ATOM      9  C   UNL A   1      38.791  29.577  29.393  1.00  0.00     0.018 A 
ATOM     10  C   UNL A   1      37.187  29.367  31.697  1.00  0.00     0.004 A 
ATOM     11  C   UNL A   1      39.302  29.012  30.569  1.00  0.00     0.012 A 
ATOM     12  C   UNL A   1      38.504  28.907  31.714  1.00  0.00     0.001 A 
BRANCH   9  13
ATOM     13  C   UNL A   1      39.665  29.633  28.210  1.00  0.00     0.033 C 
ATOM     14  C   UNL A   1      40.109  28.588  27.498  1.00  0.00     0.081 C 
ATOM     15  S   UNL A   1      41.325  28.728  26.290  1.00  0.00    -0.054 SA
ATOM     16  C   UNL A   1      39.752  27.154  27.682  1.00  0.00     0.270 C 
ATOM     17  C   UNL A   1      41.652  26.992  26.293  1.00  0.00     0.152 C 
ATOM     18  N   UNL A   1      40.730  26.338  27.104  1.00  0.00    -0.261 N 
ATOM     19  O   UNL A   1      38.730  26.794  28.248  1.00  0.00    -0.268 OA
ATOM     20  S   UNL A   1      42.857  26.366  25.313  1.00  0.00    -0.051 S 
BRANCH  18  21
ATOM     21  C   UNL A   1      40.712  24.925  27.365  1.00  0.00     0.052 A 
ATOM     22  C   UNL A   1      41.606  24.358  28.290  1.00  0.00     0.030 A 
ATOM     23  C   UNL A   1      39.875  24.053  26.647  1.00  0.00     0.050 A 
ATOM     24  C   UNL A   1      41.676  22.975  28.483  1.00  0.00     0.043 A 
ATOM     25  C   UNL A   1      39.959  22.667  26.826  1.00  0.00     0.078 A 
ATOM     26  C   UNL A   1      40.858  22.135  27.743  1.00  0.00     0.141 A 
ATOM     27  Cl  UNL A   1      38.968  21.633  25.868  1.00  0.00    -0.081 Cl
ATOM     28  F   UNL A   1      40.957  20.810  27.922  1.00  0.00    -0.205 F 
ENDBRANCH  18  21
ENDBRANCH   9  13
ENDBRANCH   6   7
ENDBRANCH   5   6
ENDBRANCH   3   5
ENDBRANCH   2   3
ENDBRANCH   1   2
BRANCH   1  29
ATOM     29  C   UNL A   1      32.945  34.749  28.463  1.00  0.00     0.275 C 
BRANCH  29  30
ATOM     30  O   UNL A   1      33.783  35.317  29.474  1.00  0.00    -0.458 OA
BRANCH  30  31
ATOM     31  C   UNL A   1      33.339  35.180  30.749  1.00  0.00     0.338 C 
ATOM     32  O   UNL A   1      32.194  35.280  31.145  1.00  0.00    -0.246 OA
BRANCH  31  33
ATOM     33  C   UNL A   1      34.465  34.644  31.538  1.00  0.00     0.060 A 
ATOM     34  C   UNL A   1      35.291  35.542  32.231  1.00  0.00     0.016 A 
ATOM     35  C   UNL A   1      34.665  33.265  31.637  1.00  0.00     0.016 A 
ATOM     36  C   UNL A   1      36.341  35.058  33.009  1.00  0.00     0.010 A 
ATOM     37  C   UNL A   1      35.718  32.784  32.402  1.00  0.00     0.010 A 
ATOM     38  C   UNL A   1      36.577  33.679  33.061  1.00  0.00    -0.014 A 
BRANCH  38  39
ATOM     39  C   UNL A   1      37.845  33.138  33.585  1.00  0.00     0.031 A 
ATOM     40  C   UNL A   1      38.014  33.110  35.075  1.00  0.00     0.074 A 
ATOM     41  C   UNL A   1      38.855  32.820  32.760  1.00  0.00     0.049 A 
ATOM     42  N   UNL A   1      39.091  32.916  35.786  1.00  0.00    -0.248 NA
ATOM     43  C   UNL A   1      36.801  33.376  35.869  1.00  0.00     0.031 C 
ATOM     44  C   UNL A   1      38.785  32.812  31.300  1.00  0.00     0.029 A 
ATOM     45  N   UNL A   1      40.155  32.491  33.041  1.00  0.00    -0.354 N 
ATOM     46  C   UNL A   1      38.692  33.062  37.108  1.00  0.00     0.074 A 
ATOM     47  C   UNL A   1      37.282  33.378  37.102  1.00  0.00     0.031 C 
ATOM     48  C   UNL A   1      40.006  32.537  30.810  1.00  0.00     0.029 A 
ATOM     49  C   UNL A   1      40.944  32.385  31.923  1.00  0.00     0.049 A 
ATOM     50  H   UNL A   1      40.490  32.344  33.956  1.00  0.00     0.167 HD
ATOM     51  C   UNL A   1      39.442  32.949  38.229  1.00  0.00     0.037 A 
ATOM     52  C   UNL A   1      42.278  32.226  31.816  1.00  0.00     0.037 A 
ATOM     53  C   UNL A   1      40.848  32.652  38.215  1.00  0.00     0.049 A 
ATOM     54  C   UNL A   1      43.103  32.117  33.071  1.00  0.00     0.074 A 
ATOM     55  C   UNL A   1      41.706  32.488  39.285  1.00  0.00     0.029 A 
ATOM     56  N   UNL A   1      41.602  32.489  37.061  1.00  0.00    -0.354 N 
ATOM     57  N   UNL A   1      42.715  32.214  34.322  1.00  0.00    -0.248 NA
ATOM     58  C   UNL A   1      44.542  31.875  32.906  1.00  0.00     0.031 C 
ATOM     59  C   UNL A   1      42.990  32.260  38.776  1.00  0.00     0.029 A 
ATOM     60  C   UNL A   1      42.921  32.240  37.390  1.00  0.00     0.049 A 
ATOM     61  H   UNL A   1      41.250  32.543  36.143  1.00  0.00     0.167 HD
ATOM     62  C   UNL A   1      43.855  32.017  35.093  1.00  0.00     0.074 A 
ATOM     63  C   UNL A   1      44.949  31.799  34.167  1.00  0.00     0.031 C 
ATOM     64  C   UNL A   1      43.986  32.012  36.443  1.00  0.00     0.037 A 
BRANCH  51  65
ATOM     65  C   UNL A   1      38.749  33.198  39.537  1.00  0.00     0.058 A 
ATOM     66  C   UNL A   1      37.896  32.242  40.115  1.00  0.00     0.135 A 
ATOM     67  C   UNL A   1      38.894  34.429  40.196  1.00  0.00     0.135 A 
ATOM     68  F   UNL A   1      37.703  31.058  39.512  1.00  0.00    -0.206 F 
ATOM     69  C   UNL A   1      37.173  32.517  41.270  1.00  0.00     0.059 A 
ATOM     70  C   UNL A   1      38.201  34.716  41.368  1.00  0.00     0.059 A 
ATOM     71  F   UNL A   1      39.692  35.380  39.685  1.00  0.00    -0.206 F 
ATOM     72  C   UNL A   1      37.323  33.762  41.883  1.00  0.00     0.060 A 
BRANCH  72  73
ATOM     73  S   UNL A   1      36.340  34.130  43.351  1.00  0.00     0.124 S 
ATOM     74  O   UNL A   1      36.973  35.357  43.823  1.00  0.00    -0.237 OA
ATOM     75  O   UNL A   1      34.997  34.280  42.803  1.00  0.00    -0.237 OA
ATOM     76  O   UNL A   1      36.541  32.956  44.194  1.00  0.00    -0.744 OA
ENDBRANCH  72  73
ENDBRANCH  51  65
BRANCH  52  77
ATOM     77  C   UNL A   1      42.900  32.166  30.469  1.00  0.00     0.058 A 
ATOM     78  C   UNL A   1      43.481  33.304  29.893  1.00  0.00     0.135 A 
ATOM     79  C   UNL A   1      42.987  30.956  29.761  1.00  0.00     0.135 A 
ATOM     80  F   UNL A   1      43.415  34.484  30.527  1.00  0.00    -0.206 F 
ATOM     81  C   UNL A   1      44.138  33.246  28.668  1.00  0.00     0.059 A 
ATOM     82  C   UNL A   1      43.654  30.868  28.543  1.00  0.00     0.059 A 
ATOM     83  F   UNL A   1      42.458  29.836  30.277  1.00  0.00    -0.206 F 
ATOM     84  C   UNL A   1      44.229  32.020  28.005  1.00  0.00     0.060 A 
BRANCH  84  85
ATOM     85  S   UNL A   1      45.176  31.935  26.469  1.00  0.00     0.124 S 
ATOM     86  O   UNL A   1      44.222  32.465  25.504  1.00  0.00    -0.237 OA
ATOM     87  O   UNL A   1      46.322  32.788  26.770  1.00  0.00    -0.237 OA
ATOM     88  O   UNL A   1      45.482  30.513  26.343  1.00  0.00    -0.744 OA
ENDBRANCH  84  85
ENDBRANCH  52  77
BRANCH  64  89
ATOM     89  C   UNL A   1      45.345  31.718  37.011  1.00  0.00     0.058 A 
ATOM     90  C   UNL A   1      45.774  30.405  37.255  1.00  0.00     0.135 A 
ATOM     91  C   UNL A   1      46.264  32.761  37.210  1.00  0.00     0.135 A 
ATOM     92  F   UNL A   1      44.929  29.376  37.084  1.00  0.00    -0.206 F 
ATOM     93  C   UNL A   1      47.070  30.136  37.680  1.00  0.00     0.059 A 
ATOM     94  C   UNL A   1      47.571  32.513  37.614  1.00  0.00     0.059 A 
ATOM     95  F   UNL A   1      45.903  34.033  36.978  1.00  0.00    -0.206 F 
ATOM     96  C   UNL A   1      47.965  31.195  37.849  1.00  0.00     0.060 A 
BRANCH  96  97
ATOM     97  S   UNL A   1      49.665  30.829  38.330  1.00  0.00     0.124 S 
ATOM     98  O   UNL A   1      49.488  29.634  39.149  1.00  0.00    -0.237 OA
ATOM     99  O   UNL A   1      50.319  30.624  37.041  1.00  0.00    -0.237 OA
ATOM    100  O   UNL A   1      50.080  32.029  39.051  1.00  0.00    -0.744 OA
ENDBRANCH  96  97
ENDBRANCH  64  89
ENDBRANCH  38  39
ENDBRANCH  31  33
ENDBRANCH  30  31
ENDBRANCH  29  30
ENDBRANCH   1  29
TORSDOF 18
ENDMDL
