MODEL 1
REMARK VINA RESULT:     -10.1      0.000      0.000
REMARK SMILES CC[NH2+][C@@]1(C(=O)OCCOC(=O)c2ccc(-c3c4nc(c(-c5c(F)cc(S(=O)(=O)[O-])cc5F)c5ccc([nH]5)c(-c5c(F)cc(S(=O)(=O)[O-])cc5F)c5nc(c(-c6c(F)cc(S(=O)(=O)[O-])cc6F)c6ccc3[nH]6)C=C5)C=C4)cc2)CC[C@@H](n2cnc3ccccc32)C1
REMARK SMILES IDX 9 1 8 2 7 3 5 4 6 5 4 6 79 7 91 8 80 9 81 10 3 11 2 14 1 15
REMARK SMILES IDX 82 16 83 17 90 18 84 19 85 20 89 21 86 22 88 23 87 24 10 25
REMARK SMILES IDX 11 26 12 27 13 28 14 29 78 30 15 31 77 32 16 33 17 34 18 35
REMARK SMILES IDX 71 36 19 37 76 38 70 39 72 40 20 41 75 42 69 43 68 44 21 46
REMARK SMILES IDX 55 47 34 48 54 49 35 50 38 51 53 52 73 53 36 54 37 55 52 57
REMARK SMILES IDX 74 58 39 59 22 60 23 61 32 62 24 63 25 64 31 65 33 66 26 67
REMARK SMILES IDX 27 68 28 69 29 70 30 71 56 72 57 73 66 74 58 75 59 76 65 77
REMARK SMILES IDX 67 78 60 79 61 80 62 81 63 82 64 83 40 84 41 85 50 86 42 87
REMARK SMILES IDX 43 88 49 89 51 90 44 91 45 92 46 93 47 94 48 95
REMARK H PARENT 3 12 3 13 72 45 38 56
REMARK Flexibility Score: inf
ROOT
ATOM      1  C   UNL A   1      33.275  32.506  28.021  1.00  0.00     0.275 C 
ENDROOT
BRANCH   1   2
ATOM      2  C   UNL A   1      33.335  34.041  27.965  1.00  0.00     0.274 C 
BRANCH   2   3
ATOM      3  O   UNL A   1      34.229  34.656  28.924  1.00  0.00    -0.457 OA
BRANCH   3   4
ATOM      4  C   UNL A   1      33.814  34.427  30.191  1.00  0.00     0.368 C 
ATOM      5  O   UNL A   1      32.764  34.894  30.641  1.00  0.00    -0.245 OA
BRANCH   4   6
ATOM      6  C   UNL A   1      34.813  33.749  31.150  1.00  0.00     0.196 C 
ATOM      7  C   UNL A   1      36.121  34.161  30.333  1.00  0.00     0.083 C 
ATOM      8  C   UNL A   1      35.121  32.268  31.379  1.00  0.00     0.106 C 
ATOM      9  C   UNL A   1      37.144  33.041  30.409  1.00  0.00     0.033 C 
ATOM     10  C   UNL A   1      36.667  32.215  31.579  1.00  0.00     0.096 C 
BRANCH   6  11
ATOM     11  N   UNL A   1      34.571  34.311  32.510  1.00  0.00    -0.332 N 
ATOM     12  H   UNL A   1      33.564  34.423  32.631  1.00  0.00     0.347 HD
ATOM     13  H   UNL A   1      34.987  33.653  33.169  1.00  0.00     0.347 HD
BRANCH  11  14
ATOM     14  C   UNL A   1      35.211  35.613  32.769  1.00  0.00     0.257 C 
ATOM     15  C   UNL A   1      34.182  36.592  33.328  1.00  0.00     0.071 C 
ENDBRANCH  11  14
ENDBRANCH   6  11
BRANCH  10  16
ATOM     16  N   UNL A   1      37.328  32.630  32.828  1.00  0.00    -0.327 N 
ATOM     17  C   UNL A   1      37.035  31.967  34.006  1.00  0.00     0.200 A 
ATOM     18  C   UNL A   1      38.565  33.251  33.043  1.00  0.00     0.068 A 
ATOM     19  N   UNL A   1      38.046  31.947  34.842  1.00  0.00    -0.237 NA
ATOM     20  C   UNL A   1      39.014  32.717  34.256  1.00  0.00     0.088 A 
ATOM     21  C   UNL A   1      39.383  34.176  32.360  1.00  0.00     0.028 A 
ATOM     22  C   UNL A   1      40.315  33.004  34.714  1.00  0.00     0.030 A 
ATOM     23  C   UNL A   1      40.658  34.479  32.842  1.00  0.00     0.002 A 
ATOM     24  C   UNL A   1      41.135  33.878  33.992  1.00  0.00     0.002 A 
ENDBRANCH  10  16
ENDBRANCH   4   6
ENDBRANCH   3   4
ENDBRANCH   2   3
ENDBRANCH   1   2
BRANCH   1  25
ATOM     25  O   UNL A   1      34.521  31.866  27.684  1.00  0.00    -0.458 OA
BRANCH  25  26
ATOM     26  C   UNL A   1      34.514  30.513  27.751  1.00  0.00     0.338 C 
ATOM     27  O   UNL A   1      33.543  29.791  27.591  1.00  0.00    -0.246 OA
BRANCH  26  28
ATOM     28  C   UNL A   1      35.857  29.960  28.046  1.00  0.00     0.060 A 
ATOM     29  C   UNL A   1      36.185  29.478  29.314  1.00  0.00     0.016 A 
ATOM     30  C   UNL A   1      36.865  30.113  27.093  1.00  0.00     0.016 A 
ATOM     31  C   UNL A   1      37.520  29.237  29.649  1.00  0.00     0.010 A 
ATOM     32  C   UNL A   1      38.185  29.762  27.401  1.00  0.00     0.010 A 
ATOM     33  C   UNL A   1      38.537  29.334  28.692  1.00  0.00    -0.014 A 
BRANCH  33  34
ATOM     34  C   UNL A   1      39.948  28.961  29.006  1.00  0.00     0.031 A 
ATOM     35  C   UNL A   1      40.929  29.996  29.491  1.00  0.00     0.074 A 
ATOM     36  C   UNL A   1      40.378  27.698  28.799  1.00  0.00     0.049 A 
ATOM     37  N   UNL A   1      42.238  29.963  29.482  1.00  0.00    -0.248 NA
ATOM     38  C   UNL A   1      40.368  31.235  30.053  1.00  0.00     0.031 C 
ATOM     39  C   UNL A   1      39.539  26.565  28.401  1.00  0.00     0.029 A 
ATOM     40  N   UNL A   1      41.642  27.159  28.870  1.00  0.00    -0.354 N 
ATOM     41  C   UNL A   1      42.658  31.194  29.974  1.00  0.00     0.074 A 
ATOM     42  C   UNL A   1      41.463  31.947  30.293  1.00  0.00     0.031 C 
ATOM     43  C   UNL A   1      40.301  25.470  28.277  1.00  0.00     0.029 A 
ATOM     44  C   UNL A   1      41.696  25.848  28.458  1.00  0.00     0.049 A 
ATOM     45  H   UNL A   1      42.428  27.662  29.184  1.00  0.00     0.167 HD
ATOM     46  C   UNL A   1      43.925  31.653  30.128  1.00  0.00     0.037 A 
ATOM     47  C   UNL A   1      42.741  25.052  28.161  1.00  0.00     0.037 A 
ATOM     48  C   UNL A   1      45.106  30.872  29.854  1.00  0.00     0.049 A 
ATOM     49  C   UNL A   1      44.132  25.604  28.246  1.00  0.00     0.074 A 
ATOM     50  C   UNL A   1      46.434  31.237  30.005  1.00  0.00     0.029 A 
ATOM     51  N   UNL A   1      45.103  29.569  29.382  1.00  0.00    -0.354 N 
ATOM     52  N   UNL A   1      44.519  26.797  28.625  1.00  0.00    -0.248 NA
ATOM     53  C   UNL A   1      45.224  24.717  27.823  1.00  0.00     0.031 C 
ATOM     54  C   UNL A   1      47.233  30.168  29.583  1.00  0.00     0.029 A 
ATOM     55  C   UNL A   1      46.404  29.125  29.207  1.00  0.00     0.049 A 
ATOM     56  H   UNL A   1      44.296  29.036  29.198  1.00  0.00     0.167 HD
ATOM     57  C   UNL A   1      45.900  26.810  28.477  1.00  0.00     0.074 A 
ATOM     58  C   UNL A   1      46.283  25.497  27.998  1.00  0.00     0.031 C 
ATOM     59  C   UNL A   1      46.770  27.822  28.709  1.00  0.00     0.037 A 
BRANCH  46  60
ATOM     60  C   UNL A   1      44.115  33.078  30.569  1.00  0.00     0.058 A 
ATOM     61  C   UNL A   1      44.215  33.437  31.921  1.00  0.00     0.135 A 
ATOM     62  C   UNL A   1      44.274  34.093  29.610  1.00  0.00     0.135 A 
ATOM     63  F   UNL A   1      44.060  32.509  32.879  1.00  0.00    -0.206 F 
ATOM     64  C   UNL A   1      44.452  34.753  32.308  1.00  0.00     0.059 A 
ATOM     65  C   UNL A   1      44.530  35.412  29.973  1.00  0.00     0.059 A 
ATOM     66  F   UNL A   1      44.188  33.805  28.302  1.00  0.00    -0.206 F 
ATOM     67  C   UNL A   1      44.609  35.734  31.327  1.00  0.00     0.060 A 
BRANCH  67  68
ATOM     68  S   UNL A   1      44.932  37.436  31.841  1.00  0.00     0.124 S 
ATOM     69  O   UNL A   1      43.878  38.159  31.135  1.00  0.00    -0.237 OA
ATOM     70  O   UNL A   1      44.784  37.359  33.292  1.00  0.00    -0.237 OA
ATOM     71  O   UNL A   1      46.288  37.685  31.366  1.00  0.00    -0.744 OA
ENDBRANCH  67  68
ENDBRANCH  46  60
BRANCH  47  72
ATOM     72  C   UNL A   1      42.487  23.679  27.649  1.00  0.00     0.058 A 
ATOM     73  C   UNL A   1      42.301  23.441  26.282  1.00  0.00     0.135 A 
ATOM     74  C   UNL A   1      42.490  22.572  28.515  1.00  0.00     0.135 A 
ATOM     75  F   UNL A   1      42.274  24.469  25.420  1.00  0.00    -0.206 F 
ATOM     76  C   UNL A   1      42.141  22.151  25.786  1.00  0.00     0.059 A 
ATOM     77  C   UNL A   1      42.362  21.273  28.040  1.00  0.00     0.059 A 
ATOM     78  F   UNL A   1      42.675  22.749  29.833  1.00  0.00    -0.206 F 
ATOM     79  C   UNL A   1      42.184  21.072  26.672  1.00  0.00     0.060 A 
BRANCH  79  80
ATOM     80  S   UNL A   1      42.077  19.394  26.013  1.00  0.00     0.124 S 
ATOM     81  O   UNL A   1      42.981  19.471  24.872  1.00  0.00    -0.237 OA
ATOM     82  O   UNL A   1      42.537  18.588  27.140  1.00  0.00    -0.237 OA
ATOM     83  O   UNL A   1      40.661  19.253  25.691  1.00  0.00    -0.744 OA
ENDBRANCH  79  80
ENDBRANCH  47  72
BRANCH  59  84
ATOM     84  C   UNL A   1      48.222  27.551  28.442  1.00  0.00     0.058 A 
ATOM     85  C   UNL A   1      49.047  26.984  29.424  1.00  0.00     0.135 A 
ATOM     86  C   UNL A   1      48.782  27.824  27.185  1.00  0.00     0.135 A 
ATOM     87  F   UNL A   1      48.559  26.717  30.646  1.00  0.00    -0.206 F 
ATOM     88  C   UNL A   1      50.387  26.707  29.173  1.00  0.00     0.059 A 
ATOM     89  C   UNL A   1      50.115  27.538  26.906  1.00  0.00     0.059 A 
ATOM     90  F   UNL A   1      48.031  28.364  26.213  1.00  0.00    -0.206 F 
ATOM     91  C   UNL A   1      50.911  26.987  27.910  1.00  0.00     0.060 A 
BRANCH  91  92
ATOM     92  S   UNL A   1      52.642  26.592  27.584  1.00  0.00     0.124 S 
ATOM     93  O   UNL A   1      52.520  25.378  26.782  1.00  0.00    -0.237 OA
ATOM     94  O   UNL A   1      53.107  27.778  26.872  1.00  0.00    -0.237 OA
ATOM     95  O   UNL A   1      53.205  26.408  28.918  1.00  0.00    -0.744 OA
ENDBRANCH  91  92
ENDBRANCH  59  84
ENDBRANCH  33  34
ENDBRANCH  26  28
ENDBRANCH  25  26
ENDBRANCH   1  25
TORSDOF 17
ENDMDL
MODEL 2
REMARK VINA RESULT:     -10.1      3.834      6.392
REMARK SMILES CC[NH2+][C@@]1(C(=O)OCCOC(=O)c2ccc(-c3c4nc(c(-c5c(F)cc(S(=O)(=O)[O-])cc5F)c5ccc([nH]5)c(-c5c(F)cc(S(=O)(=O)[O-])cc5F)c5nc(c(-c6c(F)cc(S(=O)(=O)[O-])cc6F)c6ccc3[nH]6)C=C5)C=C4)cc2)CC[C@@H](n2cnc3ccccc32)C1
REMARK SMILES IDX 9 1 8 2 7 3 5 4 6 5 4 6 79 7 91 8 80 9 81 10 3 11 2 14 1 15
REMARK SMILES IDX 82 16 83 17 90 18 84 19 85 20 89 21 86 22 88 23 87 24 10 25
REMARK SMILES IDX 11 26 12 27 13 28 14 29 78 30 15 31 77 32 16 33 17 34 18 35
REMARK SMILES IDX 71 36 19 37 76 38 70 39 72 40 20 41 75 42 69 43 68 44 21 46
REMARK SMILES IDX 55 47 34 48 54 49 35 50 38 51 53 52 73 53 36 54 37 55 52 57
REMARK SMILES IDX 74 58 39 59 22 60 23 61 32 62 24 63 25 64 31 65 33 66 26 67
REMARK SMILES IDX 27 68 28 69 29 70 30 71 56 72 57 73 66 74 58 75 59 76 65 77
REMARK SMILES IDX 67 78 60 79 61 80 62 81 63 82 64 83 40 84 41 85 50 86 42 87
REMARK SMILES IDX 43 88 49 89 51 90 44 91 45 92 46 93 47 94 48 95
REMARK H PARENT 3 12 3 13 72 45 38 56
REMARK Flexibility Score: inf
ROOT
ATOM      1  C   UNL A   1      34.145  29.862  26.943  1.00  0.00     0.275 C 
ENDROOT
BRANCH   1   2
ATOM      2  C   UNL A   1      32.639  29.999  27.215  1.00  0.00     0.274 C 
BRANCH   2   3
ATOM      3  O   UNL A   1      31.777  29.486  26.170  1.00  0.00    -0.457 OA
BRANCH   3   4
ATOM      4  C   UNL A   1      31.437  28.198  26.410  1.00  0.00     0.368 C 
ATOM      5  O   UNL A   1      31.373  27.728  27.549  1.00  0.00    -0.245 OA
BRANCH   4   6
ATOM      6  C   UNL A   1      31.352  27.253  25.195  1.00  0.00     0.196 C 
ATOM      7  C   UNL A   1      31.768  28.349  24.112  1.00  0.00     0.083 C 
ATOM      8  C   UNL A   1      30.136  26.654  24.485  1.00  0.00     0.106 C 
ATOM      9  C   UNL A   1      30.999  28.112  22.824  1.00  0.00     0.033 C 
ATOM     10  C   UNL A   1      30.507  26.693  22.970  1.00  0.00     0.096 C 
BRANCH   6  11
ATOM     11  N   UNL A   1      32.250  26.095  25.473  1.00  0.00    -0.332 N 
ATOM     12  H   UNL A   1      32.079  25.785  26.429  1.00  0.00     0.347 HD
ATOM     13  H   UNL A   1      32.029  25.388  24.771  1.00  0.00     0.347 HD
BRANCH  11  14
ATOM     14  C   UNL A   1      33.690  26.376  25.334  1.00  0.00     0.257 C 
ATOM     15  C   UNL A   1      34.497  25.147  25.739  1.00  0.00     0.071 C 
ENDBRANCH  11  14
ENDBRANCH   6  11
BRANCH  10  16
ATOM     16  N   UNL A   1      31.443  25.739  22.350  1.00  0.00    -0.327 N 
ATOM     17  C   UNL A   1      32.484  26.215  21.572  1.00  0.00     0.200 A 
ATOM     18  C   UNL A   1      31.823  24.449  22.739  1.00  0.00     0.068 A 
ATOM     19  N   UNL A   1      33.541  25.440  21.611  1.00  0.00    -0.237 NA
ATOM     20  C   UNL A   1      33.163  24.350  22.348  1.00  0.00     0.088 A 
ATOM     21  C   UNL A   1      31.221  23.356  23.398  1.00  0.00     0.028 A 
ATOM     22  C   UNL A   1      33.926  23.227  22.724  1.00  0.00     0.030 A 
ATOM     23  C   UNL A   1      31.979  22.232  23.735  1.00  0.00     0.002 A 
ATOM     24  C   UNL A   1      33.327  22.178  23.429  1.00  0.00     0.002 A 
ENDBRANCH  10  16
ENDBRANCH   4   6
ENDBRANCH   3   4
ENDBRANCH   2   3
ENDBRANCH   1   2
BRANCH   1  25
ATOM     25  O   UNL A   1      34.910  29.483  28.103  1.00  0.00    -0.458 OA
BRANCH  25  26
ATOM     26  C   UNL A   1      35.611  30.486  28.686  1.00  0.00     0.338 C 
ATOM     27  O   UNL A   1      35.143  31.511  29.155  1.00  0.00    -0.246 OA
BRANCH  26  28
ATOM     28  C   UNL A   1      37.067  30.212  28.710  1.00  0.00     0.060 A 
ATOM     29  C   UNL A   1      37.799  30.050  27.533  1.00  0.00     0.016 A 
ATOM     30  C   UNL A   1      37.668  29.912  29.934  1.00  0.00     0.016 A 
ATOM     31  C   UNL A   1      39.087  29.510  27.576  1.00  0.00     0.010 A 
ATOM     32  C   UNL A   1      38.999  29.478  29.977  1.00  0.00     0.010 A 
ATOM     33  C   UNL A   1      39.725  29.253  28.795  1.00  0.00    -0.014 A 
BRANCH  33  34
ATOM     34  C   UNL A   1      41.144  28.793  28.855  1.00  0.00     0.031 A 
ATOM     35  C   UNL A   1      42.263  29.773  29.099  1.00  0.00     0.074 A 
ATOM     36  C   UNL A   1      41.447  27.497  28.629  1.00  0.00     0.049 A 
ATOM     37  N   UNL A   1      43.541  29.648  28.846  1.00  0.00    -0.248 NA
ATOM     38  C   UNL A   1      41.896  31.066  29.699  1.00  0.00     0.031 C 
ATOM     39  C   UNL A   1      40.479  26.412  28.449  1.00  0.00     0.029 A 
ATOM     40  N   UNL A   1      42.665  26.874  28.487  1.00  0.00    -0.354 N 
ATOM     41  C   UNL A   1      44.123  30.862  29.193  1.00  0.00     0.074 A 
ATOM     42  C   UNL A   1      43.060  31.707  29.695  1.00  0.00     0.031 C 
ATOM     43  C   UNL A   1      41.133  25.264  28.235  1.00  0.00     0.029 A 
ATOM     44  C   UNL A   1      42.558  25.549  28.133  1.00  0.00     0.049 A 
ATOM     45  H   UNL A   1      43.527  27.330  28.624  1.00  0.00     0.167 HD
ATOM     46  C   UNL A   1      45.422  31.236  29.085  1.00  0.00     0.037 A 
ATOM     47  C   UNL A   1      43.476  24.672  27.682  1.00  0.00     0.037 A 
ATOM     48  C   UNL A   1      46.478  30.366  28.630  1.00  0.00     0.049 A 
ATOM     49  C   UNL A   1      44.889  25.128  27.478  1.00  0.00     0.074 A 
ATOM     50  C   UNL A   1      47.830  30.642  28.511  1.00  0.00     0.029 A 
ATOM     51  N   UNL A   1      46.304  29.051  28.227  1.00  0.00    -0.354 N 
ATOM     52  N   UNL A   1      45.415  26.303  27.722  1.00  0.00    -0.248 NA
ATOM     53  C   UNL A   1      45.823  24.154  26.899  1.00  0.00     0.031 C 
ATOM     54  C   UNL A   1      48.467  29.506  27.997  1.00  0.00     0.029 A 
ATOM     55  C   UNL A   1      47.517  28.511  27.832  1.00  0.00     0.049 A 
ATOM     56  H   UNL A   1      45.445  28.570  28.223  1.00  0.00     0.167 HD
ATOM     57  C   UNL A   1      46.740  26.214  27.317  1.00  0.00     0.074 A 
ATOM     58  C   UNL A   1      46.942  24.863  26.835  1.00  0.00     0.031 C 
ATOM     59  C   UNL A   1      47.700  27.171  27.335  1.00  0.00     0.037 A 
BRANCH  46  60
ATOM     60  C   UNL A   1      45.781  32.658  29.416  1.00  0.00     0.058 A 
ATOM     61  C   UNL A   1      46.237  33.039  30.686  1.00  0.00     0.135 A 
ATOM     62  C   UNL A   1      45.736  33.644  28.415  1.00  0.00     0.135 A 
ATOM     63  F   UNL A   1      46.289  32.141  31.683  1.00  0.00    -0.206 F 
ATOM     64  C   UNL A   1      46.623  34.349  30.957  1.00  0.00     0.059 A 
ATOM     65  C   UNL A   1      46.135  34.955  28.658  1.00  0.00     0.059 A 
ATOM     66  F   UNL A   1      45.309  33.333  27.181  1.00  0.00    -0.206 F 
ATOM     67  C   UNL A   1      46.569  35.301  29.936  1.00  0.00     0.060 A 
BRANCH  67  68
ATOM     68  S   UNL A   1      47.087  36.994  30.296  1.00  0.00     0.124 S 
ATOM     69  O   UNL A   1      46.058  37.766  29.606  1.00  0.00    -0.237 OA
ATOM     70  O   UNL A   1      47.038  37.034  31.754  1.00  0.00    -0.237 OA
ATOM     71  O   UNL A   1      48.423  37.073  29.714  1.00  0.00    -0.744 OA
ENDBRANCH  67  68
ENDBRANCH  46  60
BRANCH  47  72
ATOM     72  C   UNL A   1      43.044  23.304  27.290  1.00  0.00     0.058 A 
ATOM     73  C   UNL A   1      42.762  22.990  25.955  1.00  0.00     0.135 A 
ATOM     74  C   UNL A   1      42.968  22.270  28.240  1.00  0.00     0.135 A 
ATOM     75  F   UNL A   1      42.805  23.948  25.017  1.00  0.00    -0.206 F 
ATOM     76  C   UNL A   1      42.434  21.694  25.569  1.00  0.00     0.059 A 
ATOM     77  C   UNL A   1      42.671  20.964  27.874  1.00  0.00     0.059 A 
ATOM     78  F   UNL A   1      43.240  22.521  29.531  1.00  0.00    -0.206 F 
ATOM     79  C   UNL A   1      42.401  20.685  26.535  1.00  0.00     0.060 A 
BRANCH  79  80
ATOM     80  S   UNL A   1      42.074  18.987  26.015  1.00  0.00     0.124 S 
ATOM     81  O   UNL A   1      42.930  18.871  24.841  1.00  0.00    -0.237 OA
ATOM     82  O   UNL A   1      42.486  18.219  27.186  1.00  0.00    -0.237 OA
ATOM     83  O   UNL A   1      40.638  18.990  25.753  1.00  0.00    -0.744 OA
ENDBRANCH  79  80
ENDBRANCH  47  72
BRANCH  59  84
ATOM     84  C   UNL A   1      49.055  26.790  26.812  1.00  0.00     0.058 A 
ATOM     85  C   UNL A   1      50.003  26.171  27.639  1.00  0.00     0.135 A 
ATOM     86  C   UNL A   1      49.392  27.011  25.468  1.00  0.00     0.135 A 
ATOM     87  F   UNL A   1      49.731  25.951  28.934  1.00  0.00    -0.206 F 
ATOM     88  C   UNL A   1      51.251  25.793  27.152  1.00  0.00     0.059 A 
ATOM     89  C   UNL A   1      50.626  26.623  24.956  1.00  0.00     0.059 A 
ATOM     90  F   UNL A   1      48.515  27.596  24.638  1.00  0.00    -0.206 F 
ATOM     91  C   UNL A   1      51.553  26.023  25.808  1.00  0.00     0.060 A 
BRANCH  91  92
ATOM     92  S   UNL A   1      53.160  25.497  25.180  1.00  0.00     0.124 S 
ATOM     93  O   UNL A   1      53.092  25.939  23.791  1.00  0.00    -0.237 OA
ATOM     94  O   UNL A   1      54.088  26.232  26.035  1.00  0.00    -0.237 OA
ATOM     95  O   UNL A   1      53.147  24.051  25.380  1.00  0.00    -0.744 OA
ENDBRANCH  91  92
ENDBRANCH  59  84
ENDBRANCH  33  34
ENDBRANCH  26  28
ENDBRANCH  25  26
ENDBRANCH   1  25
TORSDOF 17
ENDMDL
MODEL 3
REMARK VINA RESULT:     -10.0      3.832     11.783
REMARK SMILES CC[NH2+][C@@]1(C(=O)OCCOC(=O)c2ccc(-c3c4nc(c(-c5c(F)cc(S(=O)(=O)[O-])cc5F)c5ccc([nH]5)c(-c5c(F)cc(S(=O)(=O)[O-])cc5F)c5nc(c(-c6c(F)cc(S(=O)(=O)[O-])cc6F)c6ccc3[nH]6)C=C5)C=C4)cc2)CC[C@@H](n2cnc3ccccc32)C1
REMARK SMILES IDX 9 1 8 2 7 3 5 4 6 5 4 6 79 7 91 8 80 9 81 10 3 11 2 14 1 15
REMARK SMILES IDX 82 16 83 17 90 18 84 19 85 20 89 21 86 22 88 23 87 24 10 25
REMARK SMILES IDX 11 26 12 27 13 28 14 29 78 30 15 31 77 32 16 33 17 34 18 35
REMARK SMILES IDX 71 36 19 37 76 38 70 39 72 40 20 41 75 42 69 43 68 44 21 46
REMARK SMILES IDX 55 47 34 48 54 49 35 50 38 51 53 52 73 53 36 54 37 55 52 57
REMARK SMILES IDX 74 58 39 59 22 60 23 61 32 62 24 63 25 64 31 65 33 66 26 67
REMARK SMILES IDX 27 68 28 69 29 70 30 71 56 72 57 73 66 74 58 75 59 76 65 77
REMARK SMILES IDX 67 78 60 79 61 80 62 81 63 82 64 83 40 84 41 85 50 86 42 87
REMARK SMILES IDX 43 88 49 89 51 90 44 91 45 92 46 93 47 94 48 95
REMARK H PARENT 3 12 3 13 72 45 38 56
REMARK Flexibility Score: inf
ROOT
ATOM      1  C   UNL A   1      40.153  20.912  26.499  1.00  0.00     0.275 C 
ENDROOT
BRANCH   1   2
ATOM      2  C   UNL A   1      41.302  19.963  26.124  1.00  0.00     0.274 C 
BRANCH   2   3
ATOM      3  O   UNL A   1      42.592  20.307  26.687  1.00  0.00    -0.457 OA
BRANCH   3   4
ATOM      4  C   UNL A   1      43.399  20.859  25.752  1.00  0.00     0.368 C 
ATOM      5  O   UNL A   1      43.593  20.339  24.650  1.00  0.00    -0.245 OA
BRANCH   4   6
ATOM      6  C   UNL A   1      44.266  22.057  26.187  1.00  0.00     0.196 C 
ATOM      7  C   UNL A   1      43.675  23.079  25.114  1.00  0.00     0.083 C 
ATOM      8  C   UNL A   1      45.759  22.327  25.987  1.00  0.00     0.106 C 
ATOM      9  C   UNL A   1      44.776  24.005  24.629  1.00  0.00     0.033 C 
ATOM     10  C   UNL A   1      45.845  23.854  25.684  1.00  0.00     0.096 C 
BRANCH   6  11
ATOM     11  N   UNL A   1      44.023  22.273  27.642  1.00  0.00    -0.332 N 
ATOM     12  H   UNL A   1      43.695  21.394  28.042  1.00  0.00     0.347 HD
ATOM     13  H   UNL A   1      44.909  22.591  28.036  1.00  0.00     0.347 HD
BRANCH  11  14
ATOM     14  C   UNL A   1      43.033  23.318  27.960  1.00  0.00     0.257 C 
ATOM     15  C   UNL A   1      42.164  22.867  29.130  1.00  0.00     0.071 C 
ENDBRANCH  11  14
ENDBRANCH   6  11
BRANCH  10  16
ATOM     16  N   UNL A   1      45.714  24.887  26.726  1.00  0.00    -0.327 N 
ATOM     17  C   UNL A   1      46.629  24.928  27.762  1.00  0.00     0.200 A 
ATOM     18  C   UNL A   1      45.142  26.164  26.678  1.00  0.00     0.068 A 
ATOM     19  N   UNL A   1      46.824  26.142  28.219  1.00  0.00    -0.237 NA
ATOM     20  C   UNL A   1      45.930  26.929  27.545  1.00  0.00     0.088 A 
ATOM     21  C   UNL A   1      44.076  26.787  25.995  1.00  0.00     0.028 A 
ATOM     22  C   UNL A   1      45.736  28.322  27.630  1.00  0.00     0.030 A 
ATOM     23  C   UNL A   1      43.873  28.164  26.113  1.00  0.00     0.002 A 
ATOM     24  C   UNL A   1      44.712  28.932  26.898  1.00  0.00     0.002 A 
ENDBRANCH  10  16
ENDBRANCH   4   6
ENDBRANCH   3   4
ENDBRANCH   2   3
ENDBRANCH   1   2
BRANCH   1  25
ATOM     25  O   UNL A   1      40.246  22.207  25.874  1.00  0.00    -0.458 OA
BRANCH  25  26
ATOM     26  C   UNL A   1      39.134  22.975  25.967  1.00  0.00     0.338 C 
ATOM     27  O   UNL A   1      38.027  22.691  25.540  1.00  0.00    -0.246 OA
BRANCH  26  28
ATOM     28  C   UNL A   1      39.394  24.253  26.673  1.00  0.00     0.060 A 
ATOM     29  C   UNL A   1      40.239  25.224  26.137  1.00  0.00     0.016 A 
ATOM     30  C   UNL A   1      38.941  24.392  27.986  1.00  0.00     0.016 A 
ATOM     31  C   UNL A   1      40.697  26.275  26.935  1.00  0.00     0.010 A 
ATOM     32  C   UNL A   1      39.314  25.509  28.745  1.00  0.00     0.010 A 
ATOM     33  C   UNL A   1      40.213  26.460  28.236  1.00  0.00    -0.014 A 
BRANCH  33  34
ATOM     34  C   UNL A   1      40.601  27.647  29.055  1.00  0.00     0.031 A 
ATOM     35  C   UNL A   1      41.833  27.616  29.922  1.00  0.00     0.074 A 
ATOM     36  C   UNL A   1      39.814  28.744  29.076  1.00  0.00     0.049 A 
ATOM     37  N   UNL A   1      42.144  28.374  30.943  1.00  0.00    -0.248 NA
ATOM     38  C   UNL A   1      42.845  26.595  29.607  1.00  0.00     0.031 C 
ATOM     39  C   UNL A   1      38.629  28.960  28.242  1.00  0.00     0.029 A 
ATOM     40  N   UNL A   1      39.880  29.879  29.849  1.00  0.00    -0.354 N 
ATOM     41  C   UNL A   1      43.351  27.886  31.432  1.00  0.00     0.074 A 
ATOM     42  C   UNL A   1      43.728  26.776  30.582  1.00  0.00     0.031 C 
ATOM     43  C   UNL A   1      38.090  30.150  28.536  1.00  0.00     0.029 A 
ATOM     44  C   UNL A   1      38.810  30.724  29.664  1.00  0.00     0.049 A 
ATOM     45  H   UNL A   1      40.618  30.068  30.473  1.00  0.00     0.167 HD
ATOM     46  C   UNL A   1      44.065  28.318  32.501  1.00  0.00     0.037 A 
ATOM     47  C   UNL A   1      38.386  31.789  30.371  1.00  0.00     0.037 A 
ATOM     48  C   UNL A   1      43.702  29.456  33.308  1.00  0.00     0.049 A 
ATOM     49  C   UNL A   1      39.133  32.196  31.605  1.00  0.00     0.074 A 
ATOM     50  C   UNL A   1      44.375  29.991  34.395  1.00  0.00     0.029 A 
ATOM     51  N   UNL A   1      42.577  30.241  33.112  1.00  0.00    -0.354 N 
ATOM     52  N   UNL A   1      40.222  31.675  32.114  1.00  0.00    -0.248 NA
ATOM     53  C   UNL A   1      38.571  33.308  32.384  1.00  0.00     0.031 C 
ATOM     54  C   UNL A   1      43.632  31.073  34.882  1.00  0.00     0.029 A 
ATOM     55  C   UNL A   1      42.518  31.236  34.075  1.00  0.00     0.049 A 
ATOM     56  H   UNL A   1      41.915  30.111  32.395  1.00  0.00     0.167 HD
ATOM     57  C   UNL A   1      40.472  32.388  33.279  1.00  0.00     0.074 A 
ATOM     58  C   UNL A   1      39.435  33.394  33.386  1.00  0.00     0.031 C 
ATOM     59  C   UNL A   1      41.468  32.217  34.182  1.00  0.00     0.037 A 
BRANCH  46  60
ATOM     60  C   UNL A   1      45.287  27.538  32.901  1.00  0.00     0.058 A 
ATOM     61  C   UNL A   1      46.574  27.885  32.465  1.00  0.00     0.135 A 
ATOM     62  C   UNL A   1      45.169  26.464  33.800  1.00  0.00     0.135 A 
ATOM     63  F   UNL A   1      46.743  28.895  31.597  1.00  0.00    -0.206 F 
ATOM     64  C   UNL A   1      47.700  27.188  32.895  1.00  0.00     0.059 A 
ATOM     65  C   UNL A   1      46.283  25.765  34.258  1.00  0.00     0.059 A 
ATOM     66  F   UNL A   1      43.961  26.089  34.250  1.00  0.00    -0.206 F 
ATOM     67  C   UNL A   1      47.544  26.129  33.792  1.00  0.00     0.060 A 
BRANCH  67  68
ATOM     68  S   UNL A   1      49.015  25.242  34.354  1.00  0.00     0.124 S 
ATOM     69  O   UNL A   1      48.533  23.864  34.376  1.00  0.00    -0.237 OA
ATOM     70  O   UNL A   1      49.988  25.556  33.312  1.00  0.00    -0.237 OA
ATOM     71  O   UNL A   1      49.289  25.830  35.661  1.00  0.00    -0.744 OA
ENDBRANCH  67  68
ENDBRANCH  46  60
BRANCH  47  72
ATOM     72  C   UNL A   1      37.123  32.468  29.975  1.00  0.00     0.058 A 
ATOM     73  C   UNL A   1      35.901  32.120  30.563  1.00  0.00     0.135 A 
ATOM     74  C   UNL A   1      37.130  33.524  29.047  1.00  0.00     0.135 A 
ATOM     75  F   UNL A   1      35.843  31.109  31.442  1.00  0.00    -0.206 F 
ATOM     76  C   UNL A   1      34.729  32.804  30.257  1.00  0.00     0.059 A 
ATOM     77  C   UNL A   1      35.978  34.239  28.747  1.00  0.00     0.059 A 
ATOM     78  F   UNL A   1      38.280  33.900  28.465  1.00  0.00    -0.206 F 
ATOM     79  C   UNL A   1      34.779  33.869  29.355  1.00  0.00     0.060 A 
BRANCH  79  80
ATOM     80  S   UNL A   1      33.276  34.818  29.036  1.00  0.00     0.124 S 
ATOM     81  O   UNL A   1      33.824  36.070  28.528  1.00  0.00    -0.237 OA
ATOM     82  O   UNL A   1      32.582  33.982  28.060  1.00  0.00    -0.237 OA
ATOM     83  O   UNL A   1      32.643  34.889  30.348  1.00  0.00    -0.744 OA
ENDBRANCH  79  80
ENDBRANCH  47  72
BRANCH  59  84
ATOM     84  C   UNL A   1      41.478  33.136  35.370  1.00  0.00     0.058 A 
ATOM     85  C   UNL A   1      42.177  34.351  35.341  1.00  0.00     0.135 A 
ATOM     86  C   UNL A   1      40.755  32.816  36.529  1.00  0.00     0.135 A 
ATOM     87  F   UNL A   1      42.894  34.694  34.259  1.00  0.00    -0.206 F 
ATOM     88  C   UNL A   1      42.169  35.217  36.429  1.00  0.00     0.059 A 
ATOM     89  C   UNL A   1      40.717  33.676  37.622  1.00  0.00     0.059 A 
ATOM     90  F   UNL A   1      40.068  31.666  36.601  1.00  0.00    -0.206 F 
ATOM     91  C   UNL A   1      41.435  34.871  37.566  1.00  0.00     0.060 A 
BRANCH  91  92
ATOM     92  S   UNL A   1      41.403  36.018  38.959  1.00  0.00     0.124 S 
ATOM     93  O   UNL A   1      39.986  36.019  39.306  1.00  0.00    -0.237 OA
ATOM     94  O   UNL A   1      42.291  35.370  39.920  1.00  0.00    -0.237 OA
ATOM     95  O   UNL A   1      41.910  37.261  38.387  1.00  0.00    -0.744 OA
ENDBRANCH  91  92
ENDBRANCH  59  84
ENDBRANCH  33  34
ENDBRANCH  26  28
ENDBRANCH  25  26
ENDBRANCH   1  25
TORSDOF 17
ENDMDL
