MODEL 1
REMARK VINA RESULT:      -8.7      0.000      0.000
REMARK SMILES CC(=O)N[C@@H](Cc1c(OCC(C)C)ccc2ccccc12)C(=O)OCCOC(=O)c1ccc(-c2c3nc(c(-c4c(F)cc(S(=O)(=O)[O-])cc4F)c4ccc([nH]4)c(-c4c(F)cc(S(=O)(=O)[O-])cc4F)c4nc(c(-c5c(F)cc(S(=O)(=O)[O-])cc5F)c5ccc2[nH]5)C=C4)C=C3)cc1
REMARK SMILES IDX 25 1 24 2 22 3 23 4 5 5 4 6 1 7 2 8 3 9 6 11 7 12 8 13 21 14
REMARK SMILES IDX 14 15 16 16 20 17 15 18 17 19 19 20 18 21 9 22 10 23 11 24
REMARK SMILES IDX 12 25 13 26 26 27 27 28 28 29 29 30 30 31 31 32 95 33 32 34
REMARK SMILES IDX 94 35 33 36 34 37 35 38 88 39 36 40 93 41 87 42 89 43 37 44
REMARK SMILES IDX 92 45 86 46 85 47 38 49 72 50 51 51 71 52 52 53 55 54 70 55
REMARK SMILES IDX 90 56 53 57 54 58 69 60 91 61 56 62 39 63 40 64 49 65 41 66
REMARK SMILES IDX 42 67 48 68 50 69 43 70 44 71 45 72 46 73 47 74 73 75 74 76
REMARK SMILES IDX 83 77 75 78 76 79 82 80 84 81 77 82 78 83 79 84 80 85 81 86
REMARK SMILES IDX 57 87 58 88 67 89 59 90 60 91 66 92 68 93 61 94 62 95 63 96
REMARK SMILES IDX 64 97 65 98
REMARK H PARENT 4 10 89 48 55 59
REMARK Flexibility Score: inf
ROOT
ATOM      1  C   UNL A   1      35.380  33.850  31.938  1.00  0.00     0.274 C 
ENDROOT
BRANCH   1   2
ATOM      2  O   UNL A   1      36.751  33.815  32.384  1.00  0.00    -0.461 OA
BRANCH   2   3
ATOM      3  C   UNL A   1      37.019  34.421  33.576  1.00  0.00     0.329 C 
ATOM      4  O   UNL A   1      36.184  35.019  34.249  1.00  0.00    -0.250 OA
BRANCH   3   5
ATOM      5  C   UNL A   1      38.506  34.342  33.980  1.00  0.00     0.196 C 
BRANCH   5   6
ATOM      6  N   UNL A   1      38.735  34.231  35.426  1.00  0.00    -0.343 N 
ATOM      7  C   UNL A   1      40.141  36.246  35.743  1.00  0.00     0.114 C 
ATOM      8  C   UNL A   1      39.411  35.047  36.280  1.00  0.00     0.217 C 
ATOM      9  O   UNL A   1      39.417  34.780  37.482  1.00  0.00    -0.275 OA
ATOM     10  H   UNL A   1      38.335  33.435  35.847  1.00  0.00     0.164 HD
ENDBRANCH   5   6
BRANCH   5  11
ATOM     11  C   UNL A   1      39.212  33.211  33.189  1.00  0.00     0.077 C 
BRANCH  11  12
ATOM     12  C   UNL A   1      40.630  33.572  32.743  1.00  0.00     0.005 A 
ATOM     13  C   UNL A   1      41.693  33.369  33.655  1.00  0.00     0.123 A 
ATOM     14  C   UNL A   1      40.882  34.193  31.477  1.00  0.00    -0.011 A 
ATOM     15  C   UNL A   1      42.941  33.919  33.389  1.00  0.00     0.047 A 
ATOM     16  C   UNL A   1      42.189  34.670  31.207  1.00  0.00    -0.018 A 
ATOM     17  C   UNL A   1      39.919  34.363  30.450  1.00  0.00     0.009 A 
ATOM     18  C   UNL A   1      43.184  34.565  32.181  1.00  0.00     0.012 A 
ATOM     19  C   UNL A   1      42.497  35.255  29.968  1.00  0.00     0.009 A 
ATOM     20  C   UNL A   1      40.241  34.933  29.215  1.00  0.00     0.001 A 
ATOM     21  C   UNL A   1      41.533  35.374  28.971  1.00  0.00     0.001 A 
BRANCH  13  22
ATOM     22  O   UNL A   1      41.412  32.573  34.730  1.00  0.00    -0.493 OA
BRANCH  22  23
ATOM     23  C   UNL A   1      42.246  31.467  35.064  1.00  0.00     0.232 C 
BRANCH  23  24
ATOM     24  C   UNL A   1      41.779  30.142  34.442  1.00  0.00     0.020 C 
ATOM     25  C   UNL A   1      40.263  29.967  34.439  1.00  0.00     0.011 C 
ATOM     26  C   UNL A   1      42.312  30.040  33.011  1.00  0.00     0.011 C 
ENDBRANCH  23  24
ENDBRANCH  22  23
ENDBRANCH  13  22
ENDBRANCH  11  12
ENDBRANCH   5  11
ENDBRANCH   3   5
ENDBRANCH   2   3
ENDBRANCH   1   2
BRANCH   1  27
ATOM     27  C   UNL A   1      34.945  32.566  31.229  1.00  0.00     0.275 C 
BRANCH  27  28
ATOM     28  O   UNL A   1      36.064  31.909  30.612  1.00  0.00    -0.458 OA
BRANCH  28  29
ATOM     29  C   UNL A   1      36.508  30.843  31.313  1.00  0.00     0.338 C 
ATOM     30  O   UNL A   1      36.088  30.443  32.387  1.00  0.00    -0.246 OA
BRANCH  29  31
ATOM     31  C   UNL A   1      37.495  30.079  30.543  1.00  0.00     0.060 A 
ATOM     32  C   UNL A   1      38.347  29.257  31.280  1.00  0.00     0.016 A 
ATOM     33  C   UNL A   1      37.720  30.307  29.187  1.00  0.00     0.016 A 
ATOM     34  C   UNL A   1      39.500  28.752  30.708  1.00  0.00     0.010 A 
ATOM     35  C   UNL A   1      38.870  29.770  28.596  1.00  0.00     0.010 A 
ATOM     36  C   UNL A   1      39.793  29.045  29.372  1.00  0.00    -0.014 A 
BRANCH  36  37
ATOM     37  C   UNL A   1      41.151  28.731  28.875  1.00  0.00     0.031 A 
ATOM     38  C   UNL A   1      42.213  29.795  28.934  1.00  0.00     0.074 A 
ATOM     39  C   UNL A   1      41.455  27.478  28.494  1.00  0.00     0.049 A 
ATOM     40  N   UNL A   1      43.450  29.755  28.513  1.00  0.00    -0.248 NA
ATOM     41  C   UNL A   1      41.830  31.077  29.550  1.00  0.00     0.031 C 
ATOM     42  C   UNL A   1      40.522  26.349  28.480  1.00  0.00     0.029 A 
ATOM     43  N   UNL A   1      42.640  26.939  28.069  1.00  0.00    -0.354 N 
ATOM     44  C   UNL A   1      43.977  31.015  28.769  1.00  0.00     0.074 A 
ATOM     45  C   UNL A   1      42.929  31.799  29.384  1.00  0.00     0.031 C 
ATOM     46  C   UNL A   1      41.178  25.246  28.086  1.00  0.00     0.029 A 
ATOM     47  C   UNL A   1      42.560  25.600  27.773  1.00  0.00     0.049 A 
ATOM     48  H   UNL A   1      43.471  27.461  27.983  1.00  0.00     0.167 HD
ATOM     49  C   UNL A   1      45.224  31.475  28.511  1.00  0.00     0.037 A 
ATOM     50  C   UNL A   1      43.493  24.761  27.287  1.00  0.00     0.037 A 
ATOM     51  C   UNL A   1      46.271  30.670  27.939  1.00  0.00     0.049 A 
ATOM     52  C   UNL A   1      44.872  25.293  27.011  1.00  0.00     0.074 A 
ATOM     53  C   UNL A   1      47.562  31.037  27.608  1.00  0.00     0.029 A 
ATOM     54  N   UNL A   1      46.147  29.321  27.635  1.00  0.00    -0.354 N 
ATOM     55  N   UNL A   1      45.334  26.509  27.181  1.00  0.00    -0.248 NA
ATOM     56  C   UNL A   1      45.852  24.342  26.472  1.00  0.00     0.031 C 
ATOM     57  C   UNL A   1      48.215  29.911  27.087  1.00  0.00     0.029 A 
ATOM     58  C   UNL A   1      47.338  28.838  27.124  1.00  0.00     0.049 A 
ATOM     59  H   UNL A   1      45.330  28.786  27.765  1.00  0.00     0.167 HD
ATOM     60  C   UNL A   1      46.661  26.470  26.774  1.00  0.00     0.074 A 
ATOM     61  C   UNL A   1      46.933  25.104  26.372  1.00  0.00     0.031 C 
ATOM     62  C   UNL A   1      47.575  27.473  26.730  1.00  0.00     0.037 A 
BRANCH  49  63
ATOM     63  C   UNL A   1      45.498  32.924  28.801  1.00  0.00     0.058 A 
ATOM     64  C   UNL A   1      45.272  33.931  27.851  1.00  0.00     0.135 A 
ATOM     65  C   UNL A   1      46.007  33.307  30.052  1.00  0.00     0.135 A 
ATOM     66  F   UNL A   1      44.810  33.616  26.630  1.00  0.00    -0.206 F 
ATOM     67  C   UNL A   1      45.567  35.265  28.121  1.00  0.00     0.059 A 
ATOM     68  C   UNL A   1      46.290  34.636  30.352  1.00  0.00     0.059 A 
ATOM     69  F   UNL A   1      46.249  32.381  30.996  1.00  0.00    -0.206 F 
ATOM     70  C   UNL A   1      46.084  35.606  29.372  1.00  0.00     0.060 A 
BRANCH  70  71
ATOM     71  S   UNL A   1      46.478  37.335  29.713  1.00  0.00     0.124 S 
ATOM     72  O   UNL A   1      46.724  37.299  31.151  1.00  0.00    -0.237 OA
ATOM     73  O   UNL A   1      47.651  37.564  28.875  1.00  0.00    -0.237 OA
ATOM     74  O   UNL A   1      45.271  38.044  29.301  1.00  0.00    -0.744 OA
ENDBRANCH  70  71
ENDBRANCH  49  63
BRANCH  50  75
ATOM     75  C   UNL A   1      43.140  23.345  27.012  1.00  0.00     0.058 A 
ATOM     76  C   UNL A   1      42.978  22.879  25.700  1.00  0.00     0.135 A 
ATOM     77  C   UNL A   1      42.988  22.423  28.059  1.00  0.00     0.135 A 
ATOM     78  F   UNL A   1      43.106  23.723  24.666  1.00  0.00    -0.206 F 
ATOM     79  C   UNL A   1      42.678  21.546  25.434  1.00  0.00     0.059 A 
ATOM     80  C   UNL A   1      42.710  21.082  27.818  1.00  0.00     0.059 A 
ATOM     81  F   UNL A   1      43.145  22.820  29.332  1.00  0.00    -0.206 F 
ATOM     82  C   UNL A   1      42.550  20.654  26.501  1.00  0.00     0.060 A 
BRANCH  82  83
ATOM     83  S   UNL A   1      42.234  18.910  26.151  1.00  0.00     0.124 S 
ATOM     84  O   UNL A   1      43.198  18.645  25.091  1.00  0.00    -0.237 OA
ATOM     85  O   UNL A   1      42.511  18.279  27.438  1.00  0.00    -0.237 OA
ATOM     86  O   UNL A   1      40.830  18.901  25.750  1.00  0.00    -0.744 OA
ENDBRANCH  82  83
ENDBRANCH  50  75
BRANCH  62  87
ATOM     87  C   UNL A   1      48.947  27.111  26.245  1.00  0.00     0.058 A 
ATOM     88  C   UNL A   1      49.960  26.724  27.135  1.00  0.00     0.135 A 
ATOM     89  C   UNL A   1      49.249  27.148  24.875  1.00  0.00     0.135 A 
ATOM     90  F   UNL A   1      49.717  26.680  28.455  1.00  0.00    -0.206 F 
ATOM     91  C   UNL A   1      51.239  26.419  26.688  1.00  0.00     0.059 A 
ATOM     92  C   UNL A   1      50.517  26.826  24.404  1.00  0.00     0.059 A 
ATOM     93  F   UNL A   1      48.310  27.501  23.984  1.00  0.00    -0.206 F 
ATOM     94  C   UNL A   1      51.511  26.482  25.320  1.00  0.00     0.060 A 
BRANCH  94  95
ATOM     95  S   UNL A   1      53.176  26.092  24.742  1.00  0.00     0.124 S 
ATOM     96  O   UNL A   1      53.997  26.781  25.733  1.00  0.00    -0.237 OA
ATOM     97  O   UNL A   1      53.201  24.634  24.802  1.00  0.00    -0.237 OA
ATOM     98  O   UNL A   1      53.206  26.658  23.396  1.00  0.00    -0.744 OA
ENDBRANCH  94  95
ENDBRANCH  62  87
ENDBRANCH  36  37
ENDBRANCH  29  31
ENDBRANCH  28  29
ENDBRANCH  27  28
ENDBRANCH   1  27
TORSDOF 20
ENDMDL
MODEL 2
REMARK VINA RESULT:      -8.6      6.312     13.928
REMARK SMILES CC(=O)N[C@@H](Cc1c(OCC(C)C)ccc2ccccc12)C(=O)OCCOC(=O)c1ccc(-c2c3nc(c(-c4c(F)cc(S(=O)(=O)[O-])cc4F)c4ccc([nH]4)c(-c4c(F)cc(S(=O)(=O)[O-])cc4F)c4nc(c(-c5c(F)cc(S(=O)(=O)[O-])cc5F)c5ccc2[nH]5)C=C4)C=C3)cc1
REMARK SMILES IDX 25 1 24 2 22 3 23 4 5 5 4 6 1 7 2 8 3 9 6 11 7 12 8 13 21 14
REMARK SMILES IDX 14 15 16 16 20 17 15 18 17 19 19 20 18 21 9 22 10 23 11 24
REMARK SMILES IDX 12 25 13 26 26 27 27 28 28 29 29 30 30 31 31 32 95 33 32 34
REMARK SMILES IDX 94 35 33 36 34 37 35 38 88 39 36 40 93 41 87 42 89 43 37 44
REMARK SMILES IDX 92 45 86 46 85 47 38 49 72 50 51 51 71 52 52 53 55 54 70 55
REMARK SMILES IDX 90 56 53 57 54 58 69 60 91 61 56 62 39 63 40 64 49 65 41 66
REMARK SMILES IDX 42 67 48 68 50 69 43 70 44 71 45 72 46 73 47 74 73 75 74 76
REMARK SMILES IDX 83 77 75 78 76 79 82 80 84 81 77 82 78 83 79 84 80 85 81 86
REMARK SMILES IDX 57 87 58 88 67 89 59 90 60 91 66 92 68 93 61 94 62 95 63 96
REMARK SMILES IDX 64 97 65 98
REMARK H PARENT 4 10 89 48 55 59
REMARK Flexibility Score: inf
ROOT
ATOM      1  C   UNL A   1      38.992  21.693  26.193  1.00  0.00     0.274 C 
ENDROOT
BRANCH   1   2
ATOM      2  O   UNL A   1      38.060  22.194  25.213  1.00  0.00    -0.461 OA
BRANCH   2   3
ATOM      3  C   UNL A   1      37.175  23.138  25.642  1.00  0.00     0.329 C 
ATOM      4  O   UNL A   1      37.497  24.191  26.184  1.00  0.00    -0.250 OA
BRANCH   3   5
ATOM      5  C   UNL A   1      35.701  22.728  25.442  1.00  0.00     0.196 C 
BRANCH   5   6
ATOM      6  N   UNL A   1      34.798  23.172  26.513  1.00  0.00    -0.343 N 
ATOM      7  C   UNL A   1      33.765  20.989  27.066  1.00  0.00     0.114 C 
ATOM      8  C   UNL A   1      33.944  22.463  27.300  1.00  0.00     0.217 C 
ATOM      9  O   UNL A   1      33.325  23.049  28.187  1.00  0.00    -0.275 OA
ATOM     10  H   UNL A   1      34.813  24.140  26.689  1.00  0.00     0.164 HD
ENDBRANCH   5   6
BRANCH   5  11
ATOM     11  C   UNL A   1      35.209  23.176  24.041  1.00  0.00     0.077 C 
BRANCH  11  12
ATOM     12  C   UNL A   1      33.724  23.538  24.003  1.00  0.00     0.005 A 
ATOM     13  C   UNL A   1      32.792  22.518  23.700  1.00  0.00     0.123 A 
ATOM     14  C   UNL A   1      33.277  24.889  24.169  1.00  0.00    -0.011 A 
ATOM     15  C   UNL A   1      31.477  22.854  23.402  1.00  0.00     0.047 A 
ATOM     16  C   UNL A   1      31.911  25.182  23.935  1.00  0.00    -0.018 A 
ATOM     17  C   UNL A   1      34.101  25.973  24.564  1.00  0.00     0.009 A 
ATOM     18  C   UNL A   1      31.043  24.172  23.515  1.00  0.00     0.012 A 
ATOM     19  C   UNL A   1      31.415  26.484  24.119  1.00  0.00     0.009 A 
ATOM     20  C   UNL A   1      33.594  27.262  24.757  1.00  0.00     0.001 A 
ATOM     21  C   UNL A   1      32.248  27.516  24.539  1.00  0.00     0.001 A 
BRANCH  13  22
ATOM     22  O   UNL A   1      33.261  21.237  23.785  1.00  0.00    -0.493 OA
BRANCH  22  23
ATOM     23  C   UNL A   1      32.397  20.122  23.587  1.00  0.00     0.232 C 
BRANCH  23  24
ATOM     24  C   UNL A   1      33.053  18.775  23.931  1.00  0.00     0.020 C 
ATOM     25  C   UNL A   1      32.528  18.151  25.222  1.00  0.00     0.011 C 
ATOM     26  C   UNL A   1      32.848  17.802  22.768  1.00  0.00     0.011 C 
ENDBRANCH  23  24
ENDBRANCH  22  23
ENDBRANCH  13  22
ENDBRANCH  11  12
ENDBRANCH   5  11
ENDBRANCH   3   5
ENDBRANCH   2   3
ENDBRANCH   1   2
BRANCH   1  27
ATOM     27  C   UNL A   1      40.341  22.414  26.164  1.00  0.00     0.275 C 
BRANCH  27  28
ATOM     28  O   UNL A   1      40.538  23.196  27.355  1.00  0.00    -0.458 OA
BRANCH  28  29
ATOM     29  C   UNL A   1      41.343  24.263  27.163  1.00  0.00     0.338 C 
ATOM     30  O   UNL A   1      42.324  24.323  26.440  1.00  0.00    -0.246 OA
BRANCH  29  31
ATOM     31  C   UNL A   1      40.804  25.455  27.825  1.00  0.00     0.060 A 
ATOM     32  C   UNL A   1      41.636  26.575  27.847  1.00  0.00     0.016 A 
ATOM     33  C   UNL A   1      39.627  25.426  28.571  1.00  0.00     0.016 A 
ATOM     34  C   UNL A   1      41.370  27.626  28.705  1.00  0.00     0.010 A 
ATOM     35  C   UNL A   1      39.339  26.504  29.416  1.00  0.00     0.010 A 
ATOM     36  C   UNL A   1      40.243  27.576  29.531  1.00  0.00    -0.014 A 
BRANCH  36  37
ATOM     37  C   UNL A   1      40.139  28.569  30.623  1.00  0.00     0.031 A 
ATOM     38  C   UNL A   1      41.122  28.508  31.760  1.00  0.00     0.074 A 
ATOM     39  C   UNL A   1      39.256  29.579  30.532  1.00  0.00     0.049 A 
ATOM     40  N   UNL A   1      41.187  29.242  32.839  1.00  0.00    -0.248 NA
ATOM     41  C   UNL A   1      42.174  27.481  31.669  1.00  0.00     0.031 C 
ATOM     42  C   UNL A   1      38.314  29.782  29.429  1.00  0.00     0.029 A 
ATOM     43  N   UNL A   1      39.026  30.639  31.369  1.00  0.00    -0.354 N 
ATOM     44  C   UNL A   1      42.253  28.738  33.575  1.00  0.00     0.074 A 
ATOM     45  C   UNL A   1      42.809  27.637  32.821  1.00  0.00     0.031 C 
ATOM     46  C   UNL A   1      37.621  30.910  29.649  1.00  0.00     0.029 A 
ATOM     47  C   UNL A   1      38.034  31.481  30.927  1.00  0.00     0.049 A 
ATOM     48  H   UNL A   1      39.523  30.784  32.207  1.00  0.00     0.167 HD
ATOM     49  C   UNL A   1      42.721  29.158  34.775  1.00  0.00     0.037 A 
ATOM     50  C   UNL A   1      37.508  32.578  31.503  1.00  0.00     0.037 A 
ATOM     51  C   UNL A   1      42.186  30.285  35.492  1.00  0.00     0.049 A 
ATOM     52  C   UNL A   1      38.047  33.027  32.833  1.00  0.00     0.074 A 
ATOM     53  C   UNL A   1      42.561  30.783  36.726  1.00  0.00     0.029 A 
ATOM     54  N   UNL A   1      41.168  31.104  35.023  1.00  0.00    -0.354 N 
ATOM     55  N   UNL A   1      39.001  32.492  33.558  1.00  0.00    -0.248 NA
ATOM     56  C   UNL A   1      37.434  34.223  33.424  1.00  0.00     0.031 C 
ATOM     57  C   UNL A   1      41.758  31.895  37.010  1.00  0.00     0.029 A 
ATOM     58  C   UNL A   1      40.904  32.106  35.939  1.00  0.00     0.049 A 
ATOM     59  H   UNL A   1      40.703  30.988  34.163  1.00  0.00     0.167 HD
ATOM     60  C   UNL A   1      39.107  33.289  34.691  1.00  0.00     0.074 A 
ATOM     61  C   UNL A   1      38.136  34.355  34.542  1.00  0.00     0.031 C 
ATOM     62  C   UNL A   1      39.928  33.151  35.762  1.00  0.00     0.037 A 
BRANCH  49  63
ATOM     63  C   UNL A   1      43.833  28.362  35.397  1.00  0.00     0.058 A 
ATOM     64  C   UNL A   1      45.183  28.614  35.106  1.00  0.00     0.135 A 
ATOM     65  C   UNL A   1      43.539  27.320  36.291  1.00  0.00     0.135 A 
ATOM     66  F   UNL A   1      45.518  29.581  34.239  1.00  0.00    -0.206 F 
ATOM     67  C   UNL A   1      46.201  27.842  35.660  1.00  0.00     0.059 A 
ATOM     68  C   UNL A   1      44.541  26.550  36.873  1.00  0.00     0.059 A 
ATOM     69  F   UNL A   1      42.263  27.033  36.597  1.00  0.00    -0.206 F 
ATOM     70  C   UNL A   1      45.869  26.807  36.536  1.00  0.00     0.060 A 
BRANCH  70  71
ATOM     71  S   UNL A   1      47.193  25.800  37.241  1.00  0.00     0.124 S 
ATOM     72  O   UNL A   1      48.268  26.020  36.280  1.00  0.00    -0.237 OA
ATOM     73  O   UNL A   1      47.385  26.404  38.556  1.00  0.00    -0.237 OA
ATOM     74  O   UNL A   1      46.625  24.455  37.251  1.00  0.00    -0.744 OA
ENDBRANCH  70  71
ENDBRANCH  49  63
BRANCH  50  75
ATOM     75  C   UNL A   1      36.400  33.303  30.831  1.00  0.00     0.058 A 
ATOM     76  C   UNL A   1      35.087  33.233  31.317  1.00  0.00     0.135 A 
ATOM     77  C   UNL A   1      36.641  34.106  29.706  1.00  0.00     0.135 A 
ATOM     78  F   UNL A   1      34.806  32.473  32.385  1.00  0.00    -0.206 F 
ATOM     79  C   UNL A   1      34.049  33.935  30.711  1.00  0.00     0.059 A 
ATOM     80  C   UNL A   1      35.625  34.834  29.096  1.00  0.00     0.059 A 
ATOM     81  F   UNL A   1      37.884  34.215  29.212  1.00  0.00    -0.206 F 
ATOM     82  C   UNL A   1      34.330  34.736  29.602  1.00  0.00     0.060 A 
BRANCH  82  83
ATOM     83  S   UNL A   1      32.997  35.705  28.862  1.00  0.00     0.124 S 
ATOM     84  O   UNL A   1      33.743  36.744  28.163  1.00  0.00    -0.237 OA
ATOM     85  O   UNL A   1      32.329  34.720  28.016  1.00  0.00    -0.237 OA
ATOM     86  O   UNL A   1      32.225  36.148  30.020  1.00  0.00    -0.744 OA
ENDBRANCH  82  83
ENDBRANCH  50  75
BRANCH  62  87
ATOM     87  C   UNL A   1      39.812  34.190  36.837  1.00  0.00     0.058 A 
ATOM     88  C   UNL A   1      40.521  35.398  36.767  1.00  0.00     0.135 A 
ATOM     89  C   UNL A   1      38.977  33.976  37.945  1.00  0.00     0.135 A 
ATOM     90  F   UNL A   1      41.335  35.644  35.728  1.00  0.00    -0.206 F 
ATOM     91  C   UNL A   1      40.436  36.347  37.778  1.00  0.00     0.059 A 
ATOM     92  C   UNL A   1      38.861  34.921  38.958  1.00  0.00     0.059 A 
ATOM     93  F   UNL A   1      38.270  32.841  38.051  1.00  0.00    -0.206 F 
ATOM     94  C   UNL A   1      39.610  36.096  38.875  1.00  0.00     0.060 A 
BRANCH  94  95
ATOM     95  S   UNL A   1      39.507  37.327  40.191  1.00  0.00     0.124 S 
ATOM     96  O   UNL A   1      38.628  38.325  39.588  1.00  0.00    -0.237 OA
ATOM     97  O   UNL A   1      38.936  36.566  41.296  1.00  0.00    -0.237 OA
ATOM     98  O   UNL A   1      40.896  37.740  40.374  1.00  0.00    -0.744 OA
ENDBRANCH  94  95
ENDBRANCH  62  87
ENDBRANCH  36  37
ENDBRANCH  29  31
ENDBRANCH  28  29
ENDBRANCH  27  28
ENDBRANCH   1  27
TORSDOF 20
ENDMDL
MODEL 3
REMARK VINA RESULT:      -8.6      4.730     12.660
REMARK SMILES CC(=O)N[C@@H](Cc1c(OCC(C)C)ccc2ccccc12)C(=O)OCCOC(=O)c1ccc(-c2c3nc(c(-c4c(F)cc(S(=O)(=O)[O-])cc4F)c4ccc([nH]4)c(-c4c(F)cc(S(=O)(=O)[O-])cc4F)c4nc(c(-c5c(F)cc(S(=O)(=O)[O-])cc5F)c5ccc2[nH]5)C=C4)C=C3)cc1
REMARK SMILES IDX 25 1 24 2 22 3 23 4 5 5 4 6 1 7 2 8 3 9 6 11 7 12 8 13 21 14
REMARK SMILES IDX 14 15 16 16 20 17 15 18 17 19 19 20 18 21 9 22 10 23 11 24
REMARK SMILES IDX 12 25 13 26 26 27 27 28 28 29 29 30 30 31 31 32 95 33 32 34
REMARK SMILES IDX 94 35 33 36 34 37 35 38 88 39 36 40 93 41 87 42 89 43 37 44
REMARK SMILES IDX 92 45 86 46 85 47 38 49 72 50 51 51 71 52 52 53 55 54 70 55
REMARK SMILES IDX 90 56 53 57 54 58 69 60 91 61 56 62 39 63 40 64 49 65 41 66
REMARK SMILES IDX 42 67 48 68 50 69 43 70 44 71 45 72 46 73 47 74 73 75 74 76
REMARK SMILES IDX 83 77 75 78 76 79 82 80 84 81 77 82 78 83 79 84 80 85 81 86
REMARK SMILES IDX 57 87 58 88 67 89 59 90 60 91 66 92 68 93 61 94 62 95 63 96
REMARK SMILES IDX 64 97 65 98
REMARK H PARENT 4 10 89 48 55 59
REMARK Flexibility Score: inf
ROOT
ATOM      1  C   UNL A   1      44.656  24.287  25.190  1.00  0.00     0.274 C 
ENDROOT
BRANCH   1   2
ATOM      2  O   UNL A   1      45.275  25.484  24.677  1.00  0.00    -0.461 OA
BRANCH   2   3
ATOM      3  C   UNL A   1      45.106  26.620  25.413  1.00  0.00     0.329 C 
ATOM      4  O   UNL A   1      44.554  27.635  24.998  1.00  0.00    -0.250 OA
BRANCH   3   5
ATOM      5  C   UNL A   1      45.738  26.536  26.817  1.00  0.00     0.196 C 
BRANCH   5   6
ATOM      6  N   UNL A   1      47.143  26.962  26.874  1.00  0.00    -0.343 N 
ATOM      7  C   UNL A   1      48.100  24.963  27.984  1.00  0.00     0.114 C 
ATOM      8  C   UNL A   1      48.246  26.313  27.337  1.00  0.00     0.217 C 
ATOM      9  O   UNL A   1      49.347  26.851  27.224  1.00  0.00    -0.275 OA
ATOM     10  H   UNL A   1      47.315  27.864  26.520  1.00  0.00     0.164 HD
ENDBRANCH   5   6
BRANCH   5  11
ATOM     11  C   UNL A   1      44.858  27.294  27.844  1.00  0.00     0.077 C 
BRANCH  11  12
ATOM     12  C   UNL A   1      45.174  26.941  29.298  1.00  0.00     0.005 A 
ATOM     13  C   UNL A   1      45.954  27.847  30.055  1.00  0.00     0.123 A 
ATOM     14  C   UNL A   1      44.785  25.684  29.866  1.00  0.00    -0.011 A 
ATOM     15  C   UNL A   1      46.477  27.448  31.279  1.00  0.00     0.047 A 
ATOM     16  C   UNL A   1      45.271  25.345  31.153  1.00  0.00    -0.018 A 
ATOM     17  C   UNL A   1      43.930  24.741  29.241  1.00  0.00     0.009 A 
ATOM     18  C   UNL A   1      46.141  26.211  31.820  1.00  0.00     0.012 A 
ATOM     19  C   UNL A   1      44.891  24.142  31.769  1.00  0.00     0.009 A 
ATOM     20  C   UNL A   1      43.547  23.553  29.870  1.00  0.00     0.001 A 
ATOM     21  C   UNL A   1      44.023  23.256  31.138  1.00  0.00     0.001 A 
BRANCH  13  22
ATOM     22  O   UNL A   1      46.086  29.102  29.530  1.00  0.00    -0.493 OA
BRANCH  22  23
ATOM     23  C   UNL A   1      46.033  30.257  30.363  1.00  0.00     0.232 C 
BRANCH  23  24
ATOM     24  C   UNL A   1      44.776  31.113  30.137  1.00  0.00     0.020 C 
ATOM     25  C   UNL A   1      43.617  30.345  29.507  1.00  0.00     0.011 C 
ATOM     26  C   UNL A   1      44.330  31.717  31.470  1.00  0.00     0.011 C 
ENDBRANCH  23  24
ENDBRANCH  22  23
ENDBRANCH  13  22
ENDBRANCH  11  12
ENDBRANCH   5  11
ENDBRANCH   3   5
ENDBRANCH   2   3
ENDBRANCH   1   2
BRANCH   1  27
ATOM     27  C   UNL A   1      43.129  24.375  25.244  1.00  0.00     0.275 C 
BRANCH  27  28
ATOM     28  O   UNL A   1      42.671  24.643  26.580  1.00  0.00    -0.458 OA
BRANCH  28  29
ATOM     29  C   UNL A   1      41.338  24.481  26.727  1.00  0.00     0.338 C 
ATOM     30  O   UNL A   1      40.678  23.501  26.420  1.00  0.00    -0.246 OA
BRANCH  29  31
ATOM     31  C   UNL A   1      40.751  25.596  27.477  1.00  0.00     0.060 A 
ATOM     32  C   UNL A   1      41.420  26.817  27.386  1.00  0.00     0.016 A 
ATOM     33  C   UNL A   1      39.716  25.417  28.392  1.00  0.00     0.016 A 
ATOM     34  C   UNL A   1      41.150  27.831  28.286  1.00  0.00     0.010 A 
ATOM     35  C   UNL A   1      39.418  26.454  29.284  1.00  0.00     0.010 A 
ATOM     36  C   UNL A   1      40.179  27.637  29.273  1.00  0.00    -0.014 A 
BRANCH  36  37
ATOM     37  C   UNL A   1      40.110  28.617  30.380  1.00  0.00     0.031 A 
ATOM     38  C   UNL A   1      41.127  28.540  31.486  1.00  0.00     0.074 A 
ATOM     39  C   UNL A   1      39.227  29.630  30.329  1.00  0.00     0.049 A 
ATOM     40  N   UNL A   1      41.226  29.261  32.572  1.00  0.00    -0.248 NA
ATOM     41  C   UNL A   1      42.174  27.512  31.350  1.00  0.00     0.031 C 
ATOM     42  C   UNL A   1      38.253  29.848  29.258  1.00  0.00     0.029 A 
ATOM     43  N   UNL A   1      39.025  30.680  31.185  1.00  0.00    -0.354 N 
ATOM     44  C   UNL A   1      42.313  28.746  33.268  1.00  0.00     0.074 A 
ATOM     45  C   UNL A   1      42.843  27.653  32.484  1.00  0.00     0.031 C 
ATOM     46  C   UNL A   1      37.570  30.976  29.512  1.00  0.00     0.029 A 
ATOM     47  C   UNL A   1      38.023  31.530  30.784  1.00  0.00     0.049 A 
ATOM     48  H   UNL A   1      39.548  30.813  32.009  1.00  0.00     0.167 HD
ATOM     49  C   UNL A   1      42.819  29.150  34.458  1.00  0.00     0.037 A 
ATOM     50  C   UNL A   1      37.517  32.620  31.390  1.00  0.00     0.037 A 
ATOM     51  C   UNL A   1      42.308  30.268  35.206  1.00  0.00     0.049 A 
ATOM     52  C   UNL A   1      38.097  33.052  32.707  1.00  0.00     0.074 A 
ATOM     53  C   UNL A   1      42.723  30.750  36.434  1.00  0.00     0.029 A 
ATOM     54  N   UNL A   1      41.279  31.095  34.777  1.00  0.00    -0.354 N 
ATOM     55  N   UNL A   1      39.071  32.506  33.396  1.00  0.00    -0.248 NA
ATOM     56  C   UNL A   1      37.506  34.242  33.332  1.00  0.00     0.031 C 
ATOM     57  C   UNL A   1      41.931  31.861  36.756  1.00  0.00     0.029 A 
ATOM     58  C   UNL A   1      41.046  32.086  35.714  1.00  0.00     0.049 A 
ATOM     59  H   UNL A   1      40.787  30.991  33.931  1.00  0.00     0.167 HD
ATOM     60  C   UNL A   1      39.214  33.288  34.535  1.00  0.00     0.074 A 
ATOM     61  C   UNL A   1      38.241  34.359  34.430  1.00  0.00     0.031 C 
ATOM     62  C   UNL A   1      40.067  33.136  35.580  1.00  0.00     0.037 A 
BRANCH  49  63
ATOM     63  C   UNL A   1      43.947  28.343  35.036  1.00  0.00     0.058 A 
ATOM     64  C   UNL A   1      43.726  27.291  35.938  1.00  0.00     0.135 A 
ATOM     65  C   UNL A   1      45.275  28.639  34.688  1.00  0.00     0.135 A 
ATOM     66  F   UNL A   1      42.478  26.982  36.324  1.00  0.00    -0.206 F 
ATOM     67  C   UNL A   1      44.785  26.578  36.496  1.00  0.00     0.059 A 
ATOM     68  C   UNL A   1      46.347  27.927  35.216  1.00  0.00     0.059 A 
ATOM     69  F   UNL A   1      45.542  29.642  33.835  1.00  0.00    -0.206 F 
ATOM     70  C   UNL A   1      46.092  26.909  36.134  1.00  0.00     0.060 A 
BRANCH  70  71
ATOM     71  S   UNL A   1      47.462  25.990  36.871  1.00  0.00     0.124 S 
ATOM     72  O   UNL A   1      48.347  25.819  35.723  1.00  0.00    -0.237 OA
ATOM     73  O   UNL A   1      47.936  26.904  37.905  1.00  0.00    -0.237 OA
ATOM     74  O   UNL A   1      46.826  24.771  37.360  1.00  0.00    -0.744 OA
ENDBRANCH  70  71
ENDBRANCH  49  63
BRANCH  50  75
ATOM     75  C   UNL A   1      36.390  33.356  30.760  1.00  0.00     0.058 A 
ATOM     76  C   UNL A   1      35.105  33.331  31.319  1.00  0.00     0.135 A 
ATOM     77  C   UNL A   1      36.588  34.126  29.604  1.00  0.00     0.135 A 
ATOM     78  F   UNL A   1      34.865  32.604  32.420  1.00  0.00    -0.206 F 
ATOM     79  C   UNL A   1      34.052  34.043  30.753  1.00  0.00     0.059 A 
ATOM     80  C   UNL A   1      35.557  34.863  29.032  1.00  0.00     0.059 A 
ATOM     81  F   UNL A   1      37.804  34.191  29.040  1.00  0.00    -0.206 F 
ATOM     82  C   UNL A   1      34.290  34.810  29.610  1.00  0.00     0.060 A 
BRANCH  82  83
ATOM     83  S   UNL A   1      32.941  35.793  28.919  1.00  0.00     0.124 S 
ATOM     84  O   UNL A   1      33.667  36.901  28.312  1.00  0.00    -0.237 OA
ATOM     85  O   UNL A   1      32.316  34.855  27.991  1.00  0.00    -0.237 OA
ATOM     86  O   UNL A   1      32.139  36.126  30.092  1.00  0.00    -0.744 OA
ENDBRANCH  82  83
ENDBRANCH  50  75
BRANCH  62  87
ATOM     87  C   UNL A   1      39.986  34.161  36.670  1.00  0.00     0.058 A 
ATOM     88  C   UNL A   1      39.136  33.991  37.773  1.00  0.00     0.135 A 
ATOM     89  C   UNL A   1      40.770  35.324  36.613  1.00  0.00     0.135 A 
ATOM     90  F   UNL A   1      38.363  32.897  37.868  1.00  0.00    -0.206 F 
ATOM     91  C   UNL A   1      39.039  34.957  38.768  1.00  0.00     0.059 A 
ATOM     92  C   UNL A   1      40.704  36.293  37.608  1.00  0.00     0.059 A 
ATOM     93  F   UNL A   1      41.606  35.525  35.583  1.00  0.00    -0.206 F 
ATOM     94  C   UNL A   1      39.821  36.109  38.672  1.00  0.00     0.060 A 
BRANCH  94  95
ATOM     95  S   UNL A   1      39.687  37.365  39.962  1.00  0.00     0.124 S 
ATOM     96  O   UNL A   1      39.333  36.553  41.122  1.00  0.00    -0.237 OA
ATOM     97  O   UNL A   1      41.025  37.947  39.980  1.00  0.00    -0.237 OA
ATOM     98  O   UNL A   1      38.634  38.246  39.465  1.00  0.00    -0.744 OA
ENDBRANCH  94  95
ENDBRANCH  62  87
ENDBRANCH  36  37
ENDBRANCH  29  31
ENDBRANCH  28  29
ENDBRANCH  27  28
ENDBRANCH   1  27
TORSDOF 20
ENDMDL
