MODEL 1
REMARK VINA RESULT:     -12.5      0.000      0.000
REMARK SMILES O=C(OCCOC(=O)[C@@H]1[C@@H](C(=O)Nc2nc(-c3ccc(F)cc3)cs2)[C@H]2C=C[C@@H]1O2)c1ccc(-c2c3nc(c(-c4c(F)cc(S(=O)(=O)[O-])cc4F)c4ccc([nH]4)c(-c4c(F)cc(S(=O)(=O)[O-])cc4F)c4nc(c(-c5c(F)cc(S(=O)(=O)[O-])cc5F)c5ccc2[nH]5)C=C4)C=C3)cc1
REMARK SMILES IDX 4 1 3 2 2 3 1 4 31 5 32 6 96 7 33 8 95 9 34 10 35 11 36 12
REMARK SMILES IDX 89 13 37 14 94 15 88 16 90 17 38 18 93 19 87 20 86 21 39 23
REMARK SMILES IDX 73 24 52 25 72 26 53 27 56 28 71 29 91 30 54 31 55 32 70 34
REMARK SMILES IDX 92 35 57 36 40 37 41 38 50 39 42 40 43 41 49 42 51 43 44 44
REMARK SMILES IDX 45 45 46 46 47 47 48 48 74 49 75 50 84 51 76 52 77 53 83 54
REMARK SMILES IDX 85 55 78 56 79 57 80 58 81 59 82 60 58 61 59 62 68 63 60 64
REMARK SMILES IDX 61 65 67 66 69 67 62 68 63 69 64 70 65 71 66 72 5 73 6 74
REMARK SMILES IDX 7 75 8 76 9 77 10 78 29 79 26 80 28 81 30 82 27 83 11 84
REMARK SMILES IDX 12 85 13 86 14 88 15 89 25 90 16 91 24 92 17 93 18 94 23 95
REMARK SMILES IDX 19 96 22 97 20 98 21 99
REMARK H PARENT 90 22 56 33 13 87
REMARK Flexibility Score: inf
ROOT
ATOM      1  C   UNL A   1      38.021  24.047  26.246  1.00  0.00     0.275 C 
ENDROOT
BRANCH   1   2
ATOM      2  O   UNL A   1      39.456  24.098  26.318  1.00  0.00    -0.458 OA
BRANCH   2   3
ATOM      3  C   UNL A   1      40.287  25.164  26.372  1.00  0.00     0.338 C 
ATOM      4  O   UNL A   1      40.896  25.448  25.339  1.00  0.00    -0.246 OA
BRANCH   3   5
ATOM      5  C   UNL A   1      40.485  26.058  27.573  1.00  0.00     0.060 A 
ATOM      6  C   UNL A   1      41.432  27.072  27.748  1.00  0.00     0.016 A 
ATOM      7  C   UNL A   1      39.600  25.848  28.645  1.00  0.00     0.016 A 
ATOM      8  C   UNL A   1      41.381  27.945  28.865  1.00  0.00     0.010 A 
ATOM      9  C   UNL A   1      39.549  26.712  29.753  1.00  0.00     0.010 A 
ATOM     10  C   UNL A   1      40.387  27.832  29.840  1.00  0.00    -0.014 A 
BRANCH  10  11
ATOM     11  C   UNL A   1      40.372  28.668  31.088  1.00  0.00     0.031 A 
ATOM     12  C   UNL A   1      39.329  29.727  31.109  1.00  0.00     0.074 A 
ATOM     13  C   UNL A   1      41.264  28.625  32.106  1.00  0.00     0.049 A 
ATOM     14  N   UNL A   1      39.219  30.744  31.910  1.00  0.00    -0.248 NA
ATOM     15  C   UNL A   1      38.344  29.683  30.016  1.00  0.00     0.031 C 
ATOM     16  C   UNL A   1      42.384  27.722  32.172  1.00  0.00     0.029 A 
ATOM     17  N   UNL A   1      41.421  29.350  33.270  1.00  0.00    -0.354 N 
ATOM     18  C   UNL A   1      38.193  31.498  31.377  1.00  0.00     0.074 A 
ATOM     19  C   UNL A   1      37.771  30.862  30.151  1.00  0.00     0.031 C 
ATOM     20  C   UNL A   1      43.091  27.868  33.297  1.00  0.00     0.029 A 
ATOM     21  C   UNL A   1      42.508  28.963  34.044  1.00  0.00     0.049 A 
ATOM     22  H   UNL A   1      40.814  30.080  33.530  1.00  0.00     0.167 HD
ATOM     23  C   UNL A   1      37.633  32.612  31.887  1.00  0.00     0.037 A 
ATOM     24  C   UNL A   1      43.014  29.443  35.202  1.00  0.00     0.037 A 
ATOM     25  C   UNL A   1      38.056  33.215  33.114  1.00  0.00     0.049 A 
ATOM     26  C   UNL A   1      42.360  30.664  35.773  1.00  0.00     0.074 A 
ATOM     27  C   UNL A   1      37.532  34.324  33.743  1.00  0.00     0.029 A 
ATOM     28  N   UNL A   1      39.107  32.756  33.898  1.00  0.00    -0.354 N 
ATOM     29  N   UNL A   1      41.356  31.344  35.274  1.00  0.00    -0.248 NA
ATOM     30  C   UNL A   1      42.902  31.207  37.024  1.00  0.00     0.031 C 
ATOM     31  C   UNL A   1      38.285  34.555  34.896  1.00  0.00     0.029 A 
ATOM     32  C   UNL A   1      39.245  33.559  35.014  1.00  0.00     0.049 A 
ATOM     33  H   UNL A   1      39.670  31.976  33.689  1.00  0.00     0.167 HD
ATOM     34  C   UNL A   1      41.133  32.389  36.153  1.00  0.00     0.074 A 
ATOM     35  C   UNL A   1      42.103  32.249  37.224  1.00  0.00     0.031 C 
ATOM     36  C   UNL A   1      40.207  33.373  36.075  1.00  0.00     0.037 A 
BRANCH  23  37
ATOM     37  C   UNL A   1      36.521  33.204  31.081  1.00  0.00     0.058 A 
ATOM     38  C   UNL A   1      35.206  33.175  31.561  1.00  0.00     0.135 A 
ATOM     39  C   UNL A   1      36.779  33.907  29.890  1.00  0.00     0.135 A 
ATOM     40  F   UNL A   1      34.915  32.539  32.707  1.00  0.00    -0.206 F 
ATOM     41  C   UNL A   1      34.182  33.837  30.897  1.00  0.00     0.059 A 
ATOM     42  C   UNL A   1      35.780  34.610  29.233  1.00  0.00     0.059 A 
ATOM     43  F   UNL A   1      38.034  34.007  29.423  1.00  0.00    -0.206 F 
ATOM     44  C   UNL A   1      34.482  34.564  29.741  1.00  0.00     0.060 A 
BRANCH  44  45
ATOM     45  S   UNL A   1      33.166  35.504  28.948  1.00  0.00     0.124 S 
ATOM     46  O   UNL A   1      32.517  34.478  28.140  1.00  0.00    -0.237 OA
ATOM     47  O   UNL A   1      32.404  35.995  30.092  1.00  0.00    -0.237 OA
ATOM     48  O   UNL A   1      33.889  36.531  28.202  1.00  0.00    -0.744 OA
ENDBRANCH  44  45
ENDBRANCH  23  37
BRANCH  24  49
ATOM     49  C   UNL A   1      44.159  28.763  35.889  1.00  0.00     0.058 A 
ATOM     50  C   UNL A   1      43.973  27.691  36.778  1.00  0.00     0.135 A 
ATOM     51  C   UNL A   1      45.474  29.230  35.721  1.00  0.00     0.135 A 
ATOM     52  F   UNL A   1      42.743  27.193  36.982  1.00  0.00    -0.206 F 
ATOM     53  C   UNL A   1      45.030  27.148  37.511  1.00  0.00     0.059 A 
ATOM     54  C   UNL A   1      46.551  28.689  36.425  1.00  0.00     0.059 A 
ATOM     55  F   UNL A   1      45.720  30.237  34.869  1.00  0.00    -0.206 F 
ATOM     56  C   UNL A   1      46.315  27.665  37.339  1.00  0.00     0.060 A 
BRANCH  56  57
ATOM     57  S   UNL A   1      47.660  27.005  38.355  1.00  0.00     0.124 S 
ATOM     58  O   UNL A   1      46.922  26.342  39.424  1.00  0.00    -0.237 OA
ATOM     59  O   UNL A   1      48.351  26.126  37.417  1.00  0.00    -0.237 OA
ATOM     60  O   UNL A   1      48.400  28.199  38.754  1.00  0.00    -0.744 OA
ENDBRANCH  56  57
ENDBRANCH  24  49
BRANCH  36  61
ATOM     61  C   UNL A   1      40.146  34.360  37.198  1.00  0.00     0.058 A 
ATOM     62  C   UNL A   1      39.242  34.149  38.250  1.00  0.00     0.135 A 
ATOM     63  C   UNL A   1      40.837  35.577  37.140  1.00  0.00     0.135 A 
ATOM     64  F   UNL A   1      38.561  32.996  38.338  1.00  0.00    -0.206 F 
ATOM     65  C   UNL A   1      38.977  35.145  39.178  1.00  0.00     0.059 A 
ATOM     66  C   UNL A   1      40.608  36.578  38.076  1.00  0.00     0.059 A 
ATOM     67  F   UNL A   1      41.724  35.806  36.158  1.00  0.00    -0.206 F 
ATOM     68  C   UNL A   1      39.652  36.362  39.069  1.00  0.00     0.060 A 
BRANCH  68  69
ATOM     69  S   UNL A   1      39.228  37.671  40.234  1.00  0.00     0.124 S 
ATOM     70  O   UNL A   1      38.842  36.906  41.414  1.00  0.00    -0.237 OA
ATOM     71  O   UNL A   1      40.485  38.406  40.336  1.00  0.00    -0.237 OA
ATOM     72  O   UNL A   1      38.145  38.385  39.564  1.00  0.00    -0.744 OA
ENDBRANCH  68  69
ENDBRANCH  36  61
ENDBRANCH  10  11
ENDBRANCH   3   5
ENDBRANCH   2   3
ENDBRANCH   1   2
BRANCH   1  73
ATOM     73  C   UNL A   1      37.472  22.925  25.377  1.00  0.00     0.274 C 
BRANCH  73  74
ATOM     74  O   UNL A   1      36.133  23.186  24.970  1.00  0.00    -0.462 OA
BRANCH  74  75
ATOM     75  C   UNL A   1      35.868  23.118  23.642  1.00  0.00     0.312 C 
ATOM     76  O   UNL A   1      36.688  23.276  22.754  1.00  0.00    -0.252 OA
BRANCH  75  77
ATOM     77  C   UNL A   1      34.405  22.908  23.371  1.00  0.00     0.147 C 
ATOM     78  C   UNL A   1      33.511  24.134  23.692  1.00  0.00     0.129 C 
ATOM     79  C   UNL A   1      33.877  21.822  24.329  1.00  0.00     0.157 C 
ATOM     80  C   UNL A   1      32.458  23.429  24.588  1.00  0.00     0.155 C 
ATOM     81  C   UNL A   1      32.561  21.297  23.842  1.00  0.00     0.004 C 
ATOM     82  O   UNL A   1      33.373  22.641  25.407  1.00  0.00    -0.365 OA
ATOM     83  C   UNL A   1      31.693  22.305  23.969  1.00  0.00     0.004 C 
BRANCH  78  84
ATOM     84  C   UNL A   1      32.990  24.854  22.448  1.00  0.00     0.233 C 
ATOM     85  O   UNL A   1      33.370  24.516  21.326  1.00  0.00    -0.274 OA
ATOM     86  N   UNL A   1      31.920  25.714  22.535  1.00  0.00    -0.302 N 
ATOM     87  H   UNL A   1      31.186  25.545  21.901  1.00  0.00     0.172 HD
BRANCH  86  88
ATOM     88  C   UNL A   1      31.739  26.772  23.379  1.00  0.00     0.189 A 
ATOM     89  N   UNL A   1      32.364  27.072  24.485  1.00  0.00    -0.220 NA
ATOM     90  S   UNL A   1      30.618  27.943  22.810  1.00  0.00    -0.105 S 
ATOM     91  C   UNL A   1      31.997  28.357  24.885  1.00  0.00     0.084 A 
ATOM     92  C   UNL A   1      30.980  28.945  24.164  1.00  0.00     0.097 A 
BRANCH  91  93
ATOM     93  C   UNL A   1      32.728  28.998  25.962  1.00  0.00     0.001 A 
ATOM     94  C   UNL A   1      32.254  30.237  26.420  1.00  0.00     0.013 A 
ATOM     95  C   UNL A   1      33.965  28.517  26.407  1.00  0.00     0.013 A 
ATOM     96  C   UNL A   1      33.057  31.044  27.224  1.00  0.00     0.040 A 
ATOM     97  C   UNL A   1      34.771  29.333  27.210  1.00  0.00     0.040 A 
ATOM     98  C   UNL A   1      34.321  30.598  27.584  1.00  0.00     0.123 A 
ATOM     99  F   UNL A   1      35.136  31.414  28.265  1.00  0.00    -0.207 F 
ENDBRANCH  91  93
ENDBRANCH  86  88
ENDBRANCH  78  84
ENDBRANCH  75  77
ENDBRANCH  74  75
ENDBRANCH  73  74
ENDBRANCH   1  73
TORSDOF 17
ENDMDL
MODEL 2
REMARK VINA RESULT:     -12.2      5.533     10.362
REMARK SMILES O=C(OCCOC(=O)[C@@H]1[C@@H](C(=O)Nc2nc(-c3ccc(F)cc3)cs2)[C@H]2C=C[C@@H]1O2)c1ccc(-c2c3nc(c(-c4c(F)cc(S(=O)(=O)[O-])cc4F)c4ccc([nH]4)c(-c4c(F)cc(S(=O)(=O)[O-])cc4F)c4nc(c(-c5c(F)cc(S(=O)(=O)[O-])cc5F)c5ccc2[nH]5)C=C4)C=C3)cc1
REMARK SMILES IDX 4 1 3 2 2 3 1 4 31 5 32 6 96 7 33 8 95 9 34 10 35 11 36 12
REMARK SMILES IDX 89 13 37 14 94 15 88 16 90 17 38 18 93 19 87 20 86 21 39 23
REMARK SMILES IDX 73 24 52 25 72 26 53 27 56 28 71 29 91 30 54 31 55 32 70 34
REMARK SMILES IDX 92 35 57 36 40 37 41 38 50 39 42 40 43 41 49 42 51 43 44 44
REMARK SMILES IDX 45 45 46 46 47 47 48 48 74 49 75 50 84 51 76 52 77 53 83 54
REMARK SMILES IDX 85 55 78 56 79 57 80 58 81 59 82 60 58 61 59 62 68 63 60 64
REMARK SMILES IDX 61 65 67 66 69 67 62 68 63 69 64 70 65 71 66 72 5 73 6 74
REMARK SMILES IDX 7 75 8 76 9 77 10 78 29 79 26 80 28 81 30 82 27 83 11 84
REMARK SMILES IDX 12 85 13 86 14 88 15 89 25 90 16 91 24 92 17 93 18 94 23 95
REMARK SMILES IDX 19 96 22 97 20 98 21 99
REMARK H PARENT 90 22 56 33 13 87
REMARK Flexibility Score: inf
ROOT
ATOM      1  C   UNL A   1      32.431  30.606  26.686  1.00  0.00     0.275 C 
ENDROOT
BRANCH   1   2
ATOM      2  O   UNL A   1      33.581  30.131  27.406  1.00  0.00    -0.458 OA
BRANCH   2   3
ATOM      3  C   UNL A   1      34.445  30.800  28.204  1.00  0.00     0.338 C 
ATOM      4  O   UNL A   1      34.044  31.855  28.697  1.00  0.00    -0.246 OA
BRANCH   3   5
ATOM      5  C   UNL A   1      35.831  30.331  28.578  1.00  0.00     0.060 A 
ATOM      6  C   UNL A   1      36.253  29.756  29.780  1.00  0.00     0.016 A 
ATOM      7  C   UNL A   1      36.818  30.487  27.588  1.00  0.00     0.016 A 
ATOM      8  C   UNL A   1      37.553  29.205  29.920  1.00  0.00     0.010 A 
ATOM      9  C   UNL A   1      38.106  29.941  27.724  1.00  0.00     0.010 A 
ATOM     10  C   UNL A   1      38.469  29.212  28.865  1.00  0.00    -0.014 A 
BRANCH  10  11
ATOM     11  C   UNL A   1      39.887  28.738  29.016  1.00  0.00     0.031 A 
ATOM     12  C   UNL A   1      40.828  29.764  29.536  1.00  0.00     0.074 A 
ATOM     13  C   UNL A   1      40.392  27.544  28.624  1.00  0.00     0.049 A 
ATOM     14  N   UNL A   1      42.128  29.746  29.544  1.00  0.00    -0.248 NA
ATOM     15  C   UNL A   1      40.218  31.016  30.014  1.00  0.00     0.031 C 
ATOM     16  C   UNL A   1      39.620  26.494  28.011  1.00  0.00     0.029 A 
ATOM     17  N   UNL A   1      41.655  26.990  28.636  1.00  0.00    -0.354 N 
ATOM     18  C   UNL A   1      42.491  31.009  29.965  1.00  0.00     0.074 A 
ATOM     19  C   UNL A   1      41.283  31.784  30.126  1.00  0.00     0.031 C 
ATOM     20  C   UNL A   1      40.354  25.409  27.747  1.00  0.00     0.029 A 
ATOM     21  C   UNL A   1      41.723  25.704  28.115  1.00  0.00     0.049 A 
ATOM     22  H   UNL A   1      42.443  27.466  28.986  1.00  0.00     0.167 HD
ATOM     23  C   UNL A   1      43.730  31.472  30.222  1.00  0.00     0.037 A 
ATOM     24  C   UNL A   1      42.759  24.860  27.914  1.00  0.00     0.037 A 
ATOM     25  C   UNL A   1      44.913  30.680  30.073  1.00  0.00     0.049 A 
ATOM     26  C   UNL A   1      44.127  25.378  28.235  1.00  0.00     0.074 A 
ATOM     27  C   UNL A   1      46.217  31.036  30.343  1.00  0.00     0.029 A 
ATOM     28  N   UNL A   1      44.932  29.369  29.612  1.00  0.00    -0.354 N 
ATOM     29  N   UNL A   1      44.451  26.570  28.676  1.00  0.00    -0.248 NA
ATOM     30  C   UNL A   1      45.267  24.480  28.014  1.00  0.00     0.031 C 
ATOM     31  C   UNL A   1      47.032  29.950  30.018  1.00  0.00     0.029 A 
ATOM     32  C   UNL A   1      46.231  28.897  29.596  1.00  0.00     0.049 A 
ATOM     33  H   UNL A   1      44.140  28.854  29.337  1.00  0.00     0.167 HD
ATOM     34  C   UNL A   1      45.830  26.566  28.799  1.00  0.00     0.074 A 
ATOM     35  C   UNL A   1      46.282  25.248  28.394  1.00  0.00     0.031 C 
ATOM     36  C   UNL A   1      46.642  27.568  29.210  1.00  0.00     0.037 A 
BRANCH  23  37
ATOM     37  C   UNL A   1      43.808  32.894  30.679  1.00  0.00     0.058 A 
ATOM     38  C   UNL A   1      43.847  33.196  32.046  1.00  0.00     0.135 A 
ATOM     39  C   UNL A   1      43.967  33.946  29.760  1.00  0.00     0.135 A 
ATOM     40  F   UNL A   1      43.726  32.222  32.961  1.00  0.00    -0.206 F 
ATOM     41  C   UNL A   1      44.057  34.495  32.490  1.00  0.00     0.059 A 
ATOM     42  C   UNL A   1      44.220  35.244  30.181  1.00  0.00     0.059 A 
ATOM     43  F   UNL A   1      43.992  33.694  28.441  1.00  0.00    -0.206 F 
ATOM     44  C   UNL A   1      44.256  35.509  31.549  1.00  0.00     0.060 A 
BRANCH  44  45
ATOM     45  S   UNL A   1      44.632  37.171  32.138  1.00  0.00     0.124 S 
ATOM     46  O   UNL A   1      46.037  37.040  32.508  1.00  0.00    -0.237 OA
ATOM     47  O   UNL A   1      44.353  37.986  30.961  1.00  0.00    -0.237 OA
ATOM     48  O   UNL A   1      43.701  37.351  33.250  1.00  0.00    -0.744 OA
ENDBRANCH  44  45
ENDBRANCH  23  37
BRANCH  24  49
ATOM     49  C   UNL A   1      42.536  23.463  27.419  1.00  0.00     0.058 A 
ATOM     50  C   UNL A   1      42.303  22.385  28.289  1.00  0.00     0.135 A 
ATOM     51  C   UNL A   1      42.629  23.167  26.048  1.00  0.00     0.135 A 
ATOM     52  F   UNL A   1      42.200  22.598  29.610  1.00  0.00    -0.206 F 
ATOM     53  C   UNL A   1      42.225  21.069  27.829  1.00  0.00     0.059 A 
ATOM     54  C   UNL A   1      42.532  21.862  25.561  1.00  0.00     0.059 A 
ATOM     55  F   UNL A   1      42.830  24.156  25.164  1.00  0.00    -0.206 F 
ATOM     56  C   UNL A   1      42.357  20.816  26.463  1.00  0.00     0.060 A 
BRANCH  56  57
ATOM     57  S   UNL A   1      42.335  19.098  25.892  1.00  0.00     0.124 S 
ATOM     58  O   UNL A   1      42.882  18.397  27.048  1.00  0.00    -0.237 OA
ATOM     59  O   UNL A   1      40.916  18.880  25.628  1.00  0.00    -0.237 OA
ATOM     60  O   UNL A   1      43.193  19.123  24.711  1.00  0.00    -0.744 OA
ENDBRANCH  56  57
ENDBRANCH  24  49
BRANCH  36  61
ATOM     61  C   UNL A   1      48.107  27.280  29.301  1.00  0.00     0.058 A 
ATOM     62  C   UNL A   1      48.637  26.780  30.501  1.00  0.00     0.135 A 
ATOM     63  C   UNL A   1      48.992  27.662  28.285  1.00  0.00     0.135 A 
ATOM     64  F   UNL A   1      47.821  26.406  31.498  1.00  0.00    -0.206 F 
ATOM     65  C   UNL A   1      50.006  26.730  30.713  1.00  0.00     0.059 A 
ATOM     66  C   UNL A   1      50.368  27.592  28.466  1.00  0.00     0.059 A 
ATOM     67  F   UNL A   1      48.520  28.127  27.116  1.00  0.00    -0.206 F 
ATOM     68  C   UNL A   1      50.861  27.156  29.696  1.00  0.00     0.060 A 
BRANCH  68  69
ATOM     69  S   UNL A   1      52.634  27.161  30.026  1.00  0.00     0.124 S 
ATOM     70  O   UNL A   1      53.182  26.859  28.709  1.00  0.00    -0.237 OA
ATOM     71  O   UNL A   1      52.850  28.522  30.508  1.00  0.00    -0.237 OA
ATOM     72  O   UNL A   1      52.794  26.114  31.031  1.00  0.00    -0.744 OA
ENDBRANCH  68  69
ENDBRANCH  36  61
ENDBRANCH  10  11
ENDBRANCH   3   5
ENDBRANCH   2   3
ENDBRANCH   1   2
BRANCH   1  73
ATOM     73  C   UNL A   1      31.911  29.649  25.623  1.00  0.00     0.274 C 
BRANCH  73  74
ATOM     74  O   UNL A   1      32.918  29.331  24.669  1.00  0.00    -0.462 OA
BRANCH  74  75
ATOM     75  C   UNL A   1      32.986  28.042  24.251  1.00  0.00     0.312 C 
ATOM     76  O   UNL A   1      33.939  27.539  23.681  1.00  0.00    -0.252 OA
BRANCH  75  77
ATOM     77  C   UNL A   1      31.699  27.304  24.491  1.00  0.00     0.147 C 
ATOM     78  C   UNL A   1      31.870  25.785  24.750  1.00  0.00     0.129 C 
ATOM     79  C   UNL A   1      30.856  27.353  23.202  1.00  0.00     0.157 C 
ATOM     80  C   UNL A   1      30.857  25.252  23.702  1.00  0.00     0.155 C 
ATOM     81  C   UNL A   1      29.431  26.996  23.502  1.00  0.00     0.004 C 
ATOM     82  O   UNL A   1      31.243  26.106  22.583  1.00  0.00    -0.365 OA
ATOM     83  C   UNL A   1      29.441  25.704  23.846  1.00  0.00     0.004 C 
BRANCH  78  84
ATOM     84  C   UNL A   1      31.637  25.382  26.206  1.00  0.00     0.233 C 
ATOM     85  O   UNL A   1      31.257  26.214  27.031  1.00  0.00    -0.274 OA
ATOM     86  N   UNL A   1      31.607  24.055  26.568  1.00  0.00    -0.302 N 
ATOM     87  H   UNL A   1      30.817  23.773  27.083  1.00  0.00     0.172 HD
BRANCH  86  88
ATOM     88  C   UNL A   1      32.525  23.077  26.312  1.00  0.00     0.189 A 
ATOM     89  N   UNL A   1      32.359  21.900  25.772  1.00  0.00    -0.220 NA
ATOM     90  S   UNL A   1      34.151  23.538  26.621  1.00  0.00    -0.105 S 
ATOM     91  C   UNL A   1      33.607  21.338  25.504  1.00  0.00     0.084 A 
ATOM     92  C   UNL A   1      34.696  22.029  25.993  1.00  0.00     0.097 A 
BRANCH  91  93
ATOM     93  C   UNL A   1      33.682  20.132  24.702  1.00  0.00     0.001 A 
ATOM     94  C   UNL A   1      32.552  19.786  23.944  1.00  0.00     0.013 A 
ATOM     95  C   UNL A   1      34.749  19.233  24.813  1.00  0.00     0.013 A 
ATOM     96  C   UNL A   1      32.436  18.510  23.397  1.00  0.00     0.040 A 
ATOM     97  C   UNL A   1      34.625  17.950  24.266  1.00  0.00     0.040 A 
ATOM     98  C   UNL A   1      33.460  17.594  23.591  1.00  0.00     0.123 A 
ATOM     99  F   UNL A   1      33.305  16.335  23.161  1.00  0.00    -0.207 F 
ENDBRANCH  91  93
ENDBRANCH  86  88
ENDBRANCH  78  84
ENDBRANCH  75  77
ENDBRANCH  74  75
ENDBRANCH  73  74
ENDBRANCH   1  73
TORSDOF 17
ENDMDL
MODEL 3
REMARK VINA RESULT:     -12.1      0.843      8.179
REMARK SMILES O=C(OCCOC(=O)[C@@H]1[C@@H](C(=O)Nc2nc(-c3ccc(F)cc3)cs2)[C@H]2C=C[C@@H]1O2)c1ccc(-c2c3nc(c(-c4c(F)cc(S(=O)(=O)[O-])cc4F)c4ccc([nH]4)c(-c4c(F)cc(S(=O)(=O)[O-])cc4F)c4nc(c(-c5c(F)cc(S(=O)(=O)[O-])cc5F)c5ccc2[nH]5)C=C4)C=C3)cc1
REMARK SMILES IDX 4 1 3 2 2 3 1 4 31 5 32 6 96 7 33 8 95 9 34 10 35 11 36 12
REMARK SMILES IDX 89 13 37 14 94 15 88 16 90 17 38 18 93 19 87 20 86 21 39 23
REMARK SMILES IDX 73 24 52 25 72 26 53 27 56 28 71 29 91 30 54 31 55 32 70 34
REMARK SMILES IDX 92 35 57 36 40 37 41 38 50 39 42 40 43 41 49 42 51 43 44 44
REMARK SMILES IDX 45 45 46 46 47 47 48 48 74 49 75 50 84 51 76 52 77 53 83 54
REMARK SMILES IDX 85 55 78 56 79 57 80 58 81 59 82 60 58 61 59 62 68 63 60 64
REMARK SMILES IDX 61 65 67 66 69 67 62 68 63 69 64 70 65 71 66 72 5 73 6 74
REMARK SMILES IDX 7 75 8 76 9 77 10 78 29 79 26 80 28 81 30 82 27 83 11 84
REMARK SMILES IDX 12 85 13 86 14 88 15 89 25 90 16 91 24 92 17 93 18 94 23 95
REMARK SMILES IDX 19 96 22 97 20 98 21 99
REMARK H PARENT 90 22 56 33 13 87
REMARK Flexibility Score: inf
ROOT
ATOM      1  C   UNL A   1      38.437  23.297  26.255  1.00  0.00     0.275 C 
ENDROOT
BRANCH   1   2
ATOM      2  O   UNL A   1      39.872  23.291  26.340  1.00  0.00    -0.458 OA
BRANCH   2   3
ATOM      3  C   UNL A   1      40.728  24.285  26.673  1.00  0.00     0.338 C 
ATOM      4  O   UNL A   1      41.805  24.315  26.074  1.00  0.00    -0.246 OA
BRANCH   3   5
ATOM      5  C   UNL A   1      40.448  25.382  27.672  1.00  0.00     0.060 A 
ATOM      6  C   UNL A   1      39.425  25.443  28.622  1.00  0.00     0.016 A 
ATOM      7  C   UNL A   1      41.334  26.474  27.647  1.00  0.00     0.016 A 
ATOM      8  C   UNL A   1      39.395  26.460  29.611  1.00  0.00     0.010 A 
ATOM      9  C   UNL A   1      41.306  27.482  28.626  1.00  0.00     0.010 A 
ATOM     10  C   UNL A   1      40.383  27.445  29.681  1.00  0.00    -0.014 A 
BRANCH  10  11
ATOM     11  C   UNL A   1      40.319  28.596  30.644  1.00  0.00     0.031 A 
ATOM     12  C   UNL A   1      41.293  28.518  31.764  1.00  0.00     0.074 A 
ATOM     13  C   UNL A   1      39.410  29.600  30.652  1.00  0.00     0.049 A 
ATOM     14  N   UNL A   1      41.322  29.206  32.866  1.00  0.00    -0.248 NA
ATOM     15  C   UNL A   1      42.302  27.450  31.668  1.00  0.00     0.031 C 
ATOM     16  C   UNL A   1      38.348  29.746  29.691  1.00  0.00     0.029 A 
ATOM     17  N   UNL A   1      39.183  30.676  31.485  1.00  0.00    -0.354 N 
ATOM     18  C   UNL A   1      42.309  28.610  33.624  1.00  0.00     0.074 A 
ATOM     19  C   UNL A   1      42.797  27.466  32.889  1.00  0.00     0.031 C 
ATOM     20  C   UNL A   1      37.609  30.839  29.910  1.00  0.00     0.029 A 
ATOM     21  C   UNL A   1      38.106  31.472  31.114  1.00  0.00     0.049 A 
ATOM     22  H   UNL A   1      39.738  30.865  32.276  1.00  0.00     0.167 HD
ATOM     23  C   UNL A   1      42.788  29.005  34.820  1.00  0.00     0.037 A 
ATOM     24  C   UNL A   1      37.547  32.564  31.680  1.00  0.00     0.037 A 
ATOM     25  C   UNL A   1      42.302  30.154  35.522  1.00  0.00     0.049 A 
ATOM     26  C   UNL A   1      38.110  33.010  32.995  1.00  0.00     0.074 A 
ATOM     27  C   UNL A   1      42.742  30.668  36.723  1.00  0.00     0.029 A 
ATOM     28  N   UNL A   1      41.265  30.967  35.081  1.00  0.00    -0.354 N 
ATOM     29  N   UNL A   1      39.081  32.455  33.681  1.00  0.00    -0.248 NA
ATOM     30  C   UNL A   1      37.509  34.187  33.633  1.00  0.00     0.031 C 
ATOM     31  C   UNL A   1      41.951  31.778  37.026  1.00  0.00     0.029 A 
ATOM     32  C   UNL A   1      41.053  31.988  35.988  1.00  0.00     0.049 A 
ATOM     33  H   UNL A   1      40.757  30.836  34.248  1.00  0.00     0.167 HD
ATOM     34  C   UNL A   1      39.219  33.220  34.826  1.00  0.00     0.074 A 
ATOM     35  C   UNL A   1      38.237  34.285  34.739  1.00  0.00     0.031 C 
ATOM     36  C   UNL A   1      40.083  33.049  35.855  1.00  0.00     0.037 A 
BRANCH  23  37
ATOM     37  C   UNL A   1      43.878  28.156  35.393  1.00  0.00     0.058 A 
ATOM     38  C   UNL A   1      45.220  28.458  35.133  1.00  0.00     0.135 A 
ATOM     39  C   UNL A   1      43.591  27.118  36.298  1.00  0.00     0.135 A 
ATOM     40  F   UNL A   1      45.542  29.457  34.298  1.00  0.00    -0.206 F 
ATOM     41  C   UNL A   1      46.247  27.769  35.764  1.00  0.00     0.059 A 
ATOM     42  C   UNL A   1      44.601  26.446  36.971  1.00  0.00     0.059 A 
ATOM     43  F   UNL A   1      42.319  26.832  36.618  1.00  0.00    -0.206 F 
ATOM     44  C   UNL A   1      45.927  26.774  36.692  1.00  0.00     0.060 A 
BRANCH  44  45
ATOM     45  S   UNL A   1      47.267  25.961  37.581  1.00  0.00     0.124 S 
ATOM     46  O   UNL A   1      47.570  26.942  38.617  1.00  0.00    -0.237 OA
ATOM     47  O   UNL A   1      46.632  24.727  38.034  1.00  0.00    -0.237 OA
ATOM     48  O   UNL A   1      48.294  25.787  36.556  1.00  0.00    -0.744 OA
ENDBRANCH  44  45
ENDBRANCH  23  37
BRANCH  24  49
ATOM     49  C   UNL A   1      36.433  33.304  31.005  1.00  0.00     0.058 A 
ATOM     50  C   UNL A   1      36.636  34.081  29.852  1.00  0.00     0.135 A 
ATOM     51  C   UNL A   1      35.139  33.304  31.553  1.00  0.00     0.135 A 
ATOM     52  F   UNL A   1      37.847  34.123  29.276  1.00  0.00    -0.206 F 
ATOM     53  C   UNL A   1      35.622  34.869  29.304  1.00  0.00     0.059 A 
ATOM     54  C   UNL A   1      34.102  34.065  31.010  1.00  0.00     0.059 A 
ATOM     55  F   UNL A   1      34.875  32.565  32.641  1.00  0.00    -0.206 F 
ATOM     56  C   UNL A   1      34.360  34.866  29.901  1.00  0.00     0.060 A 
BRANCH  56  57
ATOM     57  S   UNL A   1      33.079  35.954  29.228  1.00  0.00     0.124 S 
ATOM     58  O   UNL A   1      32.345  35.041  28.359  1.00  0.00    -0.237 OA
ATOM     59  O   UNL A   1      32.380  36.387  30.434  1.00  0.00    -0.237 OA
ATOM     60  O   UNL A   1      33.842  36.992  28.541  1.00  0.00    -0.744 OA
ENDBRANCH  56  57
ENDBRANCH  24  49
BRANCH  36  61
ATOM     61  C   UNL A   1      40.057  34.060  36.957  1.00  0.00     0.058 A 
ATOM     62  C   UNL A   1      39.271  33.819  38.094  1.00  0.00     0.135 A 
ATOM     63  C   UNL A   1      40.654  35.319  36.808  1.00  0.00     0.135 A 
ATOM     64  F   UNL A   1      38.682  32.626  38.270  1.00  0.00    -0.206 F 
ATOM     65  C   UNL A   1      39.023  34.821  39.020  1.00  0.00     0.059 A 
ATOM     66  C   UNL A   1      40.442  36.328  37.740  1.00  0.00     0.059 A 
ATOM     67  F   UNL A   1      41.429  35.580  35.742  1.00  0.00    -0.206 F 
ATOM     68  C   UNL A   1      39.599  36.077  38.822  1.00  0.00     0.060 A 
BRANCH  68  69
ATOM     69  S   UNL A   1      39.195  37.387  39.993  1.00  0.00     0.124 S 
ATOM     70  O   UNL A   1      38.500  36.646  41.040  1.00  0.00    -0.237 OA
ATOM     71  O   UNL A   1      40.516  37.899  40.346  1.00  0.00    -0.237 OA
ATOM     72  O   UNL A   1      38.365  38.298  39.210  1.00  0.00    -0.744 OA
ENDBRANCH  68  69
ENDBRANCH  36  61
ENDBRANCH  10  11
ENDBRANCH   3   5
ENDBRANCH   2   3
ENDBRANCH   1   2
BRANCH   1  73
ATOM     73  C   UNL A   1      37.851  22.186  25.396  1.00  0.00     0.274 C 
BRANCH  73  74
ATOM     74  O   UNL A   1      36.688  21.623  25.993  1.00  0.00    -0.462 OA
BRANCH  74  75
ATOM     75  C   UNL A   1      35.564  22.383  25.987  1.00  0.00     0.312 C 
ATOM     76  O   UNL A   1      35.275  23.214  26.830  1.00  0.00    -0.252 OA
BRANCH  75  77
ATOM     77  C   UNL A   1      34.647  22.022  24.852  1.00  0.00     0.147 C 
ATOM     78  C   UNL A   1      33.509  23.044  24.597  1.00  0.00     0.129 C 
ATOM     79  C   UNL A   1      33.889  20.731  25.223  1.00  0.00     0.157 C 
ATOM     80  C   UNL A   1      32.305  22.065  24.608  1.00  0.00     0.155 C 
ATOM     81  C   UNL A   1      33.282  20.118  23.998  1.00  0.00     0.004 C 
ATOM     82  O   UNL A   1      32.678  21.286  25.784  1.00  0.00    -0.365 OA
ATOM     83  C   UNL A   1      32.326  20.964  23.598  1.00  0.00     0.004 C 
BRANCH  78  84
ATOM     84  C   UNL A   1      33.710  23.881  23.334  1.00  0.00     0.233 C 
ATOM     85  O   UNL A   1      34.507  23.521  22.466  1.00  0.00    -0.274 OA
ATOM     86  N   UNL A   1      32.843  24.904  23.028  1.00  0.00    -0.302 N 
ATOM     87  H   UNL A   1      32.460  24.880  22.121  1.00  0.00     0.172 HD
BRANCH  86  88
ATOM     88  C   UNL A   1      32.444  25.951  23.810  1.00  0.00     0.189 A 
ATOM     89  N   UNL A   1      33.142  26.696  24.624  1.00  0.00    -0.220 NA
ATOM     90  S   UNL A   1      30.813  26.431  23.564  1.00  0.00    -0.105 S 
ATOM     91  C   UNL A   1      32.364  27.779  25.033  1.00  0.00     0.084 A 
ATOM     92  C   UNL A   1      31.040  27.750  24.650  1.00  0.00     0.097 A 
BRANCH  91  93
ATOM     93  C   UNL A   1      32.992  28.865  25.761  1.00  0.00     0.001 A 
ATOM     94  C   UNL A   1      34.257  28.624  26.321  1.00  0.00     0.013 A 
ATOM     95  C   UNL A   1      32.305  30.044  26.073  1.00  0.00     0.013 A 
ATOM     96  C   UNL A   1      34.782  29.495  27.274  1.00  0.00     0.040 A 
ATOM     97  C   UNL A   1      32.834  30.913  27.035  1.00  0.00     0.040 A 
ATOM     98  C   UNL A   1      34.050  30.614  27.645  1.00  0.00     0.123 A 
ATOM     99  F   UNL A   1      34.501  31.394  28.636  1.00  0.00    -0.207 F 
ENDBRANCH  91  93
ENDBRANCH  86  88
ENDBRANCH  78  84
ENDBRANCH  75  77
ENDBRANCH  74  75
ENDBRANCH  73  74
ENDBRANCH   1  73
TORSDOF 17
ENDMDL
