MODEL 1
REMARK VINA RESULT:     -10.5      0.000      0.000
REMARK SMILES C[C@H](NC(=O)OCc1ccccc1)C(=O)NCC(=O)N1CCC[C@H]1C(=O)OCCOC(=O)c1ccc(-c2c3nc(c(-c4c(F)cc(S(=O)(=O)[O-])cc4F)c4ccc([nH]4)c(-c4c(F)cc(S(=O)(=O)[O-])cc4F)c4nc(c(-c5c(F)cc(S(=O)(=O)[O-])cc5F)c5ccc2[nH]5)C=C4)C=C3)cc1
REMARK SMILES IDX 25 1 26 2 24 3 20 4 21 5 22 6 23 7 18 8 19 9 17 10 16 11
REMARK SMILES IDX 14 12 15 13 2 15 1 16 3 17 4 18 5 20 6 21 7 22 8 23 9 24
REMARK SMILES IDX 13 25 10 26 12 27 11 28 27 29 28 30 29 31 30 32 31 33 32 34
REMARK SMILES IDX 33 35 34 36 98 37 35 38 97 39 36 40 37 41 38 42 91 43 39 44
REMARK SMILES IDX 96 45 90 46 92 47 40 48 95 49 89 50 88 51 41 53 75 54 54 55
REMARK SMILES IDX 74 56 55 57 58 58 73 59 93 60 56 61 57 62 72 64 94 65 59 66
REMARK SMILES IDX 42 67 43 68 52 69 44 70 45 71 51 72 53 73 46 74 47 75 48 76
REMARK SMILES IDX 49 77 50 78 76 79 77 80 86 81 78 82 79 83 85 84 87 85 80 86
REMARK SMILES IDX 81 87 82 88 83 89 84 90 60 91 61 92 70 93 62 94 63 95 69 96
REMARK SMILES IDX 71 97 64 98 65 99 66 100 67 101 68 102
REMARK H PARENT 16 14 3 19 92 52 58 63
REMARK Flexibility Score: inf
ROOT
ATOM      1  C   UNL A   1      36.583  22.219  25.591  1.00  0.00     0.328 C 
ATOM      2  O   UNL A   1      36.545  23.317  26.138  1.00  0.00    -0.250 OA
ENDROOT
BRANCH   1   3
ATOM      3  C   UNL A   1      35.771  21.916  24.317  1.00  0.00     0.195 C 
ATOM      4  N   UNL A   1      34.332  22.186  24.353  1.00  0.00    -0.327 N 
ATOM      5  C   UNL A   1      33.994  23.401  23.658  1.00  0.00     0.120 C 
ATOM      6  C   UNL A   1      35.058  23.467  22.578  1.00  0.00     0.024 C 
ATOM      7  C   UNL A   1      36.301  22.907  23.263  1.00  0.00     0.039 C 
BRANCH   4   8
ATOM      8  C   UNL A   1      33.366  21.462  25.010  1.00  0.00     0.242 C 
ATOM      9  O   UNL A   1      33.583  20.995  26.130  1.00  0.00    -0.273 OA
BRANCH   8  10
ATOM     10  C   UNL A   1      31.920  21.648  24.522  1.00  0.00     0.216 C 
BRANCH  10  11
ATOM     11  N   UNL A   1      31.182  21.952  25.751  1.00  0.00    -0.345 N 
ATOM     12  C   UNL A   1      30.977  23.087  26.474  1.00  0.00     0.242 C 
ATOM     13  O   UNL A   1      30.535  22.955  27.619  1.00  0.00    -0.273 OA
ATOM     14  H   UNL A   1      30.737  21.164  26.138  1.00  0.00     0.164 HD
BRANCH  12  15
ATOM     15  C   UNL A   1      31.099  24.486  25.849  1.00  0.00     0.171 C 
ATOM     16  C   UNL A   1      30.633  24.393  24.396  1.00  0.00     0.042 C 
BRANCH  15  17
ATOM     17  N   UNL A   1      32.442  25.017  25.978  1.00  0.00    -0.310 N 
ATOM     18  C   UNL A   1      32.803  26.322  26.059  1.00  0.00     0.408 C 
ATOM     19  H   UNL A   1      33.173  24.358  26.013  1.00  0.00     0.167 HD
ATOM     20  O   UNL A   1      33.985  26.640  25.984  1.00  0.00    -0.225 OA
BRANCH  18  21
ATOM     21  O   UNL A   1      31.762  27.152  26.278  1.00  0.00    -0.445 OA
BRANCH  21  22
ATOM     22  C   UNL A   1      31.918  28.495  25.801  1.00  0.00     0.270 C 
BRANCH  22  23
ATOM     23  C   UNL A   1      31.114  28.796  24.551  1.00  0.00    -0.011 A 
ATOM     24  C   UNL A   1      30.393  29.996  24.467  1.00  0.00     0.007 A 
ATOM     25  C   UNL A   1      30.976  27.866  23.510  1.00  0.00     0.007 A 
ATOM     26  C   UNL A   1      29.564  30.257  23.373  1.00  0.00     0.000 A 
ATOM     27  C   UNL A   1      30.147  28.124  22.418  1.00  0.00     0.000 A 
ATOM     28  C   UNL A   1      29.438  29.319  22.350  1.00  0.00     0.000 A 
ENDBRANCH  22  23
ENDBRANCH  21  22
ENDBRANCH  18  21
ENDBRANCH  15  17
ENDBRANCH  12  15
ENDBRANCH  10  11
ENDBRANCH   8  10
ENDBRANCH   4   8
ENDBRANCH   1   3
BRANCH   1  29
ATOM     29  O   UNL A   1      37.186  21.116  26.117  1.00  0.00    -0.461 OA
BRANCH  29  30
ATOM     30  C   UNL A   1      38.293  20.580  25.358  1.00  0.00     0.274 C 
BRANCH  30  31
ATOM     31  C   UNL A   1      39.606  20.899  26.059  1.00  0.00     0.275 C 
BRANCH  31  32
ATOM     32  O   UNL A   1      40.301  19.664  26.295  1.00  0.00    -0.458 OA
BRANCH  32  33
ATOM     33  C   UNL A   1      41.636  19.712  26.082  1.00  0.00     0.338 C 
ATOM     34  O   UNL A   1      42.355  18.790  25.738  1.00  0.00    -0.246 OA
BRANCH  33  35
ATOM     35  C   UNL A   1      42.139  21.070  26.374  1.00  0.00     0.060 A 
ATOM     36  C   UNL A   1      42.372  22.010  25.367  1.00  0.00     0.016 A 
ATOM     37  C   UNL A   1      42.452  21.380  27.696  1.00  0.00     0.016 A 
ATOM     38  C   UNL A   1      42.992  23.223  25.670  1.00  0.00     0.010 A 
ATOM     39  C   UNL A   1      42.971  22.636  28.011  1.00  0.00     0.010 A 
ATOM     40  C   UNL A   1      43.274  23.564  27.001  1.00  0.00    -0.014 A 
BRANCH  40  41
ATOM     41  C   UNL A   1      43.846  24.894  27.355  1.00  0.00     0.031 A 
ATOM     42  C   UNL A   1      42.968  25.981  27.928  1.00  0.00     0.074 A 
ATOM     43  C   UNL A   1      45.147  25.149  27.104  1.00  0.00     0.049 A 
ATOM     44  N   UNL A   1      43.245  27.245  28.124  1.00  0.00    -0.248 NA
ATOM     45  C   UNL A   1      41.598  25.605  28.315  1.00  0.00     0.031 C 
ATOM     46  C   UNL A   1      46.109  24.191  26.550  1.00  0.00     0.029 A 
ATOM     47  N   UNL A   1      45.885  26.297  27.262  1.00  0.00    -0.354 N 
ATOM     48  C   UNL A   1      42.075  27.826  28.601  1.00  0.00     0.074 A 
ATOM     49  C   UNL A   1      41.082  26.774  28.670  1.00  0.00     0.031 C 
ATOM     50  C   UNL A   1      47.306  24.782  26.430  1.00  0.00     0.029 A 
ATOM     51  C   UNL A   1      47.181  26.183  26.815  1.00  0.00     0.049 A 
ATOM     52  H   UNL A   1      45.522  27.122  27.658  1.00  0.00     0.167 HD
ATOM     53  C   UNL A   1      41.849  29.117  28.942  1.00  0.00     0.037 A 
ATOM     54  C   UNL A   1      48.151  27.106  26.671  1.00  0.00     0.037 A 
ATOM     55  C   UNL A   1      42.856  30.150  28.918  1.00  0.00     0.049 A 
ATOM     56  C   UNL A   1      47.868  28.533  27.049  1.00  0.00     0.074 A 
ATOM     57  C   UNL A   1      42.737  31.470  29.321  1.00  0.00     0.029 A 
ATOM     58  N   UNL A   1      44.155  29.987  28.465  1.00  0.00    -0.354 N 
ATOM     59  N   UNL A   1      46.763  29.055  27.524  1.00  0.00    -0.248 NA
ATOM     60  C   UNL A   1      48.960  29.497  26.862  1.00  0.00     0.031 C 
ATOM     61  C   UNL A   1      43.949  32.118  29.062  1.00  0.00     0.029 A 
ATOM     62  C   UNL A   1      44.841  31.189  28.550  1.00  0.00     0.049 A 
ATOM     63  H   UNL A   1      44.536  29.143  28.131  1.00  0.00     0.167 HD
ATOM     64  C   UNL A   1      47.034  30.406  27.709  1.00  0.00     0.074 A 
ATOM     65  C   UNL A   1      48.412  30.615  27.317  1.00  0.00     0.031 C 
ATOM     66  C   UNL A   1      46.213  31.386  28.159  1.00  0.00     0.037 A 
BRANCH  53  67
ATOM     67  C   UNL A   1      40.458  29.519  29.354  1.00  0.00     0.058 A 
ATOM     68  C   UNL A   1      40.131  29.818  30.684  1.00  0.00     0.135 A 
ATOM     69  C   UNL A   1      39.466  29.708  28.376  1.00  0.00     0.135 A 
ATOM     70  F   UNL A   1      41.036  29.642  31.660  1.00  0.00    -0.206 F 
ATOM     71  C   UNL A   1      38.869  30.291  31.032  1.00  0.00     0.059 A 
ATOM     72  C   UNL A   1      38.205  30.202  28.699  1.00  0.00     0.059 A 
ATOM     73  F   UNL A   1      39.726  29.435  27.088  1.00  0.00    -0.206 F 
ATOM     74  C   UNL A   1      37.914  30.489  30.031  1.00  0.00     0.060 A 
BRANCH  74  75
ATOM     75  S   UNL A   1      36.302  31.159  30.491  1.00  0.00     0.124 S 
ATOM     76  O   UNL A   1      35.654  31.283  29.189  1.00  0.00    -0.237 OA
ATOM     77  O   UNL A   1      35.771  30.119  31.367  1.00  0.00    -0.237 OA
ATOM     78  O   UNL A   1      36.632  32.419  31.149  1.00  0.00    -0.744 OA
ENDBRANCH  74  75
ENDBRANCH  53  67
BRANCH  54  79
ATOM     79  C   UNL A   1      49.468  26.720  26.098  1.00  0.00     0.058 A 
ATOM     80  C   UNL A   1      50.452  26.108  26.887  1.00  0.00     0.135 A 
ATOM     81  C   UNL A   1      49.771  26.967  24.748  1.00  0.00     0.135 A 
ATOM     82  F   UNL A   1      50.212  25.858  28.183  1.00  0.00    -0.206 F 
ATOM     83  C   UNL A   1      51.700  25.778  26.368  1.00  0.00     0.059 A 
ATOM     84  C   UNL A   1      50.999  26.615  24.199  1.00  0.00     0.059 A 
ATOM     85  F   UNL A   1      48.858  27.534  23.945  1.00  0.00    -0.206 F 
ATOM     86  C   UNL A   1      51.964  26.037  25.022  1.00  0.00     0.060 A 
BRANCH  86  87
ATOM     87  S   UNL A   1      53.577  25.586  24.350  1.00  0.00     0.124 S 
ATOM     88  O   UNL A   1      53.623  24.157  24.639  1.00  0.00    -0.237 OA
ATOM     89  O   UNL A   1      53.438  25.949  22.943  1.00  0.00    -0.237 OA
ATOM     90  O   UNL A   1      54.502  26.416  25.116  1.00  0.00    -0.744 OA
ENDBRANCH  86  87
ENDBRANCH  54  79
BRANCH  66  91
ATOM     91  C   UNL A   1      46.796  32.766  28.285  1.00  0.00     0.058 A 
ATOM     92  C   UNL A   1      47.470  33.180  29.445  1.00  0.00     0.135 A 
ATOM     93  C   UNL A   1      46.695  33.680  27.223  1.00  0.00     0.135 A 
ATOM     94  F   UNL A   1      47.586  32.348  30.491  1.00  0.00    -0.206 F 
ATOM     95  C   UNL A   1      47.993  34.464  29.561  1.00  0.00     0.059 A 
ATOM     96  C   UNL A   1      47.236  34.959  27.307  1.00  0.00     0.059 A 
ATOM     97  F   UNL A   1      46.070  33.332  26.088  1.00  0.00    -0.206 F 
ATOM     98  C   UNL A   1      47.869  35.347  28.487  1.00  0.00     0.060 A 
BRANCH  98  99
ATOM     99  S   UNL A   1      48.559  37.008  28.646  1.00  0.00     0.124 S 
ATOM    100  O   UNL A   1      49.924  36.719  29.070  1.00  0.00    -0.237 OA
ATOM    101  O   UNL A   1      48.413  37.538  27.293  1.00  0.00    -0.237 OA
ATOM    102  O   UNL A   1      47.707  37.634  29.652  1.00  0.00    -0.744 OA
ENDBRANCH  98  99
ENDBRANCH  66  91
ENDBRANCH  40  41
ENDBRANCH  33  35
ENDBRANCH  32  33
ENDBRANCH  31  32
ENDBRANCH  30  31
ENDBRANCH  29  30
ENDBRANCH   1  29
TORSDOF 22
ENDMDL
MODEL 2
REMARK VINA RESULT:     -10.2      1.146      2.055
REMARK SMILES C[C@H](NC(=O)OCc1ccccc1)C(=O)NCC(=O)N1CCC[C@H]1C(=O)OCCOC(=O)c1ccc(-c2c3nc(c(-c4c(F)cc(S(=O)(=O)[O-])cc4F)c4ccc([nH]4)c(-c4c(F)cc(S(=O)(=O)[O-])cc4F)c4nc(c(-c5c(F)cc(S(=O)(=O)[O-])cc5F)c5ccc2[nH]5)C=C4)C=C3)cc1
REMARK SMILES IDX 25 1 26 2 24 3 20 4 21 5 22 6 23 7 18 8 19 9 17 10 16 11
REMARK SMILES IDX 14 12 15 13 2 15 1 16 3 17 4 18 5 20 6 21 7 22 8 23 9 24
REMARK SMILES IDX 13 25 10 26 12 27 11 28 27 29 28 30 29 31 30 32 31 33 32 34
REMARK SMILES IDX 33 35 34 36 98 37 35 38 97 39 36 40 37 41 38 42 91 43 39 44
REMARK SMILES IDX 96 45 90 46 92 47 40 48 95 49 89 50 88 51 41 53 75 54 54 55
REMARK SMILES IDX 74 56 55 57 58 58 73 59 93 60 56 61 57 62 72 64 94 65 59 66
REMARK SMILES IDX 42 67 43 68 52 69 44 70 45 71 51 72 53 73 46 74 47 75 48 76
REMARK SMILES IDX 49 77 50 78 76 79 77 80 86 81 78 82 79 83 85 84 87 85 80 86
REMARK SMILES IDX 81 87 82 88 83 89 84 90 60 91 61 92 70 93 62 94 63 95 69 96
REMARK SMILES IDX 71 97 64 98 65 99 66 100 67 101 68 102
REMARK H PARENT 16 14 3 19 92 52 58 63
REMARK Flexibility Score: inf
ROOT
ATOM      1  C   UNL A   1      37.129  22.929  25.390  1.00  0.00     0.328 C 
ATOM      2  O   UNL A   1      37.583  23.799  26.129  1.00  0.00    -0.250 OA
ENDROOT
BRANCH   1   3
ATOM      3  C   UNL A   1      35.685  22.986  24.857  1.00  0.00     0.195 C 
ATOM      4  N   UNL A   1      34.634  23.383  25.797  1.00  0.00    -0.327 N 
ATOM      5  C   UNL A   1      34.215  24.745  25.591  1.00  0.00     0.120 C 
ATOM      6  C   UNL A   1      34.430  24.933  24.102  1.00  0.00     0.024 C 
ATOM      7  C   UNL A   1      35.690  24.121  23.815  1.00  0.00     0.039 C 
BRANCH   4   8
ATOM      8  C   UNL A   1      34.111  22.634  26.824  1.00  0.00     0.242 C 
ATOM      9  O   UNL A   1      34.569  22.726  27.965  1.00  0.00    -0.273 OA
BRANCH   8  10
ATOM     10  C   UNL A   1      32.701  22.061  26.604  1.00  0.00     0.216 C 
BRANCH  10  11
ATOM     11  N   UNL A   1      32.757  21.538  25.236  1.00  0.00    -0.345 N 
ATOM     12  C   UNL A   1      31.989  21.713  24.126  1.00  0.00     0.242 C 
ATOM     13  O   UNL A   1      32.142  20.909  23.202  1.00  0.00    -0.273 OA
ATOM     14  H   UNL A   1      33.514  20.927  25.087  1.00  0.00     0.164 HD
BRANCH  12  15
ATOM     15  C   UNL A   1      31.108  22.956  23.931  1.00  0.00     0.171 C 
ATOM     16  C   UNL A   1      31.790  23.859  22.903  1.00  0.00     0.042 C 
BRANCH  15  17
ATOM     17  N   UNL A   1      30.843  23.630  25.188  1.00  0.00    -0.310 N 
ATOM     18  C   UNL A   1      30.462  24.920  25.362  1.00  0.00     0.408 C 
ATOM     19  H   UNL A   1      30.951  23.091  26.005  1.00  0.00     0.167 HD
ATOM     20  O   UNL A   1      30.447  25.411  26.485  1.00  0.00    -0.225 OA
BRANCH  18  21
ATOM     21  O   UNL A   1      30.072  25.521  24.219  1.00  0.00    -0.445 OA
BRANCH  21  22
ATOM     22  C   UNL A   1      30.078  26.955  24.229  1.00  0.00     0.270 C 
BRANCH  22  23
ATOM     23  C   UNL A   1      31.438  27.561  23.944  1.00  0.00    -0.011 A 
ATOM     24  C   UNL A   1      31.963  27.498  22.644  1.00  0.00     0.007 A 
ATOM     25  C   UNL A   1      32.245  28.094  24.959  1.00  0.00     0.007 A 
ATOM     26  C   UNL A   1      33.254  27.958  22.372  1.00  0.00     0.000 A 
ATOM     27  C   UNL A   1      33.535  28.553  24.688  1.00  0.00     0.000 A 
ATOM     28  C   UNL A   1      34.041  28.482  23.394  1.00  0.00     0.000 A 
ENDBRANCH  22  23
ENDBRANCH  21  22
ENDBRANCH  18  21
ENDBRANCH  15  17
ENDBRANCH  12  15
ENDBRANCH  10  11
ENDBRANCH   8  10
ENDBRANCH   4   8
ENDBRANCH   1   3
BRANCH   1  29
ATOM     29  O   UNL A   1      37.763  21.758  25.098  1.00  0.00    -0.461 OA
BRANCH  29  30
ATOM     30  C   UNL A   1      38.693  21.279  26.095  1.00  0.00     0.274 C 
BRANCH  30  31
ATOM     31  C   UNL A   1      39.475  20.093  25.549  1.00  0.00     0.275 C 
BRANCH  31  32
ATOM     32  O   UNL A   1      40.528  19.784  26.476  1.00  0.00    -0.458 OA
BRANCH  32  33
ATOM     33  C   UNL A   1      41.778  19.854  25.962  1.00  0.00     0.338 C 
ATOM     34  O   UNL A   1      42.336  19.011  25.280  1.00  0.00    -0.246 OA
BRANCH  33  35
ATOM     35  C   UNL A   1      42.422  21.114  26.387  1.00  0.00     0.060 A 
ATOM     36  C   UNL A   1      42.677  21.403  27.730  1.00  0.00     0.016 A 
ATOM     37  C   UNL A   1      42.709  22.062  25.407  1.00  0.00     0.016 A 
ATOM     38  C   UNL A   1      43.142  22.666  28.099  1.00  0.00     0.010 A 
ATOM     39  C   UNL A   1      43.277  23.284  25.770  1.00  0.00     0.010 A 
ATOM     40  C   UNL A   1      43.475  23.614  27.120  1.00  0.00    -0.014 A 
BRANCH  40  41
ATOM     41  C   UNL A   1      44.065  24.933  27.489  1.00  0.00     0.031 A 
ATOM     42  C   UNL A   1      43.189  26.052  27.997  1.00  0.00     0.074 A 
ATOM     43  C   UNL A   1      45.385  25.146  27.309  1.00  0.00     0.049 A 
ATOM     44  N   UNL A   1      43.491  27.310  28.192  1.00  0.00    -0.248 NA
ATOM     45  C   UNL A   1      41.789  25.720  28.311  1.00  0.00     0.031 C 
ATOM     46  C   UNL A   1      46.348  24.154  26.822  1.00  0.00     0.029 A 
ATOM     47  N   UNL A   1      46.146  26.275  27.494  1.00  0.00    -0.354 N 
ATOM     48  C   UNL A   1      42.313  27.931  28.595  1.00  0.00     0.074 A 
ATOM     49  C   UNL A   1      41.288  26.909  28.621  1.00  0.00     0.031 C 
ATOM     50  C   UNL A   1      47.567  24.709  26.763  1.00  0.00     0.029 A 
ATOM     51  C   UNL A   1      47.462  26.118  27.122  1.00  0.00     0.049 A 
ATOM     52  H   UNL A   1      45.786  27.116  27.858  1.00  0.00     0.167 HD
ATOM     53  C   UNL A   1      42.107  29.233  28.906  1.00  0.00     0.037 A 
ATOM     54  C   UNL A   1      48.465  27.011  27.022  1.00  0.00     0.037 A 
ATOM     55  C   UNL A   1      43.143  30.236  28.925  1.00  0.00     0.049 A 
ATOM     56  C   UNL A   1      48.203  28.450  27.365  1.00  0.00     0.074 A 
ATOM     57  C   UNL A   1      43.041  31.565  29.304  1.00  0.00     0.029 A 
ATOM     58  N   UNL A   1      44.461  30.030  28.549  1.00  0.00    -0.354 N 
ATOM     59  N   UNL A   1      47.089  29.010  27.770  1.00  0.00    -0.248 NA
ATOM     60  C   UNL A   1      49.331  29.381  27.227  1.00  0.00     0.031 C 
ATOM     61  C   UNL A   1      44.284  32.174  29.106  1.00  0.00     0.029 A 
ATOM     62  C   UNL A   1      45.175  31.213  28.657  1.00  0.00     0.049 A 
ATOM     63  H   UNL A   1      44.835  29.170  28.248  1.00  0.00     0.167 HD
ATOM     64  C   UNL A   1      47.388  30.356  27.952  1.00  0.00     0.074 A 
ATOM     65  C   UNL A   1      48.791  30.520  27.636  1.00  0.00     0.031 C 
ATOM     66  C   UNL A   1      46.572  31.365  28.342  1.00  0.00     0.037 A 
BRANCH  53  67
ATOM     67  C   UNL A   1      40.707  29.680  29.233  1.00  0.00     0.058 A 
ATOM     68  C   UNL A   1      39.697  29.744  28.263  1.00  0.00     0.135 A 
ATOM     69  C   UNL A   1      40.351  29.945  30.567  1.00  0.00     0.135 A 
ATOM     70  F   UNL A   1      39.984  29.514  26.971  1.00  0.00    -0.206 F 
ATOM     71  C   UNL A   1      38.384  30.056  28.601  1.00  0.00     0.059 A 
ATOM     72  C   UNL A   1      39.040  30.236  30.932  1.00  0.00     0.059 A 
ATOM     73  F   UNL A   1      41.280  29.900  31.536  1.00  0.00    -0.206 F 
ATOM     74  C   UNL A   1      38.062  30.292  29.941  1.00  0.00     0.060 A 
BRANCH  74  75
ATOM     75  S   UNL A   1      36.343  30.636  30.371  1.00  0.00     0.124 S 
ATOM     76  O   UNL A   1      36.044  29.538  31.285  1.00  0.00    -0.237 OA
ATOM     77  O   UNL A   1      36.433  31.960  30.979  1.00  0.00    -0.237 OA
ATOM     78  O   UNL A   1      35.653  30.587  29.085  1.00  0.00    -0.744 OA
ENDBRANCH  74  75
ENDBRANCH  53  67
BRANCH  54  79
ATOM     79  C   UNL A   1      49.800  26.579  26.529  1.00  0.00     0.058 A 
ATOM     80  C   UNL A   1      50.139  26.678  25.172  1.00  0.00     0.135 A 
ATOM     81  C   UNL A   1      50.760  26.049  27.406  1.00  0.00     0.135 A 
ATOM     82  F   UNL A   1      49.253  27.172  24.294  1.00  0.00    -0.206 F 
ATOM     83  C   UNL A   1      51.372  26.242  24.695  1.00  0.00     0.059 A 
ATOM     84  C   UNL A   1      52.011  25.638  26.959  1.00  0.00     0.059 A 
ATOM     85  F   UNL A   1      50.493  25.950  28.718  1.00  0.00    -0.206 F 
ATOM     86  C   UNL A   1      52.301  25.721  25.598  1.00  0.00     0.060 A 
BRANCH  86  87
ATOM     87  S   UNL A   1      53.906  25.179  24.977  1.00  0.00     0.124 S 
ATOM     88  O   UNL A   1      53.691  23.744  24.829  1.00  0.00    -0.237 OA
ATOM     89  O   UNL A   1      54.031  25.939  23.737  1.00  0.00    -0.237 OA
ATOM     90  O   UNL A   1      54.825  25.574  26.041  1.00  0.00    -0.744 OA
ENDBRANCH  86  87
ENDBRANCH  54  79
BRANCH  66  91
ATOM     91  C   UNL A   1      47.187  32.729  28.483  1.00  0.00     0.058 A 
ATOM     92  C   UNL A   1      47.819  33.136  29.669  1.00  0.00     0.135 A 
ATOM     93  C   UNL A   1      47.160  33.636  27.410  1.00  0.00     0.135 A 
ATOM     94  F   UNL A   1      47.864  32.311  30.727  1.00  0.00    -0.206 F 
ATOM     95  C   UNL A   1      48.372  34.406  29.798  1.00  0.00     0.059 A 
ATOM     96  C   UNL A   1      47.732  34.900  27.509  1.00  0.00     0.059 A 
ATOM     97  F   UNL A   1      46.578  33.294  26.251  1.00  0.00    -0.206 F 
ATOM     98  C   UNL A   1      48.321  35.281  28.713  1.00  0.00     0.060 A 
BRANCH  98  99
ATOM     99  S   UNL A   1      49.050  36.925  28.889  1.00  0.00     0.124 S 
ATOM    100  O   UNL A   1      50.083  36.899  27.859  1.00  0.00    -0.237 OA
ATOM    101  O   UNL A   1      47.913  37.802  28.625  1.00  0.00    -0.237 OA
ATOM    102  O   UNL A   1      49.535  36.934  30.265  1.00  0.00    -0.744 OA
ENDBRANCH  98  99
ENDBRANCH  66  91
ENDBRANCH  40  41
ENDBRANCH  33  35
ENDBRANCH  32  33
ENDBRANCH  31  32
ENDBRANCH  30  31
ENDBRANCH  29  30
ENDBRANCH   1  29
TORSDOF 22
ENDMDL
MODEL 3
REMARK VINA RESULT:     -10.0      1.858      3.332
REMARK SMILES C[C@H](NC(=O)OCc1ccccc1)C(=O)NCC(=O)N1CCC[C@H]1C(=O)OCCOC(=O)c1ccc(-c2c3nc(c(-c4c(F)cc(S(=O)(=O)[O-])cc4F)c4ccc([nH]4)c(-c4c(F)cc(S(=O)(=O)[O-])cc4F)c4nc(c(-c5c(F)cc(S(=O)(=O)[O-])cc5F)c5ccc2[nH]5)C=C4)C=C3)cc1
REMARK SMILES IDX 25 1 26 2 24 3 20 4 21 5 22 6 23 7 18 8 19 9 17 10 16 11
REMARK SMILES IDX 14 12 15 13 2 15 1 16 3 17 4 18 5 20 6 21 7 22 8 23 9 24
REMARK SMILES IDX 13 25 10 26 12 27 11 28 27 29 28 30 29 31 30 32 31 33 32 34
REMARK SMILES IDX 33 35 34 36 98 37 35 38 97 39 36 40 37 41 38 42 91 43 39 44
REMARK SMILES IDX 96 45 90 46 92 47 40 48 95 49 89 50 88 51 41 53 75 54 54 55
REMARK SMILES IDX 74 56 55 57 58 58 73 59 93 60 56 61 57 62 72 64 94 65 59 66
REMARK SMILES IDX 42 67 43 68 52 69 44 70 45 71 51 72 53 73 46 74 47 75 48 76
REMARK SMILES IDX 49 77 50 78 76 79 77 80 86 81 78 82 79 83 85 84 87 85 80 86
REMARK SMILES IDX 81 87 82 88 83 89 84 90 60 91 61 92 70 93 62 94 63 95 69 96
REMARK SMILES IDX 71 97 64 98 65 99 66 100 67 101 68 102
REMARK H PARENT 16 14 3 19 92 52 58 63
REMARK Flexibility Score: inf
ROOT
ATOM      1  C   UNL A   1      40.777  21.070  27.454  1.00  0.00     0.328 C 
ATOM      2  O   UNL A   1      40.778  21.428  28.628  1.00  0.00    -0.250 OA
ENDROOT
BRANCH   1   3
ATOM      3  C   UNL A   1      40.513  22.058  26.302  1.00  0.00     0.195 C 
ATOM      4  N   UNL A   1      39.141  22.541  26.128  1.00  0.00    -0.327 N 
ATOM      5  C   UNL A   1      38.973  23.881  26.628  1.00  0.00     0.120 C 
ATOM      6  C   UNL A   1      40.346  24.487  26.406  1.00  0.00     0.024 C 
ATOM      7  C   UNL A   1      41.300  23.328  26.680  1.00  0.00     0.039 C 
BRANCH   4   8
ATOM      8  C   UNL A   1      38.070  21.839  25.627  1.00  0.00     0.242 C 
ATOM      9  O   UNL A   1      38.070  20.607  25.629  1.00  0.00    -0.273 OA
BRANCH   8  10
ATOM     10  C   UNL A   1      36.744  22.609  25.506  1.00  0.00     0.216 C 
BRANCH  10  11
ATOM     11  N   UNL A   1      35.775  21.565  25.158  1.00  0.00    -0.345 N 
ATOM     12  C   UNL A   1      34.558  21.205  25.648  1.00  0.00     0.242 C 
ATOM     13  O   UNL A   1      34.119  20.101  25.315  1.00  0.00    -0.273 OA
ATOM     14  H   UNL A   1      36.069  21.002  24.406  1.00  0.00     0.164 HD
BRANCH  12  15
ATOM     15  C   UNL A   1      33.667  22.189  26.423  1.00  0.00     0.171 C 
ATOM     16  C   UNL A   1      34.147  22.215  27.874  1.00  0.00     0.042 C 
BRANCH  15  17
ATOM     17  N   UNL A   1      32.261  21.853  26.300  1.00  0.00    -0.310 N 
ATOM     18  C   UNL A   1      31.238  22.699  26.024  1.00  0.00     0.408 C 
ATOM     19  H   UNL A   1      32.024  20.906  26.429  1.00  0.00     0.167 HD
ATOM     20  O   UNL A   1      30.078  22.316  26.126  1.00  0.00    -0.225 OA
BRANCH  18  21
ATOM     21  O   UNL A   1      31.647  23.911  25.595  1.00  0.00    -0.445 OA
BRANCH  21  22
ATOM     22  C   UNL A   1      30.609  24.845  25.266  1.00  0.00     0.270 C 
BRANCH  22  23
ATOM     23  C   UNL A   1      30.957  26.283  25.593  1.00  0.00    -0.011 A 
ATOM     24  C   UNL A   1      30.979  27.239  24.566  1.00  0.00     0.007 A 
ATOM     25  C   UNL A   1      31.365  26.680  26.876  1.00  0.00     0.007 A 
ATOM     26  C   UNL A   1      31.392  28.550  24.818  1.00  0.00     0.000 A 
ATOM     27  C   UNL A   1      31.779  27.988  27.128  1.00  0.00     0.000 A 
ATOM     28  C   UNL A   1      31.795  28.923  26.098  1.00  0.00     0.000 A 
ENDBRANCH  22  23
ENDBRANCH  21  22
ENDBRANCH  18  21
ENDBRANCH  15  17
ENDBRANCH  12  15
ENDBRANCH  10  11
ENDBRANCH   8  10
ENDBRANCH   4   8
ENDBRANCH   1   3
BRANCH   1  29
ATOM     29  O   UNL A   1      40.832  19.772  27.043  1.00  0.00    -0.461 OA
BRANCH  29  30
ATOM     30  C   UNL A   1      41.363  19.551  25.718  1.00  0.00     0.274 C 
BRANCH  30  31
ATOM     31  C   UNL A   1      42.878  19.407  25.781  1.00  0.00     0.275 C 
BRANCH  31  32
ATOM     32  O   UNL A   1      43.440  20.066  24.637  1.00  0.00    -0.458 OA
BRANCH  32  33
ATOM     33  C   UNL A   1      44.790  20.169  24.645  1.00  0.00     0.338 C 
ATOM     34  O   UNL A   1      45.591  19.301  24.345  1.00  0.00    -0.246 OA
BRANCH  33  35
ATOM     35  C   UNL A   1      45.184  21.509  25.126  1.00  0.00     0.060 A 
ATOM     36  C   UNL A   1      45.459  21.766  26.471  1.00  0.00     0.016 A 
ATOM     37  C   UNL A   1      45.205  22.553  24.203  1.00  0.00     0.016 A 
ATOM     38  C   UNL A   1      45.674  23.074  26.906  1.00  0.00     0.010 A 
ATOM     39  C   UNL A   1      45.529  23.844  24.623  1.00  0.00     0.010 A 
ATOM     40  C   UNL A   1      45.740  24.128  25.982  1.00  0.00    -0.014 A 
BRANCH  40  41
ATOM     41  C   UNL A   1      46.065  25.517  26.414  1.00  0.00     0.031 A 
ATOM     42  C   UNL A   1      44.982  26.440  26.917  1.00  0.00     0.074 A 
ATOM     43  C   UNL A   1      47.330  25.973  26.294  1.00  0.00     0.049 A 
ATOM     44  N   UNL A   1      45.042  27.724  27.161  1.00  0.00    -0.248 NA
ATOM     45  C   UNL A   1      43.656  25.848  27.162  1.00  0.00     0.031 C 
ATOM     46  C   UNL A   1      48.475  25.190  25.819  1.00  0.00     0.029 A 
ATOM     47  N   UNL A   1      47.865  27.214  26.544  1.00  0.00    -0.354 N 
ATOM     48  C   UNL A   1      43.757  28.106  27.533  1.00  0.00     0.074 A 
ATOM     49  C   UNL A   1      42.936  26.915  27.487  1.00  0.00     0.031 C 
ATOM     50  C   UNL A   1      49.573  25.959  25.827  1.00  0.00     0.029 A 
ATOM     51  C   UNL A   1      49.200  27.311  26.223  1.00  0.00     0.049 A 
ATOM     52  H   UNL A   1      47.344  27.961  26.918  1.00  0.00     0.167 HD
ATOM     53  C   UNL A   1      43.306  29.336  27.873  1.00  0.00     0.037 A 
ATOM     54  C   UNL A   1      50.026  28.375  26.191  1.00  0.00     0.037 A 
ATOM     55  C   UNL A   1      44.139  30.510  27.965  1.00  0.00     0.049 A 
ATOM     56  C   UNL A   1      49.493  29.729  26.564  1.00  0.00     0.074 A 
ATOM     57  C   UNL A   1      43.783  31.783  28.378  1.00  0.00     0.029 A 
ATOM     58  N   UNL A   1      45.485  30.560  27.638  1.00  0.00    -0.354 N 
ATOM     59  N   UNL A   1      48.282  30.063  26.939  1.00  0.00    -0.248 NA
ATOM     60  C   UNL A   1      50.436  30.853  26.501  1.00  0.00     0.031 C 
ATOM     61  C   UNL A   1      44.900  32.615  28.250  1.00  0.00     0.029 A 
ATOM     62  C   UNL A   1      45.967  31.848  27.811  1.00  0.00     0.049 A 
ATOM     63  H   UNL A   1      46.020  29.794  27.328  1.00  0.00     0.167 HD
ATOM     64  C   UNL A   1      48.323  31.433  27.173  1.00  0.00     0.074 A 
ATOM     65  C   UNL A   1      49.683  31.860  26.921  1.00  0.00     0.031 C 
ATOM     66  C   UNL A   1      47.323  32.263  27.558  1.00  0.00     0.037 A 
BRANCH  53  67
ATOM     67  C   UNL A   1      41.837  29.510  28.155  1.00  0.00     0.058 A 
ATOM     68  C   UNL A   1      40.862  29.357  27.159  1.00  0.00     0.135 A 
ATOM     69  C   UNL A   1      41.399  29.728  29.473  1.00  0.00     0.135 A 
ATOM     70  F   UNL A   1      41.225  29.161  25.881  1.00  0.00    -0.206 F 
ATOM     71  C   UNL A   1      39.504  29.415  27.457  1.00  0.00     0.059 A 
ATOM     72  C   UNL A   1      40.046  29.766  29.798  1.00  0.00     0.059 A 
ATOM     73  F   UNL A   1      42.290  29.883  30.464  1.00  0.00    -0.206 F 
ATOM     74  C   UNL A   1      39.105  29.611  28.782  1.00  0.00     0.060 A 
BRANCH  74  75
ATOM     75  S   UNL A   1      37.340  29.624  29.161  1.00  0.00     0.124 S 
ATOM     76  O   UNL A   1      37.073  31.056  29.262  1.00  0.00    -0.237 OA
ATOM     77  O   UNL A   1      36.766  28.953  28.000  1.00  0.00    -0.237 OA
ATOM     78  O   UNL A   1      37.254  28.882  30.415  1.00  0.00    -0.744 OA
ENDBRANCH  74  75
ENDBRANCH  53  67
BRANCH  54  79
ATOM     79  C   UNL A   1      51.434  28.211  25.741  1.00  0.00     0.058 A 
ATOM     80  C   UNL A   1      52.466  27.978  26.660  1.00  0.00     0.135 A 
ATOM     81  C   UNL A   1      51.775  28.295  24.381  1.00  0.00     0.135 A 
ATOM     82  F   UNL A   1      52.191  27.896  27.971  1.00  0.00    -0.206 F 
ATOM     83  C   UNL A   1      53.792  27.860  26.252  1.00  0.00     0.059 A 
ATOM     84  C   UNL A   1      53.087  28.148  23.946  1.00  0.00     0.059 A 
ATOM     85  F   UNL A   1      50.822  28.499  23.458  1.00  0.00    -0.206 F 
ATOM     86  C   UNL A   1      54.092  27.949  24.892  1.00  0.00     0.060 A 
BRANCH  86  87
ATOM     87  S   UNL A   1      55.810  27.773  24.367  1.00  0.00     0.124 S 
ATOM     88  O   UNL A   1      56.015  29.011  23.624  1.00  0.00    -0.237 OA
ATOM     89  O   UNL A   1      56.513  27.668  25.642  1.00  0.00    -0.237 OA
ATOM     90  O   UNL A   1      55.791  26.551  23.569  1.00  0.00    -0.744 OA
ENDBRANCH  86  87
ENDBRANCH  54  79
BRANCH  66  91
ATOM     91  C   UNL A   1      47.674  33.710  27.765  1.00  0.00     0.058 A 
ATOM     92  C   UNL A   1      48.145  34.187  28.998  1.00  0.00     0.135 A 
ATOM     93  C   UNL A   1      47.553  34.628  26.709  1.00  0.00     0.135 A 
ATOM     94  F   UNL A   1      48.269  33.353  30.042  1.00  0.00    -0.206 F 
ATOM     95  C   UNL A   1      48.451  35.531  29.187  1.00  0.00     0.059 A 
ATOM     96  C   UNL A   1      47.882  35.970  26.868  1.00  0.00     0.059 A 
ATOM     97  F   UNL A   1      47.118  34.222  25.506  1.00  0.00    -0.206 F 
ATOM     98  C   UNL A   1      48.315  36.415  28.116  1.00  0.00     0.060 A 
BRANCH  98  99
ATOM     99  S   UNL A   1      48.724  38.156  28.370  1.00  0.00     0.124 S 
ATOM    100  O   UNL A   1      49.976  38.057  29.112  1.00  0.00    -0.237 OA
ATOM    101  O   UNL A   1      48.834  38.654  27.003  1.00  0.00    -0.237 OA
ATOM    102  O   UNL A   1      47.584  38.664  29.126  1.00  0.00    -0.744 OA
ENDBRANCH  98  99
ENDBRANCH  66  91
ENDBRANCH  40  41
ENDBRANCH  33  35
ENDBRANCH  32  33
ENDBRANCH  31  32
ENDBRANCH  30  31
ENDBRANCH  29  30
ENDBRANCH   1  29
TORSDOF 22
ENDMDL
