MODEL 1
REMARK VINA RESULT:     -11.4      0.000      0.000
REMARK SMILES O=C(OCCOC(=O)c1ccc(N[C@@H]2CCCS(=O)(=O)C2)c(F)c1F)c1ccc(-c2c3nc(c(-c4c(F)cc(S(=O)(=O)[O-])cc4F)c4ccc([nH]4)c(-c4c(F)cc(S(=O)(=O)[O-])cc4F)c4nc(c(-c5c(F)cc(S(=O)(=O)[O-])cc5F)c5ccc2[nH]5)C=C4)C=C3)cc1
REMARK SMILES IDX 4 1 3 2 2 3 1 4 26 5 27 6 91 7 28 8 90 9 29 10 30 11 31 12
REMARK SMILES IDX 84 13 32 14 89 15 83 16 85 17 33 18 88 19 82 20 81 21 34 23
REMARK SMILES IDX 68 24 47 25 67 26 48 27 51 28 66 29 86 30 49 31 50 32 65 34
REMARK SMILES IDX 87 35 52 36 35 37 36 38 45 39 37 40 38 41 44 42 46 43 39 44
REMARK SMILES IDX 40 45 41 46 42 47 43 48 69 49 70 50 79 51 71 52 72 53 78 54
REMARK SMILES IDX 80 55 73 56 74 57 75 58 76 59 77 60 53 61 54 62 63 63 55 64
REMARK SMILES IDX 56 65 62 66 64 67 57 68 58 69 59 70 60 71 61 72 5 73 6 74
REMARK SMILES IDX 7 75 8 76 9 77 10 78 24 79 11 80 22 81 25 82 12 83 23 84
REMARK SMILES IDX 13 85 14 87 15 88 21 89 16 90 18 91 17 92 19 93 20 94
REMARK H PARENT 85 22 51 33 13 86
REMARK Flexibility Score: inf
ROOT
ATOM      1  C   UNL A   1      43.105  23.617  26.582  1.00  0.00     0.275 C 
ENDROOT
BRANCH   1   2
ATOM      2  O   UNL A   1      42.256  24.471  25.794  1.00  0.00    -0.458 OA
BRANCH   2   3
ATOM      3  C   UNL A   1      42.112  25.819  25.830  1.00  0.00     0.338 C 
ATOM      4  O   UNL A   1      42.336  26.470  24.811  1.00  0.00    -0.246 OA
BRANCH   3   5
ATOM      5  C   UNL A   1      41.837  26.574  27.091  1.00  0.00     0.060 A 
ATOM      6  C   UNL A   1      40.778  26.327  27.967  1.00  0.00     0.016 A 
ATOM      7  C   UNL A   1      42.721  27.623  27.407  1.00  0.00     0.016 A 
ATOM      8  C   UNL A   1      40.660  27.019  29.170  1.00  0.00     0.010 A 
ATOM      9  C   UNL A   1      42.608  28.323  28.613  1.00  0.00     0.010 A 
ATOM     10  C   UNL A   1      41.582  28.009  29.512  1.00  0.00    -0.014 A 
BRANCH  10  11
ATOM     11  C   UNL A   1      41.349  28.812  30.733  1.00  0.00     0.031 A 
ATOM     12  C   UNL A   1      40.306  29.885  30.660  1.00  0.00     0.074 A 
ATOM     13  C   UNL A   1      41.969  28.502  31.891  1.00  0.00     0.049 A 
ATOM     14  N   UNL A   1      39.907  30.704  31.591  1.00  0.00    -0.248 NA
ATOM     15  C   UNL A   1      39.565  30.010  29.389  1.00  0.00     0.031 C 
ATOM     16  C   UNL A   1      42.822  27.331  32.087  1.00  0.00     0.029 A 
ATOM     17  N   UNL A   1      41.987  29.116  33.119  1.00  0.00    -0.354 N 
ATOM     18  C   UNL A   1      38.839  31.400  31.040  1.00  0.00     0.074 A 
ATOM     19  C   UNL A   1      38.692  30.965  29.672  1.00  0.00     0.031 C 
ATOM     20  C   UNL A   1      43.327  27.342  33.332  1.00  0.00     0.029 A 
ATOM     21  C   UNL A   1      42.862  28.537  34.021  1.00  0.00     0.049 A 
ATOM     22  H   UNL A   1      41.430  29.896  33.338  1.00  0.00     0.167 HD
ATOM     23  C   UNL A   1      38.026  32.289  31.652  1.00  0.00     0.037 A 
ATOM     24  C   UNL A   1      43.258  28.957  35.244  1.00  0.00     0.037 A 
ATOM     25  C   UNL A   1      38.212  32.699  33.015  1.00  0.00     0.049 A 
ATOM     26  C   UNL A   1      42.534  30.193  35.772  1.00  0.00     0.074 A 
ATOM     27  C   UNL A   1      37.471  33.602  33.752  1.00  0.00     0.029 A 
ATOM     28  N   UNL A   1      39.233  32.241  33.838  1.00  0.00    -0.354 N 
ATOM     29  N   UNL A   1      41.466  30.787  35.280  1.00  0.00    -0.248 NA
ATOM     30  C   UNL A   1      43.033  30.810  37.006  1.00  0.00     0.031 C 
ATOM     31  C   UNL A   1      38.079  33.730  35.005  1.00  0.00     0.029 A 
ATOM     32  C   UNL A   1      39.164  32.865  35.068  1.00  0.00     0.049 A 
ATOM     33  H   UNL A   1      39.907  31.570  33.583  1.00  0.00     0.167 HD
ATOM     34  C   UNL A   1      41.121  31.786  36.188  1.00  0.00     0.074 A 
ATOM     35  C   UNL A   1      42.094  31.713  37.258  1.00  0.00     0.031 C 
ATOM     36  C   UNL A   1      40.094  32.675  36.157  1.00  0.00     0.037 A 
BRANCH  23  37
ATOM     37  C   UNL A   1      36.892  32.866  30.855  1.00  0.00     0.058 A 
ATOM     38  C   UNL A   1      37.077  33.965  30.000  1.00  0.00     0.135 A 
ATOM     39  C   UNL A   1      35.610  32.300  30.925  1.00  0.00     0.135 A 
ATOM     40  F   UNL A   1      38.275  34.566  29.919  1.00  0.00    -0.206 F 
ATOM     41  C   UNL A   1      36.029  34.484  29.245  1.00  0.00     0.059 A 
ATOM     42  C   UNL A   1      34.552  32.789  30.163  1.00  0.00     0.059 A 
ATOM     43  F   UNL A   1      35.374  31.262  31.742  1.00  0.00    -0.206 F 
ATOM     44  C   UNL A   1      34.771  33.885  29.329  1.00  0.00     0.060 A 
BRANCH  44  45
ATOM     45  S   UNL A   1      33.433  34.550  28.314  1.00  0.00     0.124 S 
ATOM     46  O   UNL A   1      32.663  35.301  29.301  1.00  0.00    -0.237 OA
ATOM     47  O   UNL A   1      34.157  35.350  27.332  1.00  0.00    -0.237 OA
ATOM     48  O   UNL A   1      32.779  33.355  27.787  1.00  0.00    -0.744 OA
ENDBRANCH  44  45
ENDBRANCH  23  37
BRANCH  24  49
ATOM     49  C   UNL A   1      44.399  28.308  36.003  1.00  0.00     0.058 A 
ATOM     50  C   UNL A   1      45.744  28.628  35.751  1.00  0.00     0.135 A 
ATOM     51  C   UNL A   1      44.190  27.247  36.911  1.00  0.00     0.135 A 
ATOM     52  F   UNL A   1      46.049  29.681  34.980  1.00  0.00    -0.206 F 
ATOM     53  C   UNL A   1      46.802  27.848  36.231  1.00  0.00     0.059 A 
ATOM     54  C   UNL A   1      45.224  26.463  37.416  1.00  0.00     0.059 A 
ATOM     55  F   UNL A   1      42.956  26.924  37.329  1.00  0.00    -0.206 F 
ATOM     56  C   UNL A   1      46.528  26.747  37.041  1.00  0.00     0.060 A 
BRANCH  56  57
ATOM     57  S   UNL A   1      47.868  25.644  37.543  1.00  0.00     0.124 S 
ATOM     58  O   UNL A   1      48.080  24.849  36.339  1.00  0.00    -0.237 OA
ATOM     59  O   UNL A   1      48.919  26.596  37.882  1.00  0.00    -0.237 OA
ATOM     60  O   UNL A   1      47.288  24.919  38.672  1.00  0.00    -0.744 OA
ENDBRANCH  56  57
ENDBRANCH  24  49
BRANCH  36  61
ATOM     61  C   UNL A   1      39.862  33.512  37.385  1.00  0.00     0.058 A 
ATOM     62  C   UNL A   1      40.530  34.724  37.608  1.00  0.00     0.135 A 
ATOM     63  C   UNL A   1      38.878  33.122  38.312  1.00  0.00     0.135 A 
ATOM     64  F   UNL A   1      41.481  35.139  36.758  1.00  0.00    -0.206 F 
ATOM     65  C   UNL A   1      40.247  35.510  38.720  1.00  0.00     0.059 A 
ATOM     66  C   UNL A   1      38.553  33.910  39.408  1.00  0.00     0.059 A 
ATOM     67  F   UNL A   1      38.195  31.979  38.133  1.00  0.00    -0.206 F 
ATOM     68  C   UNL A   1      39.253  35.097  39.612  1.00  0.00     0.060 A 
BRANCH  68  69
ATOM     69  S   UNL A   1      38.867  36.145  41.028  1.00  0.00     0.124 S 
ATOM     70  O   UNL A   1      40.126  36.124  41.762  1.00  0.00    -0.237 OA
ATOM     71  O   UNL A   1      38.523  37.414  40.394  1.00  0.00    -0.237 OA
ATOM     72  O   UNL A   1      37.754  35.453  41.672  1.00  0.00    -0.744 OA
ENDBRANCH  68  69
ENDBRANCH  36  61
ENDBRANCH  10  11
ENDBRANCH   3   5
ENDBRANCH   2   3
ENDBRANCH   1   2
BRANCH   1  73
ATOM     73  C   UNL A   1      43.054  22.130  26.217  1.00  0.00     0.275 C 
BRANCH  73  74
ATOM     74  O   UNL A   1      41.756  21.687  25.789  1.00  0.00    -0.458 OA
BRANCH  74  75
ATOM     75  C   UNL A   1      40.841  21.512  26.779  1.00  0.00     0.341 C 
ATOM     76  O   UNL A   1      41.058  21.096  27.904  1.00  0.00    -0.246 OA
BRANCH  75  77
ATOM     77  C   UNL A   1      39.528  21.987  26.306  1.00  0.00     0.099 A 
ATOM     78  C   UNL A   1      39.084  23.284  26.561  1.00  0.00     0.021 A 
ATOM     79  C   UNL A   1      38.694  21.107  25.634  1.00  0.00     0.175 A 
ATOM     80  C   UNL A   1      37.788  23.678  26.179  1.00  0.00     0.030 A 
ATOM     81  C   UNL A   1      37.414  21.514  25.258  1.00  0.00     0.182 A 
ATOM     82  F   UNL A   1      39.072  19.841  25.403  1.00  0.00    -0.203 F 
ATOM     83  C   UNL A   1      36.918  22.808  25.522  1.00  0.00     0.074 A 
ATOM     84  F   UNL A   1      36.605  20.625  24.654  1.00  0.00    -0.201 F 
BRANCH  83  85
ATOM     85  N   UNL A   1      35.645  23.128  25.098  1.00  0.00    -0.379 N 
ATOM     86  H   UNL A   1      35.625  23.721  24.312  1.00  0.00     0.160 HD
BRANCH  85  87
ATOM     87  C   UNL A   1      34.309  22.754  25.590  1.00  0.00     0.094 C 
ATOM     88  C   UNL A   1      33.539  21.863  24.598  1.00  0.00     0.027 C 
ATOM     89  C   UNL A   1      33.538  23.964  26.100  1.00  0.00     0.161 C 
ATOM     90  C   UNL A   1      32.166  21.393  25.090  1.00  0.00     0.018 C 
ATOM     91  S   UNL A   1      32.046  23.420  26.906  1.00  0.00     0.152 S 
ATOM     92  C   UNL A   1      31.280  22.516  25.597  1.00  0.00     0.137 C 
ATOM     93  O   UNL A   1      31.226  24.577  27.187  1.00  0.00    -0.229 OA
ATOM     94  O   UNL A   1      32.402  22.482  27.954  1.00  0.00    -0.229 OA
ENDBRANCH  85  87
ENDBRANCH  83  85
ENDBRANCH  75  77
ENDBRANCH  74  75
ENDBRANCH  73  74
ENDBRANCH   1  73
TORSDOF 16
ENDMDL
MODEL 2
REMARK VINA RESULT:     -11.4      0.729      8.373
REMARK SMILES O=C(OCCOC(=O)c1ccc(N[C@@H]2CCCS(=O)(=O)C2)c(F)c1F)c1ccc(-c2c3nc(c(-c4c(F)cc(S(=O)(=O)[O-])cc4F)c4ccc([nH]4)c(-c4c(F)cc(S(=O)(=O)[O-])cc4F)c4nc(c(-c5c(F)cc(S(=O)(=O)[O-])cc5F)c5ccc2[nH]5)C=C4)C=C3)cc1
REMARK SMILES IDX 4 1 3 2 2 3 1 4 26 5 27 6 91 7 28 8 90 9 29 10 30 11 31 12
REMARK SMILES IDX 84 13 32 14 89 15 83 16 85 17 33 18 88 19 82 20 81 21 34 23
REMARK SMILES IDX 68 24 47 25 67 26 48 27 51 28 66 29 86 30 49 31 50 32 65 34
REMARK SMILES IDX 87 35 52 36 35 37 36 38 45 39 37 40 38 41 44 42 46 43 39 44
REMARK SMILES IDX 40 45 41 46 42 47 43 48 69 49 70 50 79 51 71 52 72 53 78 54
REMARK SMILES IDX 80 55 73 56 74 57 75 58 76 59 77 60 53 61 54 62 63 63 55 64
REMARK SMILES IDX 56 65 62 66 64 67 57 68 58 69 59 70 60 71 61 72 5 73 6 74
REMARK SMILES IDX 7 75 8 76 9 77 10 78 24 79 11 80 22 81 25 82 12 83 23 84
REMARK SMILES IDX 13 85 14 87 15 88 21 89 16 90 18 91 17 92 19 93 20 94
REMARK H PARENT 85 22 51 33 13 86
REMARK Flexibility Score: inf
ROOT
ATOM      1  C   UNL A   1      43.661  22.871  25.924  1.00  0.00     0.275 C 
ENDROOT
BRANCH   1   2
ATOM      2  O   UNL A   1      43.614  24.276  26.233  1.00  0.00    -0.458 OA
BRANCH   2   3
ATOM      3  C   UNL A   1      42.572  25.141  26.172  1.00  0.00     0.338 C 
ATOM      4  O   UNL A   1      41.990  25.297  25.100  1.00  0.00    -0.246 OA
BRANCH   3   5
ATOM      5  C   UNL A   1      42.185  26.031  27.309  1.00  0.00     0.060 A 
ATOM      6  C   UNL A   1      41.031  25.896  28.084  1.00  0.00     0.016 A 
ATOM      7  C   UNL A   1      43.059  27.092  27.609  1.00  0.00     0.016 A 
ATOM      8  C   UNL A   1      40.806  26.715  29.189  1.00  0.00     0.010 A 
ATOM      9  C   UNL A   1      42.838  27.919  28.716  1.00  0.00     0.010 A 
ATOM     10  C   UNL A   1      41.712  27.720  29.524  1.00  0.00    -0.014 A 
BRANCH  10  11
ATOM     11  C   UNL A   1      41.373  28.653  30.622  1.00  0.00     0.031 A 
ATOM     12  C   UNL A   1      42.176  28.550  31.883  1.00  0.00     0.074 A 
ATOM     13  C   UNL A   1      40.462  29.631  30.438  1.00  0.00     0.049 A 
ATOM     14  N   UNL A   1      42.086  29.260  32.971  1.00  0.00    -0.248 NA
ATOM     15  C   UNL A   1      43.270  27.559  31.898  1.00  0.00     0.031 C 
ATOM     16  C   UNL A   1      39.810  29.929  29.164  1.00  0.00     0.029 A 
ATOM     17  N   UNL A   1      39.922  30.560  31.294  1.00  0.00    -0.354 N 
ATOM     18  C   UNL A   1      43.140  28.843  33.774  1.00  0.00     0.074 A 
ATOM     19  C   UNL A   1      43.814  27.768  33.087  1.00  0.00     0.031 C 
ATOM     20  C   UNL A   1      38.920  30.921  29.331  1.00  0.00     0.029 A 
ATOM     21  C   UNL A   1      38.909  31.315  30.732  1.00  0.00     0.049 A 
ATOM     22  H   UNL A   1      40.227  30.677  32.222  1.00  0.00     0.167 HD
ATOM     23  C   UNL A   1      43.529  29.356  34.962  1.00  0.00     0.037 A 
ATOM     24  C   UNL A   1      38.054  32.193  31.306  1.00  0.00     0.037 A 
ATOM     25  C   UNL A   1      42.823  30.423  35.614  1.00  0.00     0.049 A 
ATOM     26  C   UNL A   1      38.330  32.500  32.777  1.00  0.00     0.074 A 
ATOM     27  C   UNL A   1      43.101  31.026  36.825  1.00  0.00     0.029 A 
ATOM     28  N   UNL A   1      41.680  31.030  35.109  1.00  0.00    -0.354 N 
ATOM     29  N   UNL A   1      39.381  32.167  33.498  1.00  0.00    -0.248 NA
ATOM     30  C   UNL A   1      37.343  33.300  33.511  1.00  0.00     0.031 C 
ATOM     31  C   UNL A   1      42.092  31.960  37.077  1.00  0.00     0.029 A 
ATOM     32  C   UNL A   1      41.218  31.980  35.997  1.00  0.00     0.049 A 
ATOM     33  H   UNL A   1      41.260  30.814  34.245  1.00  0.00     0.167 HD
ATOM     34  C   UNL A   1      39.217  32.786  34.735  1.00  0.00     0.074 A 
ATOM     35  C   UNL A   1      37.968  33.515  34.661  1.00  0.00     0.031 C 
ATOM     36  C   UNL A   1      40.022  32.773  35.829  1.00  0.00     0.037 A 
BRANCH  23  37
ATOM     37  C   UNL A   1      44.747  28.769  35.614  1.00  0.00     0.058 A 
ATOM     38  C   UNL A   1      46.034  29.271  35.356  1.00  0.00     0.135 A 
ATOM     39  C   UNL A   1      44.628  27.710  36.526  1.00  0.00     0.135 A 
ATOM     40  F   UNL A   1      46.210  30.262  34.467  1.00  0.00    -0.206 F 
ATOM     41  C   UNL A   1      47.160  28.740  35.979  1.00  0.00     0.059 A 
ATOM     42  C   UNL A   1      45.738  27.178  37.177  1.00  0.00     0.059 A 
ATOM     43  F   UNL A   1      43.425  27.179  36.792  1.00  0.00    -0.206 F 
ATOM     44  C   UNL A   1      47.001  27.697  36.893  1.00  0.00     0.060 A 
BRANCH  44  45
ATOM     45  S   UNL A   1      48.469  27.046  37.719  1.00  0.00     0.124 S 
ATOM     46  O   UNL A   1      49.540  27.641  36.925  1.00  0.00    -0.237 OA
ATOM     47  O   UNL A   1      48.321  27.567  39.073  1.00  0.00    -0.237 OA
ATOM     48  O   UNL A   1      48.321  25.599  37.586  1.00  0.00    -0.744 OA
ENDBRANCH  44  45
ENDBRANCH  23  37
BRANCH  24  49
ATOM     49  C   UNL A   1      36.856  32.766  30.576  1.00  0.00     0.058 A 
ATOM     50  C   UNL A   1      36.973  33.826  29.661  1.00  0.00     0.135 A 
ATOM     51  C   UNL A   1      35.534  32.365  30.870  1.00  0.00     0.135 A 
ATOM     52  F   UNL A   1      38.185  34.218  29.242  1.00  0.00    -0.206 F 
ATOM     53  C   UNL A   1      35.864  34.545  29.201  1.00  0.00     0.059 A 
ATOM     54  C   UNL A   1      34.412  33.053  30.414  1.00  0.00     0.059 A 
ATOM     55  F   UNL A   1      35.289  31.288  31.632  1.00  0.00    -0.206 F 
ATOM     56  C   UNL A   1      34.586  34.167  29.609  1.00  0.00     0.060 A 
BRANCH  56  57
ATOM     57  S   UNL A   1      33.159  35.174  29.147  1.00  0.00     0.124 S 
ATOM     58  O   UNL A   1      33.790  36.376  28.615  1.00  0.00    -0.237 OA
ATOM     59  O   UNL A   1      32.495  34.310  28.178  1.00  0.00    -0.237 OA
ATOM     60  O   UNL A   1      32.459  35.350  30.417  1.00  0.00    -0.744 OA
ENDBRANCH  56  57
ENDBRANCH  24  49
BRANCH  36  61
ATOM     61  C   UNL A   1      39.675  33.703  36.959  1.00  0.00     0.058 A 
ATOM     62  C   UNL A   1      38.857  33.316  38.029  1.00  0.00     0.135 A 
ATOM     63  C   UNL A   1      40.255  34.984  37.004  1.00  0.00     0.135 A 
ATOM     64  F   UNL A   1      38.274  32.107  38.033  1.00  0.00    -0.206 F 
ATOM     65  C   UNL A   1      38.606  34.175  39.094  1.00  0.00     0.059 A 
ATOM     66  C   UNL A   1      40.049  35.842  38.076  1.00  0.00     0.059 A 
ATOM     67  F   UNL A   1      41.064  35.395  36.013  1.00  0.00    -0.206 F 
ATOM     68  C   UNL A   1      39.211  35.435  39.111  1.00  0.00     0.060 A 
BRANCH  68  69
ATOM     69  S   UNL A   1      38.911  36.523  40.517  1.00  0.00     0.124 S 
ATOM     70  O   UNL A   1      37.933  35.756  41.280  1.00  0.00    -0.237 OA
ATOM     71  O   UNL A   1      40.237  36.634  41.116  1.00  0.00    -0.237 OA
ATOM     72  O   UNL A   1      38.406  37.746  39.900  1.00  0.00    -0.744 OA
ENDBRANCH  68  69
ENDBRANCH  36  61
ENDBRANCH  10  11
ENDBRANCH   3   5
ENDBRANCH   2   3
ENDBRANCH   1   2
BRANCH   1  73
ATOM     73  C   UNL A   1      42.598  22.015  26.620  1.00  0.00     0.275 C 
BRANCH  73  74
ATOM     74  O   UNL A   1      41.386  21.874  25.862  1.00  0.00    -0.458 OA
BRANCH  74  75
ATOM     75  C   UNL A   1      40.333  21.336  26.534  1.00  0.00     0.341 C 
ATOM     76  O   UNL A   1      40.385  20.478  27.398  1.00  0.00    -0.246 OA
BRANCH  75  77
ATOM     77  C   UNL A   1      39.098  22.018  26.109  1.00  0.00     0.099 A 
ATOM     78  C   UNL A   1      38.831  23.340  26.468  1.00  0.00     0.021 A 
ATOM     79  C   UNL A   1      38.154  21.313  25.379  1.00  0.00     0.175 A 
ATOM     80  C   UNL A   1      37.602  23.933  26.128  1.00  0.00     0.030 A 
ATOM     81  C   UNL A   1      36.941  21.917  25.046  1.00  0.00     0.182 A 
ATOM     82  F   UNL A   1      38.358  20.030  25.048  1.00  0.00    -0.203 F 
ATOM     83  C   UNL A   1      36.623  23.242  25.413  1.00  0.00     0.074 A 
ATOM     84  F   UNL A   1      36.021  21.194  24.382  1.00  0.00    -0.201 F 
BRANCH  83  85
ATOM     85  N   UNL A   1      35.405  23.761  25.026  1.00  0.00    -0.379 N 
ATOM     86  H   UNL A   1      35.476  24.486  24.363  1.00  0.00     0.160 HD
BRANCH  85  87
ATOM     87  C   UNL A   1      34.020  23.444  25.409  1.00  0.00     0.094 C 
ATOM     88  C   UNL A   1      33.293  22.594  24.352  1.00  0.00     0.027 C 
ATOM     89  C   UNL A   1      33.265  24.683  25.869  1.00  0.00     0.161 C 
ATOM     90  C   UNL A   1      31.866  22.181  24.731  1.00  0.00     0.018 C 
ATOM     91  S   UNL A   1      31.693  24.200  26.553  1.00  0.00     0.152 S 
ATOM     92  C   UNL A   1      30.993  23.339  25.179  1.00  0.00     0.137 C 
ATOM     93  O   UNL A   1      30.904  25.391  26.780  1.00  0.00    -0.229 OA
ATOM     94  O   UNL A   1      31.926  23.241  27.616  1.00  0.00    -0.229 OA
ENDBRANCH  85  87
ENDBRANCH  83  85
ENDBRANCH  75  77
ENDBRANCH  74  75
ENDBRANCH  73  74
ENDBRANCH   1  73
TORSDOF 16
ENDMDL
MODEL 3
REMARK VINA RESULT:     -11.2      1.652      8.664
REMARK SMILES O=C(OCCOC(=O)c1ccc(N[C@@H]2CCCS(=O)(=O)C2)c(F)c1F)c1ccc(-c2c3nc(c(-c4c(F)cc(S(=O)(=O)[O-])cc4F)c4ccc([nH]4)c(-c4c(F)cc(S(=O)(=O)[O-])cc4F)c4nc(c(-c5c(F)cc(S(=O)(=O)[O-])cc5F)c5ccc2[nH]5)C=C4)C=C3)cc1
REMARK SMILES IDX 4 1 3 2 2 3 1 4 26 5 27 6 91 7 28 8 90 9 29 10 30 11 31 12
REMARK SMILES IDX 84 13 32 14 89 15 83 16 85 17 33 18 88 19 82 20 81 21 34 23
REMARK SMILES IDX 68 24 47 25 67 26 48 27 51 28 66 29 86 30 49 31 50 32 65 34
REMARK SMILES IDX 87 35 52 36 35 37 36 38 45 39 37 40 38 41 44 42 46 43 39 44
REMARK SMILES IDX 40 45 41 46 42 47 43 48 69 49 70 50 79 51 71 52 72 53 78 54
REMARK SMILES IDX 80 55 73 56 74 57 75 58 76 59 77 60 53 61 54 62 63 63 55 64
REMARK SMILES IDX 56 65 62 66 64 67 57 68 58 69 59 70 60 71 61 72 5 73 6 74
REMARK SMILES IDX 7 75 8 76 9 77 10 78 24 79 11 80 22 81 25 82 12 83 23 84
REMARK SMILES IDX 13 85 14 87 15 88 21 89 16 90 18 91 17 92 19 93 20 94
REMARK H PARENT 85 22 51 33 13 86
REMARK Flexibility Score: inf
ROOT
ATOM      1  C   UNL A   1      40.601  22.225  26.663  1.00  0.00     0.275 C 
ENDROOT
BRANCH   1   2
ATOM      2  O   UNL A   1      40.235  23.598  26.440  1.00  0.00    -0.458 OA
BRANCH   2   3
ATOM      3  C   UNL A   1      40.978  24.724  26.577  1.00  0.00     0.338 C 
ATOM      4  O   UNL A   1      41.962  24.879  25.855  1.00  0.00    -0.246 OA
BRANCH   3   5
ATOM      5  C   UNL A   1      40.750  25.724  27.665  1.00  0.00     0.060 A 
ATOM      6  C   UNL A   1      39.642  25.754  28.514  1.00  0.00     0.016 A 
ATOM      7  C   UNL A   1      41.736  26.714  27.834  1.00  0.00     0.016 A 
ATOM      8  C   UNL A   1      39.564  26.665  29.566  1.00  0.00     0.010 A 
ATOM      9  C   UNL A   1      41.663  27.632  28.887  1.00  0.00     0.010 A 
ATOM     10  C   UNL A   1      40.579  27.598  29.772  1.00  0.00    -0.014 A 
BRANCH  10  11
ATOM     11  C   UNL A   1      40.399  28.632  30.815  1.00  0.00     0.031 A 
ATOM     12  C   UNL A   1      41.233  28.510  32.055  1.00  0.00     0.074 A 
ATOM     13  C   UNL A   1      39.607  29.702  30.596  1.00  0.00     0.049 A 
ATOM     14  N   UNL A   1      41.273  29.292  33.095  1.00  0.00    -0.248 NA
ATOM     15  C   UNL A   1      42.199  27.394  32.101  1.00  0.00     0.031 C 
ATOM     16  C   UNL A   1      38.946  29.998  29.326  1.00  0.00     0.029 A 
ATOM     17  N   UNL A   1      39.217  30.742  31.405  1.00  0.00    -0.354 N 
ATOM     18  C   UNL A   1      42.299  28.799  33.890  1.00  0.00     0.074 A 
ATOM     19  C   UNL A   1      42.811  27.609  33.255  1.00  0.00     0.031 C 
ATOM     20  C   UNL A   1      38.190  31.101  29.455  1.00  0.00     0.029 A 
ATOM     21  C   UNL A   1      38.281  31.580  30.826  1.00  0.00     0.049 A 
ATOM     22  H   UNL A   1      39.571  30.878  32.312  1.00  0.00     0.167 HD
ATOM     23  C   UNL A   1      42.795  29.333  35.028  1.00  0.00     0.037 A 
ATOM     24  C   UNL A   1      37.563  32.590  31.367  1.00  0.00     0.037 A 
ATOM     25  C   UNL A   1      42.249  30.517  35.630  1.00  0.00     0.049 A 
ATOM     26  C   UNL A   1      37.932  32.952  32.804  1.00  0.00     0.074 A 
ATOM     27  C   UNL A   1      42.646  31.155  36.789  1.00  0.00     0.029 A 
ATOM     28  N   UNL A   1      41.169  31.228  35.122  1.00  0.00    -0.354 N 
ATOM     29  N   UNL A   1      38.962  32.537  33.513  1.00  0.00    -0.248 NA
ATOM     30  C   UNL A   1      37.079  33.911  33.515  1.00  0.00     0.031 C 
ATOM     31  C   UNL A   1      41.769  32.221  37.010  1.00  0.00     0.029 A 
ATOM     32  C   UNL A   1      40.862  32.282  35.959  1.00  0.00     0.049 A 
ATOM     33  H   UNL A   1      40.692  31.012  34.289  1.00  0.00     0.167 HD
ATOM     34  C   UNL A   1      38.924  33.248  34.710  1.00  0.00     0.074 A 
ATOM     35  C   UNL A   1      37.770  34.120  34.627  1.00  0.00     0.031 C 
ATOM     36  C   UNL A   1      39.765  33.204  35.776  1.00  0.00     0.037 A 
BRANCH  23  37
ATOM     37  C   UNL A   1      43.957  28.642  35.679  1.00  0.00     0.058 A 
ATOM     38  C   UNL A   1      43.772  27.610  36.614  1.00  0.00     0.135 A 
ATOM     39  C   UNL A   1      45.275  28.994  35.348  1.00  0.00     0.135 A 
ATOM     40  F   UNL A   1      42.533  27.253  36.993  1.00  0.00    -0.206 F 
ATOM     41  C   UNL A   1      44.851  26.955  37.200  1.00  0.00     0.059 A 
ATOM     42  C   UNL A   1      46.369  28.339  35.904  1.00  0.00     0.059 A 
ATOM     43  F   UNL A   1      45.508  29.988  34.476  1.00  0.00    -0.206 F 
ATOM     44  C   UNL A   1      46.147  27.322  36.833  1.00  0.00     0.060 A 
BRANCH  44  45
ATOM     45  S   UNL A   1      47.534  26.436  37.576  1.00  0.00     0.124 S 
ATOM     46  O   UNL A   1      47.824  27.269  38.739  1.00  0.00    -0.237 OA
ATOM     47  O   UNL A   1      46.951  25.130  37.861  1.00  0.00    -0.237 OA
ATOM     48  O   UNL A   1      48.550  26.452  36.526  1.00  0.00    -0.744 OA
ENDBRANCH  44  45
ENDBRANCH  23  37
BRANCH  24  49
ATOM     49  C   UNL A   1      36.415  33.260  30.639  1.00  0.00     0.058 A 
ATOM     50  C   UNL A   1      36.623  34.160  29.580  1.00  0.00     0.135 A 
ATOM     51  C   UNL A   1      35.075  33.130  31.066  1.00  0.00     0.135 A 
ATOM     52  F   UNL A   1      37.842  34.284  29.036  1.00  0.00    -0.206 F 
ATOM     53  C   UNL A   1      35.609  34.992  29.092  1.00  0.00     0.059 A 
ATOM     54  C   UNL A   1      34.043  33.934  30.588  1.00  0.00     0.059 A 
ATOM     55  F   UNL A   1      34.726  32.216  31.985  1.00  0.00    -0.206 F 
ATOM     56  C   UNL A   1      34.325  34.891  29.626  1.00  0.00     0.060 A 
BRANCH  56  57
ATOM     57  S   UNL A   1      33.044  36.057  29.117  1.00  0.00     0.124 S 
ATOM     58  O   UNL A   1      32.456  36.445  30.393  1.00  0.00    -0.237 OA
ATOM     59  O   UNL A   1      33.832  37.076  28.433  1.00  0.00    -0.237 OA
ATOM     60  O   UNL A   1      32.185  35.246  28.258  1.00  0.00    -0.744 OA
ENDBRANCH  56  57
ENDBRANCH  24  49
BRANCH  36  61
ATOM     61  C   UNL A   1      39.578  34.238  36.853  1.00  0.00     0.058 A 
ATOM     62  C   UNL A   1      38.941  33.954  38.068  1.00  0.00     0.135 A 
ATOM     63  C   UNL A   1      40.133  35.520  36.684  1.00  0.00     0.135 A 
ATOM     64  F   UNL A   1      38.389  32.749  38.278  1.00  0.00    -0.206 F 
ATOM     65  C   UNL A   1      38.840  34.911  39.073  1.00  0.00     0.059 A 
ATOM     66  C   UNL A   1      40.077  36.478  37.688  1.00  0.00     0.059 A 
ATOM     67  F   UNL A   1      40.772  35.836  35.545  1.00  0.00    -0.206 F 
ATOM     68  C   UNL A   1      39.417  36.169  38.875  1.00  0.00     0.060 A 
BRANCH  68  69
ATOM     69  S   UNL A   1      39.316  37.389  40.200  1.00  0.00     0.124 S 
ATOM     70  O   UNL A   1      38.548  38.452  39.563  1.00  0.00    -0.237 OA
ATOM     71  O   UNL A   1      38.625  36.650  41.253  1.00  0.00    -0.237 OA
ATOM     72  O   UNL A   1      40.713  37.705  40.479  1.00  0.00    -0.744 OA
ENDBRANCH  68  69
ENDBRANCH  36  61
ENDBRANCH  10  11
ENDBRANCH   3   5
ENDBRANCH   2   3
ENDBRANCH   1   2
BRANCH   1  73
ATOM     73  C   UNL A   1      39.637  21.189  26.075  1.00  0.00     0.275 C 
BRANCH  73  74
ATOM     74  O   UNL A   1      38.343  21.725  25.754  1.00  0.00    -0.458 OA
BRANCH  74  75
ATOM     75  C   UNL A   1      37.507  20.881  25.093  1.00  0.00     0.341 C 
ATOM     76  O   UNL A   1      37.760  19.746  24.727  1.00  0.00    -0.246 OA
BRANCH  75  77
ATOM     77  C   UNL A   1      36.192  21.529  24.948  1.00  0.00     0.099 A 
ATOM     78  C   UNL A   1      35.179  21.347  25.891  1.00  0.00     0.021 A 
ATOM     79  C   UNL A   1      35.936  22.297  23.823  1.00  0.00     0.175 A 
ATOM     80  C   UNL A   1      33.904  21.901  25.678  1.00  0.00     0.030 A 
ATOM     81  C   UNL A   1      34.667  22.843  23.628  1.00  0.00     0.182 A 
ATOM     82  F   UNL A   1      36.872  22.464  22.878  1.00  0.00    -0.203 F 
ATOM     83  C   UNL A   1      33.610  22.659  24.544  1.00  0.00     0.074 A 
ATOM     84  F   UNL A   1      34.431  23.541  22.503  1.00  0.00    -0.201 F 
BRANCH  83  85
ATOM     85  N   UNL A   1      32.393  23.252  24.277  1.00  0.00    -0.379 N 
ATOM     86  H   UNL A   1      31.832  22.740  23.650  1.00  0.00     0.160 HD
BRANCH  85  87
ATOM     87  C   UNL A   1      31.769  24.499  24.746  1.00  0.00     0.094 C 
ATOM     88  C   UNL A   1      30.554  24.911  23.894  1.00  0.00     0.027 C 
ATOM     89  C   UNL A   1      32.800  25.596  24.970  1.00  0.00     0.161 C 
ATOM     90  C   UNL A   1      29.827  26.170  24.379  1.00  0.00     0.018 C 
ATOM     91  S   UNL A   1      32.024  26.985  25.770  1.00  0.00     0.152 S 
ATOM     92  C   UNL A   1      30.746  27.357  24.610  1.00  0.00     0.137 C 
ATOM     93  O   UNL A   1      32.955  28.092  25.776  1.00  0.00    -0.229 OA
ATOM     94  O   UNL A   1      31.401  26.524  26.996  1.00  0.00    -0.229 OA
ENDBRANCH  85  87
ENDBRANCH  83  85
ENDBRANCH  75  77
ENDBRANCH  74  75
ENDBRANCH  73  74
ENDBRANCH   1  73
TORSDOF 16
ENDMDL
