MODEL 1
REMARK VINA RESULT:     -11.4      0.000      0.000
REMARK SMILES O=C(OCCOC(=O)c1ccc(-c2c3nc(c(-c4c(F)cc(S(=O)(=O)[O-])cc4F)c4ccc([nH]4)c(-c4c(F)cc(S(=O)(=O)[O-])cc4F)c4nc(c(-c5c(F)cc(S(=O)(=O)[O-])cc5F)c5ccc2[nH]5)C=C4)C=C3)cc1)/C(=C/c1ccccc1Cl)NC(=O)c1ccccc1
REMARK SMILES IDX 5 1 4 2 3 3 2 4 1 5 75 6 76 7 84 8 85 9 86 11 87 12 88 13
REMARK SMILES IDX 92 14 89 15 91 16 90 17 77 18 78 19 82 20 79 21 81 22 83 23
REMARK SMILES IDX 80 24 6 25 7 26 8 27 9 28 10 29 74 30 11 31 73 32 12 33
REMARK SMILES IDX 13 34 14 35 67 36 15 37 72 38 66 39 68 40 16 41 71 42 65 43
REMARK SMILES IDX 64 44 17 46 51 47 30 48 50 49 31 50 34 51 49 52 69 53 32 54
REMARK SMILES IDX 33 55 48 57 70 58 35 59 18 60 19 61 28 62 20 63 21 64 27 65
REMARK SMILES IDX 29 66 22 67 23 68 24 69 25 70 26 71 52 72 53 73 62 74 54 75
REMARK SMILES IDX 55 76 61 77 63 78 56 79 57 80 58 81 59 82 60 83 36 84 37 85
REMARK SMILES IDX 46 86 38 87 39 88 45 89 47 90 40 91 41 92 42 93 43 94 44 95
REMARK H PARENT 84 10 68 45 34 56
REMARK Flexibility Score: inf
ROOT
ATOM      1  C   UNL A   1      32.780  30.237  26.733  1.00  0.00     0.275 C 
ENDROOT
BRANCH   1   2
ATOM      2  C   UNL A   1      32.952  29.078  25.738  1.00  0.00     0.275 C 
BRANCH   2   3
ATOM      3  O   UNL A   1      33.251  27.849  26.418  1.00  0.00    -0.457 OA
BRANCH   3   4
ATOM      4  C   UNL A   1      32.205  26.996  26.541  1.00  0.00     0.354 C 
ATOM      5  O   UNL A   1      31.296  27.131  27.344  1.00  0.00    -0.244 OA
BRANCH   4   6
ATOM      6  C   UNL A   1      32.441  25.766  25.731  1.00  0.00     0.128 C 
ATOM      7  C   UNL A   1      32.179  24.630  26.417  1.00  0.00     0.043 C 
BRANCH   6   8
ATOM      8  N   UNL A   1      32.852  25.811  24.416  1.00  0.00    -0.316 N 
ATOM      9  C   UNL A   1      33.879  25.230  23.695  1.00  0.00     0.255 C 
ATOM     10  H   UNL A   1      32.282  26.391  23.862  1.00  0.00     0.170 HD
ATOM     11  O   UNL A   1      33.940  25.419  22.479  1.00  0.00    -0.269 OA
BRANCH   9  12
ATOM     12  C   UNL A   1      34.876  24.304  24.268  1.00  0.00     0.040 A 
ATOM     13  C   UNL A   1      35.626  24.650  25.390  1.00  0.00     0.014 A 
ATOM     14  C   UNL A   1      35.168  23.112  23.585  1.00  0.00     0.014 A 
ATOM     15  C   UNL A   1      36.581  23.758  25.890  1.00  0.00     0.001 A 
ATOM     16  C   UNL A   1      36.097  22.207  24.105  1.00  0.00     0.001 A 
ATOM     17  C   UNL A   1      36.798  22.528  25.265  1.00  0.00     0.000 A 
ENDBRANCH   9  12
ENDBRANCH   6   8
BRANCH   7  18
ATOM     18  C   UNL A   1      32.295  23.176  26.126  1.00  0.00    -0.005 A 
ATOM     19  C   UNL A   1      33.173  22.462  26.974  1.00  0.00     0.010 A 
ATOM     20  C   UNL A   1      31.795  22.494  25.004  1.00  0.00     0.048 A 
ATOM     21  C   UNL A   1      33.552  21.142  26.704  1.00  0.00     0.001 A 
ATOM     22  C   UNL A   1      32.171  21.163  24.742  1.00  0.00     0.021 A 
ATOM     23  Cl  UNL A   1      30.775  23.234  23.822  1.00  0.00    -0.084 Cl
ATOM     24  C   UNL A   1      33.059  20.495  25.581  1.00  0.00     0.002 A 
ENDBRANCH   7  18
ENDBRANCH   4   6
ENDBRANCH   3   4
ENDBRANCH   2   3
ENDBRANCH   1   2
BRANCH   1  25
ATOM     25  O   UNL A   1      33.732  30.196  27.794  1.00  0.00    -0.458 OA
BRANCH  25  26
ATOM     26  C   UNL A   1      34.739  31.079  27.683  1.00  0.00     0.338 C 
ATOM     27  O   UNL A   1      34.645  32.288  27.532  1.00  0.00    -0.246 OA
BRANCH  26  28
ATOM     28  C   UNL A   1      35.961  30.356  28.046  1.00  0.00     0.060 A 
ATOM     29  C   UNL A   1      35.960  29.646  29.248  1.00  0.00     0.016 A 
ATOM     30  C   UNL A   1      37.078  30.356  27.202  1.00  0.00     0.016 A 
ATOM     31  C   UNL A   1      37.124  29.021  29.667  1.00  0.00     0.010 A 
ATOM     32  C   UNL A   1      38.230  29.693  27.603  1.00  0.00     0.010 A 
ATOM     33  C   UNL A   1      38.276  29.100  28.872  1.00  0.00    -0.014 A 
BRANCH  33  34
ATOM     34  C   UNL A   1      39.582  28.806  29.491  1.00  0.00     0.031 A 
ATOM     35  C   UNL A   1      39.996  29.643  30.672  1.00  0.00     0.074 A 
ATOM     36  C   UNL A   1      40.331  27.783  29.049  1.00  0.00     0.049 A 
ATOM     37  N   UNL A   1      41.029  29.509  31.457  1.00  0.00    -0.248 NA
ATOM     38  C   UNL A   1      39.128  30.784  31.018  1.00  0.00     0.031 C 
ATOM     39  C   UNL A   1      39.997  26.913  27.922  1.00  0.00     0.029 A 
ATOM     40  N   UNL A   1      41.528  27.302  29.502  1.00  0.00    -0.354 N 
ATOM     41  C   UNL A   1      40.915  30.524  32.400  1.00  0.00     0.074 A 
ATOM     42  C   UNL A   1      39.771  31.324  32.038  1.00  0.00     0.031 C 
ATOM     43  C   UNL A   1      40.983  26.015  27.755  1.00  0.00     0.029 A 
ATOM     44  C   UNL A   1      42.005  26.240  28.774  1.00  0.00     0.049 A 
ATOM     45  H   UNL A   1      42.004  27.682  30.276  1.00  0.00     0.167 HD
ATOM     46  C   UNL A   1      41.670  30.739  33.501  1.00  0.00     0.037 A 
ATOM     47  C   UNL A   1      43.132  25.525  28.934  1.00  0.00     0.037 A 
ATOM     48  C   UNL A   1      42.797  29.920  33.847  1.00  0.00     0.049 A 
ATOM     49  C   UNL A   1      43.992  25.814  30.135  1.00  0.00     0.074 A 
ATOM     50  C   UNL A   1      43.621  30.005  34.952  1.00  0.00     0.029 A 
ATOM     51  N   UNL A   1      43.259  28.862  33.076  1.00  0.00    -0.354 N 
ATOM     52  N   UNL A   1      43.831  26.728  31.065  1.00  0.00    -0.248 NA
ATOM     53  C   UNL A   1      45.159  24.947  30.337  1.00  0.00     0.031 C 
ATOM     54  C   UNL A   1      44.610  29.021  34.826  1.00  0.00     0.029 A 
ATOM     55  C   UNL A   1      44.370  28.294  33.669  1.00  0.00     0.049 A 
ATOM     56  H   UNL A   1      42.853  28.560  32.231  1.00  0.00     0.167 HD
ATOM     57  C   UNL A   1      44.842  26.509  31.994  1.00  0.00     0.074 A 
ATOM     58  C   UNL A   1      45.613  25.383  31.504  1.00  0.00     0.031 C 
ATOM     59  C   UNL A   1      45.101  27.163  33.154  1.00  0.00     0.037 A 
BRANCH  46  60
ATOM     60  C   UNL A   1      41.285  31.889  34.390  1.00  0.00     0.058 A 
ATOM     61  C   UNL A   1      40.422  31.718  35.487  1.00  0.00     0.135 A 
ATOM     62  C   UNL A   1      41.767  33.182  34.136  1.00  0.00     0.135 A 
ATOM     63  F   UNL A   1      39.908  30.507  35.761  1.00  0.00    -0.206 F 
ATOM     64  C   UNL A   1      40.024  32.791  36.277  1.00  0.00     0.059 A 
ATOM     65  C   UNL A   1      41.405  34.266  34.932  1.00  0.00     0.059 A 
ATOM     66  F   UNL A   1      42.586  33.406  33.097  1.00  0.00    -0.206 F 
ATOM     67  C   UNL A   1      40.520  34.064  35.989  1.00  0.00     0.060 A 
BRANCH  67  68
ATOM     68  S   UNL A   1      39.989  35.449  37.017  1.00  0.00     0.124 S 
ATOM     69  O   UNL A   1      41.179  35.684  37.827  1.00  0.00    -0.237 OA
ATOM     70  O   UNL A   1      39.685  36.476  36.025  1.00  0.00    -0.237 OA
ATOM     71  O   UNL A   1      38.836  34.916  37.736  1.00  0.00    -0.744 OA
ENDBRANCH  67  68
ENDBRANCH  46  60
BRANCH  47  72
ATOM     72  C   UNL A   1      43.466  24.441  27.975  1.00  0.00     0.058 A 
ATOM     73  C   UNL A   1      42.923  23.155  28.109  1.00  0.00     0.135 A 
ATOM     74  C   UNL A   1      44.323  24.679  26.888  1.00  0.00     0.135 A 
ATOM     75  F   UNL A   1      42.094  22.880  29.127  1.00  0.00    -0.206 F 
ATOM     76  C   UNL A   1      43.235  22.136  27.216  1.00  0.00     0.059 A 
ATOM     77  C   UNL A   1      44.634  23.682  25.970  1.00  0.00     0.059 A 
ATOM     78  F   UNL A   1      44.848  25.900  26.701  1.00  0.00    -0.206 F 
ATOM     79  C   UNL A   1      44.094  22.409  26.149  1.00  0.00     0.060 A 
BRANCH  79  80
ATOM     80  S   UNL A   1      44.464  21.086  24.976  1.00  0.00     0.124 S 
ATOM     81  O   UNL A   1      45.785  20.659  25.425  1.00  0.00    -0.237 OA
ATOM     82  O   UNL A   1      43.373  20.149  25.220  1.00  0.00    -0.237 OA
ATOM     83  O   UNL A   1      44.425  21.762  23.683  1.00  0.00    -0.744 OA
ENDBRANCH  79  80
ENDBRANCH  47  72
BRANCH  59  84
ATOM     84  C   UNL A   1      46.226  26.634  33.996  1.00  0.00     0.058 A 
ATOM     85  C   UNL A   1      47.533  27.128  33.879  1.00  0.00     0.135 A 
ATOM     86  C   UNL A   1      45.975  25.645  34.961  1.00  0.00     0.135 A 
ATOM     87  F   UNL A   1      47.821  28.072  32.970  1.00  0.00    -0.206 F 
ATOM     88  C   UNL A   1      48.565  26.632  34.667  1.00  0.00     0.059 A 
ATOM     89  C   UNL A   1      46.986  25.156  35.780  1.00  0.00     0.059 A 
ATOM     90  F   UNL A   1      44.737  25.153  35.121  1.00  0.00    -0.206 F 
ATOM     91  C   UNL A   1      48.280  25.644  35.613  1.00  0.00     0.060 A 
BRANCH  91  92
ATOM     92  S   UNL A   1      49.625  25.016  36.639  1.00  0.00     0.124 S 
ATOM     93  O   UNL A   1      49.116  25.280  37.980  1.00  0.00    -0.237 OA
ATOM     94  O   UNL A   1      49.687  23.611  36.249  1.00  0.00    -0.237 OA
ATOM     95  O   UNL A   1      50.769  25.824  36.229  1.00  0.00    -0.744 OA
ENDBRANCH  91  92
ENDBRANCH  59  84
ENDBRANCH  33  34
ENDBRANCH  26  28
ENDBRANCH  25  26
ENDBRANCH   1  25
TORSDOF 17
ENDMDL
MODEL 2
REMARK VINA RESULT:     -11.3      0.925      2.236
REMARK SMILES O=C(OCCOC(=O)c1ccc(-c2c3nc(c(-c4c(F)cc(S(=O)(=O)[O-])cc4F)c4ccc([nH]4)c(-c4c(F)cc(S(=O)(=O)[O-])cc4F)c4nc(c(-c5c(F)cc(S(=O)(=O)[O-])cc5F)c5ccc2[nH]5)C=C4)C=C3)cc1)/C(=C/c1ccccc1Cl)NC(=O)c1ccccc1
REMARK SMILES IDX 5 1 4 2 3 3 2 4 1 5 75 6 76 7 84 8 85 9 86 11 87 12 88 13
REMARK SMILES IDX 92 14 89 15 91 16 90 17 77 18 78 19 82 20 79 21 81 22 83 23
REMARK SMILES IDX 80 24 6 25 7 26 8 27 9 28 10 29 74 30 11 31 73 32 12 33
REMARK SMILES IDX 13 34 14 35 67 36 15 37 72 38 66 39 68 40 16 41 71 42 65 43
REMARK SMILES IDX 64 44 17 46 51 47 30 48 50 49 31 50 34 51 49 52 69 53 32 54
REMARK SMILES IDX 33 55 48 57 70 58 35 59 18 60 19 61 28 62 20 63 21 64 27 65
REMARK SMILES IDX 29 66 22 67 23 68 24 69 25 70 26 71 52 72 53 73 62 74 54 75
REMARK SMILES IDX 55 76 61 77 63 78 56 79 57 80 58 81 59 82 60 83 36 84 37 85
REMARK SMILES IDX 46 86 38 87 39 88 45 89 47 90 40 91 41 92 42 93 43 94 44 95
REMARK H PARENT 84 10 68 45 34 56
REMARK Flexibility Score: inf
ROOT
ATOM      1  C   UNL A   1      33.539  29.834  26.174  1.00  0.00     0.275 C 
ENDROOT
BRANCH   1   2
ATOM      2  C   UNL A   1      32.092  29.448  25.825  1.00  0.00     0.275 C 
BRANCH   2   3
ATOM      3  O   UNL A   1      31.981  28.043  25.547  1.00  0.00    -0.457 OA
BRANCH   3   4
ATOM      4  C   UNL A   1      31.579  27.284  26.595  1.00  0.00     0.354 C 
ATOM      5  O   UNL A   1      31.023  27.722  27.590  1.00  0.00    -0.244 OA
BRANCH   4   6
ATOM      6  C   UNL A   1      32.115  25.898  26.467  1.00  0.00     0.128 C 
ATOM      7  C   UNL A   1      33.264  25.846  25.754  1.00  0.00     0.043 C 
BRANCH   6   8
ATOM      8  N   UNL A   1      31.503  24.809  27.049  1.00  0.00    -0.316 N 
ATOM      9  C   UNL A   1      31.175  23.535  26.627  1.00  0.00     0.255 C 
ATOM     10  H   UNL A   1      31.239  24.978  27.982  1.00  0.00     0.170 HD
ATOM     11  O   UNL A   1      30.678  22.745  27.432  1.00  0.00    -0.269 OA
BRANCH   9  12
ATOM     12  C   UNL A   1      31.465  23.004  25.279  1.00  0.00     0.040 A 
ATOM     13  C   UNL A   1      30.910  23.581  24.139  1.00  0.00     0.014 A 
ATOM     14  C   UNL A   1      32.202  21.815  25.161  1.00  0.00     0.014 A 
ATOM     15  C   UNL A   1      31.185  23.036  22.880  1.00  0.00     0.001 A 
ATOM     16  C   UNL A   1      32.506  21.292  23.902  1.00  0.00     0.001 A 
ATOM     17  C   UNL A   1      32.003  21.910  22.759  1.00  0.00     0.000 A 
ENDBRANCH   9  12
ENDBRANCH   6   8
BRANCH   7  18
ATOM     18  C   UNL A   1      34.163  24.757  25.287  1.00  0.00    -0.005 A 
ATOM     19  C   UNL A   1      34.861  24.075  26.309  1.00  0.00     0.010 A 
ATOM     20  C   UNL A   1      34.536  24.477  23.961  1.00  0.00     0.048 A 
ATOM     21  C   UNL A   1      35.895  23.175  26.026  1.00  0.00     0.001 A 
ATOM     22  C   UNL A   1      35.570  23.564  23.680  1.00  0.00     0.021 A 
ATOM     23  Cl  UNL A   1      33.845  25.275  22.593  1.00  0.00    -0.084 Cl
ATOM     24  C   UNL A   1      36.257  22.927  24.710  1.00  0.00     0.002 A 
ENDBRANCH   7  18
ENDBRANCH   4   6
ENDBRANCH   3   4
ENDBRANCH   2   3
ENDBRANCH   1   2
BRANCH   1  25
ATOM     25  O   UNL A   1      33.688  30.229  27.536  1.00  0.00    -0.458 OA
BRANCH  25  26
ATOM     26  C   UNL A   1      34.619  31.175  27.751  1.00  0.00     0.338 C 
ATOM     27  O   UNL A   1      34.435  32.379  27.853  1.00  0.00    -0.246 OA
BRANCH  26  28
ATOM     28  C   UNL A   1      35.851  30.465  28.107  1.00  0.00     0.060 A 
ATOM     29  C   UNL A   1      35.851  29.722  29.289  1.00  0.00     0.016 A 
ATOM     30  C   UNL A   1      36.976  30.510  27.276  1.00  0.00     0.016 A 
ATOM     31  C   UNL A   1      37.022  29.109  29.703  1.00  0.00     0.010 A 
ATOM     32  C   UNL A   1      38.136  29.858  27.670  1.00  0.00     0.010 A 
ATOM     33  C   UNL A   1      38.180  29.231  28.923  1.00  0.00    -0.014 A 
BRANCH  33  34
ATOM     34  C   UNL A   1      39.485  28.944  29.547  1.00  0.00     0.031 A 
ATOM     35  C   UNL A   1      39.885  29.778  30.736  1.00  0.00     0.074 A 
ATOM     36  C   UNL A   1      40.246  27.931  29.104  1.00  0.00     0.049 A 
ATOM     37  N   UNL A   1      40.916  29.649  31.526  1.00  0.00    -0.248 NA
ATOM     38  C   UNL A   1      39.005  30.910  31.084  1.00  0.00     0.031 C 
ATOM     39  C   UNL A   1      39.926  27.064  27.970  1.00  0.00     0.029 A 
ATOM     40  N   UNL A   1      41.445  27.458  29.561  1.00  0.00    -0.354 N 
ATOM     41  C   UNL A   1      40.787  30.658  32.474  1.00  0.00     0.074 A 
ATOM     42  C   UNL A   1      39.638  31.450  32.110  1.00  0.00     0.031 C 
ATOM     43  C   UNL A   1      40.921  26.176  27.804  1.00  0.00     0.029 A 
ATOM     44  C   UNL A   1      41.934  26.404  28.830  1.00  0.00     0.049 A 
ATOM     45  H   UNL A   1      41.913  27.837  30.340  1.00  0.00     0.167 HD
ATOM     46  C   UNL A   1      41.534  30.873  33.581  1.00  0.00     0.037 A 
ATOM     47  C   UNL A   1      43.067  25.698  28.992  1.00  0.00     0.037 A 
ATOM     48  C   UNL A   1      42.666  30.062  33.928  1.00  0.00     0.049 A 
ATOM     49  C   UNL A   1      43.918  25.988  30.200  1.00  0.00     0.074 A 
ATOM     50  C   UNL A   1      43.484  30.147  35.038  1.00  0.00     0.029 A 
ATOM     51  N   UNL A   1      43.141  29.012  33.154  1.00  0.00    -0.354 N 
ATOM     52  N   UNL A   1      43.744  26.895  31.134  1.00  0.00    -0.248 NA
ATOM     53  C   UNL A   1      45.091  25.130  30.404  1.00  0.00     0.031 C 
ATOM     54  C   UNL A   1      44.481  29.173  34.913  1.00  0.00     0.029 A 
ATOM     55  C   UNL A   1      44.254  28.451  33.750  1.00  0.00     0.049 A 
ATOM     56  H   UNL A   1      42.743  28.711  32.305  1.00  0.00     0.167 HD
ATOM     57  C   UNL A   1      44.751  26.680  32.068  1.00  0.00     0.074 A 
ATOM     58  C   UNL A   1      45.534  25.563  31.575  1.00  0.00     0.031 C 
ATOM     59  C   UNL A   1      44.997  27.329  33.233  1.00  0.00     0.037 A 
BRANCH  46  60
ATOM     60  C   UNL A   1      41.134  32.015  34.474  1.00  0.00     0.058 A 
ATOM     61  C   UNL A   1      41.719  33.288  34.350  1.00  0.00     0.135 A 
ATOM     62  C   UNL A   1      40.169  31.836  35.476  1.00  0.00     0.135 A 
ATOM     63  F   UNL A   1      42.667  33.510  33.425  1.00  0.00    -0.206 F 
ATOM     64  C   UNL A   1      41.388  34.330  35.209  1.00  0.00     0.059 A 
ATOM     65  C   UNL A   1      39.802  32.873  36.330  1.00  0.00     0.059 A 
ATOM     66  F   UNL A   1      39.585  30.639  35.647  1.00  0.00    -0.206 F 
ATOM     67  C   UNL A   1      40.429  34.111  36.201  1.00  0.00     0.060 A 
BRANCH  67  68
ATOM     68  S   UNL A   1      40.015  35.469  37.315  1.00  0.00     0.124 S 
ATOM     69  O   UNL A   1      41.278  35.664  38.018  1.00  0.00    -0.237 OA
ATOM     70  O   UNL A   1      39.636  36.530  36.388  1.00  0.00    -0.237 OA
ATOM     71  O   UNL A   1      38.926  34.927  38.121  1.00  0.00    -0.744 OA
ENDBRANCH  67  68
ENDBRANCH  46  60
BRANCH  47  72
ATOM     72  C   UNL A   1      43.416  24.622  28.029  1.00  0.00     0.058 A 
ATOM     73  C   UNL A   1      44.297  24.854  26.963  1.00  0.00     0.135 A 
ATOM     74  C   UNL A   1      42.888  23.329  28.172  1.00  0.00     0.135 A 
ATOM     75  F   UNL A   1      44.833  26.071  26.789  1.00  0.00    -0.206 F 
ATOM     76  C   UNL A   1      44.624  23.851  26.058  1.00  0.00     0.059 A 
ATOM     77  C   UNL A   1      43.215  22.303  27.291  1.00  0.00     0.059 A 
ATOM     78  F   UNL A   1      42.060  23.049  29.192  1.00  0.00    -0.206 F 
ATOM     79  C   UNL A   1      44.076  22.578  26.229  1.00  0.00     0.060 A 
BRANCH  79  80
ATOM     80  S   UNL A   1      44.536  21.275  25.065  1.00  0.00     0.124 S 
ATOM     81  O   UNL A   1      43.529  20.259  25.351  1.00  0.00    -0.237 OA
ATOM     82  O   UNL A   1      44.411  21.956  23.781  1.00  0.00    -0.237 OA
ATOM     83  O   UNL A   1      45.901  20.939  25.460  1.00  0.00    -0.744 OA
ENDBRANCH  79  80
ENDBRANCH  47  72
BRANCH  59  84
ATOM     84  C   UNL A   1      46.122  26.805  34.078  1.00  0.00     0.058 A 
ATOM     85  C   UNL A   1      47.428  27.302  33.963  1.00  0.00     0.135 A 
ATOM     86  C   UNL A   1      45.873  25.816  35.044  1.00  0.00     0.135 A 
ATOM     87  F   UNL A   1      47.715  28.246  33.053  1.00  0.00    -0.206 F 
ATOM     88  C   UNL A   1      48.460  26.811  34.754  1.00  0.00     0.059 A 
ATOM     89  C   UNL A   1      46.883  25.333  35.867  1.00  0.00     0.059 A 
ATOM     90  F   UNL A   1      44.635  25.321  35.203  1.00  0.00    -0.206 F 
ATOM     91  C   UNL A   1      48.177  25.824  35.701  1.00  0.00     0.060 A 
BRANCH  91  92
ATOM     92  S   UNL A   1      49.521  25.202  36.731  1.00  0.00     0.124 S 
ATOM     93  O   UNL A   1      49.485  26.136  37.852  1.00  0.00    -0.237 OA
ATOM     94  O   UNL A   1      49.086  23.840  37.025  1.00  0.00    -0.237 OA
ATOM     95  O   UNL A   1      50.689  25.306  35.862  1.00  0.00    -0.744 OA
ENDBRANCH  91  92
ENDBRANCH  59  84
ENDBRANCH  33  34
ENDBRANCH  26  28
ENDBRANCH  25  26
ENDBRANCH   1  25
TORSDOF 17
ENDMDL
MODEL 3
REMARK VINA RESULT:     -11.2      1.284      1.949
REMARK SMILES O=C(OCCOC(=O)c1ccc(-c2c3nc(c(-c4c(F)cc(S(=O)(=O)[O-])cc4F)c4ccc([nH]4)c(-c4c(F)cc(S(=O)(=O)[O-])cc4F)c4nc(c(-c5c(F)cc(S(=O)(=O)[O-])cc5F)c5ccc2[nH]5)C=C4)C=C3)cc1)/C(=C/c1ccccc1Cl)NC(=O)c1ccccc1
REMARK SMILES IDX 5 1 4 2 3 3 2 4 1 5 75 6 76 7 84 8 85 9 86 11 87 12 88 13
REMARK SMILES IDX 92 14 89 15 91 16 90 17 77 18 78 19 82 20 79 21 81 22 83 23
REMARK SMILES IDX 80 24 6 25 7 26 8 27 9 28 10 29 74 30 11 31 73 32 12 33
REMARK SMILES IDX 13 34 14 35 67 36 15 37 72 38 66 39 68 40 16 41 71 42 65 43
REMARK SMILES IDX 64 44 17 46 51 47 30 48 50 49 31 50 34 51 49 52 69 53 32 54
REMARK SMILES IDX 33 55 48 57 70 58 35 59 18 60 19 61 28 62 20 63 21 64 27 65
REMARK SMILES IDX 29 66 22 67 23 68 24 69 25 70 26 71 52 72 53 73 62 74 54 75
REMARK SMILES IDX 55 76 61 77 63 78 56 79 57 80 58 81 59 82 60 83 36 84 37 85
REMARK SMILES IDX 46 86 38 87 39 88 45 89 47 90 40 91 41 92 42 93 43 94 44 95
REMARK H PARENT 84 10 68 45 34 56
REMARK Flexibility Score: inf
ROOT
ATOM      1  C   UNL A   1      32.594  30.407  26.864  1.00  0.00     0.275 C 
ENDROOT
BRANCH   1   2
ATOM      2  C   UNL A   1      32.010  29.420  25.839  1.00  0.00     0.275 C 
BRANCH   2   3
ATOM      3  O   UNL A   1      32.729  28.177  25.847  1.00  0.00    -0.457 OA
BRANCH   3   4
ATOM      4  C   UNL A   1      32.034  27.119  26.332  1.00  0.00     0.354 C 
ATOM      5  O   UNL A   1      31.428  27.120  27.392  1.00  0.00    -0.244 OA
BRANCH   4   6
ATOM      6  C   UNL A   1      32.307  25.901  25.516  1.00  0.00     0.128 C 
ATOM      7  C   UNL A   1      31.979  24.757  26.158  1.00  0.00     0.043 C 
BRANCH   6   8
ATOM      8  N   UNL A   1      32.811  25.964  24.234  1.00  0.00    -0.316 N 
ATOM      9  C   UNL A   1      33.868  25.368  23.572  1.00  0.00     0.255 C 
ATOM     10  H   UNL A   1      32.299  26.576  23.657  1.00  0.00     0.170 HD
ATOM     11  O   UNL A   1      34.020  25.585  22.368  1.00  0.00    -0.269 OA
BRANCH   9  12
ATOM     12  C   UNL A   1      34.794  24.397  24.188  1.00  0.00     0.040 A 
ATOM     13  C   UNL A   1      35.479  24.695  25.364  1.00  0.00     0.014 A 
ATOM     14  C   UNL A   1      35.090  23.209  23.500  1.00  0.00     0.014 A 
ATOM     15  C   UNL A   1      36.369  23.762  25.906  1.00  0.00     0.001 A 
ATOM     16  C   UNL A   1      35.953  22.263  24.059  1.00  0.00     0.001 A 
ATOM     17  C   UNL A   1      36.586  22.537  25.270  1.00  0.00     0.000 A 
ENDBRANCH   9  12
ENDBRANCH   6   8
BRANCH   7  18
ATOM     18  C   UNL A   1      32.091  23.307  25.846  1.00  0.00    -0.005 A 
ATOM     19  C   UNL A   1      32.929  22.569  26.713  1.00  0.00     0.010 A 
ATOM     20  C   UNL A   1      31.627  22.650  24.694  1.00  0.00     0.048 A 
ATOM     21  C   UNL A   1      33.305  21.250  26.435  1.00  0.00     0.001 A 
ATOM     22  C   UNL A   1      31.999  21.320  24.423  1.00  0.00     0.021 A 
ATOM     23  Cl  UNL A   1      30.659  23.421  23.488  1.00  0.00    -0.084 Cl
ATOM     24  C   UNL A   1      32.848  20.628  25.283  1.00  0.00     0.002 A 
ENDBRANCH   7  18
ENDBRANCH   4   6
ENDBRANCH   3   4
ENDBRANCH   2   3
ENDBRANCH   1   2
BRANCH   1  25
ATOM     25  O   UNL A   1      33.973  30.165  27.135  1.00  0.00    -0.458 OA
BRANCH  25  26
ATOM     26  C   UNL A   1      34.641  31.217  27.639  1.00  0.00     0.338 C 
ATOM     27  O   UNL A   1      34.177  32.302  27.954  1.00  0.00    -0.246 OA
BRANCH  26  28
ATOM     28  C   UNL A   1      35.976  30.725  27.990  1.00  0.00     0.060 A 
ATOM     29  C   UNL A   1      36.191  29.347  27.944  1.00  0.00     0.016 A 
ATOM     30  C   UNL A   1      37.006  31.610  28.331  1.00  0.00     0.016 A 
ATOM     31  C   UNL A   1      37.413  28.837  28.352  1.00  0.00     0.010 A 
ATOM     32  C   UNL A   1      38.244  31.101  28.697  1.00  0.00     0.010 A 
ATOM     33  C   UNL A   1      38.417  29.713  28.788  1.00  0.00    -0.014 A 
BRANCH  33  34
ATOM     34  C   UNL A   1      39.529  29.170  29.591  1.00  0.00     0.031 A 
ATOM     35  C   UNL A   1      39.696  29.695  30.992  1.00  0.00     0.074 A 
ATOM     36  C   UNL A   1      40.311  28.195  29.101  1.00  0.00     0.049 A 
ATOM     37  N   UNL A   1      40.512  29.299  31.930  1.00  0.00    -0.248 NA
ATOM     38  C   UNL A   1      38.826  30.817  31.392  1.00  0.00     0.031 C 
ATOM     39  C   UNL A   1      40.206  27.617  27.761  1.00  0.00     0.029 A 
ATOM     40  N   UNL A   1      41.346  27.515  29.680  1.00  0.00    -0.354 N 
ATOM     41  C   UNL A   1      40.230  30.100  33.031  1.00  0.00     0.074 A 
ATOM     42  C   UNL A   1      39.240  31.066  32.622  1.00  0.00     0.031 C 
ATOM     43  C   UNL A   1      41.161  26.683  27.612  1.00  0.00     0.029 A 
ATOM     44  C   UNL A   1      41.928  26.589  28.851  1.00  0.00     0.049 A 
ATOM     45  H   UNL A   1      41.647  27.675  30.604  1.00  0.00     0.167 HD
ATOM     46  C   UNL A   1      40.718  30.004  34.289  1.00  0.00     0.037 A 
ATOM     47  C   UNL A   1      42.953  25.750  29.084  1.00  0.00     0.037 A 
ATOM     48  C   UNL A   1      41.695  29.026  34.674  1.00  0.00     0.049 A 
ATOM     49  C   UNL A   1      43.523  25.695  30.476  1.00  0.00     0.074 A 
ATOM     50  C   UNL A   1      42.243  28.795  35.920  1.00  0.00     0.029 A 
ATOM     51  N   UNL A   1      42.272  28.113  33.802  1.00  0.00    -0.354 N 
ATOM     52  N   UNL A   1      43.194  26.404  31.531  1.00  0.00    -0.248 NA
ATOM     53  C   UNL A   1      44.569  24.695  30.723  1.00  0.00     0.031 C 
ATOM     54  C   UNL A   1      43.187  27.769  35.792  1.00  0.00     0.029 A 
ATOM     55  C   UNL A   1      43.188  27.328  34.476  1.00  0.00     0.049 A 
ATOM     56  H   UNL A   1      42.060  28.036  32.843  1.00  0.00     0.167 HD
ATOM     57  C   UNL A   1      43.950  25.898  32.582  1.00  0.00     0.074 A 
ATOM     58  C   UNL A   1      44.760  24.830  32.027  1.00  0.00     0.031 C 
ATOM     59  C   UNL A   1      43.963  26.265  33.888  1.00  0.00     0.037 A 
BRANCH  46  60
ATOM     60  C   UNL A   1      40.192  30.974  35.310  1.00  0.00     0.058 A 
ATOM     61  C   UNL A   1      40.972  32.047  35.779  1.00  0.00     0.135 A 
ATOM     62  C   UNL A   1      38.903  30.824  35.843  1.00  0.00     0.135 A 
ATOM     63  F   UNL A   1      42.223  32.223  35.324  1.00  0.00    -0.206 F 
ATOM     64  C   UNL A   1      40.506  32.913  36.762  1.00  0.00     0.059 A 
ATOM     65  C   UNL A   1      38.405  31.696  36.808  1.00  0.00     0.059 A 
ATOM     66  F   UNL A   1      38.119  29.812  35.440  1.00  0.00    -0.206 F 
ATOM     67  C   UNL A   1      39.220  32.726  37.274  1.00  0.00     0.060 A 
BRANCH  67  68
ATOM     68  S   UNL A   1      38.631  33.852  38.556  1.00  0.00     0.124 S 
ATOM     69  O   UNL A   1      38.885  35.151  37.943  1.00  0.00    -0.237 OA
ATOM     70  O   UNL A   1      37.226  33.475  38.681  1.00  0.00    -0.237 OA
ATOM     71  O   UNL A   1      39.469  33.526  39.705  1.00  0.00    -0.744 OA
ENDBRANCH  67  68
ENDBRANCH  46  60
BRANCH  47  72
ATOM     72  C   UNL A   1      43.448  24.864  28.000  1.00  0.00     0.058 A 
ATOM     73  C   UNL A   1      44.437  25.292  27.102  1.00  0.00     0.135 A 
ATOM     74  C   UNL A   1      42.954  23.558  27.854  1.00  0.00     0.135 A 
ATOM     75  F   UNL A   1      44.946  26.529  27.205  1.00  0.00    -0.206 F 
ATOM     76  C   UNL A   1      44.902  24.467  26.083  1.00  0.00     0.059 A 
ATOM     77  C   UNL A   1      43.417  22.707  26.856  1.00  0.00     0.059 A 
ATOM     78  F   UNL A   1      42.025  23.091  28.704  1.00  0.00    -0.206 F 
ATOM     79  C   UNL A   1      44.385  23.175  25.968  1.00  0.00     0.060 A 
BRANCH  79  80
ATOM     80  S   UNL A   1      45.021  22.103  24.661  1.00  0.00     0.124 S 
ATOM     81  O   UNL A   1      46.325  21.729  25.198  1.00  0.00    -0.237 OA
ATOM     82  O   UNL A   1      44.019  21.044  24.621  1.00  0.00    -0.237 OA
ATOM     83  O   UNL A   1      45.047  22.977  23.492  1.00  0.00    -0.744 OA
ENDBRANCH  79  80
ENDBRANCH  47  72
BRANCH  59  84
ATOM     84  C   UNL A   1      44.837  25.464  34.810  1.00  0.00     0.058 A 
ATOM     85  C   UNL A   1      46.144  25.861  35.123  1.00  0.00     0.135 A 
ATOM     86  C   UNL A   1      44.335  24.301  35.418  1.00  0.00     0.135 A 
ATOM     87  F   UNL A   1      46.667  26.964  34.565  1.00  0.00    -0.206 F 
ATOM     88  C   UNL A   1      46.941  25.113  35.981  1.00  0.00     0.059 A 
ATOM     89  C   UNL A   1      45.103  23.554  36.303  1.00  0.00     0.059 A 
ATOM     90  F   UNL A   1      43.083  23.889  35.163  1.00  0.00    -0.206 F 
ATOM     91  C   UNL A   1      46.411  23.959  36.563  1.00  0.00     0.060 A 
BRANCH  91  92
ATOM     92  S   UNL A   1      47.449  23.001  37.685  1.00  0.00     0.124 S 
ATOM     93  O   UNL A   1      48.360  24.026  38.186  1.00  0.00    -0.237 OA
ATOM     94  O   UNL A   1      46.480  22.488  38.648  1.00  0.00    -0.237 OA
ATOM     95  O   UNL A   1      48.050  21.995  36.815  1.00  0.00    -0.744 OA
ENDBRANCH  91  92
ENDBRANCH  59  84
ENDBRANCH  33  34
ENDBRANCH  26  28
ENDBRANCH  25  26
ENDBRANCH   1  25
TORSDOF 17
ENDMDL
