MODEL 1
REMARK VINA RESULT:     -12.5      0.000      0.000
REMARK SMILES O=C(C[C@H](NC(=O)[C@]12C[C@H]3C[C@H](C[C@H](C3)C1)C2)c1cccc([N+](=O)[O-])c1)OCCOC(=O)c1ccc(-c2c3nc(c(-c4c(F)cc(S(=O)(=O)[O-])cc4F)c4ccc([nH]4)c(-c4c(F)cc(S(=O)(=O)[O-])cc4F)c4nc(c(-c5c(F)cc(S(=O)(=O)[O-])cc5F)c5ccc2[nH]5)C=C4)C=C3)cc1
REMARK SMILES IDX 28 1 27 2 2 3 1 4 3 5 4 6 18 7 19 8 26 9 20 10 22 11 21 12
REMARK SMILES IDX 23 13 24 14 25 15 5 16 6 17 7 19 8 20 9 21 16 22 17 23 10 24
REMARK SMILES IDX 14 25 12 26 11 27 15 28 13 29 29 30 30 31 31 32 32 33 33 34
REMARK SMILES IDX 34 35 98 36 35 37 97 38 36 39 37 40 38 41 91 42 39 43 96 44
REMARK SMILES IDX 90 45 92 46 40 47 95 48 89 49 88 50 41 52 75 53 54 54 74 55
REMARK SMILES IDX 55 56 58 57 73 58 93 59 56 60 57 61 72 63 94 64 59 65 42 66
REMARK SMILES IDX 43 67 52 68 44 69 45 70 51 71 53 72 46 73 47 74 48 75 49 76
REMARK SMILES IDX 50 77 76 78 77 79 86 80 78 81 79 82 85 83 87 84 80 85 81 86
REMARK SMILES IDX 82 87 83 88 84 89 60 90 61 91 70 92 62 93 63 94 69 95 71 96
REMARK SMILES IDX 64 97 65 98 66 99 67 100 68 101
REMARK H PARENT 5 18 92 51 58 62
REMARK Flexibility Score: inf
ROOT
ATOM      1  C   UNL A   1      32.332  27.927  27.241  1.00  0.00     0.274 C 
ENDROOT
BRANCH   1   2
ATOM      2  O   UNL A   1      31.041  27.248  27.157  1.00  0.00    -0.462 OA
BRANCH   2   3
ATOM      3  C   UNL A   1      30.779  26.205  26.314  1.00  0.00     0.308 C 
ATOM      4  O   UNL A   1      29.769  25.523  26.427  1.00  0.00    -0.252 OA
BRANCH   3   5
ATOM      5  C   UNL A   1      31.885  25.888  25.365  1.00  0.00     0.152 C 
BRANCH   5   6
ATOM      6  C   UNL A   1      31.580  25.688  23.884  1.00  0.00     0.123 C 
BRANCH   6   7
ATOM      7  C   UNL A   1      30.954  27.024  23.381  1.00  0.00    -0.018 A 
ATOM      8  C   UNL A   1      31.698  28.189  23.171  1.00  0.00     0.006 A 
ATOM      9  C   UNL A   1      29.543  27.139  23.285  1.00  0.00     0.091 A 
ATOM     10  C   UNL A   1      31.061  29.433  23.006  1.00  0.00     0.007 A 
ATOM     11  C   UNL A   1      28.916  28.394  23.188  1.00  0.00     0.269 A 
ATOM     12  C   UNL A   1      29.674  29.551  23.064  1.00  0.00     0.085 A 
BRANCH  11  13
ATOM     13  N   UNL A   1      27.455  28.488  23.311  1.00  0.00     0.062 N 
ATOM     14  O   UNL A   1      26.907  29.548  22.983  1.00  0.00    -0.258 OA
ATOM     15  O   UNL A   1      26.856  27.503  23.774  1.00  0.00    -0.258 OA
ENDBRANCH  11  13
ENDBRANCH   6   7
BRANCH   6  16
ATOM     16  N   UNL A   1      32.595  25.136  22.946  1.00  0.00    -0.348 N 
ATOM     17  C   UNL A   1      33.518  24.161  22.757  1.00  0.00     0.226 C 
ATOM     18  H   UNL A   1      32.597  25.705  22.142  1.00  0.00     0.164 HD
ATOM     19  O   UNL A   1      33.682  23.896  21.552  1.00  0.00    -0.274 OA
BRANCH  17  20
ATOM     20  C   UNL A   1      34.481  23.473  23.765  1.00  0.00     0.050 C 
ATOM     21  C   UNL A   1      35.788  23.014  23.064  1.00  0.00     0.020 C 
ATOM     22  C   UNL A   1      33.939  22.270  24.507  1.00  0.00     0.020 C 
ATOM     23  C   UNL A   1      34.893  24.548  24.824  1.00  0.00     0.020 C 
ATOM     24  C   UNL A   1      36.787  22.416  24.087  1.00  0.00    -0.010 C 
ATOM     25  C   UNL A   1      34.890  21.706  25.564  1.00  0.00    -0.010 C 
ATOM     26  C   UNL A   1      35.896  23.981  25.850  1.00  0.00    -0.010 C 
ATOM     27  C   UNL A   1      37.158  23.493  25.121  1.00  0.00     0.007 C 
ATOM     28  C   UNL A   1      36.148  21.228  24.830  1.00  0.00     0.007 C 
ATOM     29  C   UNL A   1      35.260  22.794  26.579  1.00  0.00     0.007 C 
ENDBRANCH  17  20
ENDBRANCH   6  16
ENDBRANCH   5   6
ENDBRANCH   3   5
ENDBRANCH   2   3
ENDBRANCH   1   2
BRANCH   1  30
ATOM     30  C   UNL A   1      32.272  29.449  26.985  1.00  0.00     0.275 C 
BRANCH  30  31
ATOM     31  O   UNL A   1      33.535  30.019  26.563  1.00  0.00    -0.458 OA
BRANCH  31  32
ATOM     32  C   UNL A   1      33.983  31.072  27.329  1.00  0.00     0.338 C 
ATOM     33  O   UNL A   1      33.316  32.043  27.624  1.00  0.00    -0.246 OA
BRANCH  32  34
ATOM     34  C   UNL A   1      35.378  30.850  27.849  1.00  0.00     0.060 A 
ATOM     35  C   UNL A   1      35.774  29.597  28.268  1.00  0.00     0.016 A 
ATOM     36  C   UNL A   1      36.281  31.890  28.068  1.00  0.00     0.016 A 
ATOM     37  C   UNL A   1      36.907  29.408  29.067  1.00  0.00     0.010 A 
ATOM     38  C   UNL A   1      37.532  31.649  28.705  1.00  0.00     0.010 A 
ATOM     39  C   UNL A   1      37.863  30.397  29.267  1.00  0.00    -0.014 A 
BRANCH  39  40
ATOM     40  C   UNL A   1      39.150  30.127  30.034  1.00  0.00     0.031 A 
ATOM     41  C   UNL A   1      40.179  29.173  29.470  1.00  0.00     0.074 A 
ATOM     42  C   UNL A   1      39.475  30.701  31.223  1.00  0.00     0.049 A 
ATOM     43  N   UNL A   1      41.090  28.472  30.096  1.00  0.00    -0.248 NA
ATOM     44  C   UNL A   1      40.200  29.008  28.008  1.00  0.00     0.031 C 
ATOM     45  C   UNL A   1      38.789  31.815  31.864  1.00  0.00     0.029 A 
ATOM     46  N   UNL A   1      40.470  30.408  32.143  1.00  0.00    -0.354 N 
ATOM     47  C   UNL A   1      41.727  27.714  29.121  1.00  0.00     0.074 A 
ATOM     48  C   UNL A   1      41.127  28.070  27.852  1.00  0.00     0.031 C 
ATOM     49  C   UNL A   1      39.326  32.092  33.055  1.00  0.00     0.029 A 
ATOM     50  C   UNL A   1      40.327  31.088  33.341  1.00  0.00     0.049 A 
ATOM     51  H   UNL A   1      41.206  29.780  31.962  1.00  0.00     0.167 HD
ATOM     52  C   UNL A   1      42.709  26.795  29.280  1.00  0.00     0.037 A 
ATOM     53  C   UNL A   1      40.833  30.890  34.576  1.00  0.00     0.037 A 
ATOM     54  C   UNL A   1      43.370  26.521  30.532  1.00  0.00     0.049 A 
ATOM     55  C   UNL A   1      41.800  29.767  34.782  1.00  0.00     0.074 A 
ATOM     56  C   UNL A   1      44.376  25.604  30.790  1.00  0.00     0.029 A 
ATOM     57  N   UNL A   1      43.107  27.168  31.729  1.00  0.00    -0.354 N 
ATOM     58  N   UNL A   1      42.293  28.947  33.887  1.00  0.00    -0.248 NA
ATOM     59  C   UNL A   1      42.265  29.522  36.153  1.00  0.00     0.031 C 
ATOM     60  C   UNL A   1      44.678  25.655  32.154  1.00  0.00     0.029 A 
ATOM     61  C   UNL A   1      43.899  26.640  32.736  1.00  0.00     0.049 A 
ATOM     62  H   UNL A   1      42.455  27.896  31.846  1.00  0.00     0.167 HD
ATOM     63  C   UNL A   1      43.136  28.095  34.585  1.00  0.00     0.074 A 
ATOM     64  C   UNL A   1      43.104  28.512  35.972  1.00  0.00     0.031 C 
ATOM     65  C   UNL A   1      43.864  27.056  34.114  1.00  0.00     0.037 A 
BRANCH  52  66
ATOM     66  C   UNL A   1      43.084  25.938  28.102  1.00  0.00     0.058 A 
ATOM     67  C   UNL A   1      44.145  26.245  27.240  1.00  0.00     0.135 A 
ATOM     68  C   UNL A   1      42.409  24.720  27.905  1.00  0.00     0.135 A 
ATOM     69  F   UNL A   1      44.810  27.403  27.370  1.00  0.00    -0.206 F 
ATOM     70  C   UNL A   1      44.526  25.372  26.222  1.00  0.00     0.059 A 
ATOM     71  C   UNL A   1      42.787  23.823  26.913  1.00  0.00     0.059 A 
ATOM     72  F   UNL A   1      41.383  24.381  28.703  1.00  0.00    -0.206 F 
ATOM     73  C   UNL A   1      43.846  24.159  26.073  1.00  0.00     0.060 A 
BRANCH  73  74
ATOM     74  S   UNL A   1      44.379  23.016  24.781  1.00  0.00     0.124 S 
ATOM     75  O   UNL A   1      44.973  21.941  25.571  1.00  0.00    -0.237 OA
ATOM     76  O   UNL A   1      43.122  22.693  24.113  1.00  0.00    -0.237 OA
ATOM     77  O   UNL A   1      45.320  23.806  23.993  1.00  0.00    -0.744 OA
ENDBRANCH  73  74
ENDBRANCH  52  66
BRANCH  53  78
ATOM     78  C   UNL A   1      40.316  31.676  35.739  1.00  0.00     0.058 A 
ATOM     79  C   UNL A   1      41.072  32.688  36.347  1.00  0.00     0.135 A 
ATOM     80  C   UNL A   1      39.046  31.403  36.283  1.00  0.00     0.135 A 
ATOM     81  F   UNL A   1      42.296  32.981  35.882  1.00  0.00    -0.206 F 
ATOM     82  C   UNL A   1      40.600  33.386  37.459  1.00  0.00     0.059 A 
ATOM     83  C   UNL A   1      38.539  32.110  37.367  1.00  0.00     0.059 A 
ATOM     84  F   UNL A   1      38.267  30.454  35.738  1.00  0.00    -0.206 F 
ATOM     85  C   UNL A   1      39.332  33.089  37.961  1.00  0.00     0.060 A 
BRANCH  85  86
ATOM     86  S   UNL A   1      38.714  34.012  39.387  1.00  0.00     0.124 S 
ATOM     87  O   UNL A   1      39.728  33.711  40.390  1.00  0.00    -0.237 OA
ATOM     88  O   UNL A   1      38.698  35.381  38.883  1.00  0.00    -0.237 OA
ATOM     89  O   UNL A   1      37.398  33.423  39.620  1.00  0.00    -0.744 OA
ENDBRANCH  85  86
ENDBRANCH  53  78
BRANCH  65  90
ATOM     90  C   UNL A   1      44.703  26.304  35.102  1.00  0.00     0.058 A 
ATOM     91  C   UNL A   1      46.001  26.726  35.428  1.00  0.00     0.135 A 
ATOM     92  C   UNL A   1      44.187  25.179  35.764  1.00  0.00     0.135 A 
ATOM     93  F   UNL A   1      46.543  27.784  34.806  1.00  0.00    -0.206 F 
ATOM     94  C   UNL A   1      46.764  26.051  36.372  1.00  0.00     0.059 A 
ATOM     95  C   UNL A   1      44.923  24.504  36.732  1.00  0.00     0.059 A 
ATOM     96  F   UNL A   1      42.950  24.737  35.485  1.00  0.00    -0.206 F 
ATOM     97  C   UNL A   1      46.213  24.945  37.024  1.00  0.00     0.060 A 
BRANCH  97  98
ATOM     98  S   UNL A   1      47.196  24.114  38.288  1.00  0.00     0.124 S 
ATOM     99  O   UNL A   1      47.676  25.241  39.078  1.00  0.00    -0.237 OA
ATOM    100  O   UNL A   1      46.207  23.258  38.938  1.00  0.00    -0.237 OA
ATOM    101  O   UNL A   1      48.215  23.408  37.516  1.00  0.00    -0.744 OA
ENDBRANCH  97  98
ENDBRANCH  65  90
ENDBRANCH  39  40
ENDBRANCH  32  34
ENDBRANCH  31  32
ENDBRANCH  30  31
ENDBRANCH   1  30
TORSDOF 19
ENDMDL
MODEL 2
REMARK VINA RESULT:     -12.3      5.310      9.041
REMARK SMILES O=C(C[C@H](NC(=O)[C@]12C[C@H]3C[C@H](C[C@H](C3)C1)C2)c1cccc([N+](=O)[O-])c1)OCCOC(=O)c1ccc(-c2c3nc(c(-c4c(F)cc(S(=O)(=O)[O-])cc4F)c4ccc([nH]4)c(-c4c(F)cc(S(=O)(=O)[O-])cc4F)c4nc(c(-c5c(F)cc(S(=O)(=O)[O-])cc5F)c5ccc2[nH]5)C=C4)C=C3)cc1
REMARK SMILES IDX 28 1 27 2 2 3 1 4 3 5 4 6 18 7 19 8 26 9 20 10 22 11 21 12
REMARK SMILES IDX 23 13 24 14 25 15 5 16 6 17 7 19 8 20 9 21 16 22 17 23 10 24
REMARK SMILES IDX 14 25 12 26 11 27 15 28 13 29 29 30 30 31 31 32 32 33 33 34
REMARK SMILES IDX 34 35 98 36 35 37 97 38 36 39 37 40 38 41 91 42 39 43 96 44
REMARK SMILES IDX 90 45 92 46 40 47 95 48 89 49 88 50 41 52 75 53 54 54 74 55
REMARK SMILES IDX 55 56 58 57 73 58 93 59 56 60 57 61 72 63 94 64 59 65 42 66
REMARK SMILES IDX 43 67 52 68 44 69 45 70 51 71 53 72 46 73 47 74 48 75 49 76
REMARK SMILES IDX 50 77 76 78 77 79 86 80 78 81 79 82 85 83 87 84 80 85 81 86
REMARK SMILES IDX 82 87 83 88 84 89 60 90 61 91 70 92 62 93 63 94 69 95 71 96
REMARK SMILES IDX 64 97 65 98 66 99 67 100 68 101
REMARK H PARENT 5 18 92 51 58 62
REMARK Flexibility Score: inf
ROOT
ATOM      1  C   UNL A   1      31.801  30.379  26.411  1.00  0.00     0.274 C 
ENDROOT
BRANCH   1   2
ATOM      2  O   UNL A   1      32.116  28.961  26.250  1.00  0.00    -0.462 OA
BRANCH   2   3
ATOM      3  C   UNL A   1      31.527  27.959  26.969  1.00  0.00     0.308 C 
ATOM      4  O   UNL A   1      31.028  28.162  28.068  1.00  0.00    -0.252 OA
BRANCH   3   5
ATOM      5  C   UNL A   1      31.682  26.601  26.372  1.00  0.00     0.152 C 
BRANCH   5   6
ATOM      6  C   UNL A   1      30.501  25.944  25.666  1.00  0.00     0.123 C 
BRANCH   6   7
ATOM      7  C   UNL A   1      30.301  26.720  24.329  1.00  0.00    -0.018 A 
ATOM      8  C   UNL A   1      31.348  27.014  23.450  1.00  0.00     0.006 A 
ATOM      9  C   UNL A   1      29.043  27.312  24.048  1.00  0.00     0.091 A 
ATOM     10  C   UNL A   1      31.182  27.958  22.419  1.00  0.00     0.007 A 
ATOM     11  C   UNL A   1      28.905  28.303  23.060  1.00  0.00     0.269 A 
ATOM     12  C   UNL A   1      29.980  28.643  22.250  1.00  0.00     0.085 A 
BRANCH  11  13
ATOM     13  N   UNL A   1      27.642  29.046  22.948  1.00  0.00     0.062 N 
ATOM     14  O   UNL A   1      26.638  28.580  23.502  1.00  0.00    -0.258 OA
ATOM     15  O   UNL A   1      27.649  30.086  22.269  1.00  0.00    -0.258 OA
ENDBRANCH  11  13
ENDBRANCH   6   7
BRANCH   6  16
ATOM     16  N   UNL A   1      30.416  24.467  25.496  1.00  0.00    -0.348 N 
ATOM     17  C   UNL A   1      31.088  23.296  25.615  1.00  0.00     0.226 C 
ATOM     18  H   UNL A   1      29.512  24.259  25.166  1.00  0.00     0.164 HD
ATOM     19  O   UNL A   1      30.326  22.337  25.834  1.00  0.00    -0.274 OA
BRANCH  17  20
ATOM     20  C   UNL A   1      32.585  22.961  25.364  1.00  0.00     0.050 C 
ATOM     21  C   UNL A   1      33.252  24.031  24.457  1.00  0.00     0.020 C 
ATOM     22  C   UNL A   1      32.882  21.615  24.738  1.00  0.00     0.020 C 
ATOM     23  C   UNL A   1      33.316  23.023  26.744  1.00  0.00     0.020 C 
ATOM     24  C   UNL A   1      34.766  23.750  24.286  1.00  0.00    -0.010 C 
ATOM     25  C   UNL A   1      34.374  21.296  24.618  1.00  0.00    -0.010 C 
ATOM     26  C   UNL A   1      34.829  22.757  26.600  1.00  0.00    -0.010 C 
ATOM     27  C   UNL A   1      35.451  23.803  25.662  1.00  0.00     0.007 C 
ATOM     28  C   UNL A   1      34.987  22.348  23.686  1.00  0.00     0.007 C 
ATOM     29  C   UNL A   1      35.044  21.365  25.995  1.00  0.00     0.007 C 
ENDBRANCH  17  20
ENDBRANCH   6  16
ENDBRANCH   5   6
ENDBRANCH   3   5
ENDBRANCH   2   3
ENDBRANCH   1   2
BRANCH   1  30
ATOM     30  C   UNL A   1      32.850  31.180  27.212  1.00  0.00     0.275 C 
BRANCH  30  31
ATOM     31  O   UNL A   1      34.077  30.451  27.457  1.00  0.00    -0.458 OA
BRANCH  31  32
ATOM     32  C   UNL A   1      34.875  30.971  28.451  1.00  0.00     0.338 C 
ATOM     33  O   UNL A   1      34.517  31.807  29.257  1.00  0.00    -0.246 OA
BRANCH  32  34
ATOM     34  C   UNL A   1      36.231  30.320  28.498  1.00  0.00     0.060 A 
ATOM     35  C   UNL A   1      36.809  29.999  29.708  1.00  0.00     0.016 A 
ATOM     36  C   UNL A   1      37.025  30.138  27.365  1.00  0.00     0.016 A 
ATOM     37  C   UNL A   1      38.176  29.725  29.826  1.00  0.00     0.010 A 
ATOM     38  C   UNL A   1      38.362  29.659  27.480  1.00  0.00     0.010 A 
ATOM     39  C   UNL A   1      38.994  29.479  28.729  1.00  0.00    -0.014 A 
BRANCH  39  40
ATOM     40  C   UNL A   1      40.447  29.057  28.890  1.00  0.00     0.031 A 
ATOM     41  C   UNL A   1      41.508  30.095  29.176  1.00  0.00     0.074 A 
ATOM     42  C   UNL A   1      40.892  27.774  28.807  1.00  0.00     0.049 A 
ATOM     43  N   UNL A   1      42.792  30.059  28.925  1.00  0.00    -0.248 NA
ATOM     44  C   UNL A   1      41.068  31.323  29.857  1.00  0.00     0.031 C 
ATOM     45  C   UNL A   1      40.070  26.572  28.776  1.00  0.00     0.029 A 
ATOM     46  N   UNL A   1      42.172  27.250  28.706  1.00  0.00    -0.354 N 
ATOM     47  C   UNL A   1      43.296  31.290  29.329  1.00  0.00     0.074 A 
ATOM     48  C   UNL A   1      42.186  32.040  29.879  1.00  0.00     0.031 C 
ATOM     49  C   UNL A   1      40.820  25.477  28.628  1.00  0.00     0.029 A 
ATOM     50  C   UNL A   1      42.189  25.895  28.419  1.00  0.00     0.049 A 
ATOM     51  H   UNL A   1      42.987  27.788  28.828  1.00  0.00     0.167 HD
ATOM     52  C   UNL A   1      44.565  31.752  29.229  1.00  0.00     0.037 A 
ATOM     53  C   UNL A   1      43.140  25.072  27.931  1.00  0.00     0.037 A 
ATOM     54  C   UNL A   1      45.683  30.963  28.773  1.00  0.00     0.049 A 
ATOM     55  C   UNL A   1      44.504  25.629  27.669  1.00  0.00     0.074 A 
ATOM     56  C   UNL A   1      47.007  31.347  28.636  1.00  0.00     0.029 A 
ATOM     57  N   UNL A   1      45.615  29.631  28.397  1.00  0.00    -0.354 N 
ATOM     58  N   UNL A   1      44.946  26.839  27.909  1.00  0.00    -0.248 NA
ATOM     59  C   UNL A   1      45.492  24.731  27.057  1.00  0.00     0.031 C 
ATOM     60  C   UNL A   1      47.727  30.266  28.120  1.00  0.00     0.029 A 
ATOM     61  C   UNL A   1      46.864  29.192  27.986  1.00  0.00     0.049 A 
ATOM     62  H   UNL A   1      44.802  29.078  28.420  1.00  0.00     0.167 HD
ATOM     63  C   UNL A   1      46.267  26.844  27.487  1.00  0.00     0.074 A 
ATOM     64  C   UNL A   1      46.560  25.512  26.998  1.00  0.00     0.031 C 
ATOM     65  C   UNL A   1      47.152  27.868  27.499  1.00  0.00     0.037 A 
BRANCH  52  66
ATOM     66  C   UNL A   1      44.823  33.203  29.527  1.00  0.00     0.058 A 
ATOM     67  C   UNL A   1      45.301  33.657  30.764  1.00  0.00     0.135 A 
ATOM     68  C   UNL A   1      44.677  34.147  28.494  1.00  0.00     0.135 A 
ATOM     69  F   UNL A   1      45.440  32.803  31.790  1.00  0.00    -0.206 F 
ATOM     70  C   UNL A   1      45.626  34.997  30.966  1.00  0.00     0.059 A 
ATOM     71  C   UNL A   1      45.018  35.482  28.665  1.00  0.00     0.059 A 
ATOM     72  F   UNL A   1      44.220  33.763  27.291  1.00  0.00    -0.206 F 
ATOM     73  C   UNL A   1      45.489  35.900  29.908  1.00  0.00     0.060 A 
BRANCH  73  74
ATOM     74  S   UNL A   1      45.959  37.624  30.169  1.00  0.00     0.124 S 
ATOM     75  O   UNL A   1      46.838  37.514  31.330  1.00  0.00    -0.237 OA
ATOM     76  O   UNL A   1      46.612  37.963  28.909  1.00  0.00    -0.237 OA
ATOM     77  O   UNL A   1      44.684  38.292  30.411  1.00  0.00    -0.744 OA
ENDBRANCH  73  74
ENDBRANCH  52  66
BRANCH  53  78
ATOM     78  C   UNL A   1      42.791  23.678  27.515  1.00  0.00     0.058 A 
ATOM     79  C   UNL A   1      42.683  22.631  28.441  1.00  0.00     0.135 A 
ATOM     80  C   UNL A   1      42.580  23.365  26.158  1.00  0.00     0.135 A 
ATOM     81  F   UNL A   1      42.888  22.867  29.746  1.00  0.00    -0.206 F 
ATOM     82  C   UNL A   1      42.399  21.326  28.039  1.00  0.00     0.059 A 
ATOM     83  C   UNL A   1      42.261  22.079  25.737  1.00  0.00     0.059 A 
ATOM     84  F   UNL A   1      42.657  24.326  25.223  1.00  0.00    -0.206 F 
ATOM     85  C   UNL A   1      42.191  21.060  26.684  1.00  0.00     0.060 A 
BRANCH  85  86
ATOM     86  S   UNL A   1      41.801  19.372  26.170  1.00  0.00     0.124 S 
ATOM     87  O   UNL A   1      40.371  19.470  25.908  1.00  0.00    -0.237 OA
ATOM     88  O   UNL A   1      42.657  19.202  25.001  1.00  0.00    -0.237 OA
ATOM     89  O   UNL A   1      42.178  18.574  27.334  1.00  0.00    -0.744 OA
ENDBRANCH  85  86
ENDBRANCH  53  78
BRANCH  65  90
ATOM     90  C   UNL A   1      48.531  27.587  26.984  1.00  0.00     0.058 A 
ATOM     91  C   UNL A   1      49.571  27.217  27.850  1.00  0.00     0.135 A 
ATOM     92  C   UNL A   1      48.803  27.642  25.608  1.00  0.00     0.135 A 
ATOM     93  F   UNL A   1      49.363  27.169  29.174  1.00  0.00    -0.206 F 
ATOM     94  C   UNL A   1      50.840  26.919  27.368  1.00  0.00     0.059 A 
ATOM     95  C   UNL A   1      50.057  27.322  25.102  1.00  0.00     0.059 A 
ATOM     96  F   UNL A   1      47.839  27.992  24.741  1.00  0.00    -0.206 F 
ATOM     97  C   UNL A   1      51.071  26.967  25.991  1.00  0.00     0.060 A 
BRANCH  97  98
ATOM     98  S   UNL A   1      52.708  26.523  25.377  1.00  0.00     0.124 S 
ATOM     99  O   UNL A   1      52.633  25.067  25.361  1.00  0.00    -0.237 OA
ATOM    100  O   UNL A   1      52.736  27.172  24.069  1.00  0.00    -0.237 OA
ATOM    101  O   UNL A   1      53.611  27.095  26.372  1.00  0.00    -0.744 OA
ENDBRANCH  97  98
ENDBRANCH  65  90
ENDBRANCH  39  40
ENDBRANCH  32  34
ENDBRANCH  31  32
ENDBRANCH  30  31
ENDBRANCH   1  30
TORSDOF 19
ENDMDL
MODEL 3
REMARK VINA RESULT:     -12.2      2.309      3.422
REMARK SMILES O=C(C[C@H](NC(=O)[C@]12C[C@H]3C[C@H](C[C@H](C3)C1)C2)c1cccc([N+](=O)[O-])c1)OCCOC(=O)c1ccc(-c2c3nc(c(-c4c(F)cc(S(=O)(=O)[O-])cc4F)c4ccc([nH]4)c(-c4c(F)cc(S(=O)(=O)[O-])cc4F)c4nc(c(-c5c(F)cc(S(=O)(=O)[O-])cc5F)c5ccc2[nH]5)C=C4)C=C3)cc1
REMARK SMILES IDX 28 1 27 2 2 3 1 4 3 5 4 6 18 7 19 8 26 9 20 10 22 11 21 12
REMARK SMILES IDX 23 13 24 14 25 15 5 16 6 17 7 19 8 20 9 21 16 22 17 23 10 24
REMARK SMILES IDX 14 25 12 26 11 27 15 28 13 29 29 30 30 31 31 32 32 33 33 34
REMARK SMILES IDX 34 35 98 36 35 37 97 38 36 39 37 40 38 41 91 42 39 43 96 44
REMARK SMILES IDX 90 45 92 46 40 47 95 48 89 49 88 50 41 52 75 53 54 54 74 55
REMARK SMILES IDX 55 56 58 57 73 58 93 59 56 60 57 61 72 63 94 64 59 65 42 66
REMARK SMILES IDX 43 67 52 68 44 69 45 70 51 71 53 72 46 73 47 74 48 75 49 76
REMARK SMILES IDX 50 77 76 78 77 79 86 80 78 81 79 82 85 83 87 84 80 85 81 86
REMARK SMILES IDX 82 87 83 88 84 89 60 90 61 91 70 92 62 93 63 94 69 95 71 96
REMARK SMILES IDX 64 97 65 98 66 99 67 100 68 101
REMARK H PARENT 5 18 92 51 58 62
REMARK Flexibility Score: inf
ROOT
ATOM      1  C   UNL A   1      32.438  30.651  27.067  1.00  0.00     0.274 C 
ENDROOT
BRANCH   1   2
ATOM      2  O   UNL A   1      32.593  29.229  27.368  1.00  0.00    -0.462 OA
BRANCH   2   3
ATOM      3  C   UNL A   1      33.311  28.358  26.598  1.00  0.00     0.308 C 
ATOM      4  O   UNL A   1      34.188  28.742  25.837  1.00  0.00    -0.252 OA
BRANCH   3   5
ATOM      5  C   UNL A   1      32.834  26.946  26.661  1.00  0.00     0.152 C 
BRANCH   5   6
ATOM      6  C   UNL A   1      31.400  26.612  26.263  1.00  0.00     0.123 C 
BRANCH   6   7
ATOM      7  C   UNL A   1      31.227  27.100  24.793  1.00  0.00    -0.018 A 
ATOM      8  C   UNL A   1      30.088  27.769  24.336  1.00  0.00     0.006 A 
ATOM      9  C   UNL A   1      32.178  26.712  23.814  1.00  0.00     0.091 A 
ATOM     10  C   UNL A   1      29.846  27.926  22.958  1.00  0.00     0.007 A 
ATOM     11  C   UNL A   1      31.897  26.811  22.440  1.00  0.00     0.269 A 
ATOM     12  C   UNL A   1      30.719  27.405  22.005  1.00  0.00     0.085 A 
BRANCH  11  13
ATOM     13  N   UNL A   1      32.811  26.200  21.465  1.00  0.00     0.062 N 
ATOM     14  O   UNL A   1      34.028  26.361  21.624  1.00  0.00    -0.258 OA
ATOM     15  O   UNL A   1      32.303  25.584  20.513  1.00  0.00    -0.258 OA
ENDBRANCH  11  13
ENDBRANCH   6   7
BRANCH   6  16
ATOM     16  N   UNL A   1      30.819  25.261  26.497  1.00  0.00    -0.348 N 
ATOM     17  C   UNL A   1      31.045  23.927  26.416  1.00  0.00     0.226 C 
ATOM     18  H   UNL A   1      29.910  25.388  26.853  1.00  0.00     0.164 HD
ATOM     19  O   UNL A   1      30.386  23.288  27.255  1.00  0.00    -0.274 OA
BRANCH  17  20
ATOM     20  C   UNL A   1      31.839  23.100  25.367  1.00  0.00     0.050 C 
ATOM     21  C   UNL A   1      31.364  23.424  23.924  1.00  0.00     0.020 C 
ATOM     22  C   UNL A   1      31.790  21.594  25.512  1.00  0.00     0.020 C 
ATOM     23  C   UNL A   1      33.335  23.544  25.457  1.00  0.00     0.020 C 
ATOM     24  C   UNL A   1      32.222  22.672  22.875  1.00  0.00    -0.010 C 
ATOM     25  C   UNL A   1      32.679  20.839  24.522  1.00  0.00    -0.010 C 
ATOM     26  C   UNL A   1      34.210  22.818  24.414  1.00  0.00    -0.010 C 
ATOM     27  C   UNL A   1      33.687  23.121  23.002  1.00  0.00     0.007 C 
ATOM     28  C   UNL A   1      32.155  21.153  23.116  1.00  0.00     0.007 C 
ATOM     29  C   UNL A   1      34.133  21.306  24.653  1.00  0.00     0.007 C 
ENDBRANCH  17  20
ENDBRANCH   6  16
ENDBRANCH   5   6
ENDBRANCH   3   5
ENDBRANCH   2   3
ENDBRANCH   1   2
BRANCH   1  30
ATOM     30  C   UNL A   1      33.560  31.551  27.630  1.00  0.00     0.275 C 
BRANCH  30  31
ATOM     31  O   UNL A   1      33.397  32.953  27.309  1.00  0.00    -0.458 OA
BRANCH  31  32
ATOM     32  C   UNL A   1      33.415  33.804  28.391  1.00  0.00     0.338 C 
ATOM     33  O   UNL A   1      32.531  34.591  28.665  1.00  0.00    -0.246 OA
BRANCH  32  34
ATOM     34  C   UNL A   1      34.620  33.590  29.268  1.00  0.00     0.060 A 
ATOM     35  C   UNL A   1      35.857  34.056  28.877  1.00  0.00     0.016 A 
ATOM     36  C   UNL A   1      34.589  32.809  30.423  1.00  0.00     0.016 A 
ATOM     37  C   UNL A   1      37.041  33.592  29.462  1.00  0.00     0.010 A 
ATOM     38  C   UNL A   1      35.786  32.509  31.134  1.00  0.00     0.010 A 
ATOM     39  C   UNL A   1      37.062  32.860  30.644  1.00  0.00    -0.014 A 
BRANCH  39  40
ATOM     40  C   UNL A   1      38.367  32.478  31.328  1.00  0.00     0.031 A 
ATOM     41  C   UNL A   1      39.206  31.347  30.778  1.00  0.00     0.074 A 
ATOM     42  C   UNL A   1      38.871  33.099  32.429  1.00  0.00     0.049 A 
ATOM     43  N   UNL A   1      40.070  30.582  31.393  1.00  0.00    -0.248 NA
ATOM     44  C   UNL A   1      39.072  31.061  29.341  1.00  0.00     0.031 C 
ATOM     45  C   UNL A   1      38.398  34.346  33.014  1.00  0.00     0.029 A 
ATOM     46  N   UNL A   1      39.899  32.747  33.291  1.00  0.00    -0.354 N 
ATOM     47  C   UNL A   1      40.512  29.664  30.446  1.00  0.00     0.074 A 
ATOM     48  C   UNL A   1      39.850  29.994  29.201  1.00  0.00     0.031 C 
ATOM     49  C   UNL A   1      39.073  34.643  34.128  1.00  0.00     0.029 A 
ATOM     50  C   UNL A   1      39.956  33.538  34.427  1.00  0.00     0.049 A 
ATOM     51  H   UNL A   1      40.526  32.010  33.112  1.00  0.00     0.167 HD
ATOM     52  C   UNL A   1      41.375  28.634  30.613  1.00  0.00     0.037 A 
ATOM     53  C   UNL A   1      40.542  33.374  35.631  1.00  0.00     0.037 A 
ATOM     54  C   UNL A   1      42.105  28.376  31.830  1.00  0.00     0.049 A 
ATOM     55  C   UNL A   1      41.368  32.148  35.865  1.00  0.00     0.074 A 
ATOM     56  C   UNL A   1      43.002  27.353  32.093  1.00  0.00     0.029 A 
ATOM     57  N   UNL A   1      42.039  29.150  32.977  1.00  0.00    -0.354 N 
ATOM     58  N   UNL A   1      41.666  31.197  35.015  1.00  0.00    -0.248 NA
ATOM     59  C   UNL A   1      41.920  31.955  37.212  1.00  0.00     0.031 C 
ATOM     60  C   UNL A   1      43.431  27.474  33.418  1.00  0.00     0.029 A 
ATOM     61  C   UNL A   1      42.844  28.603  33.964  1.00  0.00     0.049 A 
ATOM     62  H   UNL A   1      41.502  29.968  33.076  1.00  0.00     0.167 HD
ATOM     63  C   UNL A   1      42.450  30.297  35.722  1.00  0.00     0.074 A 
ATOM     64  C   UNL A   1      42.600  30.828  37.061  1.00  0.00     0.031 C 
ATOM     65  C   UNL A   1      42.990  29.132  35.295  1.00  0.00     0.037 A 
BRANCH  52  66
ATOM     66  C   UNL A   1      41.525  27.639  29.495  1.00  0.00     0.058 A 
ATOM     67  C   UNL A   1      42.677  27.547  28.703  1.00  0.00     0.135 A 
ATOM     68  C   UNL A   1      40.510  26.687  29.291  1.00  0.00     0.135 A 
ATOM     69  F   UNL A   1      43.668  28.441  28.843  1.00  0.00    -0.206 F 
ATOM     70  C   UNL A   1      42.819  26.543  27.747  1.00  0.00     0.059 A 
ATOM     71  C   UNL A   1      40.639  25.664  28.360  1.00  0.00     0.059 A 
ATOM     72  F   UNL A   1      39.385  26.735  30.023  1.00  0.00    -0.206 F 
ATOM     73  C   UNL A   1      41.797  25.601  27.589  1.00  0.00     0.060 A 
BRANCH  73  74
ATOM     74  S   UNL A   1      42.013  24.279  26.379  1.00  0.00     0.124 S 
ATOM     75  O   UNL A   1      42.274  25.038  25.160  1.00  0.00    -0.237 OA
ATOM     76  O   UNL A   1      43.149  23.542  26.923  1.00  0.00    -0.237 OA
ATOM     77  O   UNL A   1      40.736  23.572  26.415  1.00  0.00    -0.744 OA
ENDBRANCH  73  74
ENDBRANCH  52  66
BRANCH  53  78
ATOM     78  C   UNL A   1      40.241  34.318  36.753  1.00  0.00     0.058 A 
ATOM     79  C   UNL A   1      39.204  34.079  37.665  1.00  0.00     0.135 A 
ATOM     80  C   UNL A   1      40.984  35.502  36.913  1.00  0.00     0.135 A 
ATOM     81  F   UNL A   1      38.452  32.974  37.552  1.00  0.00    -0.206 F 
ATOM     82  C   UNL A   1      38.902  34.986  38.682  1.00  0.00     0.059 A 
ATOM     83  C   UNL A   1      40.725  36.404  37.940  1.00  0.00     0.059 A 
ATOM     84  F   UNL A   1      41.998  35.782  36.079  1.00  0.00    -0.206 F 
ATOM     85  C   UNL A   1      39.669  36.145  38.810  1.00  0.00     0.060 A 
BRANCH  85  86
ATOM     86  S   UNL A   1      39.289  37.306  40.142  1.00  0.00     0.124 S 
ATOM     87  O   UNL A   1      38.529  38.327  39.431  1.00  0.00    -0.237 OA
ATOM     88  O   UNL A   1      38.531  36.472  41.069  1.00  0.00    -0.237 OA
ATOM     89  O   UNL A   1      40.608  37.714  40.615  1.00  0.00    -0.744 OA
ENDBRANCH  85  86
ENDBRANCH  53  78
BRANCH  65  90
ATOM     90  C   UNL A   1      43.810  28.355  36.280  1.00  0.00     0.058 A 
ATOM     91  C   UNL A   1      45.146  28.691  36.543  1.00  0.00     0.135 A 
ATOM     92  C   UNL A   1      43.239  27.294  37.002  1.00  0.00     0.135 A 
ATOM     93  F   UNL A   1      45.738  29.685  35.864  1.00  0.00    -0.206 F 
ATOM     94  C   UNL A   1      45.893  27.995  37.485  1.00  0.00     0.059 A 
ATOM     95  C   UNL A   1      43.961  26.602  37.967  1.00  0.00     0.059 A 
ATOM     96  F   UNL A   1      41.964  26.935  36.783  1.00  0.00    -0.206 F 
ATOM     97  C   UNL A   1      45.289  26.957  38.197  1.00  0.00     0.060 A 
BRANCH  97  98
ATOM     98  S   UNL A   1      46.258  26.099  39.455  1.00  0.00     0.124 S 
ATOM     99  O   UNL A   1      47.349  25.546  38.662  1.00  0.00    -0.237 OA
ATOM    100  O   UNL A   1      46.619  27.186  40.362  1.00  0.00    -0.237 OA
ATOM    101  O   UNL A   1      45.318  25.123  40.000  1.00  0.00    -0.744 OA
ENDBRANCH  97  98
ENDBRANCH  65  90
ENDBRANCH  39  40
ENDBRANCH  32  34
ENDBRANCH  31  32
ENDBRANCH  30  31
ENDBRANCH   1  30
TORSDOF 19
ENDMDL
