MODEL 1
REMARK VINA RESULT:     -15.8      0.000      0.000
REMARK SMILES Cc1c(NC(=O)c2cccc(-c3cc4ccccc4oc3=O)c2)cccc1C(=O)OCCOC(=O)c1ccc(-c2c3nc(c(-c4c(F)cc(S(=O)(=O)[O-])cc4F)c4ccc([nH]4)c(-c4c(F)cc(S(=O)(=O)[O-])cc4F)c4nc(c(-c5c(F)cc(S(=O)(=O)[O-])cc5F)c5ccc2[nH]5)C=C4)C=C3)cc1
REMARK SMILES IDX 31 1 30 2 28 3 29 4 27 5 1 6 2 7 3 8 24 9 26 10 25 11 4 12
REMARK SMILES IDX 5 13 6 15 7 16 8 17 23 18 9 19 11 20 10 21 12 22 13 23 21 24
REMARK SMILES IDX 14 25 20 26 22 27 15 28 19 29 16 30 18 31 17 32 32 33 33 34
REMARK SMILES IDX 34 35 35 36 36 37 37 38 101 39 38 40 100 41 39 42 40 43
REMARK SMILES IDX 41 44 94 45 42 46 99 47 93 48 95 49 43 50 98 51 92 52 91 53
REMARK SMILES IDX 44 55 78 56 57 57 77 58 58 59 61 60 76 61 96 62 59 63 60 64
REMARK SMILES IDX 75 66 97 67 62 68 45 69 46 70 55 71 47 72 48 73 54 74 56 75
REMARK SMILES IDX 49 76 50 77 51 78 52 79 53 80 79 81 80 82 89 83 81 84 82 85
REMARK SMILES IDX 88 86 90 87 83 88 84 89 85 90 86 91 87 92 63 93 64 94 73 95
REMARK SMILES IDX 65 96 66 97 72 98 74 99 67 100 68 101 69 102 70 103 71 104
REMARK H PARENT 4 14 95 54 61 65
REMARK Flexibility Score: inf
ROOT
ATOM      1  C   UNL A   1      33.927  29.295  26.269  1.00  0.00     0.275 C 
ENDROOT
BRANCH   1   2
ATOM      2  O   UNL A   1      33.804  28.328  25.203  1.00  0.00    -0.458 OA
BRANCH   2   3
ATOM      3  C   UNL A   1      32.614  28.383  24.541  1.00  0.00     0.338 C 
ATOM      4  O   UNL A   1      32.084  29.403  24.171  1.00  0.00    -0.246 OA
BRANCH   3   5
ATOM      5  C   UNL A   1      31.987  27.020  24.393  1.00  0.00     0.065 A 
ATOM      6  C   UNL A   1      31.046  27.114  26.765  1.00  0.00     0.047 C 
ATOM      7  C   UNL A   1      31.215  26.444  25.424  1.00  0.00    -0.013 A 
ATOM      8  C   UNL A   1      30.642  25.160  25.209  1.00  0.00     0.045 A 
ATOM      9  C   UNL A   1      30.685  24.569  23.944  1.00  0.00     0.026 A 
ATOM     10  C   UNL A   1      32.141  26.321  23.191  1.00  0.00     0.016 A 
ATOM     11  C   UNL A   1      31.454  25.136  22.941  1.00  0.00     0.003 A 
BRANCH   8  12
ATOM     12  N   UNL A   1      30.055  24.486  26.295  1.00  0.00    -0.322 N 
ATOM     13  C   UNL A   1      30.369  23.307  26.937  1.00  0.00     0.255 C 
ATOM     14  H   UNL A   1      29.269  24.945  26.670  1.00  0.00     0.170 HD
ATOM     15  O   UNL A   1      29.570  22.875  27.773  1.00  0.00    -0.269 OA
BRANCH  13  16
ATOM     16  C   UNL A   1      31.665  22.578  26.776  1.00  0.00     0.040 A 
ATOM     17  C   UNL A   1      32.667  22.822  27.726  1.00  0.00     0.014 A 
ATOM     18  C   UNL A   1      31.983  21.786  25.663  1.00  0.00     0.022 A 
ATOM     19  C   UNL A   1      33.932  22.245  27.596  1.00  0.00     0.001 A 
ATOM     20  C   UNL A   1      33.246  21.173  25.534  1.00  0.00    -0.010 A 
ATOM     21  C   UNL A   1      34.215  21.414  26.514  1.00  0.00     0.009 A 
BRANCH  20  22
ATOM     22  C   UNL A   1      33.667  20.426  24.313  1.00  0.00     0.068 A 
ATOM     23  C   UNL A   1      34.655  19.511  24.404  1.00  0.00     0.028 A 
ATOM     24  C   UNL A   1      32.489  19.908  23.545  1.00  0.00     0.344 A 
ATOM     25  C   UNL A   1      34.230  18.121  24.625  1.00  0.00     0.018 A 
ATOM     26  O   UNL A   1      31.945  18.740  24.061  1.00  0.00    -0.422 OA
ATOM     27  O   UNL A   1      31.982  20.540  22.626  1.00  0.00    -0.246 OA
ATOM     28  C   UNL A   1      35.133  17.120  24.946  1.00  0.00     0.012 A 
ATOM     29  C   UNL A   1      32.864  17.825  24.603  1.00  0.00     0.138 A 
ATOM     30  C   UNL A   1      34.644  15.872  25.327  1.00  0.00     0.001 A 
ATOM     31  C   UNL A   1      32.368  16.611  25.064  1.00  0.00     0.048 A 
ATOM     32  C   UNL A   1      33.273  15.631  25.450  1.00  0.00     0.004 A 
ENDBRANCH  20  22
ENDBRANCH  13  16
ENDBRANCH   8  12
ENDBRANCH   3   5
ENDBRANCH   2   3
ENDBRANCH   1   2
BRANCH   1  33
ATOM     33  C   UNL A   1      35.153  29.024  27.169  1.00  0.00     0.275 C 
BRANCH  33  34
ATOM     34  O   UNL A   1      35.179  29.775  28.396  1.00  0.00    -0.458 OA
BRANCH  34  35
ATOM     35  C   UNL A   1      36.314  30.502  28.592  1.00  0.00     0.338 C 
ATOM     36  O   UNL A   1      36.332  31.626  29.060  1.00  0.00    -0.246 OA
BRANCH  35  37
ATOM     37  C   UNL A   1      37.459  29.553  28.516  1.00  0.00     0.060 A 
ATOM     38  C   UNL A   1      38.434  29.740  27.532  1.00  0.00     0.016 A 
ATOM     39  C   UNL A   1      37.724  28.746  29.625  1.00  0.00     0.016 A 
ATOM     40  C   UNL A   1      39.728  29.257  27.735  1.00  0.00     0.010 A 
ATOM     41  C   UNL A   1      39.019  28.359  29.879  1.00  0.00     0.010 A 
ATOM     42  C   UNL A   1      40.023  28.606  28.933  1.00  0.00    -0.014 A 
BRANCH  42  43
ATOM     43  C   UNL A   1      41.212  27.791  29.139  1.00  0.00     0.031 A 
ATOM     44  C   UNL A   1      41.395  26.413  28.647  1.00  0.00     0.074 A 
ATOM     45  C   UNL A   1      42.194  28.524  29.705  1.00  0.00     0.049 A 
ATOM     46  N   UNL A   1      42.450  25.712  28.879  1.00  0.00    -0.248 NA
ATOM     47  C   UNL A   1      40.402  25.674  27.880  1.00  0.00     0.031 C 
ATOM     48  C   UNL A   1      43.611  28.263  29.851  1.00  0.00     0.029 A 
ATOM     49  N   UNL A   1      41.967  29.667  30.487  1.00  0.00    -0.354 N 
ATOM     50  C   UNL A   1      42.379  24.534  28.160  1.00  0.00     0.074 A 
ATOM     51  C   UNL A   1      41.062  24.547  27.578  1.00  0.00     0.031 C 
ATOM     52  C   UNL A   1      44.063  28.999  30.885  1.00  0.00     0.029 A 
ATOM     53  C   UNL A   1      42.900  29.621  31.517  1.00  0.00     0.049 A 
ATOM     54  H   UNL A   1      41.285  30.361  30.336  1.00  0.00     0.167 HD
ATOM     55  C   UNL A   1      43.499  23.752  28.101  1.00  0.00     0.037 A 
ATOM     56  C   UNL A   1      42.442  29.344  32.775  1.00  0.00     0.037 A 
ATOM     57  C   UNL A   1      44.430  24.184  29.147  1.00  0.00     0.049 A 
ATOM     58  C   UNL A   1      43.011  28.036  33.268  1.00  0.00     0.074 A 
ATOM     59  C   UNL A   1      45.508  25.053  29.142  1.00  0.00     0.029 A 
ATOM     60  N   UNL A   1      44.064  24.012  30.481  1.00  0.00    -0.354 N 
ATOM     61  N   UNL A   1      43.284  27.010  32.503  1.00  0.00    -0.248 NA
ATOM     62  C   UNL A   1      43.411  27.841  34.655  1.00  0.00     0.031 C 
ATOM     63  C   UNL A   1      45.681  25.527  30.470  1.00  0.00     0.029 A 
ATOM     64  C   UNL A   1      44.747  24.905  31.287  1.00  0.00     0.049 A 
ATOM     65  H   UNL A   1      43.413  23.349  30.804  1.00  0.00     0.167 HD
ATOM     66  C   UNL A   1      43.964  26.079  33.243  1.00  0.00     0.074 A 
ATOM     67  C   UNL A   1      43.992  26.633  34.588  1.00  0.00     0.031 C 
ATOM     68  C   UNL A   1      44.518  24.944  32.722  1.00  0.00     0.037 A 
BRANCH  55  69
ATOM     69  C   UNL A   1      43.877  22.778  26.989  1.00  0.00     0.058 A 
ATOM     70  C   UNL A   1      43.053  21.655  26.723  1.00  0.00     0.135 A 
ATOM     71  C   UNL A   1      45.069  22.800  26.235  1.00  0.00     0.135 A 
ATOM     72  F   UNL A   1      41.859  21.509  27.317  1.00  0.00    -0.206 F 
ATOM     73  C   UNL A   1      43.419  20.610  25.864  1.00  0.00     0.059 A 
ATOM     74  C   UNL A   1      45.462  21.762  25.377  1.00  0.00     0.059 A 
ATOM     75  F   UNL A   1      45.915  23.831  26.279  1.00  0.00    -0.206 F 
ATOM     76  C   UNL A   1      44.642  20.657  25.214  1.00  0.00     0.060 A 
BRANCH  76  77
ATOM     77  S   UNL A   1      45.144  19.269  24.177  1.00  0.00     0.124 S 
ATOM     78  O   UNL A   1      46.599  19.383  24.198  1.00  0.00    -0.237 OA
ATOM     79  O   UNL A   1      44.587  18.126  24.893  1.00  0.00    -0.237 OA
ATOM     80  O   UNL A   1      44.519  19.558  22.889  1.00  0.00    -0.744 OA
ENDBRANCH  76  77
ENDBRANCH  55  69
BRANCH  56  81
ATOM     81  C   UNL A   1      41.083  29.895  33.109  1.00  0.00     0.058 A 
ATOM     82  C   UNL A   1      40.917  31.299  33.184  1.00  0.00     0.135 A 
ATOM     83  C   UNL A   1      39.907  29.132  33.133  1.00  0.00     0.135 A 
ATOM     84  F   UNL A   1      41.995  32.102  33.184  1.00  0.00    -0.206 F 
ATOM     85  C   UNL A   1      39.666  31.914  33.175  1.00  0.00     0.059 A 
ATOM     86  C   UNL A   1      38.634  29.728  33.142  1.00  0.00     0.059 A 
ATOM     87  F   UNL A   1      39.965  27.794  33.074  1.00  0.00    -0.206 F 
ATOM     88  C   UNL A   1      38.525  31.120  33.131  1.00  0.00     0.060 A 
BRANCH  88  89
ATOM     89  S   UNL A   1      36.921  31.926  32.873  1.00  0.00     0.124 S 
ATOM     90  O   UNL A   1      36.546  32.295  34.233  1.00  0.00    -0.237 OA
ATOM     91  O   UNL A   1      37.273  33.035  31.990  1.00  0.00    -0.237 OA
ATOM     92  O   UNL A   1      36.119  30.872  32.256  1.00  0.00    -0.744 OA
ENDBRANCH  88  89
ENDBRANCH  56  81
BRANCH  68  93
ATOM     93  C   UNL A   1      45.019  23.805  33.567  1.00  0.00     0.058 A 
ATOM     94  C   UNL A   1      46.265  23.831  34.216  1.00  0.00     0.135 A 
ATOM     95  C   UNL A   1      44.184  22.706  33.871  1.00  0.00     0.135 A 
ATOM     96  F   UNL A   1      47.090  24.883  34.099  1.00  0.00    -0.206 F 
ATOM     97  C   UNL A   1      46.696  22.797  35.041  1.00  0.00     0.059 A 
ATOM     98  C   UNL A   1      44.570  21.692  34.740  1.00  0.00     0.059 A 
ATOM     99  F   UNL A   1      42.957  22.589  33.342  1.00  0.00    -0.206 F 
ATOM    100  C   UNL A   1      45.842  21.729  35.295  1.00  0.00     0.060 A 
BRANCH 100 101
ATOM    101  S   UNL A   1      46.364  20.404  36.395  1.00  0.00     0.124 S 
ATOM    102  O   UNL A   1      45.597  19.278  35.873  1.00  0.00    -0.237 OA
ATOM    103  O   UNL A   1      47.805  20.341  36.172  1.00  0.00    -0.237 OA
ATOM    104  O   UNL A   1      45.961  20.893  37.709  1.00  0.00    -0.744 OA
ENDBRANCH 100 101
ENDBRANCH  68  93
ENDBRANCH  42  43
ENDBRANCH  35  37
ENDBRANCH  34  35
ENDBRANCH  33  34
ENDBRANCH   1  33
TORSDOF 17
ENDMDL
MODEL 2
REMARK VINA RESULT:     -15.6      1.700      2.121
REMARK SMILES Cc1c(NC(=O)c2cccc(-c3cc4ccccc4oc3=O)c2)cccc1C(=O)OCCOC(=O)c1ccc(-c2c3nc(c(-c4c(F)cc(S(=O)(=O)[O-])cc4F)c4ccc([nH]4)c(-c4c(F)cc(S(=O)(=O)[O-])cc4F)c4nc(c(-c5c(F)cc(S(=O)(=O)[O-])cc5F)c5ccc2[nH]5)C=C4)C=C3)cc1
REMARK SMILES IDX 31 1 30 2 28 3 29 4 27 5 1 6 2 7 3 8 24 9 26 10 25 11 4 12
REMARK SMILES IDX 5 13 6 15 7 16 8 17 23 18 9 19 11 20 10 21 12 22 13 23 21 24
REMARK SMILES IDX 14 25 20 26 22 27 15 28 19 29 16 30 18 31 17 32 32 33 33 34
REMARK SMILES IDX 34 35 35 36 36 37 37 38 101 39 38 40 100 41 39 42 40 43
REMARK SMILES IDX 41 44 94 45 42 46 99 47 93 48 95 49 43 50 98 51 92 52 91 53
REMARK SMILES IDX 44 55 78 56 57 57 77 58 58 59 61 60 76 61 96 62 59 63 60 64
REMARK SMILES IDX 75 66 97 67 62 68 45 69 46 70 55 71 47 72 48 73 54 74 56 75
REMARK SMILES IDX 49 76 50 77 51 78 52 79 53 80 79 81 80 82 89 83 81 84 82 85
REMARK SMILES IDX 88 86 90 87 83 88 84 89 85 90 86 91 87 92 63 93 64 94 73 95
REMARK SMILES IDX 65 96 66 97 72 98 74 99 67 100 68 101 69 102 70 103 71 104
REMARK H PARENT 4 14 95 54 61 65
REMARK Flexibility Score: inf
ROOT
ATOM      1  C   UNL A   1      32.808  30.316  27.109  1.00  0.00     0.275 C 
ENDROOT
BRANCH   1   2
ATOM      2  O   UNL A   1      32.617  30.021  25.707  1.00  0.00    -0.458 OA
BRANCH   2   3
ATOM      3  C   UNL A   1      33.181  28.847  25.308  1.00  0.00     0.338 C 
ATOM      4  O   UNL A   1      34.371  28.642  25.259  1.00  0.00    -0.246 OA
BRANCH   3   5
ATOM      5  C   UNL A   1      32.148  27.850  24.850  1.00  0.00     0.065 A 
ATOM      6  C   UNL A   1      31.553  27.250  27.260  1.00  0.00     0.047 C 
ATOM      7  C   UNL A   1      31.354  27.132  25.770  1.00  0.00    -0.013 A 
ATOM      8  C   UNL A   1      30.389  26.216  25.266  1.00  0.00     0.045 A 
ATOM      9  C   UNL A   1      30.105  26.168  23.899  1.00  0.00     0.026 A 
ATOM     10  C   UNL A   1      31.941  27.654  23.481  1.00  0.00     0.016 A 
ATOM     11  C   UNL A   1      30.896  26.869  23.003  1.00  0.00     0.003 A 
BRANCH   8  12
ATOM     12  N   UNL A   1      29.746  25.343  26.162  1.00  0.00    -0.322 N 
ATOM     13  C   UNL A   1      30.130  24.148  26.732  1.00  0.00     0.255 C 
ATOM     14  H   UNL A   1      28.849  25.644  26.436  1.00  0.00     0.170 HD
ATOM     15  O   UNL A   1      29.282  23.516  27.369  1.00  0.00    -0.269 OA
BRANCH  13  16
ATOM     16  C   UNL A   1      31.530  23.623  26.732  1.00  0.00     0.040 A 
ATOM     17  C   UNL A   1      31.924  22.830  27.819  1.00  0.00     0.014 A 
ATOM     18  C   UNL A   1      32.502  23.994  25.793  1.00  0.00     0.022 A 
ATOM     19  C   UNL A   1      33.238  22.374  27.933  1.00  0.00     0.001 A 
ATOM     20  C   UNL A   1      33.827  23.517  25.879  1.00  0.00    -0.010 A 
ATOM     21  C   UNL A   1      34.181  22.704  26.960  1.00  0.00     0.009 A 
BRANCH  20  22
ATOM     22  C   UNL A   1      34.919  23.981  24.975  1.00  0.00     0.068 A 
ATOM     23  C   UNL A   1      36.165  24.139  25.467  1.00  0.00     0.028 A 
ATOM     24  C   UNL A   1      34.918  23.237  23.675  1.00  0.00     0.344 A 
ATOM     25  C   UNL A   1      37.070  22.990  25.317  1.00  0.00     0.018 A 
ATOM     26  O   UNL A   1      35.515  21.985  23.737  1.00  0.00    -0.422 OA
ATOM     27  O   UNL A   1      34.323  23.652  22.687  1.00  0.00    -0.246 OA
ATOM     28  C   UNL A   1      38.298  22.934  25.957  1.00  0.00     0.012 A 
ATOM     29  C   UNL A   1      36.633  21.883  24.582  1.00  0.00     0.138 A 
ATOM     30  C   UNL A   1      39.017  21.741  25.924  1.00  0.00     0.001 A 
ATOM     31  C   UNL A   1      37.305  20.667  24.618  1.00  0.00     0.048 A 
ATOM     32  C   UNL A   1      38.502  20.593  25.316  1.00  0.00     0.004 A 
ENDBRANCH  20  22
ENDBRANCH  13  16
ENDBRANCH   8  12
ENDBRANCH   3   5
ENDBRANCH   2   3
ENDBRANCH   1   2
BRANCH   1  33
ATOM     33  C   UNL A   1      34.231  30.837  27.409  1.00  0.00     0.275 C 
BRANCH  33  34
ATOM     34  O   UNL A   1      35.041  29.955  28.208  1.00  0.00    -0.458 OA
BRANCH  34  35
ATOM     35  C   UNL A   1      36.118  30.548  28.793  1.00  0.00     0.338 C 
ATOM     36  O   UNL A   1      36.049  31.509  29.537  1.00  0.00    -0.246 OA
BRANCH  35  37
ATOM     37  C   UNL A   1      37.256  29.594  28.678  1.00  0.00     0.060 A 
ATOM     38  C   UNL A   1      38.210  29.789  27.675  1.00  0.00     0.016 A 
ATOM     39  C   UNL A   1      37.542  28.771  29.771  1.00  0.00     0.016 A 
ATOM     40  C   UNL A   1      39.506  29.297  27.842  1.00  0.00     0.010 A 
ATOM     41  C   UNL A   1      38.840  28.374  29.990  1.00  0.00     0.010 A 
ATOM     42  C   UNL A   1      39.824  28.629  29.025  1.00  0.00    -0.014 A 
BRANCH  42  43
ATOM     43  C   UNL A   1      41.013  27.805  29.194  1.00  0.00     0.031 A 
ATOM     44  C   UNL A   1      41.161  26.417  28.719  1.00  0.00     0.074 A 
ATOM     45  C   UNL A   1      42.026  28.538  29.702  1.00  0.00     0.049 A 
ATOM     46  N   UNL A   1      42.219  25.709  28.917  1.00  0.00    -0.248 NA
ATOM     47  C   UNL A   1      40.128  25.675  28.010  1.00  0.00     0.031 C 
ATOM     48  C   UNL A   1      43.445  28.265  29.791  1.00  0.00     0.029 A 
ATOM     49  N   UNL A   1      41.845  29.696  30.473  1.00  0.00    -0.354 N 
ATOM     50  C   UNL A   1      42.105  24.520  28.223  1.00  0.00     0.074 A 
ATOM     51  C   UNL A   1      40.764  24.536  27.699  1.00  0.00     0.031 C 
ATOM     52  C   UNL A   1      43.950  29.014  30.791  1.00  0.00     0.029 A 
ATOM     53  C   UNL A   1      42.822  29.659  31.462  1.00  0.00     0.049 A 
ATOM     54  H   UNL A   1      41.164  30.395  30.340  1.00  0.00     0.167 HD
ATOM     55  C   UNL A   1      43.213  23.725  28.130  1.00  0.00     0.037 A 
ATOM     56  C   UNL A   1      42.417  29.410  32.744  1.00  0.00     0.037 A 
ATOM     57  C   UNL A   1      44.194  24.166  29.126  1.00  0.00     0.049 A 
ATOM     58  C   UNL A   1      42.994  28.104  33.234  1.00  0.00     0.074 A 
ATOM     59  C   UNL A   1      45.279  25.023  29.058  1.00  0.00     0.029 A 
ATOM     60  N   UNL A   1      43.885  24.021  30.477  1.00  0.00    -0.354 N 
ATOM     61  N   UNL A   1      43.224  27.062  32.477  1.00  0.00    -0.248 NA
ATOM     62  C   UNL A   1      43.453  27.929  34.606  1.00  0.00     0.031 C 
ATOM     63  C   UNL A   1      45.514  25.518  30.369  1.00  0.00     0.029 A 
ATOM     64  C   UNL A   1      44.611  24.920  31.236  1.00  0.00     0.049 A 
ATOM     65  H   UNL A   1      43.242  23.371  30.841  1.00  0.00     0.167 HD
ATOM     66  C   UNL A   1      43.927  26.138  33.203  1.00  0.00     0.074 A 
ATOM     67  C   UNL A   1      44.019  26.714  34.535  1.00  0.00     0.031 C 
ATOM     68  C   UNL A   1      44.446  24.988  32.679  1.00  0.00     0.037 A 
BRANCH  55  69
ATOM     69  C   UNL A   1      43.533  22.728  27.020  1.00  0.00     0.058 A 
ATOM     70  C   UNL A   1      42.798  21.519  26.923  1.00  0.00     0.135 A 
ATOM     71  C   UNL A   1      44.603  22.817  26.105  1.00  0.00     0.135 A 
ATOM     72  F   UNL A   1      41.717  21.296  27.685  1.00  0.00    -0.206 F 
ATOM     73  C   UNL A   1      43.147  20.465  26.068  1.00  0.00     0.059 A 
ATOM     74  C   UNL A   1      44.978  21.773  25.246  1.00  0.00     0.059 A 
ATOM     75  F   UNL A   1      45.339  23.924  25.983  1.00  0.00    -0.206 F 
ATOM     76  C   UNL A   1      44.260  20.588  25.251  1.00  0.00     0.060 A 
BRANCH  76  77
ATOM     77  S   UNL A   1      44.753  19.195  24.216  1.00  0.00     0.124 S 
ATOM     78  O   UNL A   1      44.518  19.715  22.873  1.00  0.00    -0.237 OA
ATOM     79  O   UNL A   1      46.151  19.009  24.588  1.00  0.00    -0.237 OA
ATOM     80  O   UNL A   1      43.852  18.122  24.631  1.00  0.00    -0.744 OA
ENDBRANCH  76  77
ENDBRANCH  55  69
BRANCH  56  81
ATOM     81  C   UNL A   1      41.080  29.980  33.127  1.00  0.00     0.058 A 
ATOM     82  C   UNL A   1      40.944  31.385  33.234  1.00  0.00     0.135 A 
ATOM     83  C   UNL A   1      39.889  29.240  33.169  1.00  0.00     0.135 A 
ATOM     84  F   UNL A   1      42.038  32.167  33.219  1.00  0.00    -0.206 F 
ATOM     85  C   UNL A   1      39.706  32.025  33.273  1.00  0.00     0.059 A 
ATOM     86  C   UNL A   1      38.630  29.861  33.226  1.00  0.00     0.059 A 
ATOM     87  F   UNL A   1      39.918  27.903  33.082  1.00  0.00    -0.206 F 
ATOM     88  C   UNL A   1      38.549  31.254  33.246  1.00  0.00     0.060 A 
BRANCH  88  89
ATOM     89  S   UNL A   1      36.954  32.097  33.049  1.00  0.00     0.124 S 
ATOM     90  O   UNL A   1      37.288  33.159  32.107  1.00  0.00    -0.237 OA
ATOM     91  O   UNL A   1      36.106  31.029  32.525  1.00  0.00    -0.237 OA
ATOM     92  O   UNL A   1      36.640  32.527  34.409  1.00  0.00    -0.744 OA
ENDBRANCH  88  89
ENDBRANCH  56  81
BRANCH  68  93
ATOM     93  C   UNL A   1      44.973  23.858  33.522  1.00  0.00     0.058 A 
ATOM     94  C   UNL A   1      46.245  23.885  34.119  1.00  0.00     0.135 A 
ATOM     95  C   UNL A   1      44.143  22.772  33.879  1.00  0.00     0.135 A 
ATOM     96  F   UNL A   1      47.073  24.928  33.949  1.00  0.00    -0.206 F 
ATOM     97  C   UNL A   1      46.701  22.861  34.942  1.00  0.00     0.059 A 
ATOM     98  C   UNL A   1      44.557  21.769  34.748  1.00  0.00     0.059 A 
ATOM     99  F   UNL A   1      42.894  22.657  33.403  1.00  0.00    -0.206 F 
ATOM    100  C   UNL A   1      45.851  21.804  35.249  1.00  0.00     0.060 A 
BRANCH 100 101
ATOM    101  S   UNL A   1      46.408  20.493  36.349  1.00  0.00     0.124 S 
ATOM    102  O   UNL A   1      45.936  20.982  37.640  1.00  0.00    -0.237 OA
ATOM    103  O   UNL A   1      45.719  19.316  35.832  1.00  0.00    -0.237 OA
ATOM    104  O   UNL A   1      47.854  20.499  36.157  1.00  0.00    -0.744 OA
ENDBRANCH 100 101
ENDBRANCH  68  93
ENDBRANCH  42  43
ENDBRANCH  35  37
ENDBRANCH  34  35
ENDBRANCH  33  34
ENDBRANCH   1  33
TORSDOF 17
ENDMDL
MODEL 3
REMARK VINA RESULT:     -15.4      4.891     11.699
REMARK SMILES Cc1c(NC(=O)c2cccc(-c3cc4ccccc4oc3=O)c2)cccc1C(=O)OCCOC(=O)c1ccc(-c2c3nc(c(-c4c(F)cc(S(=O)(=O)[O-])cc4F)c4ccc([nH]4)c(-c4c(F)cc(S(=O)(=O)[O-])cc4F)c4nc(c(-c5c(F)cc(S(=O)(=O)[O-])cc5F)c5ccc2[nH]5)C=C4)C=C3)cc1
REMARK SMILES IDX 31 1 30 2 28 3 29 4 27 5 1 6 2 7 3 8 24 9 26 10 25 11 4 12
REMARK SMILES IDX 5 13 6 15 7 16 8 17 23 18 9 19 11 20 10 21 12 22 13 23 21 24
REMARK SMILES IDX 14 25 20 26 22 27 15 28 19 29 16 30 18 31 17 32 32 33 33 34
REMARK SMILES IDX 34 35 35 36 36 37 37 38 101 39 38 40 100 41 39 42 40 43
REMARK SMILES IDX 41 44 94 45 42 46 99 47 93 48 95 49 43 50 98 51 92 52 91 53
REMARK SMILES IDX 44 55 78 56 57 57 77 58 58 59 61 60 76 61 96 62 59 63 60 64
REMARK SMILES IDX 75 66 97 67 62 68 45 69 46 70 55 71 47 72 48 73 54 74 56 75
REMARK SMILES IDX 49 76 50 77 51 78 52 79 53 80 79 81 80 82 89 83 81 84 82 85
REMARK SMILES IDX 88 86 90 87 83 88 84 89 85 90 86 91 87 92 63 93 64 94 73 95
REMARK SMILES IDX 65 96 66 97 72 98 74 99 67 100 68 101 69 102 70 103 71 104
REMARK H PARENT 4 14 95 54 61 65
REMARK Flexibility Score: inf
ROOT
ATOM      1  C   UNL A   1      36.925  22.800  26.014  1.00  0.00     0.275 C 
ENDROOT
BRANCH   1   2
ATOM      2  O   UNL A   1      35.595  23.364  26.040  1.00  0.00    -0.458 OA
BRANCH   2   3
ATOM      3  C   UNL A   1      34.601  22.443  25.895  1.00  0.00     0.338 C 
ATOM      4  O   UNL A   1      34.619  21.335  26.375  1.00  0.00    -0.246 OA
BRANCH   3   5
ATOM      5  C   UNL A   1      33.501  22.938  24.990  1.00  0.00     0.065 A 
ATOM      6  C   UNL A   1      35.104  23.104  23.009  1.00  0.00     0.047 C 
ATOM      7  C   UNL A   1      33.731  23.207  23.624  1.00  0.00    -0.013 A 
ATOM      8  C   UNL A   1      32.642  23.658  22.827  1.00  0.00     0.045 A 
ATOM      9  C   UNL A   1      31.342  23.654  23.337  1.00  0.00     0.026 A 
ATOM     10  C   UNL A   1      32.210  23.100  25.504  1.00  0.00     0.016 A 
ATOM     11  C   UNL A   1      31.127  23.398  24.682  1.00  0.00     0.003 A 
BRANCH   8  12
ATOM     12  N   UNL A   1      32.900  24.132  21.527  1.00  0.00    -0.322 N 
ATOM     13  C   UNL A   1      32.802  25.383  20.958  1.00  0.00     0.255 C 
ATOM     14  H   UNL A   1      33.212  23.435  20.905  1.00  0.00     0.170 HD
ATOM     15  O   UNL A   1      32.945  25.472  19.735  1.00  0.00    -0.269 OA
BRANCH  13  16
ATOM     16  C   UNL A   1      32.650  26.654  21.733  1.00  0.00     0.040 A 
ATOM     17  C   UNL A   1      33.815  27.382  22.014  1.00  0.00     0.014 A 
ATOM     18  C   UNL A   1      31.446  27.077  22.311  1.00  0.00     0.022 A 
ATOM     19  C   UNL A   1      33.766  28.532  22.804  1.00  0.00     0.001 A 
ATOM     20  C   UNL A   1      31.376  28.253  23.086  1.00  0.00    -0.010 A 
ATOM     21  C   UNL A   1      32.550  28.973  23.325  1.00  0.00     0.009 A 
BRANCH  20  22
ATOM     22  C   UNL A   1      30.145  28.673  23.817  1.00  0.00     0.068 A 
ATOM     23  C   UNL A   1      29.969  29.975  24.124  1.00  0.00     0.028 A 
ATOM     24  C   UNL A   1      28.911  28.062  23.227  1.00  0.00     0.344 A 
ATOM     25  C   UNL A   1      29.186  30.765  23.162  1.00  0.00     0.018 A 
ATOM     26  O   UNL A   1      28.445  28.709  22.091  1.00  0.00    -0.422 OA
ATOM     27  O   UNL A   1      28.444  27.008  23.643  1.00  0.00    -0.246 OA
ATOM     28  C   UNL A   1      29.106  32.147  23.241  1.00  0.00     0.012 A 
ATOM     29  C   UNL A   1      28.586  30.107  22.084  1.00  0.00     0.138 A 
ATOM     30  C   UNL A   1      28.509  32.844  22.192  1.00  0.00     0.001 A 
ATOM     31  C   UNL A   1      28.066  30.801  20.998  1.00  0.00     0.048 A 
ATOM     32  C   UNL A   1      28.048  32.189  21.048  1.00  0.00     0.004 A 
ENDBRANCH  20  22
ENDBRANCH  13  16
ENDBRANCH   8  12
ENDBRANCH   3   5
ENDBRANCH   2   3
ENDBRANCH   1   2
BRANCH   1  33
ATOM     33  C   UNL A   1      38.023  23.885  26.060  1.00  0.00     0.275 C 
BRANCH  33  34
ATOM     34  O   UNL A   1      39.115  23.601  26.953  1.00  0.00    -0.458 OA
BRANCH  34  35
ATOM     35  C   UNL A   1      40.209  24.394  26.781  1.00  0.00     0.338 C 
ATOM     36  O   UNL A   1      41.105  24.162  25.990  1.00  0.00    -0.246 OA
BRANCH  35  37
ATOM     37  C   UNL A   1      39.896  25.709  27.407  1.00  0.00     0.060 A 
ATOM     38  C   UNL A   1      39.482  25.747  28.741  1.00  0.00     0.016 A 
ATOM     39  C   UNL A   1      40.367  26.867  26.783  1.00  0.00     0.016 A 
ATOM     40  C   UNL A   1      39.692  26.899  29.503  1.00  0.00     0.010 A 
ATOM     41  C   UNL A   1      40.671  27.967  27.551  1.00  0.00     0.010 A 
ATOM     42  C   UNL A   1      40.328  27.990  28.910  1.00  0.00    -0.014 A 
BRANCH  42  43
ATOM     43  C   UNL A   1      40.324  29.332  29.472  1.00  0.00     0.031 A 
ATOM     44  C   UNL A   1      39.207  30.291  29.379  1.00  0.00     0.074 A 
ATOM     45  C   UNL A   1      41.420  29.529  30.234  1.00  0.00     0.049 A 
ATOM     46  N   UNL A   1      39.253  31.484  29.862  1.00  0.00    -0.248 NA
ATOM     47  C   UNL A   1      37.944  30.020  28.705  1.00  0.00     0.031 C 
ATOM     48  C   UNL A   1      41.733  30.559  31.202  1.00  0.00     0.029 A 
ATOM     49  N   UNL A   1      42.625  28.828  30.069  1.00  0.00    -0.354 N 
ATOM     50  C   UNL A   1      38.007  32.069  29.748  1.00  0.00     0.074 A 
ATOM     51  C   UNL A   1      37.234  31.121  28.987  1.00  0.00     0.031 C 
ATOM     52  C   UNL A   1      43.074  30.630  31.313  1.00  0.00     0.029 A 
ATOM     53  C   UNL A   1      43.641  29.750  30.292  1.00  0.00     0.049 A 
ATOM     54  H   UNL A   1      42.729  27.876  29.841  1.00  0.00     0.167 HD
ATOM     55  C   UNL A   1      37.794  33.253  30.397  1.00  0.00     0.037 A 
ATOM     56  C   UNL A   1      44.372  30.161  29.211  1.00  0.00     0.037 A 
ATOM     57  C   UNL A   1      39.090  33.821  30.778  1.00  0.00     0.049 A 
ATOM     58  C   UNL A   1      44.167  31.636  28.967  1.00  0.00     0.074 A 
ATOM     59  C   UNL A   1      39.834  33.761  31.944  1.00  0.00     0.029 A 
ATOM     60  N   UNL A   1      39.962  34.231  29.770  1.00  0.00    -0.354 N 
ATOM     61  N   UNL A   1      43.054  32.281  29.202  1.00  0.00    -0.248 NA
ATOM     62  C   UNL A   1      45.254  32.506  28.537  1.00  0.00     0.031 C 
ATOM     63  C   UNL A   1      41.194  33.981  31.595  1.00  0.00     0.029 A 
ATOM     64  C   UNL A   1      41.266  34.229  30.231  1.00  0.00     0.049 A 
ATOM     65  H   UNL A   1      39.689  34.487  28.860  1.00  0.00     0.167 HD
ATOM     66  C   UNL A   1      43.283  33.623  29.057  1.00  0.00     0.074 A 
ATOM     67  C   UNL A   1      44.666  33.710  28.612  1.00  0.00     0.031 C 
ATOM     68  C   UNL A   1      42.370  34.593  29.358  1.00  0.00     0.037 A 
BRANCH  55  69
ATOM     69  C   UNL A   1      36.459  33.791  30.904  1.00  0.00     0.058 A 
ATOM     70  C   UNL A   1      35.452  34.169  29.980  1.00  0.00     0.135 A 
ATOM     71  C   UNL A   1      36.135  34.079  32.247  1.00  0.00     0.135 A 
ATOM     72  F   UNL A   1      35.579  33.919  28.669  1.00  0.00    -0.206 F 
ATOM     73  C   UNL A   1      34.283  34.851  30.343  1.00  0.00     0.059 A 
ATOM     74  C   UNL A   1      34.977  34.768  32.634  1.00  0.00     0.059 A 
ATOM     75  F   UNL A   1      36.918  33.700  33.260  1.00  0.00    -0.206 F 
ATOM     76  C   UNL A   1      34.065  35.174  31.673  1.00  0.00     0.060 A 
BRANCH  76  77
ATOM     77  S   UNL A   1      32.599  36.126  32.121  1.00  0.00     0.124 S 
ATOM     78  O   UNL A   1      31.670  35.079  32.535  1.00  0.00    -0.237 OA
ATOM     79  O   UNL A   1      33.101  36.987  33.187  1.00  0.00    -0.237 OA
ATOM     80  O   UNL A   1      32.245  36.814  30.883  1.00  0.00    -0.744 OA
ENDBRANCH  76  77
ENDBRANCH  55  69
BRANCH  56  81
ATOM     81  C   UNL A   1      44.616  29.119  28.156  1.00  0.00     0.058 A 
ATOM     82  C   UNL A   1      45.394  27.984  28.486  1.00  0.00     0.135 A 
ATOM     83  C   UNL A   1      43.944  29.070  26.926  1.00  0.00     0.135 A 
ATOM     84  F   UNL A   1      46.084  27.957  29.640  1.00  0.00    -0.206 F 
ATOM     85  C   UNL A   1      45.421  26.831  27.702  1.00  0.00     0.059 A 
ATOM     86  C   UNL A   1      43.970  27.926  26.110  1.00  0.00     0.059 A 
ATOM     87  F   UNL A   1      43.187  30.101  26.525  1.00  0.00    -0.206 F 
ATOM     88  C   UNL A   1      44.686  26.801  26.523  1.00  0.00     0.060 A 
BRANCH  88  89
ATOM     89  S   UNL A   1      44.531  25.223  25.641  1.00  0.00     0.124 S 
ATOM     90  O   UNL A   1      43.324  25.437  24.850  1.00  0.00    -0.237 OA
ATOM     91  O   UNL A   1      45.781  25.169  24.887  1.00  0.00    -0.237 OA
ATOM     92  O   UNL A   1      44.418  24.250  26.724  1.00  0.00    -0.744 OA
ENDBRANCH  88  89
ENDBRANCH  56  81
BRANCH  68  93
ATOM     93  C   UNL A   1      42.522  36.032  28.945  1.00  0.00     0.058 A 
ATOM     94  C   UNL A   1      43.365  36.930  29.621  1.00  0.00     0.135 A 
ATOM     95  C   UNL A   1      41.933  36.510  27.753  1.00  0.00     0.135 A 
ATOM     96  F   UNL A   1      44.072  36.549  30.696  1.00  0.00    -0.206 F 
ATOM     97  C   UNL A   1      43.543  38.244  29.198  1.00  0.00     0.059 A 
ATOM     98  C   UNL A   1      42.146  37.800  27.279  1.00  0.00     0.059 A 
ATOM     99  F   UNL A   1      41.140  35.733  27.001  1.00  0.00    -0.206 F 
ATOM    100  C   UNL A   1      42.927  38.671  28.027  1.00  0.00     0.060 A 
BRANCH 100 101
ATOM    101  S   UNL A   1      43.182  40.353  27.440  1.00  0.00     0.124 S 
ATOM    102  O   UNL A   1      43.008  41.116  28.671  1.00  0.00    -0.237 OA
ATOM    103  O   UNL A   1      44.540  40.314  26.910  1.00  0.00    -0.237 OA
ATOM    104  O   UNL A   1      42.131  40.513  26.440  1.00  0.00    -0.744 OA
ENDBRANCH 100 101
ENDBRANCH  68  93
ENDBRANCH  42  43
ENDBRANCH  35  37
ENDBRANCH  34  35
ENDBRANCH  33  34
ENDBRANCH   1  33
TORSDOF 17
ENDMDL
