MODEL 1
REMARK VINA RESULT:     -11.4      0.000      0.000
REMARK SMILES O=C(C[NH+]1CC(c2nc(-c3cccs3)no2)C1)OCCOC(=O)c1ccc(-c2c3nc(c(-c4c(F)cc(S(=O)(=O)[O-])cc4F)c4ccc([nH]4)c(-c4c(F)cc(S(=O)(=O)[O-])cc4F)c4nc(c(-c5c(F)cc(S(=O)(=O)[O-])cc5F)c5ccc2[nH]5)C=C4)C=C3)cc1
REMARK SMILES IDX 19 1 18 2 2 3 1 4 3 5 4 6 5 7 17 8 6 10 7 11 8 12 16 13 9 14
REMARK SMILES IDX 15 15 10 16 11 17 14 18 12 19 13 20 20 21 21 22 22 23 23 24
REMARK SMILES IDX 24 25 25 26 89 27 26 28 88 29 27 30 28 31 29 32 82 33 30 34
REMARK SMILES IDX 87 35 81 36 83 37 31 38 86 39 80 40 79 41 32 43 66 44 45 45
REMARK SMILES IDX 65 46 46 47 49 48 64 49 84 50 47 51 48 52 63 54 85 55 50 56
REMARK SMILES IDX 33 57 34 58 43 59 35 60 36 61 42 62 44 63 37 64 38 65 39 66
REMARK SMILES IDX 40 67 41 68 67 69 68 70 77 71 69 72 70 73 76 74 78 75 71 76
REMARK SMILES IDX 72 77 73 78 74 79 75 80 51 81 52 82 61 83 53 84 54 85 60 86
REMARK SMILES IDX 62 87 55 88 56 89 57 90 58 91 59 92
REMARK H PARENT 4 9 83 42 49 53
REMARK Flexibility Score: inf
ROOT
ATOM      1  C   UNL A   1      39.254  21.553  25.891  1.00  0.00     0.274 C 
ENDROOT
BRANCH   1   2
ATOM      2  O   UNL A   1      37.978  22.217  25.981  1.00  0.00    -0.458 OA
BRANCH   2   3
ATOM      3  C   UNL A   1      36.943  22.044  25.131  1.00  0.00     0.361 C 
ATOM      4  O   UNL A   1      36.952  22.615  24.039  1.00  0.00    -0.245 OA
BRANCH   3   5
ATOM      5  C   UNL A   1      35.792  21.114  25.503  1.00  0.00     0.386 C 
BRANCH   5   6
ATOM      6  N   UNL A   1      35.149  21.455  26.787  1.00  0.00    -0.324 N 
ATOM      7  C   UNL A   1      34.906  22.926  26.853  1.00  0.00     0.282 C 
ATOM      8  C   UNL A   1      33.690  21.251  26.720  1.00  0.00     0.282 C 
ATOM      9  H   UNL A   1      35.718  20.967  27.479  1.00  0.00     0.348 HD
ATOM     10  C   UNL A   1      33.500  22.628  27.412  1.00  0.00     0.188 C 
BRANCH  10  11
ATOM     11  C   UNL A   1      32.322  23.325  26.774  1.00  0.00     0.241 A 
ATOM     12  N   UNL A   1      32.440  24.029  25.673  1.00  0.00    -0.190 NA
ATOM     13  O   UNL A   1      31.111  23.491  27.387  1.00  0.00    -0.338 OA
ATOM     14  C   UNL A   1      31.271  24.756  25.662  1.00  0.00     0.212 A 
ATOM     15  N   UNL A   1      30.418  24.445  26.647  1.00  0.00    -0.056 NA
BRANCH  14  16
ATOM     16  C   UNL A   1      31.070  25.886  24.707  1.00  0.00     0.075 A 
ATOM     17  C   UNL A   1      29.834  26.438  24.443  1.00  0.00     0.024 A 
ATOM     18  S   UNL A   1      32.302  26.594  23.765  1.00  0.00    -0.140 S 
ATOM     19  C   UNL A   1      29.898  27.438  23.430  1.00  0.00     0.012 A 
ATOM     20  C   UNL A   1      31.183  27.613  22.965  1.00  0.00     0.065 A 
ENDBRANCH  14  16
ENDBRANCH  10  11
ENDBRANCH   5   6
ENDBRANCH   3   5
ENDBRANCH   2   3
ENDBRANCH   1   2
BRANCH   1  21
ATOM     21  C   UNL A   1      40.305  22.288  26.721  1.00  0.00     0.275 C 
BRANCH  21  22
ATOM     22  O   UNL A   1      40.116  23.708  26.592  1.00  0.00    -0.458 OA
BRANCH  22  23
ATOM     23  C   UNL A   1      41.223  24.475  26.756  1.00  0.00     0.338 C 
ATOM     24  O   UNL A   1      42.237  24.441  26.080  1.00  0.00    -0.246 OA
BRANCH  23  25
ATOM     25  C   UNL A   1      40.935  25.524  27.764  1.00  0.00     0.060 A 
ATOM     26  C   UNL A   1      41.898  26.517  27.973  1.00  0.00     0.016 A 
ATOM     27  C   UNL A   1      39.716  25.573  28.452  1.00  0.00     0.016 A 
ATOM     28  C   UNL A   1      41.657  27.543  28.890  1.00  0.00     0.010 A 
ATOM     29  C   UNL A   1      39.476  26.602  29.368  1.00  0.00     0.010 A 
ATOM     30  C   UNL A   1      40.455  27.580  29.610  1.00  0.00    -0.014 A 
BRANCH  30  31
ATOM     31  C   UNL A   1      40.279  28.569  30.702  1.00  0.00     0.031 A 
ATOM     32  C   UNL A   1      41.131  28.450  31.937  1.00  0.00     0.074 A 
ATOM     33  C   UNL A   1      39.395  29.578  30.587  1.00  0.00     0.049 A 
ATOM     34  N   UNL A   1      41.181  29.230  32.985  1.00  0.00    -0.248 NA
ATOM     35  C   UNL A   1      42.045  27.298  31.997  1.00  0.00     0.031 C 
ATOM     36  C   UNL A   1      38.506  29.802  29.447  1.00  0.00     0.029 A 
ATOM     37  N   UNL A   1      39.099  30.602  31.450  1.00  0.00    -0.354 N 
ATOM     38  C   UNL A   1      42.149  28.682  33.816  1.00  0.00     0.074 A 
ATOM     39  C   UNL A   1      42.622  27.472  33.177  1.00  0.00     0.031 C 
ATOM     40  C   UNL A   1      37.756  30.893  29.686  1.00  0.00     0.029 A 
ATOM     41  C   UNL A   1      38.107  31.440  30.996  1.00  0.00     0.049 A 
ATOM     42  H   UNL A   1      39.554  30.728  32.314  1.00  0.00     0.167 HD
ATOM     43  C   UNL A   1      42.620  29.154  34.995  1.00  0.00     0.037 A 
ATOM     44  C   UNL A   1      37.547  32.521  31.573  1.00  0.00     0.037 A 
ATOM     45  C   UNL A   1      42.143  30.345  35.645  1.00  0.00     0.049 A 
ATOM     46  C   UNL A   1      38.054  32.998  32.912  1.00  0.00     0.074 A 
ATOM     47  C   UNL A   1      42.567  30.905  36.838  1.00  0.00     0.029 A 
ATOM     48  N   UNL A   1      41.131  31.160  35.160  1.00  0.00    -0.354 N 
ATOM     49  N   UNL A   1      39.009  32.497  33.661  1.00  0.00    -0.248 NA
ATOM     50  C   UNL A   1      37.418  34.198  33.476  1.00  0.00     0.031 C 
ATOM     51  C   UNL A   1      41.786  32.037  37.093  1.00  0.00     0.029 A 
ATOM     52  C   UNL A   1      40.905  32.207  36.039  1.00  0.00     0.049 A 
ATOM     53  H   UNL A   1      40.645  31.015  34.316  1.00  0.00     0.167 HD
ATOM     54  C   UNL A   1      39.102  33.335  34.769  1.00  0.00     0.074 A 
ATOM     55  C   UNL A   1      38.119  34.382  34.585  1.00  0.00     0.031 C 
ATOM     56  C   UNL A   1      39.925  33.245  35.843  1.00  0.00     0.037 A 
BRANCH  43  57
ATOM     57  C   UNL A   1      43.723  28.378  35.657  1.00  0.00     0.058 A 
ATOM     58  C   UNL A   1      45.072  28.707  35.445  1.00  0.00     0.135 A 
ATOM     59  C   UNL A   1      43.433  27.331  36.543  1.00  0.00     0.135 A 
ATOM     60  F   UNL A   1      45.401  29.688  34.589  1.00  0.00    -0.206 F 
ATOM     61  C   UNL A   1      46.096  28.014  36.079  1.00  0.00     0.059 A 
ATOM     62  C   UNL A   1      44.442  26.637  37.205  1.00  0.00     0.059 A 
ATOM     63  F   UNL A   1      42.160  26.973  36.775  1.00  0.00    -0.206 F 
ATOM     64  C   UNL A   1      45.771  26.981  36.959  1.00  0.00     0.060 A 
BRANCH  64  65
ATOM     65  S   UNL A   1      47.112  26.104  37.791  1.00  0.00     0.124 S 
ATOM     66  O   UNL A   1      47.363  25.008  36.859  1.00  0.00    -0.237 OA
ATOM     67  O   UNL A   1      48.154  27.123  37.864  1.00  0.00    -0.237 OA
ATOM     68  O   UNL A   1      46.524  25.718  39.069  1.00  0.00    -0.744 OA
ENDBRANCH  64  65
ENDBRANCH  43  57
BRANCH  44  69
ATOM     69  C   UNL A   1      36.432  33.240  30.900  1.00  0.00     0.058 A 
ATOM     70  C   UNL A   1      36.666  34.090  29.809  1.00  0.00     0.135 A 
ATOM     71  C   UNL A   1      35.115  33.124  31.370  1.00  0.00     0.135 A 
ATOM     72  F   UNL A   1      37.910  34.241  29.332  1.00  0.00    -0.206 F 
ATOM     73  C   UNL A   1      35.640  34.827  29.227  1.00  0.00     0.059 A 
ATOM     74  C   UNL A   1      34.069  33.833  30.789  1.00  0.00     0.059 A 
ATOM     75  F   UNL A   1      34.838  32.314  32.403  1.00  0.00    -0.206 F 
ATOM     76  C   UNL A   1      34.344  34.696  29.730  1.00  0.00     0.060 A 
BRANCH  76  77
ATOM     77  S   UNL A   1      33.012  35.650  28.970  1.00  0.00     0.124 S 
ATOM     78  O   UNL A   1      33.756  36.715  28.309  1.00  0.00    -0.237 OA
ATOM     79  O   UNL A   1      32.387  34.667  28.092  1.00  0.00    -0.237 OA
ATOM     80  O   UNL A   1      32.203  36.060  30.114  1.00  0.00    -0.744 OA
ENDBRANCH  76  77
ENDBRANCH  44  69
BRANCH  56  81
ATOM     81  C   UNL A   1      39.816  34.320  36.890  1.00  0.00     0.058 A 
ATOM     82  C   UNL A   1      39.063  34.135  38.059  1.00  0.00     0.135 A 
ATOM     83  C   UNL A   1      40.494  35.540  36.732  1.00  0.00     0.135 A 
ATOM     84  F   UNL A   1      38.394  32.989  38.258  1.00  0.00    -0.206 F 
ATOM     85  C   UNL A   1      38.957  35.135  39.022  1.00  0.00     0.059 A 
ATOM     86  C   UNL A   1      40.422  36.544  37.693  1.00  0.00     0.059 A 
ATOM     87  F   UNL A   1      41.239  35.763  35.639  1.00  0.00    -0.206 F 
ATOM     88  C   UNL A   1      39.636  36.339  38.827  1.00  0.00     0.060 A 
BRANCH  88  89
ATOM     89  S   UNL A   1      39.499  37.629  40.083  1.00  0.00     0.124 S 
ATOM     90  O   UNL A   1      39.149  36.849  41.266  1.00  0.00    -0.237 OA
ATOM     91  O   UNL A   1      40.837  38.213  40.084  1.00  0.00    -0.237 OA
ATOM     92  O   UNL A   1      38.446  38.496  39.566  1.00  0.00    -0.744 OA
ENDBRANCH  88  89
ENDBRANCH  56  81
ENDBRANCH  30  31
ENDBRANCH  23  25
ENDBRANCH  22  23
ENDBRANCH  21  22
ENDBRANCH   1  21
TORSDOF 17
ENDMDL
MODEL 2
REMARK VINA RESULT:     -11.2      2.632      4.230
REMARK SMILES O=C(C[NH+]1CC(c2nc(-c3cccs3)no2)C1)OCCOC(=O)c1ccc(-c2c3nc(c(-c4c(F)cc(S(=O)(=O)[O-])cc4F)c4ccc([nH]4)c(-c4c(F)cc(S(=O)(=O)[O-])cc4F)c4nc(c(-c5c(F)cc(S(=O)(=O)[O-])cc5F)c5ccc2[nH]5)C=C4)C=C3)cc1
REMARK SMILES IDX 19 1 18 2 2 3 1 4 3 5 4 6 5 7 17 8 6 10 7 11 8 12 16 13 9 14
REMARK SMILES IDX 15 15 10 16 11 17 14 18 12 19 13 20 20 21 21 22 22 23 23 24
REMARK SMILES IDX 24 25 25 26 89 27 26 28 88 29 27 30 28 31 29 32 82 33 30 34
REMARK SMILES IDX 87 35 81 36 83 37 31 38 86 39 80 40 79 41 32 43 66 44 45 45
REMARK SMILES IDX 65 46 46 47 49 48 64 49 84 50 47 51 48 52 63 54 85 55 50 56
REMARK SMILES IDX 33 57 34 58 43 59 35 60 36 61 42 62 44 63 37 64 38 65 39 66
REMARK SMILES IDX 40 67 41 68 67 69 68 70 77 71 69 72 70 73 76 74 78 75 71 76
REMARK SMILES IDX 72 77 73 78 74 79 75 80 51 81 52 82 61 83 53 84 54 85 60 86
REMARK SMILES IDX 62 87 55 88 56 89 57 90 58 91 59 92
REMARK H PARENT 4 9 83 42 49 53
REMARK Flexibility Score: inf
ROOT
ATOM      1  C   UNL A   1      45.755  22.598  26.142  1.00  0.00     0.274 C 
ENDROOT
BRANCH   1   2
ATOM      2  O   UNL A   1      46.248  21.580  25.249  1.00  0.00    -0.458 OA
BRANCH   2   3
ATOM      3  C   UNL A   1      45.904  20.274  25.283  1.00  0.00     0.361 C 
ATOM      4  O   UNL A   1      46.749  19.431  25.588  1.00  0.00    -0.245 OA
BRANCH   3   5
ATOM      5  C   UNL A   1      44.468  19.852  24.988  1.00  0.00     0.386 C 
BRANCH   5   6
ATOM      6  N   UNL A   1      43.621  19.759  26.193  1.00  0.00    -0.324 N 
ATOM      7  C   UNL A   1      42.740  20.959  26.285  1.00  0.00     0.282 C 
ATOM      8  C   UNL A   1      42.422  18.939  25.938  1.00  0.00     0.282 C 
ATOM      9  H   UNL A   1      44.281  19.511  26.932  1.00  0.00     0.348 HD
ATOM     10  C   UNL A   1      41.571  20.024  26.652  1.00  0.00     0.188 C 
BRANCH  10  11
ATOM     11  C   UNL A   1      40.271  20.184  25.899  1.00  0.00     0.241 A 
ATOM     12  N   UNL A   1      39.680  21.349  25.769  1.00  0.00    -0.190 NA
ATOM     13  O   UNL A   1      39.485  19.138  25.505  1.00  0.00    -0.338 OA
ATOM     14  C   UNL A   1      38.412  20.991  25.369  1.00  0.00     0.212 A 
ATOM     15  N   UNL A   1      38.250  19.679  25.157  1.00  0.00    -0.056 NA
BRANCH  14  16
ATOM     16  C   UNL A   1      37.303  21.989  25.328  1.00  0.00     0.075 A 
ATOM     17  C   UNL A   1      37.383  23.229  25.926  1.00  0.00     0.024 A 
ATOM     18  S   UNL A   1      35.777  21.719  24.615  1.00  0.00    -0.140 S 
ATOM     19  C   UNL A   1      36.161  23.956  25.822  1.00  0.00     0.012 A 
ATOM     20  C   UNL A   1      35.198  23.242  25.142  1.00  0.00     0.065 A 
ENDBRANCH  14  16
ENDBRANCH  10  11
ENDBRANCH   5   6
ENDBRANCH   3   5
ENDBRANCH   2   3
ENDBRANCH   1   2
BRANCH   1  21
ATOM     21  C   UNL A   1      45.242  23.803  25.356  1.00  0.00     0.275 C 
BRANCH  21  22
ATOM     22  O   UNL A   1      44.627  24.742  26.256  1.00  0.00    -0.458 OA
BRANCH  22  23
ATOM     23  C   UNL A   1      43.298  24.950  26.086  1.00  0.00     0.338 C 
ATOM     24  O   UNL A   1      42.570  24.383  25.290  1.00  0.00    -0.246 OA
BRANCH  23  25
ATOM     25  C   UNL A   1      42.809  25.834  27.172  1.00  0.00     0.060 A 
ATOM     26  C   UNL A   1      43.404  27.094  27.311  1.00  0.00     0.016 A 
ATOM     27  C   UNL A   1      41.745  25.467  28.004  1.00  0.00     0.016 A 
ATOM     28  C   UNL A   1      42.956  27.973  28.299  1.00  0.00     0.010 A 
ATOM     29  C   UNL A   1      41.296  26.349  28.991  1.00  0.00     0.010 A 
ATOM     30  C   UNL A   1      41.915  27.598  29.161  1.00  0.00    -0.014 A 
BRANCH  30  31
ATOM     31  C   UNL A   1      41.563  28.465  30.313  1.00  0.00     0.031 A 
ATOM     32  C   UNL A   1      42.369  28.356  31.579  1.00  0.00     0.074 A 
ATOM     33  C   UNL A   1      40.559  29.357  30.227  1.00  0.00     0.049 A 
ATOM     34  N   UNL A   1      42.270  29.049  32.683  1.00  0.00    -0.248 NA
ATOM     35  C   UNL A   1      43.425  27.331  31.601  1.00  0.00     0.031 C 
ATOM     36  C   UNL A   1      39.697  29.556  29.061  1.00  0.00     0.029 A 
ATOM     37  N   UNL A   1      40.092  30.261  31.148  1.00  0.00    -0.354 N 
ATOM     38  C   UNL A   1      43.267  28.564  33.522  1.00  0.00     0.074 A 
ATOM     39  C   UNL A   1      43.923  27.482  32.820  1.00  0.00     0.031 C 
ATOM     40  C   UNL A   1      38.800  30.518  29.342  1.00  0.00     0.029 A 
ATOM     41  C   UNL A   1      39.018  30.998  30.706  1.00  0.00     0.049 A 
ATOM     42  H   UNL A   1      40.490  30.373  32.041  1.00  0.00     0.167 HD
ATOM     43  C   UNL A   1      43.620  28.995  34.756  1.00  0.00     0.037 A 
ATOM     44  C   UNL A   1      38.296  31.947  31.332  1.00  0.00     0.037 A 
ATOM     45  C   UNL A   1      42.961  30.059  35.467  1.00  0.00     0.049 A 
ATOM     46  C   UNL A   1      38.677  32.375  32.727  1.00  0.00     0.074 A 
ATOM     47  C   UNL A   1      43.256  30.569  36.720  1.00  0.00     0.029 A 
ATOM     48  N   UNL A   1      41.872  30.772  34.991  1.00  0.00    -0.354 N 
ATOM     49  N   UNL A   1      39.657  31.942  33.486  1.00  0.00    -0.248 NA
ATOM     50  C   UNL A   1      37.863  33.433  33.345  1.00  0.00     0.031 C 
ATOM     51  C   UNL A   1      42.321  31.567  37.017  1.00  0.00     0.029 A 
ATOM     52  C   UNL A   1      41.471  31.706  35.933  1.00  0.00     0.049 A 
ATOM     53  H   UNL A   1      41.445  30.636  34.114  1.00  0.00     0.167 HD
ATOM     54  C   UNL A   1      39.590  32.692  34.658  1.00  0.00     0.074 A 
ATOM     55  C   UNL A   1      38.486  33.615  34.501  1.00  0.00     0.031 C 
ATOM     56  C   UNL A   1      40.371  32.622  35.764  1.00  0.00     0.037 A 
BRANCH  43  57
ATOM     57  C   UNL A   1      44.786  28.317  35.415  1.00  0.00     0.058 A 
ATOM     58  C   UNL A   1      44.607  27.177  36.215  1.00  0.00     0.135 A 
ATOM     59  C   UNL A   1      46.095  28.779  35.212  1.00  0.00     0.135 A 
ATOM     60  F   UNL A   1      43.373  26.709  36.456  1.00  0.00    -0.206 F 
ATOM     61  C   UNL A   1      45.686  26.526  36.802  1.00  0.00     0.059 A 
ATOM     62  C   UNL A   1      47.192  28.132  35.773  1.00  0.00     0.059 A 
ATOM     63  F   UNL A   1      46.319  29.870  34.461  1.00  0.00    -0.206 F 
ATOM     64  C   UNL A   1      46.975  27.010  36.575  1.00  0.00     0.060 A 
BRANCH  64  65
ATOM     65  S   UNL A   1      48.367  26.142  37.327  1.00  0.00     0.124 S 
ATOM     66  O   UNL A   1      48.508  26.860  38.591  1.00  0.00    -0.237 OA
ATOM     67  O   UNL A   1      47.865  24.775  37.429  1.00  0.00    -0.237 OA
ATOM     68  O   UNL A   1      49.450  26.340  36.369  1.00  0.00    -0.744 OA
ENDBRANCH  64  65
ENDBRANCH  43  57
BRANCH  44  69
ATOM     69  C   UNL A   1      37.125  32.568  30.655  1.00  0.00     0.058 A 
ATOM     70  C   UNL A   1      37.285  33.613  29.734  1.00  0.00     0.135 A 
ATOM     71  C   UNL A   1      35.818  32.157  30.959  1.00  0.00     0.135 A 
ATOM     72  F   UNL A   1      38.515  34.048  29.420  1.00  0.00    -0.206 F 
ATOM     73  C   UNL A   1      36.191  34.252  29.159  1.00  0.00     0.059 A 
ATOM     74  C   UNL A   1      34.709  32.765  30.380  1.00  0.00     0.059 A 
ATOM     75  F   UNL A   1      35.614  31.153  31.825  1.00  0.00    -0.206 F 
ATOM     76  C   UNL A   1      34.906  33.824  29.496  1.00  0.00     0.060 A 
BRANCH  76  77
ATOM     77  S   UNL A   1      33.485  34.652  28.746  1.00  0.00     0.124 S 
ATOM     78  O   UNL A   1      32.649  34.911  29.912  1.00  0.00    -0.237 OA
ATOM     79  O   UNL A   1      34.099  35.822  28.127  1.00  0.00    -0.237 OA
ATOM     80  O   UNL A   1      32.976  33.653  27.811  1.00  0.00    -0.744 OA
ENDBRANCH  76  77
ENDBRANCH  44  69
BRANCH  56  81
ATOM     81  C   UNL A   1      40.076  33.586  36.881  1.00  0.00     0.058 A 
ATOM     82  C   UNL A   1      39.114  33.302  37.863  1.00  0.00     0.135 A 
ATOM     83  C   UNL A   1      40.782  34.796  36.985  1.00  0.00     0.135 A 
ATOM     84  F   UNL A   1      38.410  32.161  37.809  1.00  0.00    -0.206 F 
ATOM     85  C   UNL A   1      38.837  34.199  38.890  1.00  0.00     0.059 A 
ATOM     86  C   UNL A   1      40.538  35.696  38.017  1.00  0.00     0.059 A 
ATOM     87  F   UNL A   1      41.721  35.110  36.080  1.00  0.00    -0.206 F 
ATOM     88  C   UNL A   1      39.550  35.397  38.955  1.00  0.00     0.060 A 
BRANCH  88  89
ATOM     89  S   UNL A   1      39.190  36.553  40.295  1.00  0.00     0.124 S 
ATOM     90  O   UNL A   1      38.595  37.669  39.567  1.00  0.00    -0.237 OA
ATOM     91  O   UNL A   1      38.275  35.786  41.136  1.00  0.00    -0.237 OA
ATOM     92  O   UNL A   1      40.501  36.811  40.882  1.00  0.00    -0.744 OA
ENDBRANCH  88  89
ENDBRANCH  56  81
ENDBRANCH  30  31
ENDBRANCH  23  25
ENDBRANCH  22  23
ENDBRANCH  21  22
ENDBRANCH   1  21
TORSDOF 17
ENDMDL
MODEL 3
REMARK VINA RESULT:     -11.1      6.594     12.342
REMARK SMILES O=C(C[NH+]1CC(c2nc(-c3cccs3)no2)C1)OCCOC(=O)c1ccc(-c2c3nc(c(-c4c(F)cc(S(=O)(=O)[O-])cc4F)c4ccc([nH]4)c(-c4c(F)cc(S(=O)(=O)[O-])cc4F)c4nc(c(-c5c(F)cc(S(=O)(=O)[O-])cc5F)c5ccc2[nH]5)C=C4)C=C3)cc1
REMARK SMILES IDX 19 1 18 2 2 3 1 4 3 5 4 6 5 7 17 8 6 10 7 11 8 12 16 13 9 14
REMARK SMILES IDX 15 15 10 16 11 17 14 18 12 19 13 20 20 21 21 22 22 23 23 24
REMARK SMILES IDX 24 25 25 26 89 27 26 28 88 29 27 30 28 31 29 32 82 33 30 34
REMARK SMILES IDX 87 35 81 36 83 37 31 38 86 39 80 40 79 41 32 43 66 44 45 45
REMARK SMILES IDX 65 46 46 47 49 48 64 49 84 50 47 51 48 52 63 54 85 55 50 56
REMARK SMILES IDX 33 57 34 58 43 59 35 60 36 61 42 62 44 63 37 64 38 65 39 66
REMARK SMILES IDX 40 67 41 68 67 69 68 70 77 71 69 72 70 73 76 74 78 75 71 76
REMARK SMILES IDX 72 77 73 78 74 79 75 80 51 81 52 82 61 83 53 84 54 85 60 86
REMARK SMILES IDX 62 87 55 88 56 89 57 90 58 91 59 92
REMARK H PARENT 4 9 83 42 49 53
REMARK Flexibility Score: inf
ROOT
ATOM      1  C   UNL A   1      34.375  32.294  28.141  1.00  0.00     0.274 C 
ENDROOT
BRANCH   1   2
ATOM      2  O   UNL A   1      34.135  30.907  27.830  1.00  0.00    -0.458 OA
BRANCH   2   3
ATOM      3  C   UNL A   1      33.151  30.443  27.030  1.00  0.00     0.361 C 
ATOM      4  O   UNL A   1      32.136  31.122  26.859  1.00  0.00    -0.245 OA
BRANCH   3   5
ATOM      5  C   UNL A   1      33.314  29.108  26.311  1.00  0.00     0.386 C 
BRANCH   5   6
ATOM      6  N   UNL A   1      32.032  28.469  25.955  1.00  0.00    -0.324 N 
ATOM      7  C   UNL A   1      32.282  27.295  25.069  1.00  0.00     0.282 C 
ATOM      8  C   UNL A   1      31.591  27.538  27.010  1.00  0.00     0.282 C 
ATOM      9  H   UNL A   1      31.445  29.252  25.665  1.00  0.00     0.348 HD
ATOM     10  C   UNL A   1      31.262  26.497  25.905  1.00  0.00     0.188 C 
BRANCH  10  11
ATOM     11  C   UNL A   1      31.667  25.129  26.401  1.00  0.00     0.241 A 
ATOM     12  N   UNL A   1      32.665  24.462  25.870  1.00  0.00    -0.190 NA
ATOM     13  O   UNL A   1      30.913  24.372  27.254  1.00  0.00    -0.338 OA
ATOM     14  C   UNL A   1      32.450  23.186  26.342  1.00  0.00     0.212 A 
ATOM     15  N   UNL A   1      31.434  23.082  27.209  1.00  0.00    -0.056 NA
BRANCH  14  16
ATOM     16  C   UNL A   1      33.210  22.021  25.800  1.00  0.00     0.075 A 
ATOM     17  C   UNL A   1      34.573  21.876  25.952  1.00  0.00     0.024 A 
ATOM     18  S   UNL A   1      32.532  20.765  24.869  1.00  0.00    -0.140 S 
ATOM     19  C   UNL A   1      35.070  20.729  25.267  1.00  0.00     0.012 A 
ATOM     20  C   UNL A   1      34.064  20.042  24.623  1.00  0.00     0.065 A 
ENDBRANCH  14  16
ENDBRANCH  10  11
ENDBRANCH   5   6
ENDBRANCH   3   5
ENDBRANCH   2   3
ENDBRANCH   1   2
BRANCH   1  21
ATOM     21  C   UNL A   1      34.767  32.458  29.608  1.00  0.00     0.275 C 
BRANCH  21  22
ATOM     22  O   UNL A   1      36.183  32.249  29.756  1.00  0.00    -0.458 OA
BRANCH  22  23
ATOM     23  C   UNL A   1      36.554  31.218  30.557  1.00  0.00     0.338 C 
ATOM     24  O   UNL A   1      35.897  30.724  31.456  1.00  0.00    -0.246 OA
BRANCH  23  25
ATOM     25  C   UNL A   1      37.814  30.636  30.033  1.00  0.00     0.060 A 
ATOM     26  C   UNL A   1      38.834  30.348  30.947  1.00  0.00     0.016 A 
ATOM     27  C   UNL A   1      37.975  30.317  28.679  1.00  0.00     0.016 A 
ATOM     28  C   UNL A   1      40.026  29.769  30.505  1.00  0.00     0.010 A 
ATOM     29  C   UNL A   1      39.168  29.736  28.239  1.00  0.00     0.010 A 
ATOM     30  C   UNL A   1      40.210  29.480  29.145  1.00  0.00    -0.014 A 
BRANCH  30  31
ATOM     31  C   UNL A   1      41.538  29.028  28.661  1.00  0.00     0.031 A 
ATOM     32  C   UNL A   1      42.655  30.031  28.556  1.00  0.00     0.074 A 
ATOM     33  C   UNL A   1      41.757  27.739  28.345  1.00  0.00     0.049 A 
ATOM     34  N   UNL A   1      43.902  29.846  28.209  1.00  0.00    -0.248 NA
ATOM     35  C   UNL A   1      42.321  31.426  28.886  1.00  0.00     0.031 C 
ATOM     36  C   UNL A   1      40.759  26.670  28.396  1.00  0.00     0.029 A 
ATOM     37  N   UNL A   1      42.898  27.111  27.912  1.00  0.00    -0.354 N 
ATOM     38  C   UNL A   1      44.509  31.092  28.305  1.00  0.00     0.074 A 
ATOM     39  C   UNL A   1      43.480  32.036  28.689  1.00  0.00     0.031 C 
ATOM     40  C   UNL A   1      41.332  25.519  28.000  1.00  0.00     0.029 A 
ATOM     41  C   UNL A   1      42.732  25.769  27.662  1.00  0.00     0.049 A 
ATOM     42  H   UNL A   1      43.757  27.578  27.792  1.00  0.00     0.167 HD
ATOM     43  C   UNL A   1      45.808  31.419  28.114  1.00  0.00     0.037 A 
ATOM     44  C   UNL A   1      43.610  24.852  27.211  1.00  0.00     0.037 A 
ATOM     45  C   UNL A   1      46.832  30.490  27.715  1.00  0.00     0.049 A 
ATOM     46  C   UNL A   1      45.041  25.252  26.956  1.00  0.00     0.074 A 
ATOM     47  C   UNL A   1      48.179  30.731  27.504  1.00  0.00     0.029 A 
ATOM     48  N   UNL A   1      46.622  29.143  27.461  1.00  0.00    -0.354 N 
ATOM     49  N   UNL A   1      45.611  26.426  27.102  1.00  0.00    -0.248 NA
ATOM     50  C   UNL A   1      45.954  24.198  26.488  1.00  0.00     0.031 C 
ATOM     51  C   UNL A   1      48.777  29.537  27.087  1.00  0.00     0.029 A 
ATOM     52  C   UNL A   1      47.812  28.544  27.078  1.00  0.00     0.049 A 
ATOM     53  H   UNL A   1      45.757  28.681  27.540  1.00  0.00     0.167 HD
ATOM     54  C   UNL A   1      46.951  26.242  26.769  1.00  0.00     0.074 A 
ATOM     55  C   UNL A   1      47.110  24.844  26.429  1.00  0.00     0.031 C 
ATOM     56  C   UNL A   1      47.958  27.150  26.745  1.00  0.00     0.037 A 
BRANCH  43  57
ATOM     57  C   UNL A   1      46.200  32.850  28.345  1.00  0.00     0.058 A 
ATOM     58  C   UNL A   1      46.581  33.303  29.619  1.00  0.00     0.135 A 
ATOM     59  C   UNL A   1      46.242  33.765  27.282  1.00  0.00     0.135 A 
ATOM     60  F   UNL A   1      46.537  32.471  30.672  1.00  0.00    -0.206 F 
ATOM     61  C   UNL A   1      46.975  34.618  29.833  1.00  0.00     0.059 A 
ATOM     62  C   UNL A   1      46.654  35.081  27.470  1.00  0.00     0.059 A 
ATOM     63  F   UNL A   1      45.882  33.383  26.046  1.00  0.00    -0.206 F 
ATOM     64  C   UNL A   1      47.010  35.500  28.752  1.00  0.00     0.060 A 
BRANCH  64  65
ATOM     65  S   UNL A   1      47.545  37.199  29.043  1.00  0.00     0.124 S 
ATOM     66  O   UNL A   1      48.463  37.026  30.165  1.00  0.00    -0.237 OA
ATOM     67  O   UNL A   1      48.163  37.556  27.769  1.00  0.00    -0.237 OA
ATOM     68  O   UNL A   1      46.303  37.899  29.352  1.00  0.00    -0.744 OA
ENDBRANCH  64  65
ENDBRANCH  43  57
BRANCH  44  69
ATOM     69  C   UNL A   1      43.171  23.452  26.961  1.00  0.00     0.058 A 
ATOM     70  C   UNL A   1      43.021  22.536  28.012  1.00  0.00     0.135 A 
ATOM     71  C   UNL A   1      42.940  22.994  25.655  1.00  0.00     0.135 A 
ATOM     72  F   UNL A   1      43.241  22.925  29.277  1.00  0.00    -0.206 F 
ATOM     73  C   UNL A   1      42.690  21.205  27.777  1.00  0.00     0.059 A 
ATOM     74  C   UNL A   1      42.586  21.674  25.397  1.00  0.00     0.059 A 
ATOM     75  F   UNL A   1      43.058  23.835  24.616  1.00  0.00    -0.206 F 
ATOM     76  C   UNL A   1      42.482  20.783  26.463  1.00  0.00     0.060 A 
BRANCH  76  77
ATOM     77  S   UNL A   1      42.047  19.056  26.160  1.00  0.00     0.124 S 
ATOM     78  O   UNL A   1      42.287  18.460  27.469  1.00  0.00    -0.237 OA
ATOM     79  O   UNL A   1      40.651  19.154  25.749  1.00  0.00    -0.237 OA
ATOM     80  O   UNL A   1      42.976  18.660  25.105  1.00  0.00    -0.744 OA
ENDBRANCH  76  77
ENDBRANCH  44  69
BRANCH  56  81
ATOM     81  C   UNL A   1      49.326  26.654  26.362  1.00  0.00     0.058 A 
ATOM     82  C   UNL A   1      50.144  25.974  27.277  1.00  0.00     0.135 A 
ATOM     83  C   UNL A   1      49.813  26.840  25.058  1.00  0.00     0.135 A 
ATOM     84  F   UNL A   1      49.727  25.772  28.536  1.00  0.00    -0.206 F 
ATOM     85  C   UNL A   1      51.413  25.524  26.923  1.00  0.00     0.059 A 
ATOM     86  C   UNL A   1      51.069  26.377  24.675  1.00  0.00     0.059 A 
ATOM     87  F   UNL A   1      49.066  27.472  24.140  1.00  0.00    -0.206 F 
ATOM     88  C   UNL A   1      51.869  25.736  25.620  1.00  0.00     0.060 A 
BRANCH  88  89
ATOM     89  S   UNL A   1      53.513  25.143  25.167  1.00  0.00     0.124 S 
ATOM     90  O   UNL A   1      54.362  25.918  26.066  1.00  0.00    -0.237 OA
ATOM     91  O   UNL A   1      53.425  23.715  25.454  1.00  0.00    -0.237 OA
ATOM     92  O   UNL A   1      53.619  25.485  23.752  1.00  0.00    -0.744 OA
ENDBRANCH  88  89
ENDBRANCH  56  81
ENDBRANCH  30  31
ENDBRANCH  23  25
ENDBRANCH  22  23
ENDBRANCH  21  22
ENDBRANCH   1  21
TORSDOF 17
ENDMDL
