MODEL 1
REMARK VINA RESULT:     -11.5      0.000      0.000
REMARK SMILES Cc1c(Cl)cc2c(c1C)O[C@@H](C(F)(F)F)C(C(=O)OCCOC(=O)c1ccc(-c3c4nc(c(-c5c(F)cc(S(=O)(=O)[O-])cc5F)c5ccc([nH]5)c(-c5c(F)cc(S(=O)(=O)[O-])cc5F)c5nc(c(-c6c(F)cc(S(=O)(=O)[O-])cc6F)c6ccc3[nH]6)C=C5)C=C4)cc1)=C2
REMARK SMILES IDX 21 1 20 2 19 3 17 4 18 5 16 6 1 7 2 8 3 9 8 10 4 11 5 12
REMARK SMILES IDX 7 13 9 14 6 15 10 16 91 17 11 18 12 19 13 20 14 21 15 22
REMARK SMILES IDX 22 23 23 24 24 25 25 26 26 27 90 28 27 29 89 30 28 31 29 32
REMARK SMILES IDX 30 33 83 34 31 35 88 36 82 37 84 38 32 39 87 40 81 41 80 42
REMARK SMILES IDX 33 44 67 45 46 46 66 47 47 48 50 49 65 50 85 51 48 52 49 53
REMARK SMILES IDX 64 55 86 56 51 57 34 58 35 59 44 60 36 61 37 62 43 63 45 64
REMARK SMILES IDX 38 65 39 66 40 67 41 68 42 69 68 70 69 71 78 72 70 73 71 74
REMARK SMILES IDX 77 75 79 76 72 77 73 78 74 79 75 80 76 81 52 82 53 83 62 84
REMARK SMILES IDX 54 85 55 86 61 87 63 88 56 89 57 90 58 91 59 92 60 93
REMARK H PARENT 84 43 50 54
REMARK Flexibility Score: inf
ROOT
ATOM      1  C   UNL A   1      32.582  28.342  27.373  1.00  0.00     0.275 C 
ENDROOT
BRANCH   1   2
ATOM      2  C   UNL A   1      31.911  28.610  26.028  1.00  0.00     0.275 C 
BRANCH   2   3
ATOM      3  O   UNL A   1      32.409  27.694  25.030  1.00  0.00    -0.459 OA
BRANCH   3   4
ATOM      4  C   UNL A   1      31.608  26.650  24.721  1.00  0.00     0.338 C 
ATOM      5  O   UNL A   1      30.492  26.718  24.245  1.00  0.00    -0.246 OA
BRANCH   4   6
ATOM      6  C   UNL A   1      32.306  25.375  24.972  1.00  0.00     0.087 C 
ATOM      7  C   UNL A   1      36.699  20.545  25.137  1.00  0.00     0.046 C 
ATOM      8  C   UNL A   1      35.860  21.798  25.208  1.00  0.00    -0.026 A 
ATOM      9  C   UNL A   1      36.464  23.030  25.534  1.00  0.00     0.045 A 
ATOM     10  C   UNL A   1      34.481  21.784  24.863  1.00  0.00    -0.004 A 
ATOM     11  Cl  UNL A   1      38.151  23.166  25.897  1.00  0.00    -0.084 Cl
ATOM     12  C   UNL A   1      35.729  24.213  25.537  1.00  0.00     0.032 A 
ATOM     13  C   UNL A   1      33.743  22.986  24.910  1.00  0.00     0.131 A 
ATOM     14  C   UNL A   1      33.758  20.527  24.452  1.00  0.00     0.049 C 
ATOM     15  C   UNL A   1      34.374  24.192  25.211  1.00  0.00     0.019 A 
ATOM     16  O   UNL A   1      32.411  22.938  24.566  1.00  0.00    -0.475 OA
ATOM     17  C   UNL A   1      33.640  25.434  25.071  1.00  0.00     0.027 C 
ATOM     18  C   UNL A   1      31.567  24.068  24.954  1.00  0.00     0.316 C 
BRANCH  18  19
ATOM     19  C   UNL A   1      30.801  23.721  26.242  1.00  0.00     0.430 C 
ATOM     20  F   UNL A   1      29.760  24.547  26.472  1.00  0.00    -0.167 F 
ATOM     21  F   UNL A   1      30.330  22.451  26.231  1.00  0.00    -0.167 F 
ATOM     22  F   UNL A   1      31.624  23.798  27.322  1.00  0.00    -0.167 F 
ENDBRANCH  18  19
ENDBRANCH   4   6
ENDBRANCH   3   4
ENDBRANCH   2   3
ENDBRANCH   1   2
BRANCH   1  23
ATOM     23  O   UNL A   1      33.983  28.658  27.279  1.00  0.00    -0.458 OA
BRANCH  23  24
ATOM     24  C   UNL A   1      34.352  29.856  27.786  1.00  0.00     0.338 C 
ATOM     25  O   UNL A   1      33.640  30.827  27.987  1.00  0.00    -0.246 OA
BRANCH  24  26
ATOM     26  C   UNL A   1      35.778  29.821  28.144  1.00  0.00     0.060 A 
ATOM     27  C   UNL A   1      36.720  30.110  27.163  1.00  0.00     0.016 A 
ATOM     28  C   UNL A   1      36.189  29.356  29.391  1.00  0.00     0.016 A 
ATOM     29  C   UNL A   1      38.062  29.801  27.372  1.00  0.00     0.010 A 
ATOM     30  C   UNL A   1      37.555  29.178  29.645  1.00  0.00     0.010 A 
ATOM     31  C   UNL A   1      38.507  29.344  28.622  1.00  0.00    -0.014 A 
BRANCH  31  32
ATOM     32  C   UNL A   1      39.948  29.001  28.828  1.00  0.00     0.031 A 
ATOM     33  C   UNL A   1      40.888  29.997  29.470  1.00  0.00     0.074 A 
ATOM     34  C   UNL A   1      40.418  27.782  28.486  1.00  0.00     0.049 A 
ATOM     35  N   UNL A   1      42.188  29.933  29.614  1.00  0.00    -0.248 NA
ATOM     36  C   UNL A   1      40.292  31.232  30.006  1.00  0.00     0.031 C 
ATOM     37  C   UNL A   1      39.624  26.703  27.893  1.00  0.00     0.029 A 
ATOM     38  N   UNL A   1      41.672  27.230  28.611  1.00  0.00    -0.354 N 
ATOM     39  C   UNL A   1      42.568  31.134  30.205  1.00  0.00     0.074 A 
ATOM     40  C   UNL A   1      41.364  31.917  30.378  1.00  0.00     0.031 C 
ATOM     41  C   UNL A   1      40.384  25.603  27.779  1.00  0.00     0.029 A 
ATOM     42  C   UNL A   1      41.746  25.921  28.192  1.00  0.00     0.049 A 
ATOM     43  H   UNL A   1      42.444  27.724  28.969  1.00  0.00     0.167 HD
ATOM     44  C   UNL A   1      43.804  31.544  30.582  1.00  0.00     0.037 A 
ATOM     45  C   UNL A   1      42.793  25.076  28.110  1.00  0.00     0.037 A 
ATOM     46  C   UNL A   1      44.990  30.734  30.478  1.00  0.00     0.049 A 
ATOM     47  C   UNL A   1      44.162  25.566  28.490  1.00  0.00     0.074 A 
ATOM     48  C   UNL A   1      46.284  31.053  30.855  1.00  0.00     0.029 A 
ATOM     49  N   UNL A   1      45.027  29.441  29.980  1.00  0.00    -0.354 N 
ATOM     50  N   UNL A   1      44.508  26.726  28.993  1.00  0.00    -0.248 NA
ATOM     51  C   UNL A   1      45.287  24.650  28.255  1.00  0.00     0.031 C 
ATOM     52  C   UNL A   1      47.109  29.965  30.553  1.00  0.00     0.029 A 
ATOM     53  C   UNL A   1      46.324  28.956  30.019  1.00  0.00     0.049 A 
ATOM     54  H   UNL A   1      44.247  28.941  29.648  1.00  0.00     0.167 HD
ATOM     55  C   UNL A   1      45.891  26.683  29.126  1.00  0.00     0.074 A 
ATOM     56  C   UNL A   1      46.316  25.373  28.679  1.00  0.00     0.031 C 
ATOM     57  C   UNL A   1      46.732  27.651  29.564  1.00  0.00     0.037 A 
BRANCH  44  58
ATOM     58  C   UNL A   1      43.948  32.937  31.132  1.00  0.00     0.058 A 
ATOM     59  C   UNL A   1      44.148  34.047  30.297  1.00  0.00     0.135 A 
ATOM     60  C   UNL A   1      43.834  33.170  32.513  1.00  0.00     0.135 A 
ATOM     61  F   UNL A   1      44.278  33.881  28.972  1.00  0.00    -0.206 F 
ATOM     62  C   UNL A   1      44.255  35.335  30.813  1.00  0.00     0.059 A 
ATOM     63  C   UNL A   1      43.912  34.453  33.049  1.00  0.00     0.059 A 
ATOM     64  F   UNL A   1      43.640  32.144  33.358  1.00  0.00    -0.206 F 
ATOM     65  C   UNL A   1      44.136  35.528  32.191  1.00  0.00     0.060 A 
BRANCH  65  66
ATOM     66  S   UNL A   1      44.273  37.206  32.842  1.00  0.00     0.124 S 
ATOM     67  O   UNL A   1      45.614  37.187  33.419  1.00  0.00    -0.237 OA
ATOM     68  O   UNL A   1      44.111  38.021  31.643  1.00  0.00    -0.237 OA
ATOM     69  O   UNL A   1      43.179  37.290  33.806  1.00  0.00    -0.744 OA
ENDBRANCH  65  66
ENDBRANCH  44  58
BRANCH  45  70
ATOM     70  C   UNL A   1      42.590  23.689  27.608  1.00  0.00     0.058 A 
ATOM     71  C   UNL A   1      42.560  23.417  26.233  1.00  0.00     0.135 A 
ATOM     72  C   UNL A   1      42.454  22.605  28.491  1.00  0.00     0.135 A 
ATOM     73  F   UNL A   1      42.668  24.420  25.349  1.00  0.00    -0.206 F 
ATOM     74  C   UNL A   1      42.408  22.121  25.749  1.00  0.00     0.059 A 
ATOM     75  C   UNL A   1      42.329  21.297  28.032  1.00  0.00     0.059 A 
ATOM     76  F   UNL A   1      42.482  22.809  29.817  1.00  0.00    -0.206 F 
ATOM     77  C   UNL A   1      42.303  21.066  26.657  1.00  0.00     0.060 A 
BRANCH  77  78
ATOM     78  S   UNL A   1      42.182  19.380  26.020  1.00  0.00     0.124 S 
ATOM     79  O   UNL A   1      40.754  19.275  25.739  1.00  0.00    -0.237 OA
ATOM     80  O   UNL A   1      43.060  19.429  24.854  1.00  0.00    -0.237 OA
ATOM     81  O   UNL A   1      42.670  18.566  27.129  1.00  0.00    -0.744 OA
ENDBRANCH  77  78
ENDBRANCH  45  70
BRANCH  57  82
ATOM     82  C   UNL A   1      48.202  27.346  29.569  1.00  0.00     0.058 A 
ATOM     83  C   UNL A   1      49.030  27.764  28.516  1.00  0.00     0.135 A 
ATOM     84  C   UNL A   1      48.804  26.722  30.673  1.00  0.00     0.135 A 
ATOM     85  F   UNL A   1      48.500  28.355  27.434  1.00  0.00    -0.206 F 
ATOM     86  C   UNL A   1      50.407  27.578  28.560  1.00  0.00     0.059 A 
ATOM     87  C   UNL A   1      50.182  26.545  30.747  1.00  0.00     0.059 A 
ATOM     88  F   UNL A   1      48.054  26.309  31.707  1.00  0.00    -0.206 F 
ATOM     89  C   UNL A   1      50.975  26.978  29.685  1.00  0.00     0.060 A 
BRANCH  89  90
ATOM     90  S   UNL A   1      52.773  26.817  29.758  1.00  0.00     0.124 S 
ATOM     91  O   UNL A   1      53.067  26.202  28.468  1.00  0.00    -0.237 OA
ATOM     92  O   UNL A   1      53.203  28.203  29.913  1.00  0.00    -0.237 OA
ATOM     93  O   UNL A   1      52.991  25.965  30.923  1.00  0.00    -0.744 OA
ENDBRANCH  89  90
ENDBRANCH  57  82
ENDBRANCH  31  32
ENDBRANCH  24  26
ENDBRANCH  23  24
ENDBRANCH   1  23
TORSDOF 15
ENDMDL
MODEL 2
REMARK VINA RESULT:     -11.2      2.902      3.761
REMARK SMILES Cc1c(Cl)cc2c(c1C)O[C@@H](C(F)(F)F)C(C(=O)OCCOC(=O)c1ccc(-c3c4nc(c(-c5c(F)cc(S(=O)(=O)[O-])cc5F)c5ccc([nH]5)c(-c5c(F)cc(S(=O)(=O)[O-])cc5F)c5nc(c(-c6c(F)cc(S(=O)(=O)[O-])cc6F)c6ccc3[nH]6)C=C5)C=C4)cc1)=C2
REMARK SMILES IDX 21 1 20 2 19 3 17 4 18 5 16 6 1 7 2 8 3 9 8 10 4 11 5 12
REMARK SMILES IDX 7 13 9 14 6 15 10 16 91 17 11 18 12 19 13 20 14 21 15 22
REMARK SMILES IDX 22 23 23 24 24 25 25 26 26 27 90 28 27 29 89 30 28 31 29 32
REMARK SMILES IDX 30 33 83 34 31 35 88 36 82 37 84 38 32 39 87 40 81 41 80 42
REMARK SMILES IDX 33 44 67 45 46 46 66 47 47 48 50 49 65 50 85 51 48 52 49 53
REMARK SMILES IDX 64 55 86 56 51 57 34 58 35 59 44 60 36 61 37 62 43 63 45 64
REMARK SMILES IDX 38 65 39 66 40 67 41 68 42 69 68 70 69 71 78 72 70 73 71 74
REMARK SMILES IDX 77 75 79 76 72 77 73 78 74 79 75 80 76 81 52 82 53 83 62 84
REMARK SMILES IDX 54 85 55 86 61 87 63 88 56 89 57 90 58 91 59 92 60 93
REMARK H PARENT 84 43 50 54
REMARK Flexibility Score: inf
ROOT
ATOM      1  C   UNL A   1      34.291  31.337  27.982  1.00  0.00     0.275 C 
ENDROOT
BRANCH   1   2
ATOM      2  C   UNL A   1      33.960  30.036  27.255  1.00  0.00     0.275 C 
BRANCH   2   3
ATOM      3  O   UNL A   1      32.551  29.742  27.375  1.00  0.00    -0.459 OA
BRANCH   3   4
ATOM      4  C   UNL A   1      31.781  30.049  26.308  1.00  0.00     0.338 C 
ATOM      5  O   UNL A   1      31.374  31.155  26.011  1.00  0.00    -0.246 OA
BRANCH   4   6
ATOM      6  C   UNL A   1      31.548  28.850  25.481  1.00  0.00     0.087 C 
ATOM      7  C   UNL A   1      31.480  22.757  23.130  1.00  0.00     0.046 C 
ATOM      8  C   UNL A   1      31.389  24.067  23.874  1.00  0.00    -0.026 A 
ATOM      9  C   UNL A   1      31.066  24.073  25.247  1.00  0.00     0.045 A 
ATOM     10  C   UNL A   1      31.712  25.300  23.244  1.00  0.00    -0.004 A 
ATOM     11  Cl  UNL A   1      30.730  22.620  26.125  1.00  0.00    -0.084 Cl
ATOM     12  C   UNL A   1      31.045  25.261  25.976  1.00  0.00     0.032 A 
ATOM     13  C   UNL A   1      31.646  26.496  23.988  1.00  0.00     0.131 A 
ATOM     14  C   UNL A   1      32.118  25.390  21.795  1.00  0.00     0.049 C 
ATOM     15  C   UNL A   1      31.349  26.467  25.350  1.00  0.00     0.019 A 
ATOM     16  O   UNL A   1      31.969  27.672  23.348  1.00  0.00    -0.475 OA
ATOM     17  C   UNL A   1      31.471  27.682  26.131  1.00  0.00     0.027 C 
ATOM     18  C   UNL A   1      31.561  28.926  23.981  1.00  0.00     0.316 C 
BRANCH  18  19
ATOM     19  C   UNL A   1      30.263  29.433  23.331  1.00  0.00     0.430 C 
ATOM     20  F   UNL A   1      29.225  28.587  23.501  1.00  0.00    -0.167 F 
ATOM     21  F   UNL A   1      29.893  30.646  23.807  1.00  0.00    -0.167 F 
ATOM     22  F   UNL A   1      30.432  29.601  21.993  1.00  0.00    -0.167 F 
ENDBRANCH  18  19
ENDBRANCH   4   6
ENDBRANCH   3   4
ENDBRANCH   2   3
ENDBRANCH   1   2
BRANCH   1  23
ATOM     23  O   UNL A   1      35.717  31.446  28.140  1.00  0.00    -0.458 OA
BRANCH  23  24
ATOM     24  C   UNL A   1      36.218  30.979  29.305  1.00  0.00     0.338 C 
ATOM     25  O   UNL A   1      35.717  31.065  30.416  1.00  0.00    -0.246 OA
BRANCH  24  26
ATOM     26  C   UNL A   1      37.473  30.257  29.047  1.00  0.00     0.060 A 
ATOM     27  C   UNL A   1      38.324  29.994  30.115  1.00  0.00     0.016 A 
ATOM     28  C   UNL A   1      37.880  29.979  27.744  1.00  0.00     0.016 A 
ATOM     29  C   UNL A   1      39.635  29.589  29.878  1.00  0.00     0.010 A 
ATOM     30  C   UNL A   1      39.154  29.440  27.521  1.00  0.00     0.010 A 
ATOM     31  C   UNL A   1      40.071  29.289  28.578  1.00  0.00    -0.014 A 
BRANCH  31  32
ATOM     32  C   UNL A   1      41.486  28.871  28.336  1.00  0.00     0.031 A 
ATOM     33  C   UNL A   1      42.617  29.859  28.517  1.00  0.00     0.074 A 
ATOM     34  C   UNL A   1      41.777  27.596  27.998  1.00  0.00     0.049 A 
ATOM     35  N   UNL A   1      43.888  29.723  28.233  1.00  0.00    -0.248 NA
ATOM     36  C   UNL A   1      42.273  31.177  29.077  1.00  0.00     0.031 C 
ATOM     37  C   UNL A   1      40.797  26.521  27.825  1.00  0.00     0.029 A 
ATOM     38  N   UNL A   1      42.982  26.976  27.767  1.00  0.00    -0.354 N 
ATOM     39  C   UNL A   1      44.481  30.947  28.527  1.00  0.00     0.074 A 
ATOM     40  C   UNL A   1      43.429  31.821  28.996  1.00  0.00     0.031 C 
ATOM     41  C   UNL A   1      41.440  25.367  27.592  1.00  0.00     0.029 A 
ATOM     42  C   UNL A   1      42.871  25.631  27.496  1.00  0.00     0.049 A 
ATOM     43  H   UNL A   1      43.845  27.450  27.792  1.00  0.00     0.167 HD
ATOM     44  C   UNL A   1      45.784  31.307  28.429  1.00  0.00     0.037 A 
ATOM     45  C   UNL A   1      43.804  24.714  27.171  1.00  0.00     0.037 A 
ATOM     46  C   UNL A   1      46.841  30.413  28.032  1.00  0.00     0.049 A 
ATOM     47  C   UNL A   1      45.236  25.146  27.023  1.00  0.00     0.074 A 
ATOM     48  C   UNL A   1      48.196  30.679  27.926  1.00  0.00     0.029 A 
ATOM     49  N   UNL A   1      46.670  29.079  27.699  1.00  0.00    -0.354 N 
ATOM     50  N   UNL A   1      45.766  26.323  27.250  1.00  0.00    -0.248 NA
ATOM     51  C   UNL A   1      46.189  24.138  26.536  1.00  0.00     0.031 C 
ATOM     52  C   UNL A   1      48.838  29.515  27.494  1.00  0.00     0.029 A 
ATOM     53  C   UNL A   1      47.889  28.514  27.365  1.00  0.00     0.049 A 
ATOM     54  H   UNL A   1      45.807  28.603  27.700  1.00  0.00     0.167 HD
ATOM     55  C   UNL A   1      47.112  26.200  26.925  1.00  0.00     0.074 A 
ATOM     56  C   UNL A   1      47.322  24.828  26.515  1.00  0.00     0.031 C 
ATOM     57  C   UNL A   1      48.081  27.147  26.951  1.00  0.00     0.037 A 
BRANCH  44  58
ATOM     58  C   UNL A   1      46.146  32.734  28.740  1.00  0.00     0.058 A 
ATOM     59  C   UNL A   1      46.128  33.736  27.757  1.00  0.00     0.135 A 
ATOM     60  C   UNL A   1      46.469  33.113  30.054  1.00  0.00     0.135 A 
ATOM     61  F   UNL A   1      45.840  33.427  26.483  1.00  0.00    -0.206 F 
ATOM     62  C   UNL A   1      46.441  35.057  28.060  1.00  0.00     0.059 A 
ATOM     63  C   UNL A   1      46.760  34.434  30.385  1.00  0.00     0.059 A 
ATOM     64  F   UNL A   1      46.500  32.196  31.034  1.00  0.00    -0.206 F 
ATOM     65  C   UNL A   1      46.757  35.397  29.377  1.00  0.00     0.060 A 
BRANCH  65  66
ATOM     66  S   UNL A   1      47.155  37.117  29.752  1.00  0.00     0.124 S 
ATOM     67  O   UNL A   1      48.540  37.201  29.298  1.00  0.00    -0.237 OA
ATOM     68  O   UNL A   1      46.180  37.847  28.949  1.00  0.00    -0.237 OA
ATOM     69  O   UNL A   1      46.965  37.206  31.198  1.00  0.00    -0.744 OA
ENDBRANCH  65  66
ENDBRANCH  44  58
BRANCH  45  70
ATOM     70  C   UNL A   1      43.402  23.302  26.924  1.00  0.00     0.058 A 
ATOM     71  C   UNL A   1      43.330  22.791  25.620  1.00  0.00     0.135 A 
ATOM     72  C   UNL A   1      43.112  22.428  27.984  1.00  0.00     0.135 A 
ATOM     73  F   UNL A   1      43.580  23.591  24.572  1.00  0.00    -0.206 F 
ATOM     74  C   UNL A   1      42.992  21.463  25.374  1.00  0.00     0.059 A 
ATOM     75  C   UNL A   1      42.799  21.090  27.766  1.00  0.00     0.059 A 
ATOM     76  F   UNL A   1      43.173  22.865  29.251  1.00  0.00    -0.206 F 
ATOM     77  C   UNL A   1      42.738  20.618  26.456  1.00  0.00     0.060 A 
BRANCH  77  78
ATOM     78  S   UNL A   1      42.373  18.879  26.131  1.00  0.00     0.124 S 
ATOM     79  O   UNL A   1      40.966  18.940  25.751  1.00  0.00    -0.237 OA
ATOM     80  O   UNL A   1      43.311  18.564  25.058  1.00  0.00    -0.237 OA
ATOM     81  O   UNL A   1      42.655  18.232  27.409  1.00  0.00    -0.744 OA
ENDBRANCH  77  78
ENDBRANCH  45  70
BRANCH  57  82
ATOM     82  C   UNL A   1      49.458  26.746  26.507  1.00  0.00     0.058 A 
ATOM     83  C   UNL A   1      50.324  26.062  27.373  1.00  0.00     0.135 A 
ATOM     84  C   UNL A   1      49.878  26.956  25.184  1.00  0.00     0.135 A 
ATOM     85  F   UNL A   1      49.972  25.846  28.650  1.00  0.00    -0.206 F 
ATOM     86  C   UNL A   1      51.560  25.594  26.941  1.00  0.00     0.059 A 
ATOM     87  C   UNL A   1      51.101  26.479  24.724  1.00  0.00     0.059 A 
ATOM     88  F   UNL A   1      49.082  27.602  24.317  1.00  0.00    -0.206 F 
ATOM     89  C   UNL A   1      51.935  25.797  25.611  1.00  0.00     0.060 A 
BRANCH  89  90
ATOM     90  S   UNL A   1      53.509  25.114  25.047  1.00  0.00     0.124 S 
ATOM     91  O   UNL A   1      53.353  23.702  25.375  1.00  0.00    -0.237 OA
ATOM     92  O   UNL A   1      53.498  25.440  23.624  1.00  0.00    -0.237 OA
ATOM     93  O   UNL A   1      54.498  25.837  25.842  1.00  0.00    -0.744 OA
ENDBRANCH  89  90
ENDBRANCH  57  82
ENDBRANCH  31  32
ENDBRANCH  24  26
ENDBRANCH  23  24
ENDBRANCH   1  23
TORSDOF 15
ENDMDL
MODEL 3
REMARK VINA RESULT:     -11.2      3.916      5.991
REMARK SMILES Cc1c(Cl)cc2c(c1C)O[C@@H](C(F)(F)F)C(C(=O)OCCOC(=O)c1ccc(-c3c4nc(c(-c5c(F)cc(S(=O)(=O)[O-])cc5F)c5ccc([nH]5)c(-c5c(F)cc(S(=O)(=O)[O-])cc5F)c5nc(c(-c6c(F)cc(S(=O)(=O)[O-])cc6F)c6ccc3[nH]6)C=C5)C=C4)cc1)=C2
REMARK SMILES IDX 21 1 20 2 19 3 17 4 18 5 16 6 1 7 2 8 3 9 8 10 4 11 5 12
REMARK SMILES IDX 7 13 9 14 6 15 10 16 91 17 11 18 12 19 13 20 14 21 15 22
REMARK SMILES IDX 22 23 23 24 24 25 25 26 26 27 90 28 27 29 89 30 28 31 29 32
REMARK SMILES IDX 30 33 83 34 31 35 88 36 82 37 84 38 32 39 87 40 81 41 80 42
REMARK SMILES IDX 33 44 67 45 46 46 66 47 47 48 50 49 65 50 85 51 48 52 49 53
REMARK SMILES IDX 64 55 86 56 51 57 34 58 35 59 44 60 36 61 37 62 43 63 45 64
REMARK SMILES IDX 38 65 39 66 40 67 41 68 42 69 68 70 69 71 78 72 70 73 71 74
REMARK SMILES IDX 77 75 79 76 72 77 73 78 74 79 75 80 76 81 52 82 53 83 62 84
REMARK SMILES IDX 54 85 55 86 61 87 63 88 56 89 57 90 58 91 59 92 60 93
REMARK H PARENT 84 43 50 54
REMARK Flexibility Score: inf
ROOT
ATOM      1  C   UNL A   1      33.546  31.714  27.767  1.00  0.00     0.275 C 
ENDROOT
BRANCH   1   2
ATOM      2  C   UNL A   1      33.624  33.231  27.917  1.00  0.00     0.275 C 
BRANCH   2   3
ATOM      3  O   UNL A   1      34.715  33.591  28.791  1.00  0.00    -0.459 OA
BRANCH   3   4
ATOM      4  C   UNL A   1      34.378  34.030  30.023  1.00  0.00     0.338 C 
ATOM      5  O   UNL A   1      33.331  34.565  30.333  1.00  0.00    -0.246 OA
BRANCH   4   6
ATOM      6  C   UNL A   1      35.441  33.704  30.993  1.00  0.00     0.087 C 
ATOM      7  C   UNL A   1      41.159  32.252  33.793  1.00  0.00     0.046 C 
ATOM      8  C   UNL A   1      39.953  32.791  33.064  1.00  0.00    -0.026 A 
ATOM      9  C   UNL A   1      40.100  33.868  32.165  1.00  0.00     0.045 A 
ATOM     10  C   UNL A   1      38.676  32.179  33.193  1.00  0.00    -0.004 A 
ATOM     11  Cl  UNL A   1      41.625  34.635  31.879  1.00  0.00    -0.084 Cl
ATOM     12  C   UNL A   1      39.017  34.339  31.424  1.00  0.00     0.032 A 
ATOM     13  C   UNL A   1      37.583  32.696  32.465  1.00  0.00     0.131 A 
ATOM     14  C   UNL A   1      38.430  30.993  34.090  1.00  0.00     0.049 C 
ATOM     15  C   UNL A   1      37.765  33.744  31.564  1.00  0.00     0.019 A 
ATOM     16  O   UNL A   1      36.362  32.077  32.610  1.00  0.00    -0.475 OA
ATOM     17  C   UNL A   1      36.673  34.132  30.695  1.00  0.00     0.027 C 
ATOM     18  C   UNL A   1      35.174  32.803  32.165  1.00  0.00     0.316 C 
BRANCH  18  19
ATOM     19  C   UNL A   1      34.493  33.469  33.373  1.00  0.00     0.430 C 
ATOM     20  F   UNL A   1      33.219  33.062  33.548  1.00  0.00    -0.167 F 
ATOM     21  F   UNL A   1      35.164  33.243  34.527  1.00  0.00    -0.167 F 
ATOM     22  F   UNL A   1      34.469  34.820  33.222  1.00  0.00    -0.167 F 
ENDBRANCH  18  19
ENDBRANCH   4   6
ENDBRANCH   3   4
ENDBRANCH   2   3
ENDBRANCH   1   2
BRANCH   1  23
ATOM     23  O   UNL A   1      34.507  31.097  28.643  1.00  0.00    -0.458 OA
BRANCH  23  24
ATOM     24  C   UNL A   1      34.966  29.886  28.255  1.00  0.00     0.338 C 
ATOM     25  O   UNL A   1      34.326  28.978  27.748  1.00  0.00    -0.246 OA
BRANCH  24  26
ATOM     26  C   UNL A   1      36.419  29.819  28.470  1.00  0.00     0.060 A 
ATOM     27  C   UNL A   1      37.265  30.112  27.405  1.00  0.00     0.016 A 
ATOM     28  C   UNL A   1      36.942  29.324  29.662  1.00  0.00     0.016 A 
ATOM     29  C   UNL A   1      38.615  29.776  27.475  1.00  0.00     0.010 A 
ATOM     30  C   UNL A   1      38.323  29.117  29.775  1.00  0.00     0.010 A 
ATOM     31  C   UNL A   1      39.173  29.286  28.667  1.00  0.00    -0.014 A 
BRANCH  31  32
ATOM     32  C   UNL A   1      40.620  28.914  28.723  1.00  0.00     0.031 A 
ATOM     33  C   UNL A   1      41.644  29.900  29.240  1.00  0.00     0.074 A 
ATOM     34  C   UNL A   1      41.025  27.679  28.356  1.00  0.00     0.049 A 
ATOM     35  N   UNL A   1      42.951  29.810  29.244  1.00  0.00    -0.248 NA
ATOM     36  C   UNL A   1      41.135  31.158  29.812  1.00  0.00     0.031 C 
ATOM     37  C   UNL A   1      40.150  26.608  27.874  1.00  0.00     0.029 A 
ATOM     38  N   UNL A   1      42.273  27.102  28.357  1.00  0.00    -0.354 N 
ATOM     39  C   UNL A   1      43.417  31.013  29.766  1.00  0.00     0.074 A 
ATOM     40  C   UNL A   1      42.255  31.825  30.052  1.00  0.00     0.031 C 
ATOM     41  C   UNL A   1      40.870  25.490  27.700  1.00  0.00     0.029 A 
ATOM     42  C   UNL A   1      42.275  25.785  27.958  1.00  0.00     0.049 A 
ATOM     43  H   UNL A   1      43.090  27.585  28.619  1.00  0.00     0.167 HD
ATOM     44  C   UNL A   1      44.694  31.401  30.000  1.00  0.00     0.037 A 
ATOM     45  C   UNL A   1      43.290  24.914  27.780  1.00  0.00     0.037 A 
ATOM     46  C   UNL A   1      45.845  30.563  29.784  1.00  0.00     0.049 A 
ATOM     47  C   UNL A   1      44.701  25.381  28.001  1.00  0.00     0.074 A 
ATOM     48  C   UNL A   1      47.179  30.859  30.013  1.00  0.00     0.029 A 
ATOM     49  N   UNL A   1      45.802  29.260  29.311  1.00  0.00    -0.354 N 
ATOM     50  N   UNL A   1      45.124  26.541  28.440  1.00  0.00    -0.248 NA
ATOM     51  C   UNL A   1      45.776  24.435  27.664  1.00  0.00     0.031 C 
ATOM     52  C   UNL A   1      47.944  29.748  29.645  1.00  0.00     0.029 A 
ATOM     53  C   UNL A   1      47.085  28.748  29.219  1.00  0.00     0.049 A 
ATOM     54  H   UNL A   1      44.980  28.773  29.075  1.00  0.00     0.167 HD
ATOM     55  C   UNL A   1      46.512  26.470  28.423  1.00  0.00     0.074 A 
ATOM     56  C   UNL A   1      46.858  25.142  27.960  1.00  0.00     0.031 C 
ATOM     57  C   UNL A   1      47.415  27.426  28.749  1.00  0.00     0.037 A 
BRANCH  44  58
ATOM     58  C   UNL A   1      44.925  32.800  30.503  1.00  0.00     0.058 A 
ATOM     59  C   UNL A   1      45.058  33.890  29.629  1.00  0.00     0.135 A 
ATOM     60  C   UNL A   1      44.965  33.060  31.883  1.00  0.00     0.135 A 
ATOM     61  F   UNL A   1      45.042  33.698  28.301  1.00  0.00    -0.206 F 
ATOM     62  C   UNL A   1      45.246  35.184  30.104  1.00  0.00     0.059 A 
ATOM     63  C   UNL A   1      45.127  34.350  32.381  1.00  0.00     0.059 A 
ATOM     64  F   UNL A   1      44.841  32.054  32.764  1.00  0.00    -0.206 F 
ATOM     65  C   UNL A   1      45.280  35.404  31.483  1.00  0.00     0.060 A 
BRANCH  65  66
ATOM     66  S   UNL A   1      45.521  37.090  32.082  1.00  0.00     0.124 S 
ATOM     67  O   UNL A   1      46.143  37.725  30.924  1.00  0.00    -0.237 OA
ATOM     68  O   UNL A   1      44.157  37.514  32.380  1.00  0.00    -0.237 OA
ATOM     69  O   UNL A   1      46.390  36.920  33.244  1.00  0.00    -0.744 OA
ENDBRANCH  65  66
ENDBRANCH  44  58
BRANCH  45  70
ATOM     70  C   UNL A   1      43.005  23.524  27.331  1.00  0.00     0.058 A 
ATOM     71  C   UNL A   1      43.098  23.171  25.977  1.00  0.00     0.135 A 
ATOM     72  C   UNL A   1      42.665  22.515  28.248  1.00  0.00     0.135 A 
ATOM     73  F   UNL A   1      43.402  24.102  25.061  1.00  0.00    -0.206 F 
ATOM     74  C   UNL A   1      42.872  21.866  25.547  1.00  0.00     0.059 A 
ATOM     75  C   UNL A   1      42.462  21.198  27.845  1.00  0.00     0.059 A 
ATOM     76  F   UNL A   1      42.569  22.799  29.555  1.00  0.00    -0.206 F 
ATOM     77  C   UNL A   1      42.564  20.885  26.491  1.00  0.00     0.060 A 
BRANCH  77  78
ATOM     78  S   UNL A   1      42.344  19.181  25.933  1.00  0.00     0.124 S 
ATOM     79  O   UNL A   1      40.903  19.125  25.719  1.00  0.00    -0.237 OA
ATOM     80  O   UNL A   1      43.170  19.145  24.728  1.00  0.00    -0.237 OA
ATOM     81  O   UNL A   1      42.849  18.393  27.052  1.00  0.00    -0.744 OA
ENDBRANCH  77  78
ENDBRANCH  45  70
BRANCH  57  82
ATOM     82  C   UNL A   1      48.870  27.088  28.601  1.00  0.00     0.058 A 
ATOM     83  C   UNL A   1      49.592  27.487  27.467  1.00  0.00     0.135 A 
ATOM     84  C   UNL A   1      49.570  26.451  29.638  1.00  0.00     0.135 A 
ATOM     85  F   UNL A   1      48.966  28.089  26.444  1.00  0.00    -0.206 F 
ATOM     86  C   UNL A   1      50.962  27.271  27.367  1.00  0.00     0.059 A 
ATOM     87  C   UNL A   1      50.944  26.243  29.569  1.00  0.00     0.059 A 
ATOM     88  F   UNL A   1      48.923  26.055  30.746  1.00  0.00    -0.206 F 
ATOM     89  C   UNL A   1      51.631  26.658  28.429  1.00  0.00     0.060 A 
BRANCH  89  90
ATOM     90  S   UNL A   1      53.422  26.456  28.314  1.00  0.00     0.124 S 
ATOM     91  O   UNL A   1      53.840  27.778  27.861  1.00  0.00    -0.237 OA
ATOM     92  O   UNL A   1      53.785  26.112  29.686  1.00  0.00    -0.237 OA
ATOM     93  O   UNL A   1      53.583  25.380  27.341  1.00  0.00    -0.744 OA
ENDBRANCH  89  90
ENDBRANCH  57  82
ENDBRANCH  31  32
ENDBRANCH  24  26
ENDBRANCH  23  24
ENDBRANCH   1  23
TORSDOF 15
ENDMDL
