MODEL 1
REMARK VINA RESULT:     -14.5      0.000      0.000
REMARK SMILES Cc1ccc(C)c(S(=O)(=O)N[C@H](CC2=c3ccccc3=NC2)C(=O)OCCOC(=O)c2ccc(-c3c4nc(c(-c5c(F)cc(S(=O)(=O)[O-])cc5F)c5ccc([nH]5)c(-c5c(F)cc(S(=O)(=O)[O-])cc5F)c5nc(c(-c6c(F)cc(S(=O)(=O)[O-])cc6F)c6ccc3[nH]6)C=C5)C=C4)cc2)c1
REMARK SMILES IDX 26 1 25 2 23 3 24 4 12 5 11 6 8 8 9 9 10 10 7 11 1 12 2 13
REMARK SMILES IDX 3 14 97 15 4 16 5 17 6 18 13 19 14 20 15 21 22 22 16 23
REMARK SMILES IDX 20 24 21 25 17 26 19 27 18 28 27 29 28 30 29 31 30 32 31 33
REMARK SMILES IDX 32 34 96 35 33 36 95 37 34 38 35 39 36 40 89 41 37 42 94 43
REMARK SMILES IDX 88 44 90 45 38 46 93 47 87 48 86 49 39 51 73 52 52 53 72 54
REMARK SMILES IDX 53 55 56 56 71 57 91 58 54 59 55 60 70 62 92 63 57 64 40 65
REMARK SMILES IDX 41 66 50 67 42 68 43 69 49 70 51 71 44 72 45 73 46 74 47 75
REMARK SMILES IDX 48 76 74 77 75 78 84 79 76 80 77 81 83 82 85 83 78 84 79 85
REMARK SMILES IDX 80 86 81 87 82 88 58 89 59 90 68 91 60 92 61 93 67 94 69 95
REMARK SMILES IDX 62 96 63 97 64 98 65 99 66 100
REMARK H PARENT 11 7 90 50 56 61
REMARK Flexibility Score: inf
ROOT
ATOM      1  C   UNL A   1      37.783  22.333  25.537  1.00  0.00     0.274 C 
ENDROOT
BRANCH   1   2
ATOM      2  O   UNL A   1      36.820  22.016  24.528  1.00  0.00    -0.461 OA
BRANCH   2   3
ATOM      3  C   UNL A   1      36.035  23.132  24.016  1.00  0.00     0.324 C 
ATOM      4  O   UNL A   1      36.200  23.057  22.770  1.00  0.00    -0.250 OA
BRANCH   3   5
ATOM      5  C   UNL A   1      34.813  24.441  25.300  1.00  0.00     0.183 C 
BRANCH   5   6
ATOM      6  N   UNL A   1      33.663  24.160  26.504  1.00  0.00    -0.197 NA
ATOM      7  H   UNL A   1      34.118  24.441  27.372  1.00  0.00     0.142 HD
BRANCH   6   8
ATOM      8  S   UNL A   1      32.884  22.655  26.875  1.00  0.00     0.241 S 
ATOM      9  O   UNL A   1      31.524  22.958  27.258  1.00  0.00    -0.207 OA
ATOM     10  O   UNL A   1      33.800  22.027  27.810  1.00  0.00    -0.207 OA
BRANCH   8  11
ATOM     11  C   UNL A   1      32.707  21.367  25.575  1.00  0.00     0.085 A 
ATOM     12  C   UNL A   1      33.375  17.649  24.797  1.00  0.00     0.044 C 
ATOM     13  C   UNL A   1      32.969  19.092  24.669  1.00  0.00    -0.050 A 
ATOM     14  C   UNL A   1      32.523  19.511  23.413  1.00  0.00     0.004 A 
ATOM     15  C   UNL A   1      33.025  20.013  25.754  1.00  0.00     0.025 A 
ATOM     16  C   UNL A   1      32.132  20.826  23.232  1.00  0.00     0.005 A 
ATOM     17  C   UNL A   1      32.208  21.761  24.291  1.00  0.00    -0.031 A 
ATOM     18  C   UNL A   1      31.700  23.134  23.918  1.00  0.00     0.046 C 
ENDBRANCH   8  11
ENDBRANCH   6   8
ENDBRANCH   5   6
BRANCH   5  19
ATOM     19  C   UNL A   1      34.134  26.182  24.968  1.00  0.00     0.065 C 
BRANCH  19  20
ATOM     20  C   UNL A   1      33.232  27.137  25.795  1.00  0.00    -0.037 C 
ATOM     21  C   UNL A   1      33.569  28.187  26.562  1.00  0.00     0.001 A 
ATOM     22  C   UNL A   1      31.730  27.115  25.629  1.00  0.00     0.174 C 
ATOM     23  C   UNL A   1      34.759  28.720  27.151  1.00  0.00     0.010 A 
ATOM     24  C   UNL A   1      32.347  29.027  26.475  1.00  0.00     0.065 A 
ATOM     25  N   UNL A   1      31.283  28.492  25.960  1.00  0.00    -0.280 NA
ATOM     26  C   UNL A   1      34.769  29.994  27.585  1.00  0.00     0.001 A 
ATOM     27  C   UNL A   1      32.483  30.456  26.842  1.00  0.00     0.028 A 
ATOM     28  C   UNL A   1      33.644  30.885  27.361  1.00  0.00     0.002 A 
ENDBRANCH  19  20
ENDBRANCH   5  19
ENDBRANCH   3   5
ENDBRANCH   2   3
ENDBRANCH   1   2
BRANCH   1  29
ATOM     29  C   UNL A   1      38.768  21.171  25.767  1.00  0.00     0.275 C 
BRANCH  29  30
ATOM     30  O   UNL A   1      40.182  21.491  25.977  1.00  0.00    -0.458 OA
BRANCH  30  31
ATOM     31  C   UNL A   1      40.775  21.950  27.113  1.00  0.00     0.338 C 
ATOM     32  O   UNL A   1      40.565  21.505  28.233  1.00  0.00    -0.246 OA
BRANCH  31  33
ATOM     33  C   UNL A   1      41.516  23.201  26.960  1.00  0.00     0.060 A 
ATOM     34  C   UNL A   1      42.871  23.528  28.124  1.00  0.00     0.016 A 
ATOM     35  C   UNL A   1      40.606  24.597  26.268  1.00  0.00     0.016 A 
ATOM     36  C   UNL A   1      43.137  25.243  28.684  1.00  0.00     0.010 A 
ATOM     37  C   UNL A   1      40.985  26.295  26.756  1.00  0.00     0.010 A 
ATOM     38  C   UNL A   1      42.086  26.585  28.118  1.00  0.00    -0.014 A 
BRANCH  38  39
ATOM     39  C   UNL A   1      41.565  27.799  29.009  1.00  0.00     0.031 A 
ATOM     40  C   UNL A   1      42.423  28.893  28.529  1.00  0.00     0.074 A 
ATOM     41  C   UNL A   1      40.508  28.163  29.859  1.00  0.00     0.049 A 
ATOM     42  N   UNL A   1      43.672  28.983  28.851  1.00  0.00    -0.248 NA
ATOM     43  C   UNL A   1      42.074  29.629  27.302  1.00  0.00     0.031 C 
ATOM     44  C   UNL A   1      39.335  27.411  30.359  1.00  0.00     0.029 A 
ATOM     45  N   UNL A   1      40.250  29.411  30.506  1.00  0.00    -0.354 N 
ATOM     46  C   UNL A   1      44.114  30.075  28.139  1.00  0.00     0.074 A 
ATOM     47  C   UNL A   1      43.277  30.113  26.973  1.00  0.00     0.031 C 
ATOM     48  C   UNL A   1      38.437  28.217  31.012  1.00  0.00     0.029 A 
ATOM     49  C   UNL A   1      38.954  29.577  31.132  1.00  0.00     0.049 A 
ATOM     50  H   UNL A   1      40.927  30.127  30.528  1.00  0.00     0.167 HD
ATOM     51  C   UNL A   1      44.751  31.086  28.790  1.00  0.00     0.037 A 
ATOM     52  C   UNL A   1      38.446  30.602  31.942  1.00  0.00     0.037 A 
ATOM     53  C   UNL A   1      45.022  30.695  30.164  1.00  0.00     0.049 A 
ATOM     54  C   UNL A   1      39.618  31.323  32.477  1.00  0.00     0.074 A 
ATOM     55  C   UNL A   1      45.714  29.681  30.799  1.00  0.00     0.029 A 
ATOM     56  N   UNL A   1      44.110  31.164  31.073  1.00  0.00    -0.354 N 
ATOM     57  N   UNL A   1      40.460  30.809  33.322  1.00  0.00    -0.248 NA
ATOM     58  C   UNL A   1      40.093  32.430  31.675  1.00  0.00     0.031 C 
ATOM     59  C   UNL A   1      44.960  29.365  31.970  1.00  0.00     0.029 A 
ATOM     60  C   UNL A   1      43.909  30.270  32.088  1.00  0.00     0.049 A 
ATOM     61  H   UNL A   1      43.656  32.034  31.004  1.00  0.00     0.167 HD
ATOM     62  C   UNL A   1      41.689  31.148  32.789  1.00  0.00     0.074 A 
ATOM     63  C   UNL A   1      41.397  32.200  31.807  1.00  0.00     0.031 C 
ATOM     64  C   UNL A   1      42.753  30.310  32.957  1.00  0.00     0.037 A 
BRANCH  51  65
ATOM     65  C   UNL A   1      44.678  32.545  28.384  1.00  0.00     0.058 A 
ATOM     66  C   UNL A   1      45.864  33.174  27.953  1.00  0.00     0.135 A 
ATOM     67  C   UNL A   1      43.580  33.414  28.593  1.00  0.00     0.135 A 
ATOM     68  F   UNL A   1      46.980  32.458  27.750  1.00  0.00    -0.206 F 
ATOM     69  C   UNL A   1      45.957  34.555  27.774  1.00  0.00     0.059 A 
ATOM     70  C   UNL A   1      43.637  34.784  28.371  1.00  0.00     0.059 A 
ATOM     71  F   UNL A   1      42.414  33.010  29.106  1.00  0.00    -0.206 F 
ATOM     72  C   UNL A   1      44.835  35.350  27.980  1.00  0.00     0.060 A 
BRANCH  72  73
ATOM     73  S   UNL A   1      44.957  37.129  27.754  1.00  0.00     0.124 S 
ATOM     74  O   UNL A   1      46.143  37.237  26.912  1.00  0.00    -0.237 OA
ATOM     75  O   UNL A   1      43.683  37.432  27.110  1.00  0.00    -0.237 OA
ATOM     76  O   UNL A   1      45.100  37.633  29.116  1.00  0.00    -0.744 OA
ENDBRANCH  72  73
ENDBRANCH  51  65
BRANCH  52  77
ATOM     77  C   UNL A   1      37.115  31.394  31.993  1.00  0.00     0.058 A 
ATOM     78  C   UNL A   1      36.588  31.991  33.190  1.00  0.00     0.135 A 
ATOM     79  C   UNL A   1      36.529  31.881  30.819  1.00  0.00     0.135 A 
ATOM     80  F   UNL A   1      37.049  31.613  34.395  1.00  0.00    -0.206 F 
ATOM     81  C   UNL A   1      35.630  33.041  33.199  1.00  0.00     0.059 A 
ATOM     82  C   UNL A   1      35.578  32.925  30.803  1.00  0.00     0.059 A 
ATOM     83  F   UNL A   1      36.929  31.406  29.633  1.00  0.00    -0.206 F 
ATOM     84  C   UNL A   1      35.154  33.528  31.987  1.00  0.00     0.060 A 
BRANCH  84  85
ATOM     85  S   UNL A   1      34.082  35.007  31.931  1.00  0.00     0.124 S 
ATOM     86  O   UNL A   1      32.880  34.555  32.625  1.00  0.00    -0.237 OA
ATOM     87  O   UNL A   1      34.878  36.007  32.634  1.00  0.00    -0.237 OA
ATOM     88  O   UNL A   1      33.916  35.245  30.499  1.00  0.00    -0.744 OA
ENDBRANCH  84  85
ENDBRANCH  52  77
BRANCH  64  89
ATOM     89  C   UNL A   1      42.676  29.276  34.059  1.00  0.00     0.058 A 
ATOM     90  C   UNL A   1      42.946  29.494  35.425  1.00  0.00     0.135 A 
ATOM     91  C   UNL A   1      42.175  28.014  33.707  1.00  0.00     0.135 A 
ATOM     92  F   UNL A   1      43.368  30.688  35.862  1.00  0.00    -0.206 F 
ATOM     93  C   UNL A   1      42.739  28.495  36.386  1.00  0.00     0.059 A 
ATOM     94  C   UNL A   1      41.934  27.018  34.647  1.00  0.00     0.059 A 
ATOM     95  F   UNL A   1      41.867  27.751  32.427  1.00  0.00    -0.206 F 
ATOM     96  C   UNL A   1      42.228  27.259  35.986  1.00  0.00     0.060 A 
BRANCH  96  97
ATOM     97  S   UNL A   1      41.921  25.973  37.219  1.00  0.00     0.124 S 
ATOM     98  O   UNL A   1      42.241  24.756  36.481  1.00  0.00    -0.237 OA
ATOM     99  O   UNL A   1      42.850  26.331  38.287  1.00  0.00    -0.237 OA
ATOM    100  O   UNL A   1      40.509  26.146  37.550  1.00  0.00    -0.744 OA
ENDBRANCH  96  97
ENDBRANCH  64  89
ENDBRANCH  38  39
ENDBRANCH  31  33
ENDBRANCH  30  31
ENDBRANCH  29  30
ENDBRANCH   1  29
TORSDOF 19
ENDMDL
MODEL 2
REMARK VINA RESULT:     -14.0      3.068      9.443
REMARK SMILES Cc1ccc(C)c(S(=O)(=O)N[C@H](CC2=c3ccccc3=NC2)C(=O)OCCOC(=O)c2ccc(-c3c4nc(c(-c5c(F)cc(S(=O)(=O)[O-])cc5F)c5ccc([nH]5)c(-c5c(F)cc(S(=O)(=O)[O-])cc5F)c5nc(c(-c6c(F)cc(S(=O)(=O)[O-])cc6F)c6ccc3[nH]6)C=C5)C=C4)cc2)c1
REMARK SMILES IDX 26 1 25 2 23 3 24 4 12 5 11 6 8 8 9 9 10 10 7 11 1 12 2 13
REMARK SMILES IDX 3 14 97 15 4 16 5 17 6 18 13 19 14 20 15 21 22 22 16 23
REMARK SMILES IDX 20 24 21 25 17 26 19 27 18 28 27 29 28 30 29 31 30 32 31 33
REMARK SMILES IDX 32 34 96 35 33 36 95 37 34 38 35 39 36 40 89 41 37 42 94 43
REMARK SMILES IDX 88 44 90 45 38 46 93 47 87 48 86 49 39 51 73 52 52 53 72 54
REMARK SMILES IDX 53 55 56 56 71 57 91 58 54 59 55 60 70 62 92 63 57 64 40 65
REMARK SMILES IDX 41 66 50 67 42 68 43 69 49 70 51 71 44 72 45 73 46 74 47 75
REMARK SMILES IDX 48 76 74 77 75 78 84 79 76 80 77 81 83 82 85 83 78 84 79 85
REMARK SMILES IDX 80 86 81 87 82 88 58 89 59 90 68 91 60 92 61 93 67 94 69 95
REMARK SMILES IDX 62 96 63 97 64 98 65 99 66 100
REMARK H PARENT 11 7 90 50 56 61
REMARK Flexibility Score: inf
ROOT
ATOM      1  C   UNL A   1      35.336  31.402  27.656  1.00  0.00     0.274 C 
ENDROOT
BRANCH   1   2
ATOM      2  O   UNL A   1      34.244  30.699  27.054  1.00  0.00    -0.461 OA
BRANCH   2   3
ATOM      3  C   UNL A   1      34.388  29.252  26.957  1.00  0.00     0.324 C 
ATOM      4  O   UNL A   1      35.379  29.007  27.695  1.00  0.00    -0.250 OA
BRANCH   3   5
ATOM      5  C   UNL A   1      32.997  27.971  25.826  1.00  0.00     0.183 C 
BRANCH   5   6
ATOM      6  N   UNL A   1      32.237  28.107  24.325  1.00  0.00    -0.197 NA
ATOM      7  H   UNL A   1      31.251  27.927  24.512  1.00  0.00     0.142 HD
BRANCH   6   8
ATOM      8  S   UNL A   1      32.589  27.202  22.888  1.00  0.00     0.241 S 
ATOM      9  O   UNL A   1      33.764  27.791  22.287  1.00  0.00    -0.207 OA
ATOM     10  O   UNL A   1      31.320  27.186  22.183  1.00  0.00    -0.207 OA
BRANCH   8  11
ATOM     11  C   UNL A   1      32.995  25.412  23.005  1.00  0.00     0.085 A 
ATOM     12  C   UNL A   1      35.926  22.906  23.067  1.00  0.00     0.044 C 
ATOM     13  C   UNL A   1      34.543  23.498  23.060  1.00  0.00    -0.050 A 
ATOM     14  C   UNL A   1      33.474  22.598  23.027  1.00  0.00     0.004 A 
ATOM     15  C   UNL A   1      34.298  24.900  23.085  1.00  0.00     0.025 A 
ATOM     16  C   UNL A   1      32.176  23.080  23.023  1.00  0.00     0.005 A 
ATOM     17  C   UNL A   1      31.915  24.470  23.019  1.00  0.00    -0.031 A 
ATOM     18  C   UNL A   1      30.444  24.807  23.057  1.00  0.00     0.046 C 
ENDBRANCH   8  11
ENDBRANCH   6   8
ENDBRANCH   5   6
BRANCH   5  19
ATOM     19  C   UNL A   1      31.689  26.745  26.449  1.00  0.00     0.065 C 
BRANCH  19  20
ATOM     20  C   UNL A   1      31.620  25.194  26.463  1.00  0.00    -0.037 C 
ATOM     21  C   UNL A   1      32.612  24.291  26.519  1.00  0.00     0.001 A 
ATOM     22  C   UNL A   1      30.300  24.483  26.654  1.00  0.00     0.174 C 
ATOM     23  C   UNL A   1      34.032  24.275  26.342  1.00  0.00     0.010 A 
ATOM     24  C   UNL A   1      31.937  23.145  27.181  1.00  0.00     0.065 A 
ATOM     25  N   UNL A   1      30.646  23.189  27.294  1.00  0.00    -0.280 NA
ATOM     26  C   UNL A   1      34.746  23.236  26.814  1.00  0.00     0.001 A 
ATOM     27  C   UNL A   1      32.806  22.114  27.797  1.00  0.00     0.028 A 
ATOM     28  C   UNL A   1      34.133  22.187  27.609  1.00  0.00     0.002 A 
ENDBRANCH  19  20
ENDBRANCH   5  19
ENDBRANCH   3   5
ENDBRANCH   2   3
ENDBRANCH   1   2
BRANCH   1  29
ATOM     29  C   UNL A   1      34.889  32.760  28.228  1.00  0.00     0.275 C 
BRANCH  29  30
ATOM     30  O   UNL A   1      35.583  33.276  29.412  1.00  0.00    -0.458 OA
BRANCH  30  31
ATOM     31  C   UNL A   1      35.200  33.175  30.714  1.00  0.00     0.338 C 
ATOM     32  O   UNL A   1      34.236  33.748  31.200  1.00  0.00    -0.246 OA
BRANCH  31  33
ATOM     33  C   UNL A   1      36.167  32.519  31.592  1.00  0.00     0.060 A 
ATOM     34  C   UNL A   1      37.805  33.284  31.766  1.00  0.00     0.016 A 
ATOM     35  C   UNL A   1      36.021  30.728  31.756  1.00  0.00     0.016 A 
ATOM     36  C   UNL A   1      39.259  32.194  31.919  1.00  0.00     0.010 A 
ATOM     37  C   UNL A   1      37.475  29.692  32.034  1.00  0.00     0.010 A 
ATOM     38  C   UNL A   1      39.094  30.406  31.889  1.00  0.00    -0.014 A 
BRANCH  38  39
ATOM     39  C   UNL A   1      40.089  29.391  31.168  1.00  0.00     0.031 A 
ATOM     40  C   UNL A   1      40.898  28.929  32.306  1.00  0.00     0.074 A 
ATOM     41  C   UNL A   1      40.272  28.707  29.955  1.00  0.00     0.049 A 
ATOM     42  N   UNL A   1      41.800  29.672  32.860  1.00  0.00    -0.248 NA
ATOM     43  C   UNL A   1      40.407  27.847  33.177  1.00  0.00     0.031 C 
ATOM     44  C   UNL A   1      39.516  28.726  28.683  1.00  0.00     0.029 A 
ATOM     45  N   UNL A   1      41.277  27.759  29.589  1.00  0.00    -0.354 N 
ATOM     46  C   UNL A   1      42.249  28.909  33.914  1.00  0.00     0.074 A 
ATOM     47  C   UNL A   1      41.124  28.095  34.280  1.00  0.00     0.031 C 
ATOM     48  C   UNL A   1      39.926  27.745  27.816  1.00  0.00     0.029 A 
ATOM     49  C   UNL A   1      41.081  27.030  28.352  1.00  0.00     0.049 A 
ATOM     50  H   UNL A   1      42.071  27.609  30.153  1.00  0.00     0.167 HD
ATOM     51  C   UNL A   1      43.582  28.668  34.046  1.00  0.00     0.037 A 
ATOM     52  C   UNL A   1      41.921  26.149  27.658  1.00  0.00     0.037 A 
ATOM     53  C   UNL A   1      44.327  29.476  33.094  1.00  0.00     0.049 A 
ATOM     54  C   UNL A   1      43.289  26.415  28.144  1.00  0.00     0.074 A 
ATOM     55  C   UNL A   1      44.470  30.822  32.819  1.00  0.00     0.029 A 
ATOM     56  N   UNL A   1      44.684  28.811  31.951  1.00  0.00    -0.354 N 
ATOM     57  N   UNL A   1      43.937  27.518  27.916  1.00  0.00    -0.248 NA
ATOM     58  C   UNL A   1      43.709  25.637  29.290  1.00  0.00     0.031 C 
ATOM     59  C   UNL A   1      44.601  30.922  31.401  1.00  0.00     0.029 A 
ATOM     60  C   UNL A   1      44.664  29.639  30.863  1.00  0.00     0.049 A 
ATOM     61  H   UNL A   1      44.924  27.857  31.917  1.00  0.00     0.167 HD
ATOM     62  C   UNL A   1      44.456  27.841  29.156  1.00  0.00     0.074 A 
ATOM     63  C   UNL A   1      44.334  26.611  29.949  1.00  0.00     0.031 C 
ATOM     64  C   UNL A   1      44.614  29.151  29.501  1.00  0.00     0.037 A 
BRANCH  51  65
ATOM     65  C   UNL A   1      44.167  27.398  34.634  1.00  0.00     0.058 A 
ATOM     66  C   UNL A   1      45.011  27.515  35.757  1.00  0.00     0.135 A 
ATOM     67  C   UNL A   1      44.128  26.112  34.043  1.00  0.00     0.135 A 
ATOM     68  F   UNL A   1      45.153  28.693  36.383  1.00  0.00    -0.206 F 
ATOM     69  C   UNL A   1      45.774  26.449  36.234  1.00  0.00     0.059 A 
ATOM     70  C   UNL A   1      44.839  25.025  34.533  1.00  0.00     0.059 A 
ATOM     71  F   UNL A   1      43.472  25.847  32.910  1.00  0.00    -0.206 F 
ATOM     72  C   UNL A   1      45.676  25.206  35.617  1.00  0.00     0.060 A 
BRANCH  72  73
ATOM     73  S   UNL A   1      46.664  23.834  36.229  1.00  0.00     0.124 S 
ATOM     74  O   UNL A   1      47.515  24.499  37.208  1.00  0.00    -0.237 OA
ATOM     75  O   UNL A   1      45.636  22.949  36.768  1.00  0.00    -0.237 OA
ATOM     76  O   UNL A   1      47.340  23.345  35.031  1.00  0.00    -0.744 OA
ENDBRANCH  72  73
ENDBRANCH  51  65
BRANCH  52  77
ATOM     77  C   UNL A   1      41.730  24.774  26.972  1.00  0.00     0.058 A 
ATOM     78  C   UNL A   1      42.685  24.194  26.066  1.00  0.00     0.135 A 
ATOM     79  C   UNL A   1      40.794  23.855  27.462  1.00  0.00     0.135 A 
ATOM     80  F   UNL A   1      43.639  24.959  25.508  1.00  0.00    -0.206 F 
ATOM     81  C   UNL A   1      42.748  22.808  25.758  1.00  0.00     0.059 A 
ATOM     82  C   UNL A   1      40.839  22.473  27.172  1.00  0.00     0.059 A 
ATOM     83  F   UNL A   1      39.846  24.266  28.314  1.00  0.00    -0.206 F 
ATOM     84  C   UNL A   1      41.833  21.945  26.349  1.00  0.00     0.060 A 
BRANCH  84  85
ATOM     85  S   UNL A   1      41.994  20.135  26.151  1.00  0.00     0.124 S 
ATOM     86  O   UNL A   1      40.699  19.760  25.592  1.00  0.00    -0.237 OA
ATOM     87  O   UNL A   1      43.132  20.011  25.246  1.00  0.00    -0.237 OA
ATOM     88  O   UNL A   1      42.237  19.669  27.515  1.00  0.00    -0.744 OA
ENDBRANCH  84  85
ENDBRANCH  52  77
BRANCH  64  89
ATOM     89  C   UNL A   1      44.627  30.182  28.394  1.00  0.00     0.058 A 
ATOM     90  C   UNL A   1      43.501  30.680  27.708  1.00  0.00     0.135 A 
ATOM     91  C   UNL A   1      45.861  30.783  28.105  1.00  0.00     0.135 A 
ATOM     92  F   UNL A   1      42.273  30.208  27.964  1.00  0.00    -0.206 F 
ATOM     93  C   UNL A   1      43.607  31.717  26.771  1.00  0.00     0.059 A 
ATOM     94  C   UNL A   1      45.985  31.833  27.201  1.00  0.00     0.059 A 
ATOM     95  F   UNL A   1      46.968  30.378  28.747  1.00  0.00    -0.206 F 
ATOM     96  C   UNL A   1      44.856  32.290  26.527  1.00  0.00     0.060 A 
BRANCH  96  97
ATOM     97  S   UNL A   1      45.004  33.653  25.348  1.00  0.00     0.124 S 
ATOM     98  O   UNL A   1      46.444  33.882  25.320  1.00  0.00    -0.237 OA
ATOM     99  O   UNL A   1      44.428  33.083  24.133  1.00  0.00    -0.237 OA
ATOM    100  O   UNL A   1      44.216  34.721  25.959  1.00  0.00    -0.744 OA
ENDBRANCH  96  97
ENDBRANCH  64  89
ENDBRANCH  38  39
ENDBRANCH  31  33
ENDBRANCH  30  31
ENDBRANCH  29  30
ENDBRANCH   1  29
TORSDOF 19
ENDMDL
MODEL 3
REMARK VINA RESULT:     -13.9      1.508      2.862
REMARK SMILES Cc1ccc(C)c(S(=O)(=O)N[C@H](CC2=c3ccccc3=NC2)C(=O)OCCOC(=O)c2ccc(-c3c4nc(c(-c5c(F)cc(S(=O)(=O)[O-])cc5F)c5ccc([nH]5)c(-c5c(F)cc(S(=O)(=O)[O-])cc5F)c5nc(c(-c6c(F)cc(S(=O)(=O)[O-])cc6F)c6ccc3[nH]6)C=C5)C=C4)cc2)c1
REMARK SMILES IDX 26 1 25 2 23 3 24 4 12 5 11 6 8 8 9 9 10 10 7 11 1 12 2 13
REMARK SMILES IDX 3 14 97 15 4 16 5 17 6 18 13 19 14 20 15 21 22 22 16 23
REMARK SMILES IDX 20 24 21 25 17 26 19 27 18 28 27 29 28 30 29 31 30 32 31 33
REMARK SMILES IDX 32 34 96 35 33 36 95 37 34 38 35 39 36 40 89 41 37 42 94 43
REMARK SMILES IDX 88 44 90 45 38 46 93 47 87 48 86 49 39 51 73 52 52 53 72 54
REMARK SMILES IDX 53 55 56 56 71 57 91 58 54 59 55 60 70 62 92 63 57 64 40 65
REMARK SMILES IDX 41 66 50 67 42 68 43 69 49 70 51 71 44 72 45 73 46 74 47 75
REMARK SMILES IDX 48 76 74 77 75 78 84 79 76 80 77 81 83 82 85 83 78 84 79 85
REMARK SMILES IDX 80 86 81 87 82 88 58 89 59 90 68 91 60 92 61 93 67 94 69 95
REMARK SMILES IDX 62 96 63 97 64 98 65 99 66 100
REMARK H PARENT 11 7 90 50 56 61
REMARK Flexibility Score: inf
ROOT
ATOM      1  C   UNL A   1      37.145  21.458  24.751  1.00  0.00     0.274 C 
ENDROOT
BRANCH   1   2
ATOM      2  O   UNL A   1      36.048  20.633  25.158  1.00  0.00    -0.461 OA
BRANCH   2   3
ATOM      3  C   UNL A   1      34.726  21.059  24.718  1.00  0.00     0.324 C 
ATOM      4  O   UNL A   1      34.087  19.977  24.626  1.00  0.00    -0.250 OA
BRANCH   3   5
ATOM      5  C   UNL A   1      34.159  23.172  24.460  1.00  0.00     0.183 C 
BRANCH   5   6
ATOM      6  N   UNL A   1      34.101  24.217  23.134  1.00  0.00    -0.197 NA
ATOM      7  H   UNL A   1      34.463  25.104  23.483  1.00  0.00     0.142 HD
BRANCH   6   8
ATOM      8  S   UNL A   1      32.706  24.641  22.197  1.00  0.00     0.241 S 
ATOM      9  O   UNL A   1      31.727  23.594  22.384  1.00  0.00    -0.207 OA
ATOM     10  O   UNL A   1      33.258  24.920  20.883  1.00  0.00    -0.207 OA
BRANCH   8  11
ATOM     11  C   UNL A   1      31.783  26.188  22.570  1.00  0.00     0.085 A 
ATOM     12  C   UNL A   1      28.309  27.559  23.531  1.00  0.00     0.044 C 
ATOM     13  C   UNL A   1      29.763  27.468  23.154  1.00  0.00    -0.050 A 
ATOM     14  C   UNL A   1      30.439  28.676  22.963  1.00  0.00     0.004 A 
ATOM     15  C   UNL A   1      30.447  26.230  22.992  1.00  0.00     0.025 A 
ATOM     16  C   UNL A   1      31.780  28.659  22.619  1.00  0.00     0.005 A 
ATOM     17  C   UNL A   1      32.468  27.439  22.426  1.00  0.00    -0.031 A 
ATOM     18  C   UNL A   1      33.931  27.618  22.095  1.00  0.00     0.046 C 
ENDBRANCH   8  11
ENDBRANCH   6   8
ENDBRANCH   5   6
BRANCH   5  19
ATOM     19  C   UNL A   1      34.274  24.622  25.679  1.00  0.00     0.065 C 
BRANCH  19  20
ATOM     20  C   UNL A   1      33.209  25.567  26.297  1.00  0.00    -0.037 C 
ATOM     21  C   UNL A   1      33.243  26.898  26.474  1.00  0.00     0.001 A 
ATOM     22  C   UNL A   1      31.812  25.071  26.587  1.00  0.00     0.174 C 
ATOM     23  C   UNL A   1      34.225  27.938  26.450  1.00  0.00     0.010 A 
ATOM     24  C   UNL A   1      31.799  27.244  26.424  1.00  0.00     0.065 A 
ATOM     25  N   UNL A   1      30.944  26.270  26.478  1.00  0.00    -0.280 NA
ATOM     26  C   UNL A   1      33.828  29.220  26.341  1.00  0.00     0.001 A 
ATOM     27  C   UNL A   1      31.453  28.661  26.161  1.00  0.00     0.028 A 
ATOM     28  C   UNL A   1      32.437  29.573  26.123  1.00  0.00     0.002 A 
ENDBRANCH  19  20
ENDBRANCH   5  19
ENDBRANCH   3   5
ENDBRANCH   2   3
ENDBRANCH   1   2
BRANCH   1  29
ATOM     29  C   UNL A   1      38.424  21.135  25.547  1.00  0.00     0.275 C 
BRANCH  29  30
ATOM     30  O   UNL A   1      39.054  22.212  26.315  1.00  0.00    -0.458 OA
BRANCH  30  31
ATOM     31  C   UNL A   1      40.231  22.173  26.996  1.00  0.00     0.338 C 
ATOM     32  O   UNL A   1      40.539  21.306  27.801  1.00  0.00    -0.246 OA
BRANCH  31  33
ATOM     33  C   UNL A   1      41.039  23.388  26.900  1.00  0.00     0.060 A 
ATOM     34  C   UNL A   1      42.383  23.606  28.102  1.00  0.00     0.016 A 
ATOM     35  C   UNL A   1      40.217  24.852  26.237  1.00  0.00     0.016 A 
ATOM     36  C   UNL A   1      42.725  25.286  28.725  1.00  0.00     0.010 A 
ATOM     37  C   UNL A   1      40.673  26.511  26.789  1.00  0.00     0.010 A 
ATOM     38  C   UNL A   1      41.757  26.698  28.182  1.00  0.00    -0.014 A 
BRANCH  38  39
ATOM     39  C   UNL A   1      41.279  27.909  29.103  1.00  0.00     0.031 A 
ATOM     40  C   UNL A   1      42.180  28.981  28.652  1.00  0.00     0.074 A 
ATOM     41  C   UNL A   1      40.234  28.291  29.959  1.00  0.00     0.049 A 
ATOM     42  N   UNL A   1      43.431  29.016  28.978  1.00  0.00    -0.248 NA
ATOM     43  C   UNL A   1      41.862  29.760  27.443  1.00  0.00     0.031 C 
ATOM     44  C   UNL A   1      39.033  27.572  30.439  1.00  0.00     0.029 A 
ATOM     45  N   UNL A   1      40.023  29.531  30.638  1.00  0.00    -0.354 N 
ATOM     46  C   UNL A   1      43.915  30.108  28.295  1.00  0.00     0.074 A 
ATOM     47  C   UNL A   1      43.084  30.207  27.129  1.00  0.00     0.031 C 
ATOM     48  C   UNL A   1      38.164  28.395  31.109  1.00  0.00     0.029 A 
ATOM     49  C   UNL A   1      38.731  29.731  31.265  1.00  0.00     0.049 A 
ATOM     50  H   UNL A   1      40.725  30.220  30.679  1.00  0.00     0.167 HD
ATOM     51  C   UNL A   1      44.588  31.078  28.973  1.00  0.00     0.037 A 
ATOM     52  C   UNL A   1      38.261  30.753  32.099  1.00  0.00     0.037 A 
ATOM     53  C   UNL A   1      44.840  30.642  30.337  1.00  0.00     0.049 A 
ATOM     54  C   UNL A   1      39.457  31.416  32.655  1.00  0.00     0.074 A 
ATOM     55  C   UNL A   1      45.492  29.587  30.947  1.00  0.00     0.029 A 
ATOM     56  N   UNL A   1      43.945  31.122  31.256  1.00  0.00    -0.354 N 
ATOM     57  N   UNL A   1      40.277  30.849  33.488  1.00  0.00    -0.248 NA
ATOM     58  C   UNL A   1      39.976  32.523  31.882  1.00  0.00     0.031 C 
ATOM     59  C   UNL A   1      44.723  29.270  32.109  1.00  0.00     0.029 A 
ATOM     60  C   UNL A   1      43.706  30.211  32.247  1.00  0.00     0.049 A 
ATOM     61  H   UNL A   1      43.524  32.011  31.208  1.00  0.00     0.167 HD
ATOM     62  C   UNL A   1      41.519  31.155  32.966  1.00  0.00     0.074 A 
ATOM     63  C   UNL A   1      41.271  32.242  32.011  1.00  0.00     0.031 C 
ATOM     64  C   UNL A   1      42.550  30.273  33.115  1.00  0.00     0.037 A 
BRANCH  51  65
ATOM     65  C   UNL A   1      44.572  32.548  28.603  1.00  0.00     0.058 A 
ATOM     66  C   UNL A   1      45.794  33.159  28.258  1.00  0.00     0.135 A 
ATOM     67  C   UNL A   1      43.483  33.438  28.775  1.00  0.00     0.135 A 
ATOM     68  F   UNL A   1      46.903  32.421  28.098  1.00  0.00    -0.206 F 
ATOM     69  C   UNL A   1      45.929  34.541  28.121  1.00  0.00     0.059 A 
ATOM     70  C   UNL A   1      43.584  34.811  28.593  1.00  0.00     0.059 A 
ATOM     71  F   UNL A   1      42.282  33.049  29.210  1.00  0.00    -0.206 F 
ATOM     72  C   UNL A   1      44.815  35.358  28.287  1.00  0.00     0.060 A 
BRANCH  72  73
ATOM     73  S   UNL A   1      44.990  37.139  28.116  1.00  0.00     0.124 S 
ATOM     74  O   UNL A   1      45.451  37.258  26.738  1.00  0.00    -0.237 OA
ATOM     75  O   UNL A   1      43.629  37.595  28.380  1.00  0.00    -0.237 OA
ATOM     76  O   UNL A   1      45.970  37.480  29.142  1.00  0.00    -0.744 OA
ENDBRANCH  72  73
ENDBRANCH  51  65
BRANCH  52  77
ATOM     77  C   UNL A   1      36.961  31.593  32.168  1.00  0.00     0.058 A 
ATOM     78  C   UNL A   1      36.493  32.243  33.363  1.00  0.00     0.135 A 
ATOM     79  C   UNL A   1      36.355  32.067  30.998  1.00  0.00     0.135 A 
ATOM     80  F   UNL A   1      36.979  31.884  34.563  1.00  0.00    -0.206 F 
ATOM     81  C   UNL A   1      35.572  33.326  33.370  1.00  0.00     0.059 A 
ATOM     82  C   UNL A   1      35.441  33.144  30.981  1.00  0.00     0.059 A 
ATOM     83  F   UNL A   1      36.699  31.544  29.815  1.00  0.00    -0.206 F 
ATOM     84  C   UNL A   1      35.076  33.795  32.159  1.00  0.00     0.060 A 
BRANCH  84  85
ATOM     85  S   UNL A   1      34.054  35.309  32.092  1.00  0.00     0.124 S 
ATOM     86  O   UNL A   1      33.968  35.572  30.659  1.00  0.00    -0.237 OA
ATOM     87  O   UNL A   1      32.813  34.887  32.732  1.00  0.00    -0.237 OA
ATOM     88  O   UNL A   1      34.842  36.278  32.852  1.00  0.00    -0.744 OA
ENDBRANCH  84  85
ENDBRANCH  52  77
BRANCH  64  89
ATOM     89  C   UNL A   1      42.431  29.215  34.190  1.00  0.00     0.058 A 
ATOM     90  C   UNL A   1      41.870  27.931  34.035  1.00  0.00     0.135 A 
ATOM     91  C   UNL A   1      43.041  29.494  35.422  1.00  0.00     0.135 A 
ATOM     92  F   UNL A   1      41.321  27.556  32.871  1.00  0.00    -0.206 F 
ATOM     93  C   UNL A   1      41.906  26.981  35.064  1.00  0.00     0.059 A 
ATOM     94  C   UNL A   1      43.114  28.556  36.447  1.00  0.00     0.059 A 
ATOM     95  F   UNL A   1      43.622  30.687  35.624  1.00  0.00    -0.206 F 
ATOM     96  C   UNL A   1      42.535  27.304  36.267  1.00  0.00     0.060 A 
BRANCH  96  97
ATOM     97  S   UNL A   1      42.622  26.076  37.592  1.00  0.00     0.124 S 
ATOM     98  O   UNL A   1      43.166  24.913  36.900  1.00  0.00    -0.237 OA
ATOM     99  O   UNL A   1      43.513  26.715  38.557  1.00  0.00    -0.237 OA
ATOM    100  O   UNL A   1      41.234  25.946  38.031  1.00  0.00    -0.744 OA
ENDBRANCH  96  97
ENDBRANCH  64  89
ENDBRANCH  38  39
ENDBRANCH  31  33
ENDBRANCH  30  31
ENDBRANCH  29  30
ENDBRANCH   1  29
TORSDOF 19
ENDMDL
