MODEL 1
REMARK VINA RESULT:     -13.4      0.000      0.000
REMARK SMILES Cc1c(C(=O)OCCOC(=O)c2ccc(-c3c4nc(c(-c5c(F)cc(S(=O)(=O)[O-])cc5F)c5ccc([nH]5)c(-c5c(F)cc(S(=O)(=O)[O-])cc5F)c5nc(c(-c6c(F)cc(S(=O)(=O)[O-])cc6F)c6ccc3[nH]6)C=C5)C=C4)cc2)cccc1N1[C@@H](C)C=C(/C=C(\C#N)C(=O)NCCc2c[nH]c3ccccc23)[C@@H]1C
REMARK SMILES IDX 6 1 4 2 5 3 3 4 1 5 2 6 81 7 78 8 80 9 79 10 82 11 83 12
REMARK SMILES IDX 105 13 85 14 84 15 86 16 106 17 87 18 88 19 89 20 90 21
REMARK SMILES IDX 91 22 92 23 93 24 94 26 95 27 96 28 97 29 104 30 98 31 99 32
REMARK SMILES IDX 103 33 100 35 102 36 101 37 7 38 8 39 9 40 10 41 11 42 12 43
REMARK SMILES IDX 13 44 77 45 14 46 76 47 15 48 16 49 17 50 70 51 18 52 75 53
REMARK SMILES IDX 69 54 71 55 19 56 74 57 68 58 67 59 20 61 54 62 33 63 53 64
REMARK SMILES IDX 34 65 37 66 52 67 72 68 35 69 36 70 51 72 73 73 38 74 21 75
REMARK SMILES IDX 22 76 31 77 23 78 24 79 30 80 32 81 25 82 26 83 27 84 28 85
REMARK SMILES IDX 29 86 55 87 56 88 65 89 57 90 58 91 64 92 66 93 59 94 60 95
REMARK SMILES IDX 61 96 62 97 63 98 39 99 40 100 49 101 41 102 42 103 48 104
REMARK SMILES IDX 50 105 43 106 44 107 45 108 46 109 47 110
REMARK H PARENT 93 25 98 34 71 60 37 71
REMARK Flexibility Score: inf
ROOT
ATOM      1  O   UNL A   1      40.434  20.217  26.626  1.00  0.00    -0.458 OA
ENDROOT
BRANCH   1   2
ATOM      2  C   UNL A   1      39.139  20.169  25.843  1.00  0.00     0.338 C 
ATOM      3  O   UNL A   1      39.295  19.031  25.312  1.00  0.00    -0.246 OA
BRANCH   2   4
ATOM      4  C   UNL A   1      37.601  21.690  25.731  1.00  0.00     0.065 A 
ATOM      5  C   UNL A   1      35.108  20.547  24.996  1.00  0.00     0.047 C 
ATOM      6  C   UNL A   1      36.026  21.735  25.453  1.00  0.00    -0.013 A 
ATOM      7  C   UNL A   1      35.183  22.977  25.487  1.00  0.00     0.041 A 
ATOM      8  C   UNL A   1      37.826  23.254  25.935  1.00  0.00     0.016 A 
ATOM      9  C   UNL A   1      35.698  24.252  25.694  1.00  0.00     0.026 A 
ATOM     10  C   UNL A   1      37.017  24.402  25.910  1.00  0.00     0.003 A 
BRANCH   7  11
ATOM     11  N   UNL A   1      33.830  22.974  25.203  1.00  0.00    -0.358 N 
ATOM     12  C   UNL A   1      32.898  22.120  25.940  1.00  0.00     0.103 C 
ATOM     13  C   UNL A   1      33.228  23.607  24.032  1.00  0.00     0.110 C 
ATOM     14  C   UNL A   1      31.605  22.677  25.454  1.00  0.00     0.003 C 
ATOM     15  C   UNL A   1      33.005  22.300  27.453  1.00  0.00     0.035 C 
ATOM     16  C   UNL A   1      31.789  23.604  24.500  1.00  0.00    -0.026 C 
ATOM     17  C   UNL A   1      33.433  22.769  22.769  1.00  0.00     0.036 C 
BRANCH  16  18
ATOM     18  C   UNL A   1      30.837  24.563  24.005  1.00  0.00     0.031 C 
ATOM     19  C   UNL A   1      30.389  25.669  24.634  1.00  0.00     0.117 C 
BRANCH  19  20
ATOM     20  C   UNL A   1      30.782  26.045  25.945  1.00  0.00     0.105 C 
ATOM     21  N   UNL A   1      31.146  26.382  26.998  1.00  0.00    -0.192 NA
ENDBRANCH  19  20
BRANCH  19  22
ATOM     22  C   UNL A   1      29.222  26.336  24.001  1.00  0.00     0.261 C 
ATOM     23  O   UNL A   1      28.069  25.978  24.231  1.00  0.00    -0.268 OA
ATOM     24  N   UNL A   1      29.440  27.565  23.456  1.00  0.00    -0.351 N 
ATOM     25  H   UNL A   1      28.944  28.300  23.884  1.00  0.00     0.163 HD
BRANCH  24  26
ATOM     26  C   UNL A   1      30.294  27.976  22.333  1.00  0.00     0.121 C 
BRANCH  26  27
ATOM     27  C   UNL A   1      31.835  27.797  22.499  1.00  0.00     0.059 C 
BRANCH  27  28
ATOM     28  C   UNL A   1      32.568  28.968  23.176  1.00  0.00    -0.021 A 
ATOM     29  C   UNL A   1      33.907  29.243  22.879  1.00  0.00     0.087 A 
ATOM     30  C   UNL A   1      32.611  29.245  24.589  1.00  0.00     0.003 A 
ATOM     31  N   UNL A   1      34.459  28.373  23.836  1.00  0.00    -0.361 N 
ATOM     32  C   UNL A   1      33.746  28.546  24.997  1.00  0.00     0.046 A 
ATOM     33  C   UNL A   1      31.920  29.984  25.563  1.00  0.00     0.010 A 
ATOM     34  H   UNL A   1      35.214  27.755  23.698  1.00  0.00     0.166 HD
ATOM     35  C   UNL A   1      34.016  28.199  26.315  1.00  0.00     0.026 A 
ATOM     36  C   UNL A   1      32.333  29.852  26.902  1.00  0.00     0.001 A 
ATOM     37  C   UNL A   1      33.296  28.907  27.276  1.00  0.00     0.002 A 
ENDBRANCH  27  28
ENDBRANCH  26  27
ENDBRANCH  24  26
ENDBRANCH  19  22
ENDBRANCH  16  18
ENDBRANCH   7  11
ENDBRANCH   2   4
ENDBRANCH   1   2
BRANCH   1  38
ATOM     38  C   UNL A   1      41.507  19.395  26.132  1.00  0.00     0.275 C 
BRANCH  38  39
ATOM     39  C   UNL A   1      42.693  20.283  25.715  1.00  0.00     0.275 C 
BRANCH  39  40
ATOM     40  O   UNL A   1      42.371  21.676  25.473  1.00  0.00    -0.458 OA
BRANCH  40  41
ATOM     41  C   UNL A   1      42.909  22.623  26.289  1.00  0.00     0.338 C 
ATOM     42  O   UNL A   1      44.023  22.617  26.780  1.00  0.00    -0.246 OA
BRANCH  41  43
ATOM     43  C   UNL A   1      42.005  23.781  26.335  1.00  0.00     0.060 A 
ATOM     44  C   UNL A   1      42.420  25.206  25.322  1.00  0.00     0.016 A 
ATOM     45  C   UNL A   1      41.320  24.023  27.970  1.00  0.00     0.016 A 
ATOM     46  C   UNL A   1      42.180  26.922  25.973  1.00  0.00     0.010 A 
ATOM     47  C   UNL A   1      41.073  25.721  28.623  1.00  0.00     0.010 A 
ATOM     48  C   UNL A   1      41.526  27.151  27.620  1.00  0.00    -0.014 A 
BRANCH  48  49
ATOM     49  C   UNL A   1      41.830  28.311  28.429  1.00  0.00     0.031 A 
ATOM     50  C   UNL A   1      40.718  29.252  28.577  1.00  0.00     0.074 A 
ATOM     51  C   UNL A   1      42.969  28.292  29.166  1.00  0.00     0.049 A 
ATOM     52  N   UNL A   1      40.846  30.439  29.025  1.00  0.00    -0.248 NA
ATOM     53  C   UNL A   1      39.342  28.970  28.163  1.00  0.00     0.031 C 
ATOM     54  C   UNL A   1      43.337  29.039  30.365  1.00  0.00     0.029 A 
ATOM     55  N   UNL A   1      44.157  27.640  28.836  1.00  0.00    -0.354 N 
ATOM     56  C   UNL A   1      39.583  30.885  29.354  1.00  0.00     0.074 A 
ATOM     57  C   UNL A   1      38.677  30.005  28.677  1.00  0.00     0.031 C 
ATOM     58  C   UNL A   1      44.680  29.040  30.498  1.00  0.00     0.029 A 
ATOM     59  C   UNL A   1      45.241  28.372  29.336  1.00  0.00     0.049 A 
ATOM     60  H   UNL A   1      44.223  26.797  28.332  1.00  0.00     0.167 HD
ATOM     61  C   UNL A   1      39.501  31.836  30.322  1.00  0.00     0.037 A 
ATOM     62  C   UNL A   1      46.099  28.945  28.434  1.00  0.00     0.037 A 
ATOM     63  C   UNL A   1      40.862  32.243  30.699  1.00  0.00     0.049 A 
ATOM     64  C   UNL A   1      45.841  30.444  28.281  1.00  0.00     0.074 A 
ATOM     65  C   UNL A   1      41.727  31.891  31.721  1.00  0.00     0.029 A 
ATOM     66  N   UNL A   1      41.666  32.770  29.708  1.00  0.00    -0.354 N 
ATOM     67  N   UNL A   1      44.859  31.077  28.872  1.00  0.00    -0.248 NA
ATOM     68  C   UNL A   1      46.639  31.351  27.458  1.00  0.00     0.031 C 
ATOM     69  C   UNL A   1      43.059  32.223  31.309  1.00  0.00     0.029 A 
ATOM     70  C   UNL A   1      43.001  32.779  30.044  1.00  0.00     0.049 A 
ATOM     71  H   UNL A   1      41.321  33.104  28.849  1.00  0.00     0.167 HD
ATOM     72  C   UNL A   1      44.858  32.405  28.539  1.00  0.00     0.074 A 
ATOM     73  C   UNL A   1      45.967  32.512  27.601  1.00  0.00     0.031 C 
ATOM     74  C   UNL A   1      43.951  33.296  29.061  1.00  0.00     0.037 A 
BRANCH  61  75
ATOM     75  C   UNL A   1      38.258  32.209  31.094  1.00  0.00     0.058 A 
ATOM     76  C   UNL A   1      37.737  33.513  30.954  1.00  0.00     0.135 A 
ATOM     77  C   UNL A   1      37.541  31.388  31.994  1.00  0.00     0.135 A 
ATOM     78  F   UNL A   1      38.280  34.398  30.108  1.00  0.00    -0.206 F 
ATOM     79  C   UNL A   1      36.636  33.978  31.668  1.00  0.00     0.059 A 
ATOM     80  C   UNL A   1      36.451  31.842  32.748  1.00  0.00     0.059 A 
ATOM     81  F   UNL A   1      37.823  30.091  32.156  1.00  0.00    -0.206 F 
ATOM     82  C   UNL A   1      36.001  33.140  32.570  1.00  0.00     0.060 A 
BRANCH  82  83
ATOM     83  S   UNL A   1      34.564  33.770  33.449  1.00  0.00     0.124 S 
ATOM     84  O   UNL A   1      34.522  35.161  33.009  1.00  0.00    -0.237 OA
ATOM     85  O   UNL A   1      33.501  32.910  32.940  1.00  0.00    -0.237 OA
ATOM     86  O   UNL A   1      34.908  33.575  34.854  1.00  0.00    -0.744 OA
ENDBRANCH  82  83
ENDBRANCH  61  75
BRANCH  62  87
ATOM     87  C   UNL A   1      46.501  27.940  27.389  1.00  0.00     0.058 A 
ATOM     88  C   UNL A   1      45.941  28.116  26.099  1.00  0.00     0.135 A 
ATOM     89  C   UNL A   1      47.673  27.180  27.459  1.00  0.00     0.135 A 
ATOM     90  F   UNL A   1      44.784  28.786  25.960  1.00  0.00    -0.206 F 
ATOM     91  C   UNL A   1      46.610  27.744  24.932  1.00  0.00     0.059 A 
ATOM     92  C   UNL A   1      48.330  26.736  26.295  1.00  0.00     0.059 A 
ATOM     93  F   UNL A   1      48.288  26.997  28.637  1.00  0.00    -0.206 F 
ATOM     94  C   UNL A   1      47.823  27.077  25.036  1.00  0.00     0.060 A 
BRANCH  94  95
ATOM     95  S   UNL A   1      48.746  26.737  23.512  1.00  0.00     0.124 S 
ATOM     96  O   UNL A   1      50.115  26.629  24.001  1.00  0.00    -0.237 OA
ATOM     97  O   UNL A   1      48.155  25.489  23.041  1.00  0.00    -0.237 OA
ATOM     98  O   UNL A   1      48.469  27.909  22.683  1.00  0.00    -0.744 OA
ENDBRANCH  94  95
ENDBRANCH  62  87
BRANCH  74  99
ATOM     99  C   UNL A   1      43.848  34.763  28.675  1.00  0.00     0.058 A 
ATOM    100  C   UNL A   1      44.029  35.804  29.595  1.00  0.00     0.135 A 
ATOM    101  C   UNL A   1      43.478  35.187  27.368  1.00  0.00     0.135 A 
ATOM    102  F   UNL A   1      44.178  35.554  30.903  1.00  0.00    -0.206 F 
ATOM    103  C   UNL A   1      44.004  37.147  29.216  1.00  0.00     0.059 A 
ATOM    104  C   UNL A   1      43.375  36.514  26.986  1.00  0.00     0.059 A 
ATOM    105  F   UNL A   1      43.207  34.340  26.369  1.00  0.00    -0.206 F 
ATOM    106  C   UNL A   1      43.685  37.492  27.905  1.00  0.00     0.060 A 
BRANCH 106 107
ATOM    107  S   UNL A   1      43.620  39.219  27.426  1.00  0.00     0.124 S 
ATOM    108  O   UNL A   1      42.475  39.238  26.521  1.00  0.00    -0.237 OA
ATOM    109  O   UNL A   1      43.421  39.871  28.717  1.00  0.00    -0.237 OA
ATOM    110  O   UNL A   1      44.915  39.453  26.798  1.00  0.00    -0.744 OA
ENDBRANCH 106 107
ENDBRANCH  74  99
ENDBRANCH  48  49
ENDBRANCH  41  43
ENDBRANCH  40  41
ENDBRANCH  39  40
ENDBRANCH  38  39
ENDBRANCH   1  38
TORSDOF 21
ENDMDL
MODEL 2
REMARK VINA RESULT:     -13.3      1.420      2.118
REMARK SMILES Cc1c(C(=O)OCCOC(=O)c2ccc(-c3c4nc(c(-c5c(F)cc(S(=O)(=O)[O-])cc5F)c5ccc([nH]5)c(-c5c(F)cc(S(=O)(=O)[O-])cc5F)c5nc(c(-c6c(F)cc(S(=O)(=O)[O-])cc6F)c6ccc3[nH]6)C=C5)C=C4)cc2)cccc1N1[C@@H](C)C=C(/C=C(\C#N)C(=O)NCCc2c[nH]c3ccccc23)[C@@H]1C
REMARK SMILES IDX 6 1 4 2 5 3 3 4 1 5 2 6 81 7 78 8 80 9 79 10 82 11 83 12
REMARK SMILES IDX 105 13 85 14 84 15 86 16 106 17 87 18 88 19 89 20 90 21
REMARK SMILES IDX 91 22 92 23 93 24 94 26 95 27 96 28 97 29 104 30 98 31 99 32
REMARK SMILES IDX 103 33 100 35 102 36 101 37 7 38 8 39 9 40 10 41 11 42 12 43
REMARK SMILES IDX 13 44 77 45 14 46 76 47 15 48 16 49 17 50 70 51 18 52 75 53
REMARK SMILES IDX 69 54 71 55 19 56 74 57 68 58 67 59 20 61 54 62 33 63 53 64
REMARK SMILES IDX 34 65 37 66 52 67 72 68 35 69 36 70 51 72 73 73 38 74 21 75
REMARK SMILES IDX 22 76 31 77 23 78 24 79 30 80 32 81 25 82 26 83 27 84 28 85
REMARK SMILES IDX 29 86 55 87 56 88 65 89 57 90 58 91 64 92 66 93 59 94 60 95
REMARK SMILES IDX 61 96 62 97 63 98 39 99 40 100 49 101 41 102 42 103 48 104
REMARK SMILES IDX 50 105 43 106 44 107 45 108 46 109 47 110
REMARK H PARENT 93 25 98 34 71 60 37 71
REMARK Flexibility Score: inf
ROOT
ATOM      1  O   UNL A   1      42.553  19.975  26.699  1.00  0.00    -0.458 OA
ENDROOT
BRANCH   1   2
ATOM      2  C   UNL A   1      41.139  19.895  26.163  1.00  0.00     0.338 C 
ATOM      3  O   UNL A   1      41.172  18.700  25.751  1.00  0.00    -0.246 OA
BRANCH   2   4
ATOM      4  C   UNL A   1      39.640  21.459  26.142  1.00  0.00     0.065 A 
ATOM      5  C   UNL A   1      37.360  20.647  24.656  1.00  0.00     0.047 C 
ATOM      6  C   UNL A   1      38.154  21.640  25.576  1.00  0.00    -0.013 A 
ATOM      7  C   UNL A   1      37.309  22.867  25.760  1.00  0.00     0.041 A 
ATOM      8  C   UNL A   1      39.802  22.908  26.782  1.00  0.00     0.016 A 
ATOM      9  C   UNL A   1      37.758  24.024  26.387  1.00  0.00     0.026 A 
ATOM     10  C   UNL A   1      39.003  24.059  26.893  1.00  0.00     0.003 A 
BRANCH   7  11
ATOM     11  N   UNL A   1      36.043  22.993  25.221  1.00  0.00    -0.358 N 
ATOM     12  C   UNL A   1      34.924  22.182  25.703  1.00  0.00     0.103 C 
ATOM     13  C   UNL A   1      35.731  23.739  24.003  1.00  0.00     0.110 C 
ATOM     14  C   UNL A   1      33.796  22.872  25.017  1.00  0.00     0.003 C 
ATOM     15  C   UNL A   1      34.742  22.270  27.217  1.00  0.00     0.035 C 
ATOM     16  C   UNL A   1      34.231  23.831  24.184  1.00  0.00    -0.026 C 
ATOM     17  C   UNL A   1      36.120  22.957  22.748  1.00  0.00     0.036 C 
BRANCH  16  18
ATOM     18  C   UNL A   1      33.467  24.892  23.583  1.00  0.00     0.031 C 
ATOM     19  C   UNL A   1      32.446  25.578  24.137  1.00  0.00     0.117 C 
BRANCH  19  20
ATOM     20  C   UNL A   1      31.930  25.318  25.434  1.00  0.00     0.105 C 
ATOM     21  N   UNL A   1      31.493  25.053  26.479  1.00  0.00    -0.192 NA
ENDBRANCH  19  20
BRANCH  19  22
ATOM     22  C   UNL A   1      31.675  26.440  23.204  1.00  0.00     0.261 C 
ATOM     23  O   UNL A   1      31.398  26.073  22.064  1.00  0.00    -0.268 OA
ATOM     24  N   UNL A   1      30.982  27.475  23.757  1.00  0.00    -0.351 N 
ATOM     25  H   UNL A   1      30.004  27.416  23.655  1.00  0.00     0.163 HD
BRANCH  24  26
ATOM     26  C   UNL A   1      31.453  28.664  24.478  1.00  0.00     0.121 C 
BRANCH  26  27
ATOM     27  C   UNL A   1      32.983  28.767  24.773  1.00  0.00     0.059 C 
BRANCH  27  28
ATOM     28  C   UNL A   1      33.377  28.675  26.257  1.00  0.00    -0.021 A 
ATOM     29  C   UNL A   1      32.401  28.637  27.257  1.00  0.00     0.087 A 
ATOM     30  C   UNL A   1      34.334  29.509  26.937  1.00  0.00     0.003 A 
ATOM     31  N   UNL A   1      32.272  30.031  27.399  1.00  0.00    -0.361 N 
ATOM     32  C   UNL A   1      33.541  30.555  27.408  1.00  0.00     0.046 A 
ATOM     33  C   UNL A   1      35.701  29.536  27.261  1.00  0.00     0.010 A 
ATOM     34  H   UNL A   1      31.429  30.535  27.477  1.00  0.00     0.166 HD
ATOM     35  C   UNL A   1      34.036  31.788  27.813  1.00  0.00     0.026 A 
ATOM     36  C   UNL A   1      36.198  30.682  27.911  1.00  0.00     0.001 A 
ATOM     37  C   UNL A   1      35.401  31.818  28.092  1.00  0.00     0.002 A 
ENDBRANCH  27  28
ENDBRANCH  26  27
ENDBRANCH  24  26
ENDBRANCH  19  22
ENDBRANCH  16  18
ENDBRANCH   7  11
ENDBRANCH   2   4
ENDBRANCH   1   2
BRANCH   1  38
ATOM     38  C   UNL A   1      43.608  19.873  25.725  1.00  0.00     0.275 C 
BRANCH  38  39
ATOM     39  C   UNL A   1      44.148  21.276  25.395  1.00  0.00     0.275 C 
BRANCH  39  40
ATOM     40  O   UNL A   1      43.257  22.375  25.711  1.00  0.00    -0.458 OA
BRANCH  40  41
ATOM     41  C   UNL A   1      43.796  23.585  26.025  1.00  0.00     0.338 C 
ATOM     42  O   UNL A   1      44.923  23.969  25.775  1.00  0.00    -0.246 OA
BRANCH  41  43
ATOM     43  C   UNL A   1      42.735  24.458  26.546  1.00  0.00     0.060 A 
ATOM     44  C   UNL A   1      42.264  25.882  25.557  1.00  0.00     0.016 A 
ATOM     45  C   UNL A   1      42.808  24.599  28.328  1.00  0.00     0.016 A 
ATOM     46  C   UNL A   1      41.891  27.505  26.367  1.00  0.00     0.010 A 
ATOM     47  C   UNL A   1      42.435  26.202  29.141  1.00  0.00     0.010 A 
ATOM     48  C   UNL A   1      41.999  27.642  28.144  1.00  0.00    -0.014 A 
BRANCH  48  49
ATOM     49  C   UNL A   1      42.310  28.885  28.816  1.00  0.00     0.031 A 
ATOM     50  C   UNL A   1      41.153  29.753  29.046  1.00  0.00     0.074 A 
ATOM     51  C   UNL A   1      43.534  29.010  29.389  1.00  0.00     0.049 A 
ATOM     52  N   UNL A   1      41.241  30.980  29.383  1.00  0.00    -0.248 NA
ATOM     53  C   UNL A   1      39.763  29.339  28.848  1.00  0.00     0.031 C 
ATOM     54  C   UNL A   1      43.994  29.880  30.468  1.00  0.00     0.029 A 
ATOM     55  N   UNL A   1      44.718  28.420  28.948  1.00  0.00    -0.354 N 
ATOM     56  C   UNL A   1      40.000  31.360  29.849  1.00  0.00     0.074 A 
ATOM     57  C   UNL A   1      39.088  30.363  29.370  1.00  0.00     0.031 C 
ATOM     58  C   UNL A   1      45.338  29.988  30.414  1.00  0.00     0.029 A 
ATOM     59  C   UNL A   1      45.795  29.268  29.238  1.00  0.00     0.049 A 
ATOM     60  H   UNL A   1      44.787  27.544  28.503  1.00  0.00     0.167 HD
ATOM     61  C   UNL A   1      39.967  32.381  30.746  1.00  0.00     0.037 A 
ATOM     62  C   UNL A   1      46.476  29.823  28.188  1.00  0.00     0.037 A 
ATOM     63  C   UNL A   1      41.328  32.915  30.902  1.00  0.00     0.049 A 
ATOM     64  C   UNL A   1      46.077  31.280  27.960  1.00  0.00     0.074 A 
ATOM     65  C   UNL A   1      42.345  32.713  31.818  1.00  0.00     0.029 A 
ATOM     66  N   UNL A   1      41.949  33.413  29.773  1.00  0.00    -0.354 N 
ATOM     67  N   UNL A   1      45.132  31.889  28.633  1.00  0.00    -0.248 NA
ATOM     68  C   UNL A   1      46.682  32.170  26.971  1.00  0.00     0.031 C 
ATOM     69  C   UNL A   1      43.580  33.104  31.204  1.00  0.00     0.029 A 
ATOM     70  C   UNL A   1      43.311  33.546  29.920  1.00  0.00     0.049 A 
ATOM     71  H   UNL A   1      41.467  33.648  28.947  1.00  0.00     0.167 HD
ATOM     72  C   UNL A   1      44.978  33.180  28.206  1.00  0.00     0.074 A 
ATOM     73  C   UNL A   1      45.942  33.287  27.119  1.00  0.00     0.031 C 
ATOM     74  C   UNL A   1      44.078  34.046  28.781  1.00  0.00     0.037 A 
BRANCH  61  75
ATOM     75  C   UNL A   1      38.810  32.727  31.653  1.00  0.00     0.058 A 
ATOM     76  C   UNL A   1      37.697  33.400  31.106  1.00  0.00     0.135 A 
ATOM     77  C   UNL A   1      38.715  32.473  33.040  1.00  0.00     0.135 A 
ATOM     78  F   UNL A   1      37.618  33.677  29.798  1.00  0.00    -0.206 F 
ATOM     79  C   UNL A   1      36.609  33.821  31.864  1.00  0.00     0.059 A 
ATOM     80  C   UNL A   1      37.645  32.915  33.830  1.00  0.00     0.059 A 
ATOM     81  F   UNL A   1      39.622  31.742  33.695  1.00  0.00    -0.206 F 
ATOM     82  C   UNL A   1      36.592  33.582  33.229  1.00  0.00     0.060 A 
BRANCH  82  83
ATOM     83  S   UNL A   1      35.152  34.115  34.167  1.00  0.00     0.124 S 
ATOM     84  O   UNL A   1      34.101  33.260  33.625  1.00  0.00    -0.237 OA
ATOM     85  O   UNL A   1      35.564  33.828  35.536  1.00  0.00    -0.237 OA
ATOM     86  O   UNL A   1      35.031  35.532  33.835  1.00  0.00    -0.744 OA
ENDBRANCH  82  83
ENDBRANCH  61  75
BRANCH  62  87
ATOM     87  C   UNL A   1      46.818  28.765  27.174  1.00  0.00     0.058 A 
ATOM     88  C   UNL A   1      45.988  28.699  26.027  1.00  0.00     0.135 A 
ATOM     89  C   UNL A   1      48.090  28.193  27.053  1.00  0.00     0.135 A 
ATOM     90  F   UNL A   1      44.732  29.174  26.086  1.00  0.00    -0.206 F 
ATOM     91  C   UNL A   1      46.459  28.286  24.781  1.00  0.00     0.059 A 
ATOM     92  C   UNL A   1      48.561  27.708  25.818  1.00  0.00     0.059 A 
ATOM     93  F   UNL A   1      48.953  28.246  28.079  1.00  0.00    -0.206 F 
ATOM     94  C   UNL A   1      47.761  27.817  24.676  1.00  0.00     0.060 A 
BRANCH  94  95
ATOM     95  S   UNL A   1      48.399  27.427  23.023  1.00  0.00     0.124 S 
ATOM     96  O   UNL A   1      48.277  25.975  22.983  1.00  0.00    -0.237 OA
ATOM     97  O   UNL A   1      47.489  28.149  22.140  1.00  0.00    -0.237 OA
ATOM     98  O   UNL A   1      49.768  27.938  23.061  1.00  0.00    -0.744 OA
ENDBRANCH  94  95
ENDBRANCH  62  87
BRANCH  74  99
ATOM     99  C   UNL A   1      43.804  35.463  28.305  1.00  0.00     0.058 A 
ATOM    100  C   UNL A   1      43.114  35.746  27.120  1.00  0.00     0.135 A 
ATOM    101  C   UNL A   1      44.303  36.609  28.986  1.00  0.00     0.135 A 
ATOM    102  F   UNL A   1      42.767  34.767  26.271  1.00  0.00    -0.206 F 
ATOM    103  C   UNL A   1      42.805  37.049  26.728  1.00  0.00     0.059 A 
ATOM    104  C   UNL A   1      44.071  37.912  28.577  1.00  0.00     0.059 A 
ATOM    105  F   UNL A   1      45.034  36.542  30.104  1.00  0.00    -0.206 F 
ATOM    106  C   UNL A   1      43.281  38.127  27.471  1.00  0.00     0.060 A 
BRANCH 106 107
ATOM    107  S   UNL A   1      42.913  39.803  26.949  1.00  0.00     0.124 S 
ATOM    108  O   UNL A   1      43.126  40.557  28.180  1.00  0.00    -0.237 OA
ATOM    109  O   UNL A   1      43.906  40.005  25.899  1.00  0.00    -0.237 OA
ATOM    110  O   UNL A   1      41.528  39.728  26.496  1.00  0.00    -0.744 OA
ENDBRANCH 106 107
ENDBRANCH  74  99
ENDBRANCH  48  49
ENDBRANCH  41  43
ENDBRANCH  40  41
ENDBRANCH  39  40
ENDBRANCH  38  39
ENDBRANCH   1  38
TORSDOF 21
ENDMDL
MODEL 3
REMARK VINA RESULT:     -11.6      2.258      3.056
REMARK SMILES Cc1c(C(=O)OCCOC(=O)c2ccc(-c3c4nc(c(-c5c(F)cc(S(=O)(=O)[O-])cc5F)c5ccc([nH]5)c(-c5c(F)cc(S(=O)(=O)[O-])cc5F)c5nc(c(-c6c(F)cc(S(=O)(=O)[O-])cc6F)c6ccc3[nH]6)C=C5)C=C4)cc2)cccc1N1[C@@H](C)C=C(/C=C(\C#N)C(=O)NCCc2c[nH]c3ccccc23)[C@@H]1C
REMARK SMILES IDX 6 1 4 2 5 3 3 4 1 5 2 6 81 7 78 8 80 9 79 10 82 11 83 12
REMARK SMILES IDX 105 13 85 14 84 15 86 16 106 17 87 18 88 19 89 20 90 21
REMARK SMILES IDX 91 22 92 23 93 24 94 26 95 27 96 28 97 29 104 30 98 31 99 32
REMARK SMILES IDX 103 33 100 35 102 36 101 37 7 38 8 39 9 40 10 41 11 42 12 43
REMARK SMILES IDX 13 44 77 45 14 46 76 47 15 48 16 49 17 50 70 51 18 52 75 53
REMARK SMILES IDX 69 54 71 55 19 56 74 57 68 58 67 59 20 61 54 62 33 63 53 64
REMARK SMILES IDX 34 65 37 66 52 67 72 68 35 69 36 70 51 72 73 73 38 74 21 75
REMARK SMILES IDX 22 76 31 77 23 78 24 79 30 80 32 81 25 82 26 83 27 84 28 85
REMARK SMILES IDX 29 86 55 87 56 88 65 89 57 90 58 91 64 92 66 93 59 94 60 95
REMARK SMILES IDX 61 96 62 97 63 98 39 99 40 100 49 101 41 102 42 103 48 104
REMARK SMILES IDX 50 105 43 106 44 107 45 108 46 109 47 110
REMARK H PARENT 93 25 98 34 71 60 37 71
REMARK Flexibility Score: inf
ROOT
ATOM      1  O   UNL A   1      43.040  20.020  26.711  1.00  0.00    -0.458 OA
ENDROOT
BRANCH   1   2
ATOM      2  C   UNL A   1      41.634  20.087  27.268  1.00  0.00     0.338 C 
ATOM      3  O   UNL A   1      41.671  19.038  27.974  1.00  0.00    -0.246 OA
BRANCH   2   4
ATOM      4  C   UNL A   1      40.115  21.574  26.853  1.00  0.00     0.065 A 
ATOM      5  C   UNL A   1      38.020  20.464  25.290  1.00  0.00     0.047 C 
ATOM      6  C   UNL A   1      38.693  21.613  26.120  1.00  0.00    -0.013 A 
ATOM      7  C   UNL A   1      37.809  22.823  26.024  1.00  0.00     0.041 A 
ATOM      8  C   UNL A   1      40.180  23.109  27.273  1.00  0.00     0.016 A 
ATOM      9  C   UNL A   1      38.167  24.078  26.505  1.00  0.00     0.026 A 
ATOM     10  C   UNL A   1      39.351  24.234  27.122  1.00  0.00     0.003 A 
BRANCH   7  11
ATOM     11  N   UNL A   1      36.604  22.820  25.347  1.00  0.00    -0.358 N 
ATOM     12  C   UNL A   1      35.508  21.937  25.746  1.00  0.00     0.103 C 
ATOM     13  C   UNL A   1      36.370  23.487  24.068  1.00  0.00     0.110 C 
ATOM     14  C   UNL A   1      34.411  22.501  24.910  1.00  0.00     0.003 C 
ATOM     15  C   UNL A   1      35.152  22.069  27.226  1.00  0.00     0.035 C 
ATOM     16  C   UNL A   1      34.857  23.460  24.083  1.00  0.00    -0.026 C 
ATOM     17  C   UNL A   1      36.957  22.692  22.901  1.00  0.00     0.036 C 
BRANCH  16  18
ATOM     18  C   UNL A   1      34.082  24.427  23.353  1.00  0.00     0.031 C 
ATOM     19  C   UNL A   1      32.998  24.194  22.584  1.00  0.00     0.117 C 
BRANCH  19  20
ATOM     20  C   UNL A   1      32.463  22.901  22.344  1.00  0.00     0.105 C 
ATOM     21  N   UNL A   1      31.986  21.852  22.186  1.00  0.00    -0.192 NA
ENDBRANCH  19  20
BRANCH  19  22
ATOM     22  C   UNL A   1      32.551  25.336  21.746  1.00  0.00     0.261 C 
ATOM     23  O   UNL A   1      33.278  25.831  20.887  1.00  0.00    -0.268 OA
ATOM     24  N   UNL A   1      31.211  25.578  21.703  1.00  0.00    -0.351 N 
ATOM     25  H   UNL A   1      30.801  25.465  20.816  1.00  0.00     0.163 HD
BRANCH  24  26
ATOM     26  C   UNL A   1      30.278  25.982  22.764  1.00  0.00     0.121 C 
BRANCH  26  27
ATOM     27  C   UNL A   1      30.771  27.053  23.786  1.00  0.00     0.059 C 
BRANCH  27  28
ATOM     28  C   UNL A   1      31.678  26.525  24.911  1.00  0.00    -0.021 A 
ATOM     29  C   UNL A   1      31.154  25.742  25.944  1.00  0.00     0.087 A 
ATOM     30  C   UNL A   1      32.605  27.302  25.693  1.00  0.00     0.003 A 
ATOM     31  N   UNL A   1      30.780  26.812  26.776  1.00  0.00    -0.361 N 
ATOM     32  C   UNL A   1      31.821  27.708  26.772  1.00  0.00     0.046 A 
ATOM     33  C   UNL A   1      33.955  27.687  25.691  1.00  0.00     0.010 A 
ATOM     34  H   UNL A   1      29.931  26.903  27.267  1.00  0.00     0.166 HD
ATOM     35  C   UNL A   1      32.143  28.765  27.616  1.00  0.00     0.026 A 
ATOM     36  C   UNL A   1      34.385  28.574  26.698  1.00  0.00     0.001 A 
ATOM     37  C   UNL A   1      33.475  29.171  27.578  1.00  0.00     0.002 A 
ENDBRANCH  27  28
ENDBRANCH  26  27
ENDBRANCH  24  26
ENDBRANCH  19  22
ENDBRANCH  16  18
ENDBRANCH   7  11
ENDBRANCH   2   4
ENDBRANCH   1   2
BRANCH   1  38
ATOM     38  C   UNL A   1      43.175  19.464  25.390  1.00  0.00     0.275 C 
BRANCH  38  39
ATOM     39  C   UNL A   1      44.194  20.287  24.582  1.00  0.00     0.275 C 
BRANCH  39  40
ATOM     40  O   UNL A   1      43.903  21.703  24.473  1.00  0.00    -0.458 OA
BRANCH  40  41
ATOM     41  C   UNL A   1      44.603  22.576  25.248  1.00  0.00     0.338 C 
ATOM     42  O   UNL A   1      45.809  22.739  25.260  1.00  0.00    -0.246 OA
BRANCH  41  43
ATOM     43  C   UNL A   1      43.656  23.458  25.946  1.00  0.00     0.060 A 
ATOM     44  C   UNL A   1      43.267  25.037  25.182  1.00  0.00     0.016 A 
ATOM     45  C   UNL A   1      43.835  23.351  27.723  1.00  0.00     0.016 A 
ATOM     46  C   UNL A   1      43.088  26.562  26.217  1.00  0.00     0.010 A 
ATOM     47  C   UNL A   1      43.655  24.855  28.759  1.00  0.00     0.010 A 
ATOM     48  C   UNL A   1      43.302  26.448  27.987  1.00  0.00    -0.014 A 
BRANCH  48  49
ATOM     49  C   UNL A   1      43.761  27.558  28.793  1.00  0.00     0.031 A 
ATOM     50  C   UNL A   1      42.689  28.329  29.427  1.00  0.00     0.074 A 
ATOM     51  C   UNL A   1      45.082  27.621  29.097  1.00  0.00     0.049 A 
ATOM     52  N   UNL A   1      42.856  29.476  29.958  1.00  0.00    -0.248 NA
ATOM     53  C   UNL A   1      41.287  27.908  29.464  1.00  0.00     0.031 C 
ATOM     54  C   UNL A   1      45.774  28.296  30.191  1.00  0.00     0.029 A 
ATOM     55  N   UNL A   1      46.135  27.163  28.307  1.00  0.00    -0.354 N 
ATOM     56  C   UNL A   1      41.751  29.720  30.747  1.00  0.00     0.074 A 
ATOM     57  C   UNL A   1      40.750  28.796  30.302  1.00  0.00     0.031 C 
ATOM     58  C   UNL A   1      47.074  28.460  29.865  1.00  0.00     0.029 A 
ATOM     59  C   UNL A   1      47.255  27.982  28.506  1.00  0.00     0.049 A 
ATOM     60  H   UNL A   1      46.099  26.386  27.702  1.00  0.00     0.167 HD
ATOM     61  C   UNL A   1      41.924  30.560  31.802  1.00  0.00     0.037 A 
ATOM     62  C   UNL A   1      47.689  28.743  27.453  1.00  0.00     0.037 A 
ATOM     63  C   UNL A   1      43.288  31.104  31.752  1.00  0.00     0.049 A 
ATOM     64  C   UNL A   1      47.258  30.202  27.593  1.00  0.00     0.074 A 
ATOM     65  C   UNL A   1      44.482  30.775  32.370  1.00  0.00     0.029 A 
ATOM     66  N   UNL A   1      43.646  31.821  30.627  1.00  0.00    -0.354 N 
ATOM     67  N   UNL A   1      46.490  30.644  28.557  1.00  0.00    -0.248 NA
ATOM     68  C   UNL A   1      47.634  31.278  26.677  1.00  0.00     0.031 C 
ATOM     69  C   UNL A   1      45.552  31.315  31.584  1.00  0.00     0.029 A 
ATOM     70  C   UNL A   1      45.008  31.974  30.495  1.00  0.00     0.049 A 
ATOM     71  H   UNL A   1      42.995  32.185  29.985  1.00  0.00     0.167 HD
ATOM     72  C   UNL A   1      46.252  31.985  28.421  1.00  0.00     0.074 A 
ATOM     73  C   UNL A   1      46.951  32.322  27.188  1.00  0.00     0.031 C 
ATOM     74  C   UNL A   1      45.506  32.699  29.329  1.00  0.00     0.037 A 
BRANCH  61  75
ATOM     75  C   UNL A   1      40.998  30.694  32.988  1.00  0.00     0.058 A 
ATOM     76  C   UNL A   1      40.186  31.843  33.088  1.00  0.00     0.135 A 
ATOM     77  C   UNL A   1      40.861  29.786  34.063  1.00  0.00     0.135 A 
ATOM     78  F   UNL A   1      40.172  32.778  32.129  1.00  0.00    -0.206 F 
ATOM     79  C   UNL A   1      39.347  32.095  34.170  1.00  0.00     0.059 A 
ATOM     80  C   UNL A   1      40.048  30.032  35.177  1.00  0.00     0.059 A 
ATOM     81  F   UNL A   1      41.464  28.593  34.070  1.00  0.00    -0.206 F 
ATOM     82  C   UNL A   1      39.288  31.189  35.216  1.00  0.00     0.060 A 
BRANCH  82  83
ATOM     83  S   UNL A   1      38.168  31.537  36.580  1.00  0.00     0.124 S 
ATOM     84  O   UNL A   1      37.129  32.328  35.928  1.00  0.00    -0.237 OA
ATOM     85  O   UNL A   1      37.778  30.195  36.998  1.00  0.00    -0.237 OA
ATOM     86  O   UNL A   1      39.001  32.270  37.530  1.00  0.00    -0.744 OA
ENDBRANCH  82  83
ENDBRANCH  61  75
BRANCH  62  87
ATOM     87  C   UNL A   1      47.793  27.899  26.211  1.00  0.00     0.058 A 
ATOM     88  C   UNL A   1      46.770  28.073  25.245  1.00  0.00     0.135 A 
ATOM     89  C   UNL A   1      48.992  27.344  25.752  1.00  0.00     0.135 A 
ATOM     90  F   UNL A   1      45.569  28.546  25.623  1.00  0.00    -0.206 F 
ATOM     91  C   UNL A   1      46.990  27.906  23.878  1.00  0.00     0.059 A 
ATOM     92  C   UNL A   1      49.212  27.104  24.382  1.00  0.00     0.059 A 
ATOM     93  F   UNL A   1      50.024  27.181  26.592  1.00  0.00    -0.206 F 
ATOM     94  C   UNL A   1      48.228  27.447  23.448  1.00  0.00     0.060 A 
BRANCH  94  95
ATOM     95  S   UNL A   1      48.542  27.381  21.662  1.00  0.00     0.124 S 
ATOM     96  O   UNL A   1      47.353  28.027  21.119  1.00  0.00    -0.237 OA
ATOM     97  O   UNL A   1      49.780  28.138  21.517  1.00  0.00    -0.237 OA
ATOM     98  O   UNL A   1      48.652  25.948  21.394  1.00  0.00    -0.744 OA
ENDBRANCH  94  95
ENDBRANCH  62  87
BRANCH  74  99
ATOM     99  C   UNL A   1      45.142  34.169  29.195  1.00  0.00     0.058 A 
ATOM    100  C   UNL A   1      43.882  34.602  28.765  1.00  0.00     0.135 A 
ATOM    101  C   UNL A   1      46.082  35.214  29.416  1.00  0.00     0.135 A 
ATOM    102  F   UNL A   1      42.963  33.730  28.324  1.00  0.00    -0.206 F 
ATOM    103  C   UNL A   1      43.533  35.953  28.716  1.00  0.00     0.059 A 
ATOM    104  C   UNL A   1      45.782  36.561  29.302  1.00  0.00     0.059 A 
ATOM    105  F   UNL A   1      47.353  34.998  29.775  1.00  0.00    -0.206 F 
ATOM    106  C   UNL A   1      44.489  36.925  28.996  1.00  0.00     0.060 A 
BRANCH 106 107
ATOM    107  S   UNL A   1      44.052  38.662  28.898  1.00  0.00     0.124 S 
ATOM    108  O   UNL A   1      43.399  38.883  30.185  1.00  0.00    -0.237 OA
ATOM    109  O   UNL A   1      45.363  39.284  28.736  1.00  0.00    -0.237 OA
ATOM    110  O   UNL A   1      43.176  38.733  27.734  1.00  0.00    -0.744 OA
ENDBRANCH 106 107
ENDBRANCH  74  99
ENDBRANCH  48  49
ENDBRANCH  41  43
ENDBRANCH  40  41
ENDBRANCH  39  40
ENDBRANCH  38  39
ENDBRANCH   1  38
TORSDOF 21
ENDMDL
