MODEL 1
REMARK VINA RESULT:     -14.9      0.000      0.000
REMARK SMILES Cc1ccccc1[C@@H]1[NH2+][C@H](C(=O)OCCOC(=O)c2ccc(-c3c4nc(c(-c5c(F)cc(S(=O)(=O)[O-])cc5F)c5ccc([nH]5)c(-c5c(F)cc(S(=O)(=O)[O-])cc5F)c5nc(c(-c6c(F)cc(S(=O)(=O)[O-])cc6F)c6ccc3[nH]6)C=C5)C=C4)cc2)CC2=c3ccccc3=N[C@H]21
REMARK SMILES IDX 15 1 14 2 13 3 11 4 12 5 10 6 8 7 9 8 94 9 86 12 93 13 85 14
REMARK SMILES IDX 87 15 92 16 88 17 91 18 89 19 90 20 7 21 1 22 2 23 3 24 4 25
REMARK SMILES IDX 6 26 5 27 16 28 17 29 18 30 19 31 20 32 84 33 21 34 83 35
REMARK SMILES IDX 22 36 23 37 24 38 77 39 25 40 82 41 76 42 78 43 26 44 81 45
REMARK SMILES IDX 75 46 74 47 27 49 61 50 40 51 60 52 41 53 44 54 59 55 79 56
REMARK SMILES IDX 42 57 43 58 58 60 80 61 45 62 28 63 29 64 38 65 30 66 31 67
REMARK SMILES IDX 37 68 39 69 32 70 33 71 34 72 35 73 36 74 62 75 63 76 72 77
REMARK SMILES IDX 64 78 65 79 71 80 73 81 66 82 67 83 68 84 69 85 70 86 46 87
REMARK SMILES IDX 47 88 56 89 48 90 49 91 55 92 57 93 50 94 51 95 52 96 53 97
REMARK SMILES IDX 54 98
REMARK H PARENT 9 10 9 11 78 48 44 59
REMARK Flexibility Score: inf
ROOT
ATOM      1  C   UNL A   1      34.047  31.367  27.675  1.00  0.00     0.275 C 
ENDROOT
BRANCH   1   2
ATOM      2  C   UNL A   1      33.042  30.645  26.771  1.00  0.00     0.274 C 
BRANCH   2   3
ATOM      3  O   UNL A   1      32.745  29.340  27.280  1.00  0.00    -0.458 OA
BRANCH   3   4
ATOM      4  C   UNL A   1      33.443  28.351  26.673  1.00  0.00     0.365 C 
ATOM      5  O   UNL A   1      34.592  28.037  26.984  1.00  0.00    -0.245 OA
BRANCH   4   6
ATOM      6  C   UNL A   1      32.801  27.790  25.429  1.00  0.00     0.298 C 
ATOM      7  C   UNL A   1      31.066  27.663  23.699  1.00  0.00     0.243 C 
ATOM      8  N   UNL A   1      31.568  28.421  24.897  1.00  0.00    -0.326 N 
ATOM      9  C   UNL A   1      32.171  27.301  22.612  1.00  0.00     0.196 C 
ATOM     10  H   UNL A   1      30.850  28.419  25.620  1.00  0.00     0.347 HD
ATOM     11  H   UNL A   1      31.780  29.380  24.617  1.00  0.00     0.347 HD
ATOM     12  C   UNL A   1      33.448  26.959  23.318  1.00  0.00    -0.024 C 
ATOM     13  N   UNL A   1      31.821  26.041  21.874  1.00  0.00    -0.270 NA
ATOM     14  C   UNL A   1      33.899  27.886  24.371  1.00  0.00     0.111 C 
ATOM     15  C   UNL A   1      33.748  25.674  23.209  1.00  0.00     0.002 A 
ATOM     16  C   UNL A   1      32.710  25.191  22.292  1.00  0.00     0.066 A 
ATOM     17  C   UNL A   1      34.573  24.797  23.971  1.00  0.00     0.010 A 
ATOM     18  C   UNL A   1      32.764  23.747  21.982  1.00  0.00     0.028 A 
ATOM     19  C   UNL A   1      34.465  23.481  23.744  1.00  0.00     0.001 A 
ATOM     20  C   UNL A   1      33.597  22.967  22.694  1.00  0.00     0.002 A 
BRANCH   7  21
ATOM     21  C   UNL A   1      29.896  28.356  22.995  1.00  0.00     0.015 A 
ATOM     22  C   UNL A   1      28.099  26.769  23.925  1.00  0.00     0.045 C 
ATOM     23  C   UNL A   1      28.543  27.999  23.182  1.00  0.00    -0.042 A 
ATOM     24  C   UNL A   1      27.536  28.862  22.710  1.00  0.00     0.004 A 
ATOM     25  C   UNL A   1      27.847  30.020  22.000  1.00  0.00     0.000 A 
ATOM     26  C   UNL A   1      30.186  29.504  22.225  1.00  0.00     0.010 A 
ATOM     27  C   UNL A   1      29.173  30.326  21.729  1.00  0.00     0.001 A 
ENDBRANCH   7  21
ENDBRANCH   4   6
ENDBRANCH   3   4
ENDBRANCH   2   3
ENDBRANCH   1   2
BRANCH   1  28
ATOM     28  O   UNL A   1      35.440  30.958  27.675  1.00  0.00    -0.458 OA
BRANCH  28  29
ATOM     29  C   UNL A   1      36.136  30.917  28.850  1.00  0.00     0.338 C 
ATOM     30  O   UNL A   1      35.801  31.523  29.847  1.00  0.00    -0.246 OA
BRANCH  29  31
ATOM     31  C   UNL A   1      37.214  29.889  28.775  1.00  0.00     0.060 A 
ATOM     32  C   UNL A   1      38.099  29.859  27.682  1.00  0.00     0.016 A 
ATOM     33  C   UNL A   1      37.487  29.152  29.923  1.00  0.00     0.016 A 
ATOM     34  C   UNL A   1      39.326  29.199  27.793  1.00  0.00     0.010 A 
ATOM     35  C   UNL A   1      38.744  28.634  30.087  1.00  0.00     0.010 A 
ATOM     36  C   UNL A   1      39.659  28.631  29.021  1.00  0.00    -0.014 A 
BRANCH  36  37
ATOM     37  C   UNL A   1      40.784  27.746  29.279  1.00  0.00     0.031 A 
ATOM     38  C   UNL A   1      40.902  26.358  28.791  1.00  0.00     0.074 A 
ATOM     39  C   UNL A   1      41.847  28.438  29.749  1.00  0.00     0.049 A 
ATOM     40  N   UNL A   1      41.897  25.600  29.096  1.00  0.00    -0.248 NA
ATOM     41  C   UNL A   1      39.940  25.671  27.939  1.00  0.00     0.031 C 
ATOM     42  C   UNL A   1      43.264  28.137  29.680  1.00  0.00     0.029 A 
ATOM     43  N   UNL A   1      41.827  29.641  30.433  1.00  0.00    -0.354 N 
ATOM     44  C   UNL A   1      41.881  24.482  28.289  1.00  0.00     0.074 A 
ATOM     45  C   UNL A   1      40.591  24.532  27.645  1.00  0.00     0.031 C 
ATOM     46  C   UNL A   1      43.923  28.961  30.519  1.00  0.00     0.029 A 
ATOM     47  C   UNL A   1      42.921  29.706  31.272  1.00  0.00     0.049 A 
ATOM     48  H   UNL A   1      41.140  30.340  30.337  1.00  0.00     0.167 HD
ATOM     49  C   UNL A   1      43.028  23.741  28.206  1.00  0.00     0.037 A 
ATOM     50  C   UNL A   1      42.719  29.602  32.621  1.00  0.00     0.037 A 
ATOM     51  C   UNL A   1      44.015  24.279  29.144  1.00  0.00     0.049 A 
ATOM     52  C   UNL A   1      43.308  28.317  33.156  1.00  0.00     0.074 A 
ATOM     53  C   UNL A   1      45.083  25.145  28.981  1.00  0.00     0.029 A 
ATOM     54  N   UNL A   1      43.769  24.198  30.508  1.00  0.00    -0.354 N 
ATOM     55  N   UNL A   1      43.416  27.209  32.471  1.00  0.00    -0.248 NA
ATOM     56  C   UNL A   1      43.940  28.232  34.466  1.00  0.00     0.031 C 
ATOM     57  C   UNL A   1      45.445  25.630  30.262  1.00  0.00     0.029 A 
ATOM     58  C   UNL A   1      44.606  25.048  31.201  1.00  0.00     0.049 A 
ATOM     59  H   UNL A   1      43.091  23.617  30.923  1.00  0.00     0.167 HD
ATOM     60  C   UNL A   1      44.185  26.312  33.173  1.00  0.00     0.074 A 
ATOM     61  C   UNL A   1      44.472  26.998  34.421  1.00  0.00     0.031 C 
ATOM     62  C   UNL A   1      44.577  25.107  32.656  1.00  0.00     0.037 A 
BRANCH  49  63
ATOM     63  C   UNL A   1      43.410  22.686  27.172  1.00  0.00     0.058 A 
ATOM     64  C   UNL A   1      42.664  21.480  27.088  1.00  0.00     0.135 A 
ATOM     65  C   UNL A   1      44.490  22.755  26.272  1.00  0.00     0.135 A 
ATOM     66  F   UNL A   1      41.571  21.271  27.834  1.00  0.00    -0.206 F 
ATOM     67  C   UNL A   1      43.001  20.416  26.250  1.00  0.00     0.059 A 
ATOM     68  C   UNL A   1      44.854  21.694  25.424  1.00  0.00     0.059 A 
ATOM     69  F   UNL A   1      45.231  23.861  26.148  1.00  0.00    -0.206 F 
ATOM     70  C   UNL A   1      44.111  20.520  25.430  1.00  0.00     0.060 A 
BRANCH  70  71
ATOM     71  S   UNL A   1      44.544  19.114  24.389  1.00  0.00     0.124 S 
ATOM     72  O   UNL A   1      43.567  18.114  24.806  1.00  0.00    -0.237 OA
ATOM     73  O   UNL A   1      44.364  19.655  23.045  1.00  0.00    -0.237 OA
ATOM     74  O   UNL A   1      45.926  18.825  24.764  1.00  0.00    -0.744 OA
ENDBRANCH  70  71
ENDBRANCH  49  63
BRANCH  50  75
ATOM     75  C   UNL A   1      41.455  30.272  33.074  1.00  0.00     0.058 A 
ATOM     76  C   UNL A   1      40.377  29.431  33.428  1.00  0.00     0.135 A 
ATOM     77  C   UNL A   1      41.427  31.583  33.577  1.00  0.00     0.135 A 
ATOM     78  F   UNL A   1      40.343  28.165  32.978  1.00  0.00    -0.206 F 
ATOM     79  C   UNL A   1      39.410  29.812  34.354  1.00  0.00     0.059 A 
ATOM     80  C   UNL A   1      40.453  31.994  34.498  1.00  0.00     0.059 A 
ATOM     81  F   UNL A   1      42.412  32.444  33.282  1.00  0.00    -0.206 F 
ATOM     82  C   UNL A   1      39.486  31.080  34.923  1.00  0.00     0.060 A 
BRANCH  82  83
ATOM     83  S   UNL A   1      38.417  31.428  36.344  1.00  0.00     0.124 S 
ATOM     84  O   UNL A   1      39.311  32.179  37.217  1.00  0.00    -0.237 OA
ATOM     85  O   UNL A   1      37.349  32.200  35.715  1.00  0.00    -0.237 OA
ATOM     86  O   UNL A   1      38.042  30.096  36.811  1.00  0.00    -0.744 OA
ENDBRANCH  82  83
ENDBRANCH  50  75
BRANCH  62  87
ATOM     87  C   UNL A   1      45.109  23.912  33.430  1.00  0.00     0.058 A 
ATOM     88  C   UNL A   1      46.435  23.782  33.874  1.00  0.00     0.135 A 
ATOM     89  C   UNL A   1      44.229  22.890  33.886  1.00  0.00     0.135 A 
ATOM     90  F   UNL A   1      47.350  24.735  33.659  1.00  0.00    -0.206 F 
ATOM     91  C   UNL A   1      46.877  22.687  34.615  1.00  0.00     0.059 A 
ATOM     92  C   UNL A   1      44.634  21.830  34.690  1.00  0.00     0.059 A 
ATOM     93  F   UNL A   1      42.921  22.890  33.594  1.00  0.00    -0.206 F 
ATOM     94  C   UNL A   1      45.971  21.715  35.020  1.00  0.00     0.060 A 
BRANCH  94  95
ATOM     95  S   UNL A   1      46.547  20.340  36.023  1.00  0.00     0.124 S 
ATOM     96  O   UNL A   1      45.698  20.468  37.204  1.00  0.00    -0.237 OA
ATOM     97  O   UNL A   1      46.269  19.190  35.168  1.00  0.00    -0.237 OA
ATOM     98  O   UNL A   1      47.962  20.634  36.225  1.00  0.00    -0.744 OA
ENDBRANCH  94  95
ENDBRANCH  62  87
ENDBRANCH  36  37
ENDBRANCH  29  31
ENDBRANCH  28  29
ENDBRANCH   1  28
TORSDOF 15
ENDMDL
MODEL 2
REMARK VINA RESULT:     -14.0      5.302     11.637
REMARK SMILES Cc1ccccc1[C@@H]1[NH2+][C@H](C(=O)OCCOC(=O)c2ccc(-c3c4nc(c(-c5c(F)cc(S(=O)(=O)[O-])cc5F)c5ccc([nH]5)c(-c5c(F)cc(S(=O)(=O)[O-])cc5F)c5nc(c(-c6c(F)cc(S(=O)(=O)[O-])cc6F)c6ccc3[nH]6)C=C5)C=C4)cc2)CC2=c3ccccc3=N[C@H]21
REMARK SMILES IDX 15 1 14 2 13 3 11 4 12 5 10 6 8 7 9 8 94 9 86 12 93 13 85 14
REMARK SMILES IDX 87 15 92 16 88 17 91 18 89 19 90 20 7 21 1 22 2 23 3 24 4 25
REMARK SMILES IDX 6 26 5 27 16 28 17 29 18 30 19 31 20 32 84 33 21 34 83 35
REMARK SMILES IDX 22 36 23 37 24 38 77 39 25 40 82 41 76 42 78 43 26 44 81 45
REMARK SMILES IDX 75 46 74 47 27 49 61 50 40 51 60 52 41 53 44 54 59 55 79 56
REMARK SMILES IDX 42 57 43 58 58 60 80 61 45 62 28 63 29 64 38 65 30 66 31 67
REMARK SMILES IDX 37 68 39 69 32 70 33 71 34 72 35 73 36 74 62 75 63 76 72 77
REMARK SMILES IDX 64 78 65 79 71 80 73 81 66 82 67 83 68 84 69 85 70 86 46 87
REMARK SMILES IDX 47 88 56 89 48 90 49 91 55 92 57 93 50 94 51 95 52 96 53 97
REMARK SMILES IDX 54 98
REMARK H PARENT 9 10 9 11 78 48 44 59
REMARK Flexibility Score: inf
ROOT
ATOM      1  C   UNL A   1      39.678  21.962  26.649  1.00  0.00     0.275 C 
ENDROOT
BRANCH   1   2
ATOM      2  C   UNL A   1      38.472  21.798  25.718  1.00  0.00     0.274 C 
BRANCH   2   3
ATOM      3  O   UNL A   1      37.258  22.152  26.389  1.00  0.00    -0.458 OA
BRANCH   3   4
ATOM      4  C   UNL A   1      36.619  23.207  25.832  1.00  0.00     0.365 C 
ATOM      5  O   UNL A   1      37.088  24.344  25.790  1.00  0.00    -0.245 OA
BRANCH   4   6
ATOM      6  C   UNL A   1      35.182  22.952  25.452  1.00  0.00     0.298 C 
ATOM      7  C   UNL A   1      33.344  21.630  24.506  1.00  0.00     0.243 C 
ATOM      8  N   UNL A   1      34.803  21.640  24.871  1.00  0.00    -0.326 N 
ATOM      9  C   UNL A   1      32.360  22.191  25.625  1.00  0.00     0.196 C 
ATOM     10  H   UNL A   1      35.359  21.470  24.034  1.00  0.00     0.347 HD
ATOM     11  H   UNL A   1      34.976  20.909  25.562  1.00  0.00     0.347 HD
ATOM     12  C   UNL A   1      33.022  23.347  26.313  1.00  0.00    -0.024 C 
ATOM     13  N   UNL A   1      31.127  22.795  25.016  1.00  0.00    -0.270 NA
ATOM     14  C   UNL A   1      34.413  23.154  26.757  1.00  0.00     0.111 C 
ATOM     15  C   UNL A   1      32.429  24.497  26.032  1.00  0.00     0.002 A 
ATOM     16  C   UNL A   1      31.267  24.065  25.249  1.00  0.00     0.066 A 
ATOM     17  C   UNL A   1      32.860  25.855  26.089  1.00  0.00     0.010 A 
ATOM     18  C   UNL A   1      30.397  25.153  24.758  1.00  0.00     0.028 A 
ATOM     19  C   UNL A   1      32.095  26.779  25.492  1.00  0.00     0.001 A 
ATOM     20  C   UNL A   1      30.824  26.423  24.880  1.00  0.00     0.002 A 
BRANCH   7  21
ATOM     21  C   UNL A   1      32.845  20.253  24.061  1.00  0.00     0.015 A 
ATOM     22  C   UNL A   1      31.855  21.078  21.836  1.00  0.00     0.045 C 
ATOM     23  C   UNL A   1      32.255  19.999  22.803  1.00  0.00    -0.042 A 
ATOM     24  C   UNL A   1      32.082  18.665  22.386  1.00  0.00     0.004 A 
ATOM     25  C   UNL A   1      32.412  17.596  23.217  1.00  0.00     0.000 A 
ATOM     26  C   UNL A   1      33.118  19.156  24.907  1.00  0.00     0.010 A 
ATOM     27  C   UNL A   1      32.901  17.841  24.491  1.00  0.00     0.001 A 
ENDBRANCH   7  21
ENDBRANCH   4   6
ENDBRANCH   3   4
ENDBRANCH   2   3
ENDBRANCH   1   2
BRANCH   1  28
ATOM     28  O   UNL A   1      39.857  23.200  27.386  1.00  0.00    -0.458 OA
BRANCH  28  29
ATOM     29  C   UNL A   1      40.761  24.126  26.950  1.00  0.00     0.338 C 
ATOM     30  O   UNL A   1      41.639  23.877  26.149  1.00  0.00    -0.246 OA
BRANCH  29  31
ATOM     31  C   UNL A   1      40.386  25.483  27.438  1.00  0.00     0.060 A 
ATOM     32  C   UNL A   1      39.708  25.642  28.661  1.00  0.00     0.016 A 
ATOM     33  C   UNL A   1      40.955  26.582  26.802  1.00  0.00     0.016 A 
ATOM     34  C   UNL A   1      39.721  26.878  29.313  1.00  0.00     0.010 A 
ATOM     35  C   UNL A   1      41.097  27.748  27.505  1.00  0.00     0.010 A 
ATOM     36  C   UNL A   1      40.462  27.913  28.749  1.00  0.00    -0.014 A 
BRANCH  36  37
ATOM     37  C   UNL A   1      40.442  29.307  29.162  1.00  0.00     0.031 A 
ATOM     38  C   UNL A   1      39.278  30.207  29.058  1.00  0.00     0.074 A 
ATOM     39  C   UNL A   1      41.510  29.596  29.941  1.00  0.00     0.049 A 
ATOM     40  N   UNL A   1      39.333  31.450  29.391  1.00  0.00    -0.248 NA
ATOM     41  C   UNL A   1      37.955  29.836  28.571  1.00  0.00     0.031 C 
ATOM     42  C   UNL A   1      41.679  30.619  30.955  1.00  0.00     0.029 A 
ATOM     43  N   UNL A   1      42.738  28.958  29.948  1.00  0.00    -0.354 N 
ATOM     44  C   UNL A   1      38.053  31.961  29.452  1.00  0.00     0.074 A 
ATOM     45  C   UNL A   1      37.236  30.938  28.847  1.00  0.00     0.031 C 
ATOM     46  C   UNL A   1      42.988  30.709  31.265  1.00  0.00     0.029 A 
ATOM     47  C   UNL A   1      43.714  29.854  30.334  1.00  0.00     0.049 A 
ATOM     48  H   UNL A   1      42.891  28.014  29.715  1.00  0.00     0.167 HD
ATOM     49  C   UNL A   1      37.871  33.140  30.121  1.00  0.00     0.037 A 
ATOM     50  C   UNL A   1      44.604  30.298  29.395  1.00  0.00     0.037 A 
ATOM     51  C   UNL A   1      39.175  33.666  30.530  1.00  0.00     0.049 A 
ATOM     52  C   UNL A   1      44.400  31.770  29.113  1.00  0.00     0.074 A 
ATOM     53  C   UNL A   1      39.875  33.604  31.723  1.00  0.00     0.029 A 
ATOM     54  N   UNL A   1      40.077  34.073  29.556  1.00  0.00    -0.354 N 
ATOM     55  N   UNL A   1      43.254  32.390  29.205  1.00  0.00    -0.248 NA
ATOM     56  C   UNL A   1      45.508  32.673  28.836  1.00  0.00     0.031 C 
ATOM     57  C   UNL A   1      41.228  33.926  31.447  1.00  0.00     0.029 A 
ATOM     58  C   UNL A   1      41.343  34.197  30.091  1.00  0.00     0.049 A 
ATOM     59  H   UNL A   1      39.847  34.249  28.615  1.00  0.00     0.167 HD
ATOM     60  C   UNL A   1      43.458  33.744  29.097  1.00  0.00     0.074 A 
ATOM     61  C   UNL A   1      44.884  33.864  28.851  1.00  0.00     0.031 C 
ATOM     62  C   UNL A   1      42.458  34.662  29.279  1.00  0.00     0.037 A 
BRANCH  49  63
ATOM     63  C   UNL A   1      36.573  33.756  30.633  1.00  0.00     0.058 A 
ATOM     64  C   UNL A   1      35.590  34.198  29.707  1.00  0.00     0.135 A 
ATOM     65  C   UNL A   1      36.234  33.984  31.980  1.00  0.00     0.135 A 
ATOM     66  F   UNL A   1      35.727  34.011  28.387  1.00  0.00    -0.206 F 
ATOM     67  C   UNL A   1      34.422  34.867  30.076  1.00  0.00     0.059 A 
ATOM     68  C   UNL A   1      35.067  34.663  32.375  1.00  0.00     0.059 A 
ATOM     69  F   UNL A   1      36.998  33.537  32.981  1.00  0.00    -0.206 F 
ATOM     70  C   UNL A   1      34.172  35.115  31.414  1.00  0.00     0.060 A 
BRANCH  70  71
ATOM     71  S   UNL A   1      32.675  36.017  31.856  1.00  0.00     0.124 S 
ATOM     72  O   UNL A   1      33.185  37.014  32.791  1.00  0.00    -0.237 OA
ATOM     73  O   UNL A   1      32.229  36.529  30.564  1.00  0.00    -0.237 OA
ATOM     74  O   UNL A   1      31.821  34.991  32.448  1.00  0.00    -0.744 OA
ENDBRANCH  70  71
ENDBRANCH  49  63
BRANCH  50  75
ATOM     75  C   UNL A   1      44.987  29.236  28.407  1.00  0.00     0.058 A 
ATOM     76  C   UNL A   1      44.407  29.318  27.122  1.00  0.00     0.135 A 
ATOM     77  C   UNL A   1      46.164  28.477  28.524  1.00  0.00     0.135 A 
ATOM     78  F   UNL A   1      43.280  30.028  26.943  1.00  0.00    -0.206 F 
ATOM     79  C   UNL A   1      45.038  28.815  25.988  1.00  0.00     0.059 A 
ATOM     80  C   UNL A   1      46.808  27.947  27.397  1.00  0.00     0.059 A 
ATOM     81  F   UNL A   1      46.772  28.347  29.712  1.00  0.00    -0.206 F 
ATOM     82  C   UNL A   1      46.266  28.175  26.130  1.00  0.00     0.060 A 
BRANCH  82  83
ATOM     83  S   UNL A   1      47.206  27.818  24.622  1.00  0.00     0.124 S 
ATOM     84  O   UNL A   1      46.731  28.860  23.718  1.00  0.00    -0.237 OA
ATOM     85  O   UNL A   1      48.578  27.969  25.099  1.00  0.00    -0.237 OA
ATOM     86  O   UNL A   1      46.799  26.456  24.292  1.00  0.00    -0.744 OA
ENDBRANCH  82  83
ENDBRANCH  50  75
BRANCH  62  87
ATOM     87  C   UNL A   1      42.471  36.120  28.851  1.00  0.00     0.058 A 
ATOM     88  C   UNL A   1      43.091  37.152  29.574  1.00  0.00     0.135 A 
ATOM     89  C   UNL A   1      41.961  36.511  27.581  1.00  0.00     0.135 A 
ATOM     90  F   UNL A   1      43.750  36.921  30.715  1.00  0.00    -0.206 F 
ATOM     91  C   UNL A   1      43.113  38.474  29.130  1.00  0.00     0.059 A 
ATOM     92  C   UNL A   1      42.042  37.808  27.086  1.00  0.00     0.059 A 
ATOM     93  F   UNL A   1      41.382  35.638  26.744  1.00  0.00    -0.206 F 
ATOM     94  C   UNL A   1      42.588  38.794  27.885  1.00  0.00     0.060 A 
BRANCH  94  95
ATOM     95  S   UNL A   1      42.677  40.492  27.303  1.00  0.00     0.124 S 
ATOM     96  O   UNL A   1      41.263  40.845  27.229  1.00  0.00    -0.237 OA
ATOM     97  O   UNL A   1      43.436  41.148  28.364  1.00  0.00    -0.237 OA
ATOM     98  O   UNL A   1      43.370  40.379  26.024  1.00  0.00    -0.744 OA
ENDBRANCH  94  95
ENDBRANCH  62  87
ENDBRANCH  36  37
ENDBRANCH  29  31
ENDBRANCH  28  29
ENDBRANCH   1  28
TORSDOF 15
ENDMDL
MODEL 3
REMARK VINA RESULT:     -13.7      2.094      2.810
REMARK SMILES Cc1ccccc1[C@@H]1[NH2+][C@H](C(=O)OCCOC(=O)c2ccc(-c3c4nc(c(-c5c(F)cc(S(=O)(=O)[O-])cc5F)c5ccc([nH]5)c(-c5c(F)cc(S(=O)(=O)[O-])cc5F)c5nc(c(-c6c(F)cc(S(=O)(=O)[O-])cc6F)c6ccc3[nH]6)C=C5)C=C4)cc2)CC2=c3ccccc3=N[C@H]21
REMARK SMILES IDX 15 1 14 2 13 3 11 4 12 5 10 6 8 7 9 8 94 9 86 12 93 13 85 14
REMARK SMILES IDX 87 15 92 16 88 17 91 18 89 19 90 20 7 21 1 22 2 23 3 24 4 25
REMARK SMILES IDX 6 26 5 27 16 28 17 29 18 30 19 31 20 32 84 33 21 34 83 35
REMARK SMILES IDX 22 36 23 37 24 38 77 39 25 40 82 41 76 42 78 43 26 44 81 45
REMARK SMILES IDX 75 46 74 47 27 49 61 50 40 51 60 52 41 53 44 54 59 55 79 56
REMARK SMILES IDX 42 57 43 58 58 60 80 61 45 62 28 63 29 64 38 65 30 66 31 67
REMARK SMILES IDX 37 68 39 69 32 70 33 71 34 72 35 73 36 74 62 75 63 76 72 77
REMARK SMILES IDX 64 78 65 79 71 80 73 81 66 82 67 83 68 84 69 85 70 86 46 87
REMARK SMILES IDX 47 88 56 89 48 90 49 91 55 92 57 93 50 94 51 95 52 96 53 97
REMARK SMILES IDX 54 98
REMARK H PARENT 9 10 9 11 78 48 44 59
REMARK Flexibility Score: inf
ROOT
ATOM      1  C   UNL A   1      33.384  31.043  27.047  1.00  0.00     0.275 C 
ENDROOT
BRANCH   1   2
ATOM      2  C   UNL A   1      32.148  30.145  27.174  1.00  0.00     0.274 C 
BRANCH   2   3
ATOM      3  O   UNL A   1      32.514  28.833  27.613  1.00  0.00    -0.458 OA
BRANCH   3   4
ATOM      4  C   UNL A   1      33.380  28.206  26.783  1.00  0.00     0.365 C 
ATOM      5  O   UNL A   1      34.601  28.213  26.937  1.00  0.00    -0.245 OA
BRANCH   4   6
ATOM      6  C   UNL A   1      32.768  27.669  25.513  1.00  0.00     0.298 C 
ATOM      7  C   UNL A   1      31.072  27.573  23.742  1.00  0.00     0.243 C 
ATOM      8  N   UNL A   1      31.544  28.308  24.966  1.00  0.00    -0.326 N 
ATOM      9  C   UNL A   1      32.202  27.237  22.672  1.00  0.00     0.196 C 
ATOM     10  H   UNL A   1      30.810  28.288  25.673  1.00  0.00     0.347 HD
ATOM     11  H   UNL A   1      31.760  29.272  24.711  1.00  0.00     0.347 HD
ATOM     12  C   UNL A   1      33.464  26.884  23.400  1.00  0.00    -0.024 C 
ATOM     13  N   UNL A   1      31.872  25.991  21.901  1.00  0.00    -0.270 NA
ATOM     14  C   UNL A   1      33.889  27.789  24.481  1.00  0.00     0.111 C 
ATOM     15  C   UNL A   1      33.770  25.602  23.271  1.00  0.00     0.002 A 
ATOM     16  C   UNL A   1      32.754  25.135  22.321  1.00  0.00     0.066 A 
ATOM     17  C   UNL A   1      34.581  24.712  24.033  1.00  0.00     0.010 A 
ATOM     18  C   UNL A   1      32.820  23.698  21.983  1.00  0.00     0.028 A 
ATOM     19  C   UNL A   1      34.482  23.400  23.777  1.00  0.00     0.001 A 
ATOM     20  C   UNL A   1      33.639  22.906  22.698  1.00  0.00     0.002 A 
BRANCH   7  21
ATOM     21  C   UNL A   1      29.916  28.277  23.027  1.00  0.00     0.015 A 
ATOM     22  C   UNL A   1      28.097  26.696  23.923  1.00  0.00     0.045 C 
ATOM     23  C   UNL A   1      28.558  27.928  23.194  1.00  0.00    -0.042 A 
ATOM     24  C   UNL A   1      27.563  28.800  22.713  1.00  0.00     0.004 A 
ATOM     25  C   UNL A   1      27.890  29.960  22.014  1.00  0.00     0.000 A 
ATOM     26  C   UNL A   1      30.223  29.428  22.268  1.00  0.00     0.010 A 
ATOM     27  C   UNL A   1      29.222  30.259  21.763  1.00  0.00     0.001 A 
ENDBRANCH   7  21
ENDBRANCH   4   6
ENDBRANCH   3   4
ENDBRANCH   2   3
ENDBRANCH   1   2
BRANCH   1  28
ATOM     28  O   UNL A   1      34.042  31.535  28.244  1.00  0.00    -0.458 OA
BRANCH  28  29
ATOM     29  C   UNL A   1      35.206  32.242  28.137  1.00  0.00     0.338 C 
ATOM     30  O   UNL A   1      35.268  33.358  27.662  1.00  0.00    -0.246 OA
BRANCH  29  31
ATOM     31  C   UNL A   1      36.306  31.537  28.854  1.00  0.00     0.060 A 
ATOM     32  C   UNL A   1      36.080  30.287  29.459  1.00  0.00     0.016 A 
ATOM     33  C   UNL A   1      37.603  32.008  28.676  1.00  0.00     0.016 A 
ATOM     34  C   UNL A   1      37.158  29.449  29.759  1.00  0.00     0.010 A 
ATOM     35  C   UNL A   1      38.646  31.134  28.829  1.00  0.00     0.010 A 
ATOM     36  C   UNL A   1      38.436  29.864  29.393  1.00  0.00    -0.014 A 
BRANCH  36  37
ATOM     37  C   UNL A   1      39.687  29.236  29.787  1.00  0.00     0.031 A 
ATOM     38  C   UNL A   1      40.228  27.988  29.215  1.00  0.00     0.074 A 
ATOM     39  C   UNL A   1      40.450  30.087  30.510  1.00  0.00     0.049 A 
ATOM     40  N   UNL A   1      41.316  27.447  29.640  1.00  0.00    -0.248 NA
ATOM     41  C   UNL A   1      39.624  27.213  28.138  1.00  0.00     0.031 C 
ATOM     42  C   UNL A   1      41.888  30.132  30.691  1.00  0.00     0.029 A 
ATOM     43  N   UNL A   1      40.015  31.154  31.277  1.00  0.00    -0.354 N 
ATOM     44  C   UNL A   1      41.715  26.469  28.753  1.00  0.00     0.074 A 
ATOM     45  C   UNL A   1      40.579  26.303  27.879  1.00  0.00     0.031 C 
ATOM     46  C   UNL A   1      42.170  30.970  31.708  1.00  0.00     0.029 A 
ATOM     47  C   UNL A   1      40.902  31.361  32.314  1.00  0.00     0.049 A 
ATOM     48  H   UNL A   1      39.201  31.683  31.110  1.00  0.00     0.167 HD
ATOM     49  C   UNL A   1      43.008  26.029  28.831  1.00  0.00     0.037 A 
ATOM     50  C   UNL A   1      40.511  31.039  33.585  1.00  0.00     0.037 A 
ATOM     51  C   UNL A   1      43.659  26.654  29.984  1.00  0.00     0.049 A 
ATOM     52  C   UNL A   1      41.305  29.867  34.113  1.00  0.00     0.074 A 
ATOM     53  C   UNL A   1      44.488  27.756  30.105  1.00  0.00     0.029 A 
ATOM     54  N   UNL A   1      43.216  26.343  31.263  1.00  0.00    -0.354 N 
ATOM     55  N   UNL A   1      41.800  28.912  33.370  1.00  0.00    -0.248 NA
ATOM     56  C   UNL A   1      41.710  29.761  35.508  1.00  0.00     0.031 C 
ATOM     57  C   UNL A   1      44.498  28.142  31.469  1.00  0.00     0.029 A 
ATOM     58  C   UNL A   1      43.687  27.265  32.175  1.00  0.00     0.049 A 
ATOM     59  H   UNL A   1      42.646  25.572  31.488  1.00  0.00     0.167 HD
ATOM     60  C   UNL A   1      42.640  28.133  34.129  1.00  0.00     0.074 A 
ATOM     61  C   UNL A   1      42.534  28.699  35.462  1.00  0.00     0.031 C 
ATOM     62  C   UNL A   1      43.402  27.128  33.596  1.00  0.00     0.037 A 
BRANCH  49  63
ATOM     63  C   UNL A   1      43.808  25.233  27.805  1.00  0.00     0.058 A 
ATOM     64  C   UNL A   1      43.925  25.717  26.474  1.00  0.00     0.135 A 
ATOM     65  C   UNL A   1      44.445  23.997  28.023  1.00  0.00     0.135 A 
ATOM     66  F   UNL A   1      43.424  26.904  26.106  1.00  0.00    -0.206 F 
ATOM     67  C   UNL A   1      44.546  25.009  25.443  1.00  0.00     0.059 A 
ATOM     68  C   UNL A   1      45.069  23.262  26.999  1.00  0.00     0.059 A 
ATOM     69  F   UNL A   1      44.520  23.452  29.241  1.00  0.00    -0.206 F 
ATOM     70  C   UNL A   1      45.102  23.769  25.707  1.00  0.00     0.060 A 
BRANCH  70  71
ATOM     71  S   UNL A   1      45.860  22.861  24.346  1.00  0.00     0.124 S 
ATOM     72  O   UNL A   1      44.717  22.606  23.476  1.00  0.00    -0.237 OA
ATOM     73  O   UNL A   1      46.839  23.819  23.842  1.00  0.00    -0.237 OA
ATOM     74  O   UNL A   1      46.421  21.680  24.996  1.00  0.00    -0.744 OA
ENDBRANCH  70  71
ENDBRANCH  49  63
BRANCH  50  75
ATOM     75  C   UNL A   1      39.062  31.336  33.841  1.00  0.00     0.058 A 
ATOM     76  C   UNL A   1      38.735  32.662  34.198  1.00  0.00     0.135 A 
ATOM     77  C   UNL A   1      38.022  30.541  33.333  1.00  0.00     0.135 A 
ATOM     78  F   UNL A   1      39.686  33.474  34.691  1.00  0.00    -0.206 F 
ATOM     79  C   UNL A   1      37.491  33.221  33.920  1.00  0.00     0.059 A 
ATOM     80  C   UNL A   1      36.756  31.079  33.061  1.00  0.00     0.059 A 
ATOM     81  F   UNL A   1      38.251  29.269  32.975  1.00  0.00    -0.206 F 
ATOM     82  C   UNL A   1      36.522  32.434  33.304  1.00  0.00     0.060 A 
BRANCH  82  83
ATOM     83  S   UNL A   1      35.043  33.267  32.671  1.00  0.00     0.124 S 
ATOM     84  O   UNL A   1      34.390  33.699  33.902  1.00  0.00    -0.237 OA
ATOM     85  O   UNL A   1      35.635  34.328  31.862  1.00  0.00    -0.237 OA
ATOM     86  O   UNL A   1      34.361  32.212  31.927  1.00  0.00    -0.744 OA
ENDBRANCH  82  83
ENDBRANCH  50  75
BRANCH  62  87
ATOM     87  C   UNL A   1      44.079  25.998  34.354  1.00  0.00     0.058 A 
ATOM     88  C   UNL A   1      45.458  25.929  34.608  1.00  0.00     0.135 A 
ATOM     89  C   UNL A   1      43.309  24.985  34.992  1.00  0.00     0.135 A 
ATOM     90  F   UNL A   1      46.301  26.889  34.207  1.00  0.00    -0.206 F 
ATOM     91  C   UNL A   1      46.038  24.894  35.341  1.00  0.00     0.059 A 
ATOM     92  C   UNL A   1      43.860  23.988  35.790  1.00  0.00     0.059 A 
ATOM     93  F   UNL A   1      41.973  24.934  34.893  1.00  0.00    -0.206 F 
ATOM     94  C   UNL A   1      45.233  23.928  35.929  1.00  0.00     0.060 A 
BRANCH  94  95
ATOM     95  S   UNL A   1      45.992  22.633  36.917  1.00  0.00     0.124 S 
ATOM     96  O   UNL A   1      45.548  22.997  38.259  1.00  0.00    -0.237 OA
ATOM     97  O   UNL A   1      45.396  21.423  36.361  1.00  0.00    -0.237 OA
ATOM     98  O   UNL A   1      47.419  22.797  36.656  1.00  0.00    -0.744 OA
ENDBRANCH  94  95
ENDBRANCH  62  87
ENDBRANCH  36  37
ENDBRANCH  29  31
ENDBRANCH  28  29
ENDBRANCH   1  28
TORSDOF 15
ENDMDL
