MODEL 1
REMARK VINA RESULT:     -11.4      0.000      0.000
REMARK SMILES COc1cccc([C@@H]2C[N@@H+](Cc3nccn3C)C[C@H]2C(=O)OCCOC(=O)c2ccc(-c3c4nc(c(-c5c(F)cc(S(=O)(=O)[O-])cc5F)c5ccc([nH]5)c(-c5c(F)cc(S(=O)(=O)[O-])cc5F)c5nc(c(-c6c(F)cc(S(=O)(=O)[O-])cc6F)c6ccc3[nH]6)C=C5)C=C4)cc2)c1
REMARK SMILES IDX 24 1 23 2 22 3 20 4 21 5 19 6 8 7 9 8 10 9 18 10 7 12 3 13
REMARK SMILES IDX 4 14 94 15 5 16 6 17 2 18 1 19 11 20 12 21 13 22 16 23 14 24
REMARK SMILES IDX 15 25 17 26 25 27 26 28 27 29 28 30 29 31 93 32 30 33 92 34
REMARK SMILES IDX 31 35 32 36 33 37 86 38 34 39 91 40 85 41 87 42 35 43 90 44
REMARK SMILES IDX 84 45 83 46 36 48 70 49 49 50 69 51 50 52 53 53 68 54 88 55
REMARK SMILES IDX 51 56 52 57 67 59 89 60 54 61 37 62 38 63 47 64 39 65 40 66
REMARK SMILES IDX 46 67 48 68 41 69 42 70 43 71 44 72 45 73 71 74 72 75 81 76
REMARK SMILES IDX 73 77 74 78 80 79 82 80 75 81 76 82 77 83 78 84 79 85 55 86
REMARK SMILES IDX 56 87 65 88 57 89 58 90 64 91 66 92 59 93 60 94 61 95 62 96
REMARK SMILES IDX 63 97
REMARK H PARENT 10 11 87 47 53 58
REMARK Flexibility Score: inf
ROOT
ATOM      1  C   UNL A   1      39.923  22.269  26.482  1.00  0.00     0.275 C 
ENDROOT
BRANCH   1   2
ATOM      2  C   UNL A   1      38.646  21.762  25.824  1.00  0.00     0.274 C 
BRANCH   2   3
ATOM      3  O   UNL A   1      37.742  22.865  25.590  1.00  0.00    -0.462 OA
BRANCH   3   4
ATOM      4  C   UNL A   1      36.689  22.624  24.772  1.00  0.00     0.315 C 
ATOM      5  O   UNL A   1      36.799  22.239  23.612  1.00  0.00    -0.252 OA
BRANCH   4   6
ATOM      6  C   UNL A   1      35.331  22.905  25.387  1.00  0.00     0.167 C 
ATOM      7  C   UNL A   1      34.232  23.489  24.492  1.00  0.00     0.094 C 
ATOM      8  C   UNL A   1      32.973  22.728  24.937  1.00  0.00     0.272 C 
ATOM      9  N   UNL A   1      33.429  21.391  25.337  1.00  0.00    -0.327 N 
ATOM     10  C   UNL A   1      34.774  21.566  25.886  1.00  0.00     0.278 C 
ATOM     11  H   UNL A   1      32.812  21.002  26.049  1.00  0.00     0.348 HD
BRANCH   7  12
ATOM     12  C   UNL A   1      34.026  24.994  24.530  1.00  0.00    -0.035 A 
ATOM     13  C   UNL A   1      33.707  27.106  25.709  1.00  0.00     0.119 A 
ATOM     14  C   UNL A   1      33.404  27.738  24.505  1.00  0.00     0.046 A 
ATOM     15  C   UNL A   1      34.013  25.738  25.727  1.00  0.00     0.050 A 
ATOM     16  C   UNL A   1      33.432  27.022  23.313  1.00  0.00     0.004 A 
ATOM     17  C   UNL A   1      33.738  25.661  23.327  1.00  0.00     0.004 A 
BRANCH  13  18
ATOM     18  O   UNL A   1      33.570  27.882  26.827  1.00  0.00    -0.497 OA
ATOM     19  C   UNL A   1      33.579  29.285  26.589  1.00  0.00     0.278 C 
ENDBRANCH  13  18
ENDBRANCH   7  12
BRANCH   9  20
ATOM     20  C   UNL A   1      33.305  20.359  24.293  1.00  0.00     0.339 C 
BRANCH  20  21
ATOM     21  C   UNL A   1      33.188  18.929  24.748  1.00  0.00     0.164 A 
ATOM     22  N   UNL A   1      32.066  18.366  25.169  1.00  0.00    -0.236 NA
ATOM     23  N   UNL A   1      34.219  18.018  24.804  1.00  0.00    -0.333 N 
ATOM     24  C   UNL A   1      32.365  17.060  25.437  1.00  0.00     0.131 A 
ATOM     25  C   UNL A   1      33.698  16.820  25.219  1.00  0.00     0.107 A 
ATOM     26  C   UNL A   1      35.610  18.241  24.498  1.00  0.00     0.151 C 
ENDBRANCH  20  21
ENDBRANCH   9  20
ENDBRANCH   4   6
ENDBRANCH   3   4
ENDBRANCH   2   3
ENDBRANCH   1   2
BRANCH   1  27
ATOM     27  O   UNL A   1      39.825  23.695  26.589  1.00  0.00    -0.458 OA
BRANCH  27  28
ATOM     28  C   UNL A   1      40.994  24.342  26.791  1.00  0.00     0.338 C 
ATOM     29  O   UNL A   1      42.079  24.098  26.298  1.00  0.00    -0.246 OA
BRANCH  28  30
ATOM     30  C   UNL A   1      40.719  25.485  27.670  1.00  0.00     0.060 A 
ATOM     31  C   UNL A   1      41.636  26.532  27.701  1.00  0.00     0.016 A 
ATOM     32  C   UNL A   1      39.606  25.489  28.506  1.00  0.00     0.016 A 
ATOM     33  C   UNL A   1      41.481  27.569  28.610  1.00  0.00     0.010 A 
ATOM     34  C   UNL A   1      39.430  26.554  29.396  1.00  0.00     0.010 A 
ATOM     35  C   UNL A   1      40.389  27.580  29.487  1.00  0.00    -0.014 A 
BRANCH  35  36
ATOM     36  C   UNL A   1      40.326  28.594  30.572  1.00  0.00     0.031 A 
ATOM     37  C   UNL A   1      41.303  28.513  31.717  1.00  0.00     0.074 A 
ATOM     38  C   UNL A   1      39.457  29.621  30.503  1.00  0.00     0.049 A 
ATOM     39  N   UNL A   1      41.352  29.224  32.814  1.00  0.00    -0.248 NA
ATOM     40  C   UNL A   1      42.367  27.500  31.611  1.00  0.00     0.031 C 
ATOM     41  C   UNL A   1      38.513  29.858  29.409  1.00  0.00     0.029 A 
ATOM     42  N   UNL A   1      39.236  30.666  31.365  1.00  0.00    -0.354 N 
ATOM     43  C   UNL A   1      42.419  28.715  33.548  1.00  0.00     0.074 A 
ATOM     44  C   UNL A   1      42.989  27.636  32.774  1.00  0.00     0.031 C 
ATOM     45  C   UNL A   1      37.831  30.988  29.656  1.00  0.00     0.029 A 
ATOM     46  C   UNL A   1      38.236  31.516  30.955  1.00  0.00     0.049 A 
ATOM     47  H   UNL A   1      39.745  30.794  32.197  1.00  0.00     0.167 HD
ATOM     48  C   UNL A   1      42.878  29.114  34.759  1.00  0.00     0.037 A 
ATOM     49  C   UNL A   1      37.681  32.577  31.572  1.00  0.00     0.037 A 
ATOM     50  C   UNL A   1      42.332  30.216  35.508  1.00  0.00     0.049 A 
ATOM     51  C   UNL A   1      38.178  32.974  32.934  1.00  0.00     0.074 A 
ATOM     52  C   UNL A   1      42.719  30.693  36.748  1.00  0.00     0.029 A 
ATOM     53  N   UNL A   1      41.290  31.024  35.077  1.00  0.00    -0.354 N 
ATOM     54  N   UNL A   1      39.139  32.437  33.650  1.00  0.00    -0.248 NA
ATOM     55  C   UNL A   1      37.509  34.110  33.581  1.00  0.00     0.031 C 
ATOM     56  C   UNL A   1      41.890  31.770  37.081  1.00  0.00     0.029 A 
ATOM     57  C   UNL A   1      41.014  31.990  36.029  1.00  0.00     0.049 A 
ATOM     58  H   UNL A   1      40.816  30.925  34.219  1.00  0.00     0.167 HD
ATOM     59  C   UNL A   1      39.194  33.174  34.827  1.00  0.00     0.074 A 
ATOM     60  C   UNL A   1      38.184  34.209  34.717  1.00  0.00     0.031 C 
ATOM     61  C   UNL A   1      40.001  33.007  35.904  1.00  0.00     0.037 A 
BRANCH  48  62
ATOM     62  C   UNL A   1      44.004  28.324  35.368  1.00  0.00     0.058 A 
ATOM     63  C   UNL A   1      43.772  27.221  36.205  1.00  0.00     0.135 A 
ATOM     64  C   UNL A   1      45.337  28.668  35.094  1.00  0.00     0.135 A 
ATOM     65  F   UNL A   1      42.517  26.861  36.517  1.00  0.00    -0.206 F 
ATOM     66  C   UNL A   1      44.823  26.502  36.767  1.00  0.00     0.059 A 
ATOM     67  C   UNL A   1      46.403  27.949  35.625  1.00  0.00     0.059 A 
ATOM     68  F   UNL A   1      45.615  29.717  34.302  1.00  0.00    -0.206 F 
ATOM     69  C   UNL A   1      46.136  26.876  36.473  1.00  0.00     0.060 A 
BRANCH  69  70
ATOM     70  S   UNL A   1      47.493  25.935  37.205  1.00  0.00     0.124 S 
ATOM     71  O   UNL A   1      48.638  26.445  36.456  1.00  0.00    -0.237 OA
ATOM     72  O   UNL A   1      47.428  26.328  38.608  1.00  0.00    -0.237 OA
ATOM     73  O   UNL A   1      47.132  24.548  36.930  1.00  0.00    -0.744 OA
ENDBRANCH  69  70
ENDBRANCH  48  62
BRANCH  49  74
ATOM     74  C   UNL A   1      36.564  33.313  30.920  1.00  0.00     0.058 A 
ATOM     75  C   UNL A   1      36.794  34.177  29.841  1.00  0.00     0.135 A 
ATOM     76  C   UNL A   1      35.240  33.150  31.357  1.00  0.00     0.135 A 
ATOM     77  F   UNL A   1      38.044  34.377  29.396  1.00  0.00    -0.206 F 
ATOM     78  C   UNL A   1      35.752  34.856  29.216  1.00  0.00     0.059 A 
ATOM     79  C   UNL A   1      34.178  33.797  30.733  1.00  0.00     0.059 A 
ATOM     80  F   UNL A   1      34.965  32.327  32.381  1.00  0.00    -0.206 F 
ATOM     81  C   UNL A   1      34.446  34.654  29.667  1.00  0.00     0.060 A 
BRANCH  81  82
ATOM     82  S   UNL A   1      33.089  35.481  28.808  1.00  0.00     0.124 S 
ATOM     83  O   UNL A   1      33.806  36.467  28.007  1.00  0.00    -0.237 OA
ATOM     84  O   UNL A   1      32.473  34.383  28.071  1.00  0.00    -0.237 OA
ATOM     85  O   UNL A   1      32.283  36.020  29.901  1.00  0.00    -0.744 OA
ENDBRANCH  81  82
ENDBRANCH  49  74
BRANCH  61  86
ATOM     86  C   UNL A   1      39.834  33.981  37.037  1.00  0.00     0.058 A 
ATOM     87  C   UNL A   1      39.011  33.694  38.136  1.00  0.00     0.135 A 
ATOM     88  C   UNL A   1      40.516  35.208  37.027  1.00  0.00     0.135 A 
ATOM     89  F   UNL A   1      38.333  32.537  38.190  1.00  0.00    -0.206 F 
ATOM     90  C   UNL A   1      38.841  34.606  39.172  1.00  0.00     0.059 A 
ATOM     91  C   UNL A   1      40.380  36.125  38.063  1.00  0.00     0.059 A 
ATOM     92  F   UNL A   1      41.325  35.524  36.003  1.00  0.00    -0.206 F 
ATOM     93  C   UNL A   1      39.525  35.823  39.123  1.00  0.00     0.060 A 
BRANCH  93  94
ATOM     94  S   UNL A   1      39.298  37.004  40.470  1.00  0.00     0.124 S 
ATOM     95  O   UNL A   1      38.519  38.049  39.814  1.00  0.00    -0.237 OA
ATOM     96  O   UNL A   1      38.581  36.212  41.466  1.00  0.00    -0.237 OA
ATOM     97  O   UNL A   1      40.663  37.369  40.833  1.00  0.00    -0.744 OA
ENDBRANCH  93  94
ENDBRANCH  61  86
ENDBRANCH  35  36
ENDBRANCH  28  30
ENDBRANCH  27  28
ENDBRANCH   1  27
TORSDOF 18
ENDMDL
MODEL 2
REMARK VINA RESULT:     -11.4      4.943      7.093
REMARK SMILES COc1cccc([C@@H]2C[N@@H+](Cc3nccn3C)C[C@H]2C(=O)OCCOC(=O)c2ccc(-c3c4nc(c(-c5c(F)cc(S(=O)(=O)[O-])cc5F)c5ccc([nH]5)c(-c5c(F)cc(S(=O)(=O)[O-])cc5F)c5nc(c(-c6c(F)cc(S(=O)(=O)[O-])cc6F)c6ccc3[nH]6)C=C5)C=C4)cc2)c1
REMARK SMILES IDX 24 1 23 2 22 3 20 4 21 5 19 6 8 7 9 8 10 9 18 10 7 12 3 13
REMARK SMILES IDX 4 14 94 15 5 16 6 17 2 18 1 19 11 20 12 21 13 22 16 23 14 24
REMARK SMILES IDX 15 25 17 26 25 27 26 28 27 29 28 30 29 31 93 32 30 33 92 34
REMARK SMILES IDX 31 35 32 36 33 37 86 38 34 39 91 40 85 41 87 42 35 43 90 44
REMARK SMILES IDX 84 45 83 46 36 48 70 49 49 50 69 51 50 52 53 53 68 54 88 55
REMARK SMILES IDX 51 56 52 57 67 59 89 60 54 61 37 62 38 63 47 64 39 65 40 66
REMARK SMILES IDX 46 67 48 68 41 69 42 70 43 71 44 72 45 73 71 74 72 75 81 76
REMARK SMILES IDX 73 77 74 78 80 79 82 80 75 81 76 82 77 83 78 84 79 85 55 86
REMARK SMILES IDX 56 87 65 88 57 89 58 90 64 91 66 92 59 93 60 94 61 95 62 96
REMARK SMILES IDX 63 97
REMARK H PARENT 10 11 87 47 53 58
REMARK Flexibility Score: inf
ROOT
ATOM      1  C   UNL A   1      37.493  21.375  24.973  1.00  0.00     0.275 C 
ENDROOT
BRANCH   1   2
ATOM      2  C   UNL A   1      36.745  22.233  23.962  1.00  0.00     0.274 C 
BRANCH   2   3
ATOM      3  O   UNL A   1      35.372  22.403  24.382  1.00  0.00    -0.462 OA
BRANCH   3   4
ATOM      4  C   UNL A   1      34.474  22.701  23.412  1.00  0.00     0.315 C 
ATOM      5  O   UNL A   1      34.733  23.380  22.424  1.00  0.00    -0.252 OA
BRANCH   4   6
ATOM      6  C   UNL A   1      33.078  22.156  23.652  1.00  0.00     0.167 C 
ATOM      7  C   UNL A   1      32.877  21.137  24.780  1.00  0.00     0.094 C 
ATOM      8  C   UNL A   1      31.548  21.573  25.418  1.00  0.00     0.272 C 
ATOM      9  N   UNL A   1      31.490  23.033  25.272  1.00  0.00    -0.327 N 
ATOM     10  C   UNL A   1      32.184  23.346  24.023  1.00  0.00     0.278 C 
ATOM     11  H   UNL A   1      30.522  23.348  25.219  1.00  0.00     0.348 HD
BRANCH   7  12
ATOM     12  C   UNL A   1      32.865  19.666  24.399  1.00  0.00    -0.035 A 
ATOM     13  C   UNL A   1      33.370  17.317  24.818  1.00  0.00     0.119 A 
ATOM     14  C   UNL A   1      33.019  17.002  23.507  1.00  0.00     0.046 A 
ATOM     15  C   UNL A   1      33.299  18.643  25.265  1.00  0.00     0.050 A 
ATOM     16  C   UNL A   1      32.571  17.998  22.645  1.00  0.00     0.004 A 
ATOM     17  C   UNL A   1      32.496  19.318  23.088  1.00  0.00     0.004 A 
BRANCH  13  18
ATOM     18  O   UNL A   1      33.875  16.279  25.552  1.00  0.00    -0.497 OA
ATOM     19  C   UNL A   1      35.248  15.988  25.317  1.00  0.00     0.278 C 
ENDBRANCH  13  18
ENDBRANCH   7  12
BRANCH   9  20
ATOM     20  C   UNL A   1      31.945  23.789  26.451  1.00  0.00     0.339 C 
BRANCH  20  21
ATOM     21  C   UNL A   1      31.916  25.291  26.361  1.00  0.00     0.164 A 
ATOM     22  N   UNL A   1      30.848  26.036  26.604  1.00  0.00    -0.236 NA
ATOM     23  N   UNL A   1      32.975  26.094  26.002  1.00  0.00    -0.333 N 
ATOM     24  C   UNL A   1      31.243  27.336  26.465  1.00  0.00     0.131 A 
ATOM     25  C   UNL A   1      32.562  27.398  26.090  1.00  0.00     0.107 A 
ATOM     26  C   UNL A   1      34.295  25.683  25.596  1.00  0.00     0.151 C 
ENDBRANCH  20  21
ENDBRANCH   9  20
ENDBRANCH   4   6
ENDBRANCH   3   4
ENDBRANCH   2   3
ENDBRANCH   1   2
BRANCH   1  27
ATOM     27  O   UNL A   1      37.959  22.236  26.021  1.00  0.00    -0.458 OA
BRANCH  27  28
ATOM     28  C   UNL A   1      39.269  22.115  26.330  1.00  0.00     0.338 C 
ATOM     29  O   UNL A   1      40.012  21.183  26.087  1.00  0.00    -0.246 OA
BRANCH  28  30
ATOM     30  C   UNL A   1      39.692  23.374  26.955  1.00  0.00     0.060 A 
ATOM     31  C   UNL A   1      39.124  24.561  26.501  1.00  0.00     0.016 A 
ATOM     32  C   UNL A   1      40.689  23.388  27.927  1.00  0.00     0.016 A 
ATOM     33  C   UNL A   1      39.588  25.781  26.973  1.00  0.00     0.010 A 
ATOM     34  C   UNL A   1      41.130  24.616  28.430  1.00  0.00     0.010 A 
ATOM     35  C   UNL A   1      40.614  25.825  27.925  1.00  0.00    -0.014 A 
BRANCH  35  36
ATOM     36  C   UNL A   1      41.224  27.131  28.291  1.00  0.00     0.031 A 
ATOM     37  C   UNL A   1      42.701  27.342  28.077  1.00  0.00     0.074 A 
ATOM     38  C   UNL A   1      40.459  28.143  28.741  1.00  0.00     0.049 A 
ATOM     39  N   UNL A   1      43.450  28.357  28.426  1.00  0.00    -0.248 NA
ATOM     40  C   UNL A   1      43.430  26.274  27.373  1.00  0.00     0.031 C 
ATOM     41  C   UNL A   1      39.006  28.093  28.918  1.00  0.00     0.029 A 
ATOM     42  N   UNL A   1      40.795  29.419  29.119  1.00  0.00    -0.354 N 
ATOM     43  C   UNL A   1      44.742  28.029  28.028  1.00  0.00     0.074 A 
ATOM     44  C   UNL A   1      44.676  26.722  27.413  1.00  0.00     0.031 C 
ATOM     45  C   UNL A   1      38.575  29.289  29.349  1.00  0.00     0.029 A 
ATOM     46  C   UNL A   1      39.724  30.167  29.546  1.00  0.00     0.049 A 
ATOM     47  H   UNL A   1      41.716  29.765  29.087  1.00  0.00     0.167 HD
ATOM     48  C   UNL A   1      45.879  28.752  28.166  1.00  0.00     0.037 A 
ATOM     49  C   UNL A   1      39.676  31.407  30.074  1.00  0.00     0.037 A 
ATOM     50  C   UNL A   1      45.932  30.071  28.744  1.00  0.00     0.049 A 
ATOM     51  C   UNL A   1      40.955  32.174  30.258  1.00  0.00     0.074 A 
ATOM     52  C   UNL A   1      47.035  30.883  28.939  1.00  0.00     0.029 A 
ATOM     53  N   UNL A   1      44.830  30.775  29.206  1.00  0.00    -0.354 N 
ATOM     54  N   UNL A   1      42.181  31.820  29.945  1.00  0.00    -0.248 NA
ATOM     55  C   UNL A   1      40.851  33.500  30.879  1.00  0.00     0.031 C 
ATOM     56  C   UNL A   1      46.604  32.068  29.548  1.00  0.00     0.029 A 
ATOM     57  C   UNL A   1      45.227  32.009  29.693  1.00  0.00     0.049 A 
ATOM     58  H   UNL A   1      43.902  30.447  29.189  1.00  0.00     0.167 HD
ATOM     59  C   UNL A   1      42.992  32.884  30.325  1.00  0.00     0.074 A 
ATOM     60  C   UNL A   1      42.115  33.902  30.869  1.00  0.00     0.031 C 
ATOM     61  C   UNL A   1      44.339  33.006  30.237  1.00  0.00     0.037 A 
BRANCH  48  62
ATOM     62  C   UNL A   1      47.166  28.115  27.721  1.00  0.00     0.058 A 
ATOM     63  C   UNL A   1      47.990  27.403  28.607  1.00  0.00     0.135 A 
ATOM     64  C   UNL A   1      47.571  28.203  26.380  1.00  0.00     0.135 A 
ATOM     65  F   UNL A   1      47.662  27.306  29.905  1.00  0.00    -0.206 F 
ATOM     66  C   UNL A   1      49.182  26.823  28.183  1.00  0.00     0.059 A 
ATOM     67  C   UNL A   1      48.746  27.611  25.929  1.00  0.00     0.059 A 
ATOM     68  F   UNL A   1      46.821  28.876  25.491  1.00  0.00    -0.206 F 
ATOM     69  C   UNL A   1      49.553  26.934  26.842  1.00  0.00     0.060 A 
BRANCH  69  70
ATOM     70  S   UNL A   1      51.100  26.175  26.301  1.00  0.00     0.124 S 
ATOM     71  O   UNL A   1      50.947  24.813  26.803  1.00  0.00    -0.237 OA
ATOM     72  O   UNL A   1      51.036  26.327  24.852  1.00  0.00    -0.237 OA
ATOM     73  O   UNL A   1      52.123  26.976  26.966  1.00  0.00    -0.744 OA
ENDBRANCH  69  70
ENDBRANCH  48  62
BRANCH  49  74
ATOM     74  C   UNL A   1      38.371  31.979  30.503  1.00  0.00     0.058 A 
ATOM     75  C   UNL A   1      37.840  31.708  31.772  1.00  0.00     0.135 A 
ATOM     76  C   UNL A   1      37.639  32.824  29.655  1.00  0.00     0.135 A 
ATOM     77  F   UNL A   1      38.495  30.894  32.614  1.00  0.00    -0.206 F 
ATOM     78  C   UNL A   1      36.628  32.252  32.186  1.00  0.00     0.059 A 
ATOM     79  C   UNL A   1      36.439  33.403  30.055  1.00  0.00     0.059 A 
ATOM     80  F   UNL A   1      38.109  33.123  28.433  1.00  0.00    -0.206 F 
ATOM     81  C   UNL A   1      35.938  33.104  31.320  1.00  0.00     0.060 A 
BRANCH  81  82
ATOM     82  S   UNL A   1      34.401  33.866  31.888  1.00  0.00     0.124 S 
ATOM     83  O   UNL A   1      33.801  32.780  32.655  1.00  0.00    -0.237 OA
ATOM     84  O   UNL A   1      34.887  35.003  32.662  1.00  0.00    -0.237 OA
ATOM     85  O   UNL A   1      33.721  34.212  30.643  1.00  0.00    -0.744 OA
ENDBRANCH  81  82
ENDBRANCH  49  74
BRANCH  61  86
ATOM     86  C   UNL A   1      44.939  34.296  30.722  1.00  0.00     0.058 A 
ATOM     87  C   UNL A   1      45.092  35.401  29.871  1.00  0.00     0.135 A 
ATOM     88  C   UNL A   1      45.353  34.430  32.057  1.00  0.00     0.135 A 
ATOM     89  F   UNL A   1      44.717  35.321  28.585  1.00  0.00    -0.206 F 
ATOM     90  C   UNL A   1      45.668  36.586  30.317  1.00  0.00     0.059 A 
ATOM     91  C   UNL A   1      45.909  35.613  32.530  1.00  0.00     0.059 A 
ATOM     92  F   UNL A   1      45.217  33.405  32.914  1.00  0.00    -0.206 F 
ATOM     93  C   UNL A   1      46.080  36.679  31.648  1.00  0.00     0.060 A 
BRANCH  93  94
ATOM     94  S   UNL A   1      46.829  38.220  32.220  1.00  0.00     0.124 S 
ATOM     95  O   UNL A   1      46.950  37.971  33.653  1.00  0.00    -0.237 OA
ATOM     96  O   UNL A   1      48.085  38.255  31.476  1.00  0.00    -0.237 OA
ATOM     97  O   UNL A   1      45.852  39.233  31.837  1.00  0.00    -0.744 OA
ENDBRANCH  93  94
ENDBRANCH  61  86
ENDBRANCH  35  36
ENDBRANCH  28  30
ENDBRANCH  27  28
ENDBRANCH   1  27
TORSDOF 18
ENDMDL
MODEL 3
REMARK VINA RESULT:     -11.3      1.410      3.968
REMARK SMILES COc1cccc([C@@H]2C[N@@H+](Cc3nccn3C)C[C@H]2C(=O)OCCOC(=O)c2ccc(-c3c4nc(c(-c5c(F)cc(S(=O)(=O)[O-])cc5F)c5ccc([nH]5)c(-c5c(F)cc(S(=O)(=O)[O-])cc5F)c5nc(c(-c6c(F)cc(S(=O)(=O)[O-])cc6F)c6ccc3[nH]6)C=C5)C=C4)cc2)c1
REMARK SMILES IDX 24 1 23 2 22 3 20 4 21 5 19 6 8 7 9 8 10 9 18 10 7 12 3 13
REMARK SMILES IDX 4 14 94 15 5 16 6 17 2 18 1 19 11 20 12 21 13 22 16 23 14 24
REMARK SMILES IDX 15 25 17 26 25 27 26 28 27 29 28 30 29 31 93 32 30 33 92 34
REMARK SMILES IDX 31 35 32 36 33 37 86 38 34 39 91 40 85 41 87 42 35 43 90 44
REMARK SMILES IDX 84 45 83 46 36 48 70 49 49 50 69 51 50 52 53 53 68 54 88 55
REMARK SMILES IDX 51 56 52 57 67 59 89 60 54 61 37 62 38 63 47 64 39 65 40 66
REMARK SMILES IDX 46 67 48 68 41 69 42 70 43 71 44 72 45 73 71 74 72 75 81 76
REMARK SMILES IDX 73 77 74 78 80 79 82 80 75 81 76 82 77 83 78 84 79 85 55 86
REMARK SMILES IDX 56 87 65 88 57 89 58 90 64 91 66 92 59 93 60 94 61 95 62 96
REMARK SMILES IDX 63 97
REMARK H PARENT 10 11 87 47 53 58
REMARK Flexibility Score: inf
ROOT
ATOM      1  C   UNL A   1      38.918  22.735  26.351  1.00  0.00     0.275 C 
ENDROOT
BRANCH   1   2
ATOM      2  C   UNL A   1      37.640  22.897  25.538  1.00  0.00     0.274 C 
BRANCH   2   3
ATOM      3  O   UNL A   1      36.706  21.847  25.876  1.00  0.00    -0.462 OA
BRANCH   3   4
ATOM      4  C   UNL A   1      35.400  22.200  25.955  1.00  0.00     0.315 C 
ATOM      5  O   UNL A   1      34.841  22.528  26.997  1.00  0.00    -0.252 OA
BRANCH   4   6
ATOM      6  C   UNL A   1      34.644  22.125  24.642  1.00  0.00     0.167 C 
ATOM      7  C   UNL A   1      33.276  21.433  24.627  1.00  0.00     0.094 C 
ATOM      8  C   UNL A   1      32.433  22.336  23.712  1.00  0.00     0.272 C 
ATOM      9  N   UNL A   1      32.940  23.699  23.912  1.00  0.00    -0.327 N 
ATOM     10  C   UNL A   1      34.370  23.565  24.193  1.00  0.00     0.278 C 
ATOM     11  H   UNL A   1      32.803  24.258  23.070  1.00  0.00     0.348 HD
BRANCH   7  12
ATOM     12  C   UNL A   1      33.233  19.980  24.182  1.00  0.00    -0.035 A 
ATOM     13  C   UNL A   1      34.100  17.700  24.146  1.00  0.00     0.119 A 
ATOM     14  C   UNL A   1      33.218  17.375  23.118  1.00  0.00     0.046 A 
ATOM     15  C   UNL A   1      34.113  18.998  24.676  1.00  0.00     0.050 A 
ATOM     16  C   UNL A   1      32.329  18.328  22.633  1.00  0.00     0.004 A 
ATOM     17  C   UNL A   1      32.338  19.619  23.159  1.00  0.00     0.004 A 
BRANCH  13  18
ATOM     18  O   UNL A   1      34.985  16.715  24.490  1.00  0.00    -0.497 OA
ATOM     19  C   UNL A   1      34.495  15.771  25.436  1.00  0.00     0.278 C 
ENDBRANCH  13  18
ENDBRANCH   7  12
BRANCH   9  20
ATOM     20  C   UNL A   1      32.180  24.503  24.885  1.00  0.00     0.339 C 
BRANCH  20  21
ATOM     21  C   UNL A   1      31.359  25.643  24.346  1.00  0.00     0.164 A 
ATOM     22  N   UNL A   1      30.046  25.609  24.182  1.00  0.00    -0.236 NA
ATOM     23  N   UNL A   1      31.851  26.863  23.937  1.00  0.00    -0.333 N 
ATOM     24  C   UNL A   1      29.681  26.843  23.725  1.00  0.00     0.131 A 
ATOM     25  C   UNL A   1      30.786  27.640  23.563  1.00  0.00     0.107 A 
ATOM     26  C   UNL A   1      33.228  27.286  23.887  1.00  0.00     0.151 C 
ENDBRANCH  20  21
ENDBRANCH   9  20
ENDBRANCH   4   6
ENDBRANCH   3   4
ENDBRANCH   2   3
ENDBRANCH   1   2
BRANCH   1  27
ATOM     27  O   UNL A   1      39.613  23.990  26.329  1.00  0.00    -0.458 OA
BRANCH  27  28
ATOM     28  C   UNL A   1      40.654  24.089  27.185  1.00  0.00     0.338 C 
ATOM     29  O   UNL A   1      41.634  23.372  27.257  1.00  0.00    -0.246 OA
BRANCH  28  30
ATOM     30  C   UNL A   1      40.448  25.298  27.991  1.00  0.00     0.060 A 
ATOM     31  C   UNL A   1      41.494  26.212  28.092  1.00  0.00     0.016 A 
ATOM     32  C   UNL A   1      39.264  25.491  28.697  1.00  0.00     0.016 A 
ATOM     33  C   UNL A   1      41.388  27.301  28.945  1.00  0.00     0.010 A 
ATOM     34  C   UNL A   1      39.143  26.610  29.528  1.00  0.00     0.010 A 
ATOM     35  C   UNL A   1      40.221  27.500  29.693  1.00  0.00    -0.014 A 
BRANCH  35  36
ATOM     36  C   UNL A   1      40.184  28.564  30.732  1.00  0.00     0.031 A 
ATOM     37  C   UNL A   1      41.181  28.527  31.862  1.00  0.00     0.074 A 
ATOM     38  C   UNL A   1      39.321  29.592  30.631  1.00  0.00     0.049 A 
ATOM     39  N   UNL A   1      41.255  29.287  32.924  1.00  0.00    -0.248 NA
ATOM     40  C   UNL A   1      42.236  27.503  31.783  1.00  0.00     0.031 C 
ATOM     41  C   UNL A   1      38.359  29.787  29.545  1.00  0.00     0.029 A 
ATOM     42  N   UNL A   1      39.122  30.677  31.448  1.00  0.00    -0.354 N 
ATOM     43  C   UNL A   1      42.331  28.804  33.662  1.00  0.00     0.074 A 
ATOM     44  C   UNL A   1      42.880  27.686  32.927  1.00  0.00     0.031 C 
ATOM     45  C   UNL A   1      37.689  30.931  29.752  1.00  0.00     0.029 A 
ATOM     46  C   UNL A   1      38.121  31.515  31.018  1.00  0.00     0.049 A 
ATOM     47  H   UNL A   1      39.647  30.839  32.265  1.00  0.00     0.167 HD
ATOM     48  C   UNL A   1      42.815  29.254  34.844  1.00  0.00     0.037 A 
ATOM     49  C   UNL A   1      37.584  32.607  31.596  1.00  0.00     0.037 A 
ATOM     50  C   UNL A   1      42.290  30.393  35.552  1.00  0.00     0.049 A 
ATOM     51  C   UNL A   1      38.109  33.062  32.930  1.00  0.00     0.074 A 
ATOM     52  C   UNL A   1      42.703  30.922  36.762  1.00  0.00     0.029 A 
ATOM     53  N   UNL A   1      41.245  31.188  35.103  1.00  0.00    -0.354 N 
ATOM     54  N   UNL A   1      39.079  32.550  33.652  1.00  0.00    -0.248 NA
ATOM     55  C   UNL A   1      37.458  34.230  33.536  1.00  0.00     0.031 C 
ATOM     56  C   UNL A   1      41.886  32.020  37.061  1.00  0.00     0.029 A 
ATOM     57  C   UNL A   1      40.993  32.199  36.016  1.00  0.00     0.049 A 
ATOM     58  H   UNL A   1      40.756  31.054  34.260  1.00  0.00     0.167 HD
ATOM     59  C   UNL A   1      39.159  33.340  34.794  1.00  0.00     0.074 A 
ATOM     60  C   UNL A   1      38.155  34.376  34.654  1.00  0.00     0.031 C 
ATOM     61  C   UNL A   1      39.985  33.217  35.862  1.00  0.00     0.037 A 
BRANCH  48  62
ATOM     62  C   UNL A   1      43.946  28.484  35.469  1.00  0.00     0.058 A 
ATOM     63  C   UNL A   1      45.291  28.793  35.210  1.00  0.00     0.135 A 
ATOM     64  C   UNL A   1      43.677  27.431  36.358  1.00  0.00     0.135 A 
ATOM     65  F   UNL A   1      45.604  29.776  34.352  1.00  0.00    -0.206 F 
ATOM     66  C   UNL A   1      46.328  28.069  35.791  1.00  0.00     0.059 A 
ATOM     67  C   UNL A   1      44.698  26.709  36.969  1.00  0.00     0.059 A 
ATOM     68  F   UNL A   1      42.408  27.092  36.639  1.00  0.00    -0.206 F 
ATOM     69  C   UNL A   1      46.021  27.027  36.668  1.00  0.00     0.060 A 
BRANCH  69  70
ATOM     70  S   UNL A   1      47.374  26.095  37.419  1.00  0.00     0.124 S 
ATOM     71  O   UNL A   1      47.527  26.784  38.697  1.00  0.00    -0.237 OA
ATOM     72  O   UNL A   1      46.825  24.745  37.488  1.00  0.00    -0.237 OA
ATOM     73  O   UNL A   1      48.473  26.272  36.475  1.00  0.00    -0.744 OA
ENDBRANCH  69  70
ENDBRANCH  48  62
BRANCH  49  74
ATOM     74  C   UNL A   1      36.460  33.321  30.932  1.00  0.00     0.058 A 
ATOM     75  C   UNL A   1      35.152  33.236  31.426  1.00  0.00     0.135 A 
ATOM     76  C   UNL A   1      36.680  34.117  29.796  1.00  0.00     0.135 A 
ATOM     77  F   UNL A   1      34.887  32.476  32.500  1.00  0.00    -0.206 F 
ATOM     78  C   UNL A   1      34.098  33.913  30.818  1.00  0.00     0.059 A 
ATOM     79  C   UNL A   1      35.650  34.825  29.188  1.00  0.00     0.059 A 
ATOM     80  F   UNL A   1      37.917  34.239  29.289  1.00  0.00    -0.206 F 
ATOM     81  C   UNL A   1      34.360  34.710  29.702  1.00  0.00     0.060 A 
BRANCH  81  82
ATOM     82  S   UNL A   1      33.003  35.644  28.960  1.00  0.00     0.124 S 
ATOM     83  O   UNL A   1      32.362  34.626  28.136  1.00  0.00    -0.237 OA
ATOM     84  O   UNL A   1      32.253  36.085  30.132  1.00  0.00    -0.237 OA
ATOM     85  O   UNL A   1      33.690  36.707  28.232  1.00  0.00    -0.744 OA
ENDBRANCH  81  82
ENDBRANCH  49  74
BRANCH  61  86
ATOM     86  C   UNL A   1      39.845  34.242  36.952  1.00  0.00     0.058 A 
ATOM     87  C   UNL A   1      39.064  33.999  38.093  1.00  0.00     0.135 A 
ATOM     88  C   UNL A   1      40.510  35.474  36.860  1.00  0.00     0.135 A 
ATOM     89  F   UNL A   1      38.404  32.838  38.226  1.00  0.00    -0.206 F 
ATOM     90  C   UNL A   1      38.919  34.958  39.089  1.00  0.00     0.059 A 
ATOM     91  C   UNL A   1      40.398  36.438  37.855  1.00  0.00     0.059 A 
ATOM     92  F   UNL A   1      41.279  35.750  35.794  1.00  0.00    -0.206 F 
ATOM     93  C   UNL A   1      39.585  36.178  38.958  1.00  0.00     0.060 A 
BRANCH  93  94
ATOM     94  S   UNL A   1      39.389  37.420  40.254  1.00  0.00     0.124 S 
ATOM     95  O   UNL A   1      38.717  36.650  41.296  1.00  0.00    -0.237 OA
ATOM     96  O   UNL A   1      40.770  37.800  40.539  1.00  0.00    -0.237 OA
ATOM     97  O   UNL A   1      38.581  38.453  39.613  1.00  0.00    -0.744 OA
ENDBRANCH  93  94
ENDBRANCH  61  86
ENDBRANCH  35  36
ENDBRANCH  28  30
ENDBRANCH  27  28
ENDBRANCH   1  27
TORSDOF 18
ENDMDL
