MODEL 1
REMARK VINA RESULT:     -11.4      0.000      0.000
REMARK SMILES COc1cc2c(cc1OC)[C@H](C(=O)OCCOC(=O)c1ccc(-c3c4nc(c(-c5c(F)cc(S(=O)(=O)[O-])cc5F)c5ccc([nH]5)c(-c5c(F)cc(S(=O)(=O)[O-])cc5F)c5nc(c(-c6c(F)cc(S(=O)(=O)[O-])cc6F)c6ccc3[nH]6)C=C5)C=C4)cc1)[C@@H](c1ccc(SC)cc1)N(C)C2=O
REMARK SMILES IDX 16 1 15 2 14 3 12 4 13 5 11 6 3 7 4 8 8 9 5 10 7 11 6 12
REMARK SMILES IDX 97 13 95 14 98 15 86 16 96 17 2 18 1 19 9 20 10 21 87 22
REMARK SMILES IDX 88 23 94 24 89 25 93 26 90 27 91 28 92 29 17 30 18 31 19 32
REMARK SMILES IDX 20 33 21 34 85 35 22 36 84 37 23 38 24 39 25 40 78 41 26 42
REMARK SMILES IDX 83 43 77 44 79 45 27 46 82 47 76 48 75 49 28 51 62 52 41 53
REMARK SMILES IDX 61 54 42 55 45 56 60 57 80 58 43 59 44 60 59 62 81 63 46 64
REMARK SMILES IDX 29 65 30 66 39 67 31 68 32 69 38 70 40 71 33 72 34 73 35 74
REMARK SMILES IDX 36 75 37 76 63 77 64 78 73 79 65 80 66 81 72 82 74 83 67 84
REMARK SMILES IDX 68 85 69 86 70 87 71 88 47 89 48 90 57 91 49 92 50 93 56 94
REMARK SMILES IDX 58 95 51 96 52 97 53 98 54 99 55 100
REMARK H PARENT 79 50 45 61
REMARK Flexibility Score: inf
ROOT
ATOM      1  C   UNL A   1      37.260  23.036  24.540  1.00  0.00     0.275 C 
ENDROOT
BRANCH   1   2
ATOM      2  C   UNL A   1      35.779  23.396  24.581  1.00  0.00     0.274 C 
BRANCH   2   3
ATOM      3  O   UNL A   1      35.306  23.872  23.303  1.00  0.00    -0.462 OA
BRANCH   3   4
ATOM      4  C   UNL A   1      33.948  23.952  23.195  1.00  0.00     0.316 C 
ATOM      5  O   UNL A   1      33.340  24.070  22.137  1.00  0.00    -0.251 OA
BRANCH   4   6
ATOM      6  C   UNL A   1      33.283  24.076  24.560  1.00  0.00     0.157 C 
ATOM      7  C   UNL A   1      31.934  28.195  24.815  1.00  0.00     0.161 A 
ATOM      8  C   UNL A   1      31.130  27.146  25.285  1.00  0.00     0.064 A 
ATOM      9  C   UNL A   1      33.208  27.912  24.314  1.00  0.00     0.161 A 
ATOM     10  C   UNL A   1      31.581  25.817  25.262  1.00  0.00     0.048 A 
ATOM     11  C   UNL A   1      33.646  26.582  24.301  1.00  0.00     0.056 A 
ATOM     12  C   UNL A   1      32.825  25.518  24.721  1.00  0.00    -0.015 A 
ATOM     13  C   UNL A   1      30.748  24.761  25.884  1.00  0.00     0.254 C 
ATOM     14  N   UNL A   1      31.149  23.432  25.726  1.00  0.00    -0.333 N 
ATOM     15  O   UNL A   1      29.775  25.106  26.550  1.00  0.00    -0.269 OA
ATOM     16  C   UNL A   1      32.103  23.056  24.641  1.00  0.00     0.134 C 
ATOM     17  C   UNL A   1      30.293  22.432  26.359  1.00  0.00     0.147 C 
BRANCH   7  18
ATOM     18  O   UNL A   1      31.463  29.481  24.795  1.00  0.00    -0.493 OA
ATOM     19  C   UNL A   1      31.819  30.249  25.941  1.00  0.00     0.278 C 
ENDBRANCH   7  18
BRANCH   9  20
ATOM     20  O   UNL A   1      34.153  28.773  23.824  1.00  0.00    -0.493 OA
ATOM     21  C   UNL A   1      34.482  28.705  22.446  1.00  0.00     0.278 C 
ENDBRANCH   9  20
BRANCH  16  22
ATOM     22  C   UNL A   1      32.542  21.577  24.686  1.00  0.00    -0.024 A 
ATOM     23  C   UNL A   1      33.235  21.004  25.758  1.00  0.00     0.007 A 
ATOM     24  C   UNL A   1      32.232  20.723  23.607  1.00  0.00     0.007 A 
ATOM     25  C   UNL A   1      33.607  19.650  25.743  1.00  0.00     0.015 A 
ATOM     26  C   UNL A   1      32.568  19.359  23.614  1.00  0.00     0.015 A 
ATOM     27  C   UNL A   1      33.273  18.806  24.678  1.00  0.00     0.007 A 
BRANCH  27  28
ATOM     28  S   UNL A   1      33.751  17.091  24.833  1.00  0.00    -0.130 SA
ATOM     29  C   UNL A   1      34.128  16.577  23.136  1.00  0.00     0.091 C 
ENDBRANCH  27  28
ENDBRANCH  16  22
ENDBRANCH   4   6
ENDBRANCH   3   4
ENDBRANCH   2   3
ENDBRANCH   1   2
BRANCH   1  30
ATOM     30  O   UNL A   1      37.700  22.644  25.848  1.00  0.00    -0.458 OA
BRANCH  30  31
ATOM     31  C   UNL A   1      39.008  22.851  26.118  1.00  0.00     0.338 C 
ATOM     32  O   UNL A   1      39.925  22.071  25.882  1.00  0.00    -0.246 OA
BRANCH  31  33
ATOM     33  C   UNL A   1      39.208  24.167  26.761  1.00  0.00     0.060 A 
ATOM     34  C   UNL A   1      40.009  25.151  26.182  1.00  0.00     0.016 A 
ATOM     35  C   UNL A   1      38.662  24.390  28.024  1.00  0.00     0.016 A 
ATOM     36  C   UNL A   1      40.363  26.291  26.904  1.00  0.00     0.010 A 
ATOM     37  C   UNL A   1      38.935  25.580  28.707  1.00  0.00     0.010 A 
ATOM     38  C   UNL A   1      39.841  26.520  28.184  1.00  0.00    -0.014 A 
BRANCH  38  39
ATOM     39  C   UNL A   1      40.291  27.688  28.997  1.00  0.00     0.031 A 
ATOM     40  C   UNL A   1      41.659  27.690  29.639  1.00  0.00     0.074 A 
ATOM     41  C   UNL A   1      39.503  28.773  29.140  1.00  0.00     0.049 A 
ATOM     42  N   UNL A   1      42.198  28.556  30.461  1.00  0.00    -0.248 NA
ATOM     43  C   UNL A   1      42.545  26.566  29.306  1.00  0.00     0.031 C 
ATOM     44  C   UNL A   1      38.180  28.949  28.538  1.00  0.00     0.029 A 
ATOM     45  N   UNL A   1      39.706  29.937  29.841  1.00  0.00    -0.354 N 
ATOM     46  C   UNL A   1      43.467  28.069  30.756  1.00  0.00     0.074 A 
ATOM     47  C   UNL A   1      43.619  26.825  30.037  1.00  0.00     0.031 C 
ATOM     48  C   UNL A   1      37.703  30.158  28.869  1.00  0.00     0.029 A 
ATOM     49  C   UNL A   1      38.643  30.806  29.780  1.00  0.00     0.049 A 
ATOM     50  H   UNL A   1      40.533  30.130  30.338  1.00  0.00     0.167 HD
ATOM     51  C   UNL A   1      44.422  28.599  31.558  1.00  0.00     0.037 A 
ATOM     52  C   UNL A   1      38.419  31.970  30.420  1.00  0.00     0.037 A 
ATOM     53  C   UNL A   1      44.274  29.827  32.291  1.00  0.00     0.049 A 
ATOM     54  C   UNL A   1      39.443  32.491  31.386  1.00  0.00     0.074 A 
ATOM     55  C   UNL A   1      45.169  30.429  33.158  1.00  0.00     0.029 A 
ATOM     56  N   UNL A   1      43.152  30.640  32.246  1.00  0.00    -0.354 N 
ATOM     57  N   UNL A   1      40.616  31.990  31.694  1.00  0.00    -0.248 NA
ATOM     58  C   UNL A   1      39.104  33.724  32.109  1.00  0.00     0.031 C 
ATOM     59  C   UNL A   1      44.570  31.586  33.669  1.00  0.00     0.029 A 
ATOM     60  C   UNL A   1      43.321  31.725  33.089  1.00  0.00     0.049 A 
ATOM     61  H   UNL A   1      42.352  30.469  31.698  1.00  0.00     0.167 HD
ATOM     62  C   UNL A   1      41.157  32.850  32.642  1.00  0.00     0.074 A 
ATOM     63  C   UNL A   1      40.191  33.910  32.845  1.00  0.00     0.031 C 
ATOM     64  C   UNL A   1      42.347  32.767  33.287  1.00  0.00     0.037 A 
BRANCH  51  65
ATOM     65  C   UNL A   1      45.700  27.822  31.717  1.00  0.00     0.058 A 
ATOM     66  C   UNL A   1      45.824  26.789  32.658  1.00  0.00     0.135 A 
ATOM     67  C   UNL A   1      46.810  28.111  30.907  1.00  0.00     0.135 A 
ATOM     68  F   UNL A   1      44.801  26.493  33.475  1.00  0.00    -0.206 F 
ATOM     69  C   UNL A   1      47.013  26.082  32.805  1.00  0.00     0.059 A 
ATOM     70  C   UNL A   1      48.003  27.405  31.025  1.00  0.00     0.059 A 
ATOM     71  F   UNL A   1      46.745  29.096  29.998  1.00  0.00    -0.206 F 
ATOM     72  C   UNL A   1      48.099  26.400  31.988  1.00  0.00     0.060 A 
BRANCH  72  73
ATOM     73  S   UNL A   1      49.642  25.489  32.203  1.00  0.00     0.124 S 
ATOM     74  O   UNL A   1      49.893  25.024  30.843  1.00  0.00    -0.237 OA
ATOM     75  O   UNL A   1      50.549  26.519  32.699  1.00  0.00    -0.237 OA
ATOM     76  O   UNL A   1      49.292  24.451  33.167  1.00  0.00    -0.744 OA
ENDBRANCH  72  73
ENDBRANCH  51  65
BRANCH  52  77
ATOM     77  C   UNL A   1      37.135  32.685  30.203  1.00  0.00     0.058 A 
ATOM     78  C   UNL A   1      36.051  32.509  31.073  1.00  0.00     0.135 A 
ATOM     79  C   UNL A   1      36.986  33.594  29.143  1.00  0.00     0.135 A 
ATOM     80  F   UNL A   1      36.142  31.639  32.091  1.00  0.00    -0.206 F 
ATOM     81  C   UNL A   1      34.864  33.215  30.905  1.00  0.00     0.059 A 
ATOM     82  C   UNL A   1      35.821  34.330  28.970  1.00  0.00     0.059 A 
ATOM     83  F   UNL A   1      38.001  33.803  28.289  1.00  0.00    -0.206 F 
ATOM     84  C   UNL A   1      34.762  34.130  29.855  1.00  0.00     0.060 A 
BRANCH  84  85
ATOM     85  S   UNL A   1      33.255  35.111  29.692  1.00  0.00     0.124 S 
ATOM     86  O   UNL A   1      33.796  36.430  29.387  1.00  0.00    -0.237 OA
ATOM     87  O   UNL A   1      32.560  34.436  28.599  1.00  0.00    -0.237 OA
ATOM     88  O   UNL A   1      32.625  34.971  31.001  1.00  0.00    -0.744 OA
ENDBRANCH  84  85
ENDBRANCH  52  77
BRANCH  64  89
ATOM     89  C   UNL A   1      42.675  33.864  34.259  1.00  0.00     0.058 A 
ATOM     90  C   UNL A   1      43.326  35.036  33.848  1.00  0.00     0.135 A 
ATOM     91  C   UNL A   1      42.312  33.748  35.609  1.00  0.00     0.135 A 
ATOM     92  F   UNL A   1      43.698  35.190  32.567  1.00  0.00    -0.206 F 
ATOM     93  C   UNL A   1      43.633  36.048  34.751  1.00  0.00     0.059 A 
ATOM     94  C   UNL A   1      42.590  34.757  36.526  1.00  0.00     0.059 A 
ATOM     95  F   UNL A   1      41.676  32.650  36.048  1.00  0.00    -0.206 F 
ATOM     96  C   UNL A   1      43.266  35.897  36.089  1.00  0.00     0.060 A 
BRANCH  96  97
ATOM     97  S   UNL A   1      43.658  37.217  37.256  1.00  0.00     0.124 S 
ATOM     98  O   UNL A   1      42.418  37.307  38.022  1.00  0.00    -0.237 OA
ATOM     99  O   UNL A   1      44.808  36.676  37.973  1.00  0.00    -0.237 OA
ATOM    100  O   UNL A   1      43.947  38.357  36.390  1.00  0.00    -0.744 OA
ENDBRANCH  96  97
ENDBRANCH  64  89
ENDBRANCH  38  39
ENDBRANCH  31  33
ENDBRANCH  30  31
ENDBRANCH   1  30
TORSDOF 18
ENDMDL
MODEL 2
REMARK VINA RESULT:     -11.4      2.400      3.236
REMARK SMILES COc1cc2c(cc1OC)[C@H](C(=O)OCCOC(=O)c1ccc(-c3c4nc(c(-c5c(F)cc(S(=O)(=O)[O-])cc5F)c5ccc([nH]5)c(-c5c(F)cc(S(=O)(=O)[O-])cc5F)c5nc(c(-c6c(F)cc(S(=O)(=O)[O-])cc6F)c6ccc3[nH]6)C=C5)C=C4)cc1)[C@@H](c1ccc(SC)cc1)N(C)C2=O
REMARK SMILES IDX 16 1 15 2 14 3 12 4 13 5 11 6 3 7 4 8 8 9 5 10 7 11 6 12
REMARK SMILES IDX 97 13 95 14 98 15 86 16 96 17 2 18 1 19 9 20 10 21 87 22
REMARK SMILES IDX 88 23 94 24 89 25 93 26 90 27 91 28 92 29 17 30 18 31 19 32
REMARK SMILES IDX 20 33 21 34 85 35 22 36 84 37 23 38 24 39 25 40 78 41 26 42
REMARK SMILES IDX 83 43 77 44 79 45 27 46 82 47 76 48 75 49 28 51 62 52 41 53
REMARK SMILES IDX 61 54 42 55 45 56 60 57 80 58 43 59 44 60 59 62 81 63 46 64
REMARK SMILES IDX 29 65 30 66 39 67 31 68 32 69 38 70 40 71 33 72 34 73 35 74
REMARK SMILES IDX 36 75 37 76 63 77 64 78 73 79 65 80 66 81 72 82 74 83 67 84
REMARK SMILES IDX 68 85 69 86 70 87 71 88 47 89 48 90 57 91 49 92 50 93 56 94
REMARK SMILES IDX 58 95 51 96 52 97 53 98 54 99 55 100
REMARK H PARENT 79 50 45 61
REMARK Flexibility Score: inf
ROOT
ATOM      1  C   UNL A   1      37.239  22.046  24.650  1.00  0.00     0.275 C 
ENDROOT
BRANCH   1   2
ATOM      2  C   UNL A   1      36.491  23.095  23.833  1.00  0.00     0.274 C 
BRANCH   2   3
ATOM      3  O   UNL A   1      35.852  24.077  24.676  1.00  0.00    -0.462 OA
BRANCH   3   4
ATOM      4  C   UNL A   1      34.574  24.389  24.315  1.00  0.00     0.316 C 
ATOM      5  O   UNL A   1      34.257  24.900  23.247  1.00  0.00    -0.251 OA
BRANCH   4   6
ATOM      6  C   UNL A   1      33.604  24.211  25.477  1.00  0.00     0.157 C 
ATOM      7  C   UNL A   1      32.258  28.215  26.480  1.00  0.00     0.161 A 
ATOM      8  C   UNL A   1      31.359  27.138  26.465  1.00  0.00     0.064 A 
ATOM      9  C   UNL A   1      33.613  27.982  26.226  1.00  0.00     0.161 A 
ATOM     10  C   UNL A   1      31.795  25.830  26.200  1.00  0.00     0.048 A 
ATOM     11  C   UNL A   1      34.033  26.672  25.968  1.00  0.00     0.056 A 
ATOM     12  C   UNL A   1      33.130  25.593  25.899  1.00  0.00    -0.015 A 
ATOM     13  C   UNL A   1      30.831  24.710  26.319  1.00  0.00     0.254 C 
ATOM     14  N   UNL A   1      31.251  23.440  25.917  1.00  0.00    -0.333 N 
ATOM     15  O   UNL A   1      29.730  24.942  26.812  1.00  0.00    -0.269 OA
ATOM     16  C   UNL A   1      32.433  23.285  25.019  1.00  0.00     0.134 C 
ATOM     17  C   UNL A   1      30.263  22.373  26.055  1.00  0.00     0.147 C 
BRANCH   7  18
ATOM     18  O   UNL A   1      31.813  29.493  26.689  1.00  0.00    -0.493 OA
ATOM     19  C   UNL A   1      31.470  30.192  25.496  1.00  0.00     0.278 C 
ENDBRANCH   7  18
BRANCH   9  20
ATOM     20  O   UNL A   1      34.652  28.873  26.206  1.00  0.00    -0.493 OA
ATOM     21  C   UNL A   1      35.158  29.352  27.441  1.00  0.00     0.278 C 
ENDBRANCH   9  20
BRANCH  16  22
ATOM     22  C   UNL A   1      32.840  21.816  24.776  1.00  0.00    -0.024 A 
ATOM     23  C   UNL A   1      33.732  21.112  25.592  1.00  0.00     0.007 A 
ATOM     24  C   UNL A   1      32.291  21.110  23.686  1.00  0.00     0.007 A 
ATOM     25  C   UNL A   1      34.064  19.774  25.322  1.00  0.00     0.015 A 
ATOM     26  C   UNL A   1      32.592  19.760  23.443  1.00  0.00     0.015 A 
ATOM     27  C   UNL A   1      33.494  19.076  24.251  1.00  0.00     0.007 A 
BRANCH  27  28
ATOM     28  S   UNL A   1      33.958  17.359  24.077  1.00  0.00    -0.130 SA
ATOM     29  C   UNL A   1      33.055  16.516  25.404  1.00  0.00     0.091 C 
ENDBRANCH  27  28
ENDBRANCH  16  22
ENDBRANCH   4   6
ENDBRANCH   3   4
ENDBRANCH   2   3
ENDBRANCH   1   2
BRANCH   1  30
ATOM     30  O   UNL A   1      37.533  22.568  25.953  1.00  0.00    -0.458 OA
BRANCH  30  31
ATOM     31  C   UNL A   1      38.840  22.596  26.296  1.00  0.00     0.338 C 
ATOM     32  O   UNL A   1      39.609  21.640  26.289  1.00  0.00    -0.246 OA
BRANCH  31  33
ATOM     33  C   UNL A   1      39.244  23.958  26.704  1.00  0.00     0.060 A 
ATOM     34  C   UNL A   1      39.836  24.847  25.807  1.00  0.00     0.016 A 
ATOM     35  C   UNL A   1      39.120  24.326  28.043  1.00  0.00     0.016 A 
ATOM     36  C   UNL A   1      40.410  26.035  26.261  1.00  0.00     0.010 A 
ATOM     37  C   UNL A   1      39.605  25.564  28.480  1.00  0.00     0.010 A 
ATOM     38  C   UNL A   1      40.313  26.409  27.607  1.00  0.00    -0.014 A 
BRANCH  38  39
ATOM     39  C   UNL A   1      41.006  27.630  28.115  1.00  0.00     0.031 A 
ATOM     40  C   UNL A   1      42.513  27.733  28.056  1.00  0.00     0.074 A 
ATOM     41  C   UNL A   1      40.301  28.673  28.596  1.00  0.00     0.049 A 
ATOM     42  N   UNL A   1      43.309  28.657  28.534  1.00  0.00    -0.248 NA
ATOM     43  C   UNL A   1      43.222  26.648  27.361  1.00  0.00     0.031 C 
ATOM     44  C   UNL A   1      38.841  28.752  28.667  1.00  0.00     0.029 A 
ATOM     45  N   UNL A   1      40.723  29.871  29.117  1.00  0.00    -0.354 N 
ATOM     46  C   UNL A   1      44.602  28.254  28.216  1.00  0.00     0.074 A 
ATOM     47  C   UNL A   1      44.491  26.995  27.516  1.00  0.00     0.031 C 
ATOM     48  C   UNL A   1      38.489  29.944  29.173  1.00  0.00     0.029 A 
ATOM     49  C   UNL A   1      39.695  30.676  29.545  1.00  0.00     0.049 A 
ATOM     50  H   UNL A   1      41.671  30.129  29.177  1.00  0.00     0.167 HD
ATOM     51  C   UNL A   1      45.780  28.866  28.485  1.00  0.00     0.037 A 
ATOM     52  C   UNL A   1      39.711  31.849  30.209  1.00  0.00     0.037 A 
ATOM     53  C   UNL A   1      45.902  30.110  29.196  1.00  0.00     0.049 A 
ATOM     54  C   UNL A   1      41.026  32.462  30.593  1.00  0.00     0.074 A 
ATOM     55  C   UNL A   1      47.052  30.793  29.551  1.00  0.00     0.029 A 
ATOM     56  N   UNL A   1      44.832  30.856  29.666  1.00  0.00    -0.354 N 
ATOM     57  N   UNL A   1      42.241  32.039  30.331  1.00  0.00    -0.248 NA
ATOM     58  C   UNL A   1      40.974  33.699  31.382  1.00  0.00     0.031 C 
ATOM     59  C   UNL A   1      46.678  31.933  30.272  1.00  0.00     0.029 A 
ATOM     60  C   UNL A   1      45.295  31.980  30.329  1.00  0.00     0.049 A 
ATOM     61  H   UNL A   1      43.884  30.620  29.548  1.00  0.00     0.167 HD
ATOM     62  C   UNL A   1      43.097  32.963  30.919  1.00  0.00     0.074 A 
ATOM     63  C   UNL A   1      42.263  33.974  31.536  1.00  0.00     0.031 C 
ATOM     64  C   UNL A   1      44.453  32.972  30.946  1.00  0.00     0.037 A 
BRANCH  51  65
ATOM     65  C   UNL A   1      47.037  28.169  28.045  1.00  0.00     0.058 A 
ATOM     66  C   UNL A   1      47.624  28.420  26.795  1.00  0.00     0.135 A 
ATOM     67  C   UNL A   1      47.669  27.244  28.893  1.00  0.00     0.135 A 
ATOM     68  F   UNL A   1      47.044  29.274  25.937  1.00  0.00    -0.206 F 
ATOM     69  C   UNL A   1      48.782  27.764  26.392  1.00  0.00     0.059 A 
ATOM     70  C   UNL A   1      48.838  26.589  28.517  1.00  0.00     0.059 A 
ATOM     71  F   UNL A   1      47.143  26.962  30.095  1.00  0.00    -0.206 F 
ATOM     72  C   UNL A   1      49.379  26.846  27.258  1.00  0.00     0.060 A 
BRANCH  72  73
ATOM     73  S   UNL A   1      50.870  25.985  26.714  1.00  0.00     0.124 S 
ATOM     74  O   UNL A   1      50.733  24.708  27.408  1.00  0.00    -0.237 OA
ATOM     75  O   UNL A   1      50.697  25.943  25.266  1.00  0.00    -0.237 OA
ATOM     76  O   UNL A   1      51.950  26.845  27.189  1.00  0.00    -0.744 OA
ENDBRANCH  72  73
ENDBRANCH  51  65
BRANCH  52  77
ATOM     77  C   UNL A   1      38.426  32.482  30.601  1.00  0.00     0.058 A 
ATOM     78  C   UNL A   1      37.775  33.385  29.751  1.00  0.00     0.135 A 
ATOM     79  C   UNL A   1      37.803  32.158  31.817  1.00  0.00     0.135 A 
ATOM     80  F   UNL A   1      38.339  33.736  28.585  1.00  0.00    -0.206 F 
ATOM     81  C   UNL A   1      36.545  33.942  30.089  1.00  0.00     0.059 A 
ATOM     82  C   UNL A   1      36.564  32.680  32.165  1.00  0.00     0.059 A 
ATOM     83  F   UNL A   1      38.385  31.290  32.659  1.00  0.00    -0.206 F 
ATOM     84  C   UNL A   1      35.944  33.576  31.295  1.00  0.00     0.060 A 
BRANCH  84  85
ATOM     85  S   UNL A   1      34.307  34.229  31.691  1.00  0.00     0.124 S 
ATOM     86  O   UNL A   1      33.787  33.194  32.576  1.00  0.00    -0.237 OA
ATOM     87  O   UNL A   1      34.626  35.508  32.319  1.00  0.00    -0.237 OA
ATOM     88  O   UNL A   1      33.664  34.328  30.385  1.00  0.00    -0.744 OA
ENDBRANCH  84  85
ENDBRANCH  52  77
BRANCH  64  89
ATOM     89  C   UNL A   1      45.115  34.120  31.650  1.00  0.00     0.058 A 
ATOM     90  C   UNL A   1      45.457  34.048  33.009  1.00  0.00     0.135 A 
ATOM     91  C   UNL A   1      45.433  35.295  30.950  1.00  0.00     0.135 A 
ATOM     92  F   UNL A   1      45.169  32.947  33.721  1.00  0.00    -0.206 F 
ATOM     93  C   UNL A   1      46.067  35.115  33.660  1.00  0.00     0.059 A 
ATOM     94  C   UNL A   1      46.061  36.366  31.576  1.00  0.00     0.059 A 
ATOM     95  F   UNL A   1      45.137  35.406  29.646  1.00  0.00    -0.206 F 
ATOM     96  C   UNL A   1      46.359  36.272  32.936  1.00  0.00     0.060 A 
BRANCH  96  97
ATOM     97  S   UNL A   1      47.159  37.651  33.783  1.00  0.00     0.124 S 
ATOM     98  O   UNL A   1      48.552  37.213  33.803  1.00  0.00    -0.237 OA
ATOM     99  O   UNL A   1      46.863  38.778  32.905  1.00  0.00    -0.237 OA
ATOM    100  O   UNL A   1      46.491  37.683  35.080  1.00  0.00    -0.744 OA
ENDBRANCH  96  97
ENDBRANCH  64  89
ENDBRANCH  38  39
ENDBRANCH  31  33
ENDBRANCH  30  31
ENDBRANCH   1  30
TORSDOF 18
ENDMDL
MODEL 3
REMARK VINA RESULT:     -11.2      3.447      8.463
REMARK SMILES COc1cc2c(cc1OC)[C@H](C(=O)OCCOC(=O)c1ccc(-c3c4nc(c(-c5c(F)cc(S(=O)(=O)[O-])cc5F)c5ccc([nH]5)c(-c5c(F)cc(S(=O)(=O)[O-])cc5F)c5nc(c(-c6c(F)cc(S(=O)(=O)[O-])cc6F)c6ccc3[nH]6)C=C5)C=C4)cc1)[C@@H](c1ccc(SC)cc1)N(C)C2=O
REMARK SMILES IDX 16 1 15 2 14 3 12 4 13 5 11 6 3 7 4 8 8 9 5 10 7 11 6 12
REMARK SMILES IDX 97 13 95 14 98 15 86 16 96 17 2 18 1 19 9 20 10 21 87 22
REMARK SMILES IDX 88 23 94 24 89 25 93 26 90 27 91 28 92 29 17 30 18 31 19 32
REMARK SMILES IDX 20 33 21 34 85 35 22 36 84 37 23 38 24 39 25 40 78 41 26 42
REMARK SMILES IDX 83 43 77 44 79 45 27 46 82 47 76 48 75 49 28 51 62 52 41 53
REMARK SMILES IDX 61 54 42 55 45 56 60 57 80 58 43 59 44 60 59 62 81 63 46 64
REMARK SMILES IDX 29 65 30 66 39 67 31 68 32 69 38 70 40 71 33 72 34 73 35 74
REMARK SMILES IDX 36 75 37 76 63 77 64 78 73 79 65 80 66 81 72 82 74 83 67 84
REMARK SMILES IDX 68 85 69 86 70 87 71 88 47 89 48 90 57 91 49 92 50 93 56 94
REMARK SMILES IDX 58 95 51 96 52 97 53 98 54 99 55 100
REMARK H PARENT 79 50 45 61
REMARK Flexibility Score: inf
ROOT
ATOM      1  C   UNL A   1      37.036  22.089  25.551  1.00  0.00     0.275 C 
ENDROOT
BRANCH   1   2
ATOM      2  C   UNL A   1      36.185  22.721  24.454  1.00  0.00     0.274 C 
BRANCH   2   3
ATOM      3  O   UNL A   1      35.734  24.043  24.819  1.00  0.00    -0.462 OA
BRANCH   3   4
ATOM      4  C   UNL A   1      34.463  24.339  24.419  1.00  0.00     0.316 C 
ATOM      5  O   UNL A   1      34.169  24.806  23.325  1.00  0.00    -0.251 OA
BRANCH   4   6
ATOM      6  C   UNL A   1      33.469  24.205  25.566  1.00  0.00     0.157 C 
ATOM      7  C   UNL A   1      32.237  28.261  26.504  1.00  0.00     0.161 A 
ATOM      8  C   UNL A   1      31.304  27.213  26.485  1.00  0.00     0.064 A 
ATOM      9  C   UNL A   1      33.587  27.982  26.275  1.00  0.00     0.161 A 
ATOM     10  C   UNL A   1      31.702  25.889  26.241  1.00  0.00     0.048 A 
ATOM     11  C   UNL A   1      33.969  26.656  26.038  1.00  0.00     0.056 A 
ATOM     12  C   UNL A   1      33.033  25.606  25.965  1.00  0.00    -0.015 A 
ATOM     13  C   UNL A   1      30.700  24.803  26.356  1.00  0.00     0.254 C 
ATOM     14  N   UNL A   1      31.085  23.515  25.974  1.00  0.00    -0.333 N 
ATOM     15  O   UNL A   1      29.599  25.075  26.828  1.00  0.00    -0.269 OA
ATOM     16  C   UNL A   1      32.276  23.312  25.098  1.00  0.00     0.134 C 
ATOM     17  C   UNL A   1      30.061  22.482  26.107  1.00  0.00     0.147 C 
BRANCH   7  18
ATOM     18  O   UNL A   1      31.830  29.555  26.691  1.00  0.00    -0.493 OA
ATOM     19  C   UNL A   1      31.507  30.244  25.487  1.00  0.00     0.278 C 
ENDBRANCH   7  18
BRANCH   9  20
ATOM     20  O   UNL A   1      34.655  28.838  26.263  1.00  0.00    -0.493 OA
ATOM     21  C   UNL A   1      35.068  29.423  27.487  1.00  0.00     0.278 C 
ENDBRANCH   9  20
BRANCH  16  22
ATOM     22  C   UNL A   1      32.640  21.828  24.877  1.00  0.00    -0.024 A 
ATOM     23  C   UNL A   1      32.370  21.130  23.696  1.00  0.00     0.007 A 
ATOM     24  C   UNL A   1      33.294  21.110  25.899  1.00  0.00     0.007 A 
ATOM     25  C   UNL A   1      32.726  19.779  23.551  1.00  0.00     0.015 A 
ATOM     26  C   UNL A   1      33.687  19.771  25.736  1.00  0.00     0.015 A 
ATOM     27  C   UNL A   1      33.396  19.082  24.564  1.00  0.00     0.007 A 
BRANCH  27  28
ATOM     28  S   UNL A   1      33.848  17.390  24.207  1.00  0.00    -0.130 SA
ATOM     29  C   UNL A   1      33.213  16.451  25.622  1.00  0.00     0.091 C 
ENDBRANCH  27  28
ENDBRANCH  16  22
ENDBRANCH   4   6
ENDBRANCH   3   4
ENDBRANCH   2   3
ENDBRANCH   1   2
BRANCH   1  30
ATOM     30  O   UNL A   1      38.420  22.387  25.321  1.00  0.00    -0.458 OA
BRANCH  30  31
ATOM     31  C   UNL A   1      39.254  22.159  26.361  1.00  0.00     0.338 C 
ATOM     32  O   UNL A   1      39.570  21.060  26.804  1.00  0.00    -0.246 OA
BRANCH  31  33
ATOM     33  C   UNL A   1      39.748  23.433  26.924  1.00  0.00     0.060 A 
ATOM     34  C   UNL A   1      39.354  24.666  26.404  1.00  0.00     0.016 A 
ATOM     35  C   UNL A   1      40.706  23.396  27.936  1.00  0.00     0.016 A 
ATOM     36  C   UNL A   1      39.997  25.839  26.799  1.00  0.00     0.010 A 
ATOM     37  C   UNL A   1      41.279  24.584  28.404  1.00  0.00     0.010 A 
ATOM     38  C   UNL A   1      40.979  25.817  27.798  1.00  0.00    -0.014 A 
BRANCH  38  39
ATOM     39  C   UNL A   1      41.736  27.053  28.156  1.00  0.00     0.031 A 
ATOM     40  C   UNL A   1      41.039  28.204  28.844  1.00  0.00     0.074 A 
ATOM     41  C   UNL A   1      43.058  27.147  27.907  1.00  0.00     0.049 A 
ATOM     42  N   UNL A   1      41.490  29.396  29.145  1.00  0.00    -0.248 NA
ATOM     43  C   UNL A   1      39.645  27.982  29.252  1.00  0.00     0.031 C 
ATOM     44  C   UNL A   1      43.886  26.102  27.302  1.00  0.00     0.029 A 
ATOM     45  N   UNL A   1      43.938  28.175  28.137  1.00  0.00    -0.354 N 
ATOM     46  C   UNL A   1      40.433  30.065  29.754  1.00  0.00     0.074 A 
ATOM     47  C   UNL A   1      39.311  29.154  29.770  1.00  0.00     0.031 C 
ATOM     48  C   UNL A   1      45.156  26.531  27.235  1.00  0.00     0.029 A 
ATOM     49  C   UNL A   1      45.216  27.910  27.707  1.00  0.00     0.049 A 
ATOM     50  H   UNL A   1      43.678  29.021  28.569  1.00  0.00     0.167 HD
ATOM     51  C   UNL A   1      40.389  31.325  30.251  1.00  0.00     0.037 A 
ATOM     52  C   UNL A   1      46.307  28.699  27.648  1.00  0.00     0.037 A 
ATOM     53  C   UNL A   1      41.494  32.244  30.224  1.00  0.00     0.049 A 
ATOM     54  C   UNL A   1      46.214  30.125  28.105  1.00  0.00     0.074 A 
ATOM     55  C   UNL A   1      41.539  33.554  30.668  1.00  0.00     0.029 A 
ATOM     56  N   UNL A   1      42.751  31.950  29.719  1.00  0.00    -0.354 N 
ATOM     57  N   UNL A   1      45.190  30.758  28.629  1.00  0.00    -0.248 NA
ATOM     58  C   UNL A   1      47.416  30.953  27.942  1.00  0.00     0.031 C 
ATOM     59  C   UNL A   1      42.813  34.065  30.394  1.00  0.00     0.029 A 
ATOM     60  C   UNL A   1      43.572  33.060  29.817  1.00  0.00     0.049 A 
ATOM     61  H   UNL A   1      43.019  31.080  29.343  1.00  0.00     0.167 HD
ATOM     62  C   UNL A   1      45.628  32.056  28.864  1.00  0.00     0.074 A 
ATOM     63  C   UNL A   1      47.012  32.114  28.440  1.00  0.00     0.031 C 
ATOM     64  C   UNL A   1      44.944  33.105  29.383  1.00  0.00     0.037 A 
BRANCH  51  65
ATOM     65  C   UNL A   1      39.082  31.796  30.826  1.00  0.00     0.058 A 
ATOM     66  C   UNL A   1      38.089  32.378  30.024  1.00  0.00     0.135 A 
ATOM     67  C   UNL A   1      38.819  31.652  32.198  1.00  0.00     0.135 A 
ATOM     68  F   UNL A   1      38.303  32.564  28.712  1.00  0.00    -0.206 F 
ATOM     69  C   UNL A   1      36.886  32.820  30.566  1.00  0.00     0.059 A 
ATOM     70  C   UNL A   1      37.616  32.071  32.758  1.00  0.00     0.059 A 
ATOM     71  F   UNL A   1      39.740  31.110  33.009  1.00  0.00    -0.206 F 
ATOM     72  C   UNL A   1      36.661  32.667  31.935  1.00  0.00     0.060 A 
BRANCH  72  73
ATOM     73  S   UNL A   1      35.105  33.263  32.629  1.00  0.00     0.124 S 
ATOM     74  O   UNL A   1      35.276  32.935  34.041  1.00  0.00    -0.237 OA
ATOM     75  O   UNL A   1      35.138  34.684  32.300  1.00  0.00    -0.237 OA
ATOM     76  O   UNL A   1      34.096  32.482  31.921  1.00  0.00    -0.744 OA
ENDBRANCH  72  73
ENDBRANCH  51  65
BRANCH  52  77
ATOM     77  C   UNL A   1      47.567  28.157  27.075  1.00  0.00     0.058 A 
ATOM     78  C   UNL A   1      47.773  28.114  25.690  1.00  0.00     0.135 A 
ATOM     79  C   UNL A   1      48.607  27.715  27.909  1.00  0.00     0.135 A 
ATOM     80  F   UNL A   1      46.801  28.512  24.854  1.00  0.00    -0.206 F 
ATOM     81  C   UNL A   1      48.970  27.657  25.149  1.00  0.00     0.059 A 
ATOM     82  C   UNL A   1      49.821  27.279  27.393  1.00  0.00     0.059 A 
ATOM     83  F   UNL A   1      48.458  27.747  29.243  1.00  0.00    -0.206 F 
ATOM     84  C   UNL A   1      49.991  27.250  26.010  1.00  0.00     0.060 A 
BRANCH  84  85
ATOM     85  S   UNL A   1      51.577  26.741  25.310  1.00  0.00     0.124 S 
ATOM     86  O   UNL A   1      52.505  27.598  26.037  1.00  0.00    -0.237 OA
ATOM     87  O   UNL A   1      51.623  25.320  25.642  1.00  0.00    -0.237 OA
ATOM     88  O   UNL A   1      51.421  27.036  23.889  1.00  0.00    -0.744 OA
ENDBRANCH  84  85
ENDBRANCH  52  77
BRANCH  64  89
ATOM     89  C   UNL A   1      45.690  34.399  29.537  1.00  0.00     0.058 A 
ATOM     90  C   UNL A   1      46.418  34.691  30.699  1.00  0.00     0.135 A 
ATOM     91  C   UNL A   1      45.696  35.343  28.498  1.00  0.00     0.135 A 
ATOM     92  F   UNL A   1      46.438  33.821  31.721  1.00  0.00    -0.206 F 
ATOM     93  C   UNL A   1      47.105  35.893  30.841  1.00  0.00     0.059 A 
ATOM     94  C   UNL A   1      46.393  36.541  28.610  1.00  0.00     0.059 A 
ATOM     95  F   UNL A   1      45.025  35.103  27.361  1.00  0.00    -0.206 F 
ATOM     96  C   UNL A   1      47.081  36.814  29.792  1.00  0.00     0.060 A 
BRANCH  96  97
ATOM     97  S   UNL A   1      47.982  38.367  29.977  1.00  0.00     0.124 S 
ATOM     98  O   UNL A   1      49.126  38.147  29.097  1.00  0.00    -0.237 OA
ATOM     99  O   UNL A   1      47.011  39.354  29.517  1.00  0.00    -0.237 OA
ATOM    100  O   UNL A   1      48.285  38.414  31.404  1.00  0.00    -0.744 OA
ENDBRANCH  96  97
ENDBRANCH  64  89
ENDBRANCH  38  39
ENDBRANCH  31  33
ENDBRANCH  30  31
ENDBRANCH   1  30
TORSDOF 18
ENDMDL
