MODEL 1
REMARK VINA RESULT:     -11.1      0.000      0.000
REMARK SMILES CC[C@@]1(C)C[C@@H]([NH2+]C[C@H]2CC[C@@H](C(=O)OCCOC(=O)c3ccc(-c4c5nc(c(-c6c(F)cc(S(=O)(=O)[O-])cc6F)c6ccc([nH]6)c(-c6c(F)cc(S(=O)(=O)[O-])cc6F)c6nc(c(-c7c(F)cc(S(=O)(=O)[O-])cc7F)c7ccc4[nH]7)C=C6)C=C5)cc3)CC2)CCO1
REMARK SMILES IDX 16 1 15 2 13 3 14 4 12 5 9 6 10 7 88 8 11 9 87 10 8 11 7 12
REMARK SMILES IDX 6 15 3 16 4 17 5 18 91 19 90 20 89 21 2 22 1 23 17 24 18 25
REMARK SMILES IDX 19 26 20 27 21 28 22 29 86 30 23 31 85 32 24 33 25 34 26 35
REMARK SMILES IDX 79 36 27 37 84 38 78 39 80 40 28 41 83 42 77 43 76 44 29 46
REMARK SMILES IDX 63 47 42 48 62 49 43 50 46 51 61 52 81 53 44 54 45 55 60 57
REMARK SMILES IDX 82 58 47 59 30 60 31 61 40 62 32 63 33 64 39 65 41 66 34 67
REMARK SMILES IDX 35 68 36 69 37 70 38 71 64 72 65 73 74 74 66 75 67 76 73 77
REMARK SMILES IDX 75 78 68 79 69 80 70 81 71 82 72 83 48 84 49 85 58 86 50 87
REMARK SMILES IDX 51 88 57 89 59 90 52 91 53 92 54 93 55 94 56 95
REMARK H PARENT 7 13 7 14 80 45 46 56
REMARK Flexibility Score: inf
ROOT
ATOM      1  C   UNL A   1      37.895  22.959  25.704  1.00  0.00     0.274 C 
ENDROOT
BRANCH   1   2
ATOM      2  O   UNL A   1      36.942  21.914  25.438  1.00  0.00    -0.462 OA
BRANCH   2   3
ATOM      3  C   UNL A   1      35.654  22.281  25.650  1.00  0.00     0.309 C 
ATOM      4  O   UNL A   1      35.298  23.018  26.566  1.00  0.00    -0.252 OA
BRANCH   3   5
ATOM      5  C   UNL A   1      34.686  21.763  24.589  1.00  0.00     0.099 C 
ATOM      6  C   UNL A   1      31.988  22.297  23.327  1.00  0.00     0.044 C 
ATOM      7  C   UNL A   1      33.305  22.714  22.676  1.00  0.00     0.010 C 
ATOM      8  C   UNL A   1      32.291  20.978  24.079  1.00  0.00     0.010 C 
ATOM      9  C   UNL A   1      34.391  22.967  23.695  1.00  0.00     0.016 C 
ATOM     10  C   UNL A   1      33.404  21.125  25.135  1.00  0.00     0.016 C 
BRANCH   6  11
ATOM     11  C   UNL A   1      31.255  23.305  24.268  1.00  0.00     0.264 C 
BRANCH  11  12
ATOM     12  N   UNL A   1      30.331  24.318  23.737  1.00  0.00    -0.343 N 
ATOM     13  H   UNL A   1      30.720  24.664  22.860  1.00  0.00     0.346 HD
ATOM     14  H   UNL A   1      29.433  23.842  23.643  1.00  0.00     0.346 HD
BRANCH  12  15
ATOM     15  C   UNL A   1      30.069  25.480  24.597  1.00  0.00     0.187 C 
ATOM     16  C   UNL A   1      31.832  27.138  23.659  1.00  0.00     0.071 C 
ATOM     17  C   UNL A   1      31.829  28.585  23.103  1.00  0.00     0.042 C 
ATOM     18  C   UNL A   1      30.341  26.796  23.880  1.00  0.00     0.100 C 
ATOM     19  O   UNL A   1      32.479  27.193  24.934  1.00  0.00    -0.375 OA
ATOM     20  C   UNL A   1      32.335  26.042  25.759  1.00  0.00     0.167 C 
ATOM     21  C   UNL A   1      30.911  25.493  25.889  1.00  0.00     0.093 C 
BRANCH  16  22
ATOM     22  C   UNL A   1      32.616  26.308  22.600  1.00  0.00     0.032 C 
ATOM     23  C   UNL A   1      32.011  25.983  21.240  1.00  0.00     0.007 C 
ENDBRANCH  16  22
ENDBRANCH  12  15
ENDBRANCH  11  12
ENDBRANCH   6  11
ENDBRANCH   3   5
ENDBRANCH   2   3
ENDBRANCH   1   2
BRANCH   1  24
ATOM     24  C   UNL A   1      39.199  22.406  26.286  1.00  0.00     0.275 C 
BRANCH  24  25
ATOM     25  O   UNL A   1      39.706  23.206  27.370  1.00  0.00    -0.458 OA
BRANCH  25  26
ATOM     26  C   UNL A   1      40.624  24.131  27.006  1.00  0.00     0.338 C 
ATOM     27  O   UNL A   1      41.516  23.999  26.178  1.00  0.00    -0.246 OA
BRANCH  26  28
ATOM     28  C   UNL A   1      40.429  25.386  27.743  1.00  0.00     0.060 A 
ATOM     29  C   UNL A   1      41.381  26.403  27.653  1.00  0.00     0.016 A 
ATOM     30  C   UNL A   1      39.394  25.467  28.676  1.00  0.00     0.016 A 
ATOM     31  C   UNL A   1      41.348  27.468  28.552  1.00  0.00     0.010 A 
ATOM     32  C   UNL A   1      39.327  26.569  29.534  1.00  0.00     0.010 A 
ATOM     33  C   UNL A   1      40.326  27.558  29.508  1.00  0.00    -0.014 A 
BRANCH  33  34
ATOM     34  C   UNL A   1      40.324  28.645  30.522  1.00  0.00     0.031 A 
ATOM     35  C   UNL A   1      41.294  28.596  31.673  1.00  0.00     0.074 A 
ATOM     36  C   UNL A   1      39.453  29.667  30.423  1.00  0.00     0.049 A 
ATOM     37  N   UNL A   1      41.332  29.327  32.757  1.00  0.00    -0.248 NA
ATOM     38  C   UNL A   1      42.357  27.580  31.598  1.00  0.00     0.031 C 
ATOM     39  C   UNL A   1      38.492  29.858  29.336  1.00  0.00     0.029 A 
ATOM     40  N   UNL A   1      39.231  30.735  31.256  1.00  0.00    -0.354 N 
ATOM     41  C   UNL A   1      42.386  28.829  33.516  1.00  0.00     0.074 A 
ATOM     42  C   UNL A   1      42.964  27.735  32.767  1.00  0.00     0.031 C 
ATOM     43  C   UNL A   1      37.791  30.980  29.562  1.00  0.00     0.029 A 
ATOM     44  C   UNL A   1      38.206  31.550  30.840  1.00  0.00     0.049 A 
ATOM     45  H   UNL A   1      39.756  30.901  32.072  1.00  0.00     0.167 HD
ATOM     46  C   UNL A   1      42.824  29.244  34.730  1.00  0.00     0.037 A 
ATOM     47  C   UNL A   1      37.635  32.614  31.439  1.00  0.00     0.037 A 
ATOM     48  C   UNL A   1      42.272  30.362  35.449  1.00  0.00     0.049 A 
ATOM     49  C   UNL A   1      38.133  33.052  32.788  1.00  0.00     0.074 A 
ATOM     50  C   UNL A   1      42.645  30.865  36.684  1.00  0.00     0.029 A 
ATOM     51  N   UNL A   1      41.238  31.165  34.989  1.00  0.00    -0.354 N 
ATOM     52  N   UNL A   1      39.089  32.535  33.520  1.00  0.00    -0.248 NA
ATOM     53  C   UNL A   1      37.464  34.211  33.396  1.00  0.00     0.031 C 
ATOM     54  C   UNL A   1      41.823  31.959  36.980  1.00  0.00     0.029 A 
ATOM     55  C   UNL A   1      40.958  32.157  35.915  1.00  0.00     0.049 A 
ATOM     56  H   UNL A   1      40.770  31.046  34.131  1.00  0.00     0.167 HD
ATOM     57  C   UNL A   1      39.144  33.309  34.674  1.00  0.00     0.074 A 
ATOM     58  C   UNL A   1      38.136  34.341  34.533  1.00  0.00     0.031 C 
ATOM     59  C   UNL A   1      39.953  33.175  35.754  1.00  0.00     0.037 A 
BRANCH  46  60
ATOM     60  C   UNL A   1      43.936  28.462  35.370  1.00  0.00     0.058 A 
ATOM     61  C   UNL A   1      43.686  27.381  36.228  1.00  0.00     0.135 A 
ATOM     62  C   UNL A   1      45.276  28.791  35.104  1.00  0.00     0.135 A 
ATOM     63  F   UNL A   1      42.424  27.036  36.531  1.00  0.00    -0.206 F 
ATOM     64  C   UNL A   1      44.724  26.668  36.821  1.00  0.00     0.059 A 
ATOM     65  C   UNL A   1      46.330  28.078  35.669  1.00  0.00     0.059 A 
ATOM     66  F   UNL A   1      45.571  29.817  34.291  1.00  0.00    -0.206 F 
ATOM     67  C   UNL A   1      46.043  27.029  36.540  1.00  0.00     0.060 A 
BRANCH  67  68
ATOM     68  S   UNL A   1      47.384  26.103  37.320  1.00  0.00     0.124 S 
ATOM     69  O   UNL A   1      46.768  24.791  37.492  1.00  0.00    -0.237 OA
ATOM     70  O   UNL A   1      48.445  26.178  36.321  1.00  0.00    -0.237 OA
ATOM     71  O   UNL A   1      47.635  26.844  38.552  1.00  0.00    -0.744 OA
ENDBRANCH  67  68
ENDBRANCH  46  60
BRANCH  47  72
ATOM     72  C   UNL A   1      36.505  33.313  30.776  1.00  0.00     0.058 A 
ATOM     73  C   UNL A   1      35.192  33.171  31.249  1.00  0.00     0.135 A 
ATOM     74  C   UNL A   1      36.719  34.160  29.678  1.00  0.00     0.135 A 
ATOM     75  F   UNL A   1      34.938  32.363  32.290  1.00  0.00    -0.206 F 
ATOM     76  C   UNL A   1      34.129  33.840  30.653  1.00  0.00     0.059 A 
ATOM     77  C   UNL A   1      35.675  34.858  29.080  1.00  0.00     0.059 A 
ATOM     78  F   UNL A   1      37.960  34.337  29.198  1.00  0.00    -0.206 F 
ATOM     79  C   UNL A   1      34.382  34.685  29.571  1.00  0.00     0.060 A 
BRANCH  79  80
ATOM     80  S   UNL A   1      33.008  35.607  28.843  1.00  0.00     0.124 S 
ATOM     81  O   UNL A   1      32.365  34.580  28.031  1.00  0.00    -0.237 OA
ATOM     82  O   UNL A   1      32.268  36.045  30.022  1.00  0.00    -0.237 OA
ATOM     83  O   UNL A   1      33.679  36.672  28.103  1.00  0.00    -0.744 OA
ENDBRANCH  79  80
ENDBRANCH  47  72
BRANCH  59  84
ATOM     84  C   UNL A   1      39.795  34.186  36.852  1.00  0.00     0.058 A 
ATOM     85  C   UNL A   1      38.967  33.942  37.959  1.00  0.00     0.135 A 
ATOM     86  C   UNL A   1      40.503  35.397  36.811  1.00  0.00     0.135 A 
ATOM     87  F   UNL A   1      38.266  32.801  38.040  1.00  0.00    -0.206 F 
ATOM     88  C   UNL A   1      38.827  34.878  38.978  1.00  0.00     0.059 A 
ATOM     89  C   UNL A   1      40.391  36.339  37.829  1.00  0.00     0.059 A 
ATOM     90  F   UNL A   1      41.313  35.672  35.778  1.00  0.00    -0.206 F 
ATOM     91  C   UNL A   1      39.540  36.076  38.902  1.00  0.00     0.060 A 
BRANCH  91  92
ATOM     92  S   UNL A   1      39.369  37.278  40.238  1.00  0.00     0.124 S 
ATOM     93  O   UNL A   1      40.764  37.596  40.526  1.00  0.00    -0.237 OA
ATOM     94  O   UNL A   1      38.594  38.343  39.610  1.00  0.00    -0.237 OA
ATOM     95  O   UNL A   1      38.667  36.532  41.277  1.00  0.00    -0.744 OA
ENDBRANCH  91  92
ENDBRANCH  59  84
ENDBRANCH  33  34
ENDBRANCH  26  28
ENDBRANCH  25  26
ENDBRANCH  24  25
ENDBRANCH   1  24
TORSDOF 18
ENDMDL
MODEL 2
REMARK VINA RESULT:     -11.1      2.121      2.904
REMARK SMILES CC[C@@]1(C)C[C@@H]([NH2+]C[C@H]2CC[C@@H](C(=O)OCCOC(=O)c3ccc(-c4c5nc(c(-c6c(F)cc(S(=O)(=O)[O-])cc6F)c6ccc([nH]6)c(-c6c(F)cc(S(=O)(=O)[O-])cc6F)c6nc(c(-c7c(F)cc(S(=O)(=O)[O-])cc7F)c7ccc4[nH]7)C=C6)C=C5)cc3)CC2)CCO1
REMARK SMILES IDX 16 1 15 2 13 3 14 4 12 5 9 6 10 7 88 8 11 9 87 10 8 11 7 12
REMARK SMILES IDX 6 15 3 16 4 17 5 18 91 19 90 20 89 21 2 22 1 23 17 24 18 25
REMARK SMILES IDX 19 26 20 27 21 28 22 29 86 30 23 31 85 32 24 33 25 34 26 35
REMARK SMILES IDX 79 36 27 37 84 38 78 39 80 40 28 41 83 42 77 43 76 44 29 46
REMARK SMILES IDX 63 47 42 48 62 49 43 50 46 51 61 52 81 53 44 54 45 55 60 57
REMARK SMILES IDX 82 58 47 59 30 60 31 61 40 62 32 63 33 64 39 65 41 66 34 67
REMARK SMILES IDX 35 68 36 69 37 70 38 71 64 72 65 73 74 74 66 75 67 76 73 77
REMARK SMILES IDX 75 78 68 79 69 80 70 81 71 82 72 83 48 84 49 85 58 86 50 87
REMARK SMILES IDX 51 88 57 89 59 90 52 91 53 92 54 93 55 94 56 95
REMARK H PARENT 7 13 7 14 80 45 46 56
REMARK Flexibility Score: inf
ROOT
ATOM      1  C   UNL A   1      36.602  20.685  25.345  1.00  0.00     0.274 C 
ENDROOT
BRANCH   1   2
ATOM      2  O   UNL A   1      35.506  21.582  25.092  1.00  0.00    -0.462 OA
BRANCH   2   3
ATOM      3  C   UNL A   1      34.297  20.969  25.043  1.00  0.00     0.309 C 
ATOM      4  O   UNL A   1      34.078  19.946  24.400  1.00  0.00    -0.252 OA
BRANCH   3   5
ATOM      5  C   UNL A   1      33.243  21.619  25.936  1.00  0.00     0.099 C 
ATOM      6  C   UNL A   1      31.088  23.743  25.961  1.00  0.00     0.044 C 
ATOM      7  C   UNL A   1      30.785  22.256  25.791  1.00  0.00     0.010 C 
ATOM      8  C   UNL A   1      32.317  23.816  26.901  1.00  0.00     0.010 C 
ATOM      9  C   UNL A   1      31.934  21.508  25.156  1.00  0.00     0.016 C 
ATOM     10  C   UNL A   1      33.545  23.064  26.351  1.00  0.00     0.016 C 
BRANCH   6  11
ATOM     11  C   UNL A   1      31.320  24.620  24.690  1.00  0.00     0.264 C 
BRANCH  11  12
ATOM     12  N   UNL A   1      31.692  26.038  24.793  1.00  0.00    -0.343 N 
ATOM     13  H   UNL A   1      31.094  26.562  24.155  1.00  0.00     0.346 HD
ATOM     14  H   UNL A   1      31.573  26.278  25.778  1.00  0.00     0.346 HD
BRANCH  12  15
ATOM     15  C   UNL A   1      33.086  26.374  24.476  1.00  0.00     0.187 C 
ATOM     16  C   UNL A   1      33.324  28.593  25.801  1.00  0.00     0.071 C 
ATOM     17  C   UNL A   1      34.292  29.166  26.869  1.00  0.00     0.042 C 
ATOM     18  C   UNL A   1      33.767  27.124  25.613  1.00  0.00     0.100 C 
ATOM     19  O   UNL A   1      33.588  29.306  24.589  1.00  0.00    -0.375 OA
ATOM     20  C   UNL A   1      33.029  28.750  23.403  1.00  0.00     0.167 C 
ATOM     21  C   UNL A   1      33.239  27.246  23.213  1.00  0.00     0.093 C 
BRANCH  16  22
ATOM     22  C   UNL A   1      31.901  28.852  26.378  1.00  0.00     0.032 C 
ATOM     23  C   UNL A   1      31.400  28.120  27.616  1.00  0.00     0.007 C 
ENDBRANCH  16  22
ENDBRANCH  12  15
ENDBRANCH  11  12
ENDBRANCH   6  11
ENDBRANCH   3   5
ENDBRANCH   2   3
ENDBRANCH   1   2
BRANCH   1  24
ATOM     24  C   UNL A   1      37.952  21.331  25.022  1.00  0.00     0.275 C 
BRANCH  24  25
ATOM     25  O   UNL A   1      38.119  22.613  25.657  1.00  0.00    -0.458 OA
BRANCH  25  26
ATOM     26  C   UNL A   1      39.396  22.921  25.978  1.00  0.00     0.338 C 
ATOM     27  O   UNL A   1      40.395  22.251  25.753  1.00  0.00    -0.246 OA
BRANCH  26  28
ATOM     28  C   UNL A   1      39.471  24.220  26.659  1.00  0.00     0.060 A 
ATOM     29  C   UNL A   1      40.346  25.203  26.193  1.00  0.00     0.016 A 
ATOM     30  C   UNL A   1      38.810  24.383  27.877  1.00  0.00     0.016 A 
ATOM     31  C   UNL A   1      40.626  26.317  26.984  1.00  0.00     0.010 A 
ATOM     32  C   UNL A   1      39.043  25.532  28.638  1.00  0.00     0.010 A 
ATOM     33  C   UNL A   1      39.984  26.489  28.218  1.00  0.00    -0.014 A 
BRANCH  33  34
ATOM     34  C   UNL A   1      40.333  27.630  29.106  1.00  0.00     0.031 A 
ATOM     35  C   UNL A   1      41.589  27.576  29.935  1.00  0.00     0.074 A 
ATOM     36  C   UNL A   1      39.526  28.705  29.179  1.00  0.00     0.049 A 
ATOM     37  N   UNL A   1      41.976  28.365  30.904  1.00  0.00    -0.248 NA
ATOM     38  C   UNL A   1      42.529  26.483  29.639  1.00  0.00     0.031 C 
ATOM     39  C   UNL A   1      38.305  28.903  28.397  1.00  0.00     0.029 A 
ATOM     40  N   UNL A   1      39.610  29.833  29.957  1.00  0.00    -0.354 N 
ATOM     41  C   UNL A   1      43.175  27.836  31.369  1.00  0.00     0.074 A 
ATOM     42  C   UNL A   1      43.455  26.660  30.573  1.00  0.00     0.031 C 
ATOM     43  C   UNL A   1      37.759  30.084  28.727  1.00  0.00     0.029 A 
ATOM     44  C   UNL A   1      38.554  30.695  29.788  1.00  0.00     0.049 A 
ATOM     45  H   UNL A   1      40.356  30.007  30.576  1.00  0.00     0.167 HD
ATOM     46  C   UNL A   1      43.966  28.287  32.373  1.00  0.00     0.037 A 
ATOM     47  C   UNL A   1      38.237  31.830  30.441  1.00  0.00     0.037 A 
ATOM     48  C   UNL A   1      43.704  29.483  33.133  1.00  0.00     0.049 A 
ATOM     49  C   UNL A   1      39.125  32.309  31.556  1.00  0.00     0.074 A 
ATOM     50  C   UNL A   1      44.443  30.027  34.169  1.00  0.00     0.029 A 
ATOM     51  N   UNL A   1      42.626  30.330  32.925  1.00  0.00    -0.354 N 
ATOM     52  N   UNL A   1      40.222  31.766  32.024  1.00  0.00    -0.248 NA
ATOM     53  C   UNL A   1      38.722  33.547  32.238  1.00  0.00     0.031 C 
ATOM     54  C   UNL A   1      43.801  31.193  34.601  1.00  0.00     0.029 A 
ATOM     55  C   UNL A   1      42.678  31.392  33.813  1.00  0.00     0.049 A 
ATOM     56  H   UNL A   1      41.926  30.196  32.246  1.00  0.00     0.167 HD
ATOM     57  C   UNL A   1      40.648  32.600  33.053  1.00  0.00     0.074 A 
ATOM     58  C   UNL A   1      39.698  33.692  33.124  1.00  0.00     0.031 C 
ATOM     59  C   UNL A   1      41.725  32.470  33.866  1.00  0.00     0.037 A 
BRANCH  46  60
ATOM     60  C   UNL A   1      45.171  27.465  32.731  1.00  0.00     0.058 A 
ATOM     61  C   UNL A   1      45.080  26.328  33.548  1.00  0.00     0.135 A 
ATOM     62  C   UNL A   1      46.438  27.811  32.230  1.00  0.00     0.135 A 
ATOM     63  F   UNL A   1      43.898  25.963  34.068  1.00  0.00    -0.206 F 
ATOM     64  C   UNL A   1      46.206  25.578  33.877  1.00  0.00     0.059 A 
ATOM     65  C   UNL A   1      47.573  27.063  32.529  1.00  0.00     0.059 A 
ATOM     66  F   UNL A   1      46.581  28.890  31.444  1.00  0.00    -0.206 F 
ATOM     67  C   UNL A   1      47.448  25.957  33.368  1.00  0.00     0.060 A 
BRANCH  67  68
ATOM     68  S   UNL A   1      48.904  24.981  33.807  1.00  0.00     0.124 S 
ATOM     69  O   UNL A   1      48.290  23.788  34.379  1.00  0.00    -0.237 OA
ATOM     70  O   UNL A   1      49.564  24.799  32.518  1.00  0.00    -0.237 OA
ATOM     71  O   UNL A   1      49.612  25.838  34.753  1.00  0.00    -0.744 OA
ENDBRANCH  67  68
ENDBRANCH  46  60
BRANCH  47  72
ATOM     72  C   UNL A   1      37.003  32.571  30.074  1.00  0.00     0.058 A 
ATOM     73  C   UNL A   1      35.803  32.361  30.769  1.00  0.00     0.135 A 
ATOM     74  C   UNL A   1      37.007  33.523  29.043  1.00  0.00     0.135 A 
ATOM     75  F   UNL A   1      35.749  31.453  31.755  1.00  0.00    -0.206 F 
ATOM     76  C   UNL A   1      34.647  33.067  30.452  1.00  0.00     0.059 A 
ATOM     77  C   UNL A   1      35.870  34.258  28.723  1.00  0.00     0.059 A 
ATOM     78  F   UNL A   1      38.135  33.767  28.358  1.00  0.00    -0.206 F 
ATOM     79  C   UNL A   1      34.692  34.016  29.430  1.00  0.00     0.060 A 
BRANCH  79  80
ATOM     80  S   UNL A   1      33.207  34.980  29.067  1.00  0.00     0.124 S 
ATOM     81  O   UNL A   1      32.554  35.013  30.370  1.00  0.00    -0.237 OA
ATOM     82  O   UNL A   1      33.764  36.245  28.598  1.00  0.00    -0.237 OA
ATOM     83  O   UNL A   1      32.537  34.183  28.042  1.00  0.00    -0.744 OA
ENDBRANCH  79  80
ENDBRANCH  47  72
BRANCH  59  84
ATOM     84  C   UNL A   1      41.944  33.552  34.884  1.00  0.00     0.058 A 
ATOM     85  C   UNL A   1      41.495  33.415  36.206  1.00  0.00     0.135 A 
ATOM     86  C   UNL A   1      42.635  34.723  34.539  1.00  0.00     0.135 A 
ATOM     87  F   UNL A   1      40.825  32.315  36.582  1.00  0.00    -0.206 F 
ATOM     88  C   UNL A   1      41.705  34.416  37.149  1.00  0.00     0.059 A 
ATOM     89  C   UNL A   1      42.871  35.729  35.471  1.00  0.00     0.059 A 
ATOM     90  F   UNL A   1      43.090  34.897  33.289  1.00  0.00    -0.206 F 
ATOM     91  C   UNL A   1      42.390  35.571  36.770  1.00  0.00     0.060 A 
BRANCH  91  92
ATOM     92  S   UNL A   1      42.676  36.859  38.003  1.00  0.00     0.124 S 
ATOM     93  O   UNL A   1      41.311  37.205  38.387  1.00  0.00    -0.237 OA
ATOM     94  O   UNL A   1      43.461  36.162  39.016  1.00  0.00    -0.237 OA
ATOM     95  O   UNL A   1      43.399  37.886  37.258  1.00  0.00    -0.744 OA
ENDBRANCH  91  92
ENDBRANCH  59  84
ENDBRANCH  33  34
ENDBRANCH  26  28
ENDBRANCH  25  26
ENDBRANCH  24  25
ENDBRANCH   1  24
TORSDOF 18
ENDMDL
MODEL 3
REMARK VINA RESULT:     -11.0      6.674     12.052
REMARK SMILES CC[C@@]1(C)C[C@@H]([NH2+]C[C@H]2CC[C@@H](C(=O)OCCOC(=O)c3ccc(-c4c5nc(c(-c6c(F)cc(S(=O)(=O)[O-])cc6F)c6ccc([nH]6)c(-c6c(F)cc(S(=O)(=O)[O-])cc6F)c6nc(c(-c7c(F)cc(S(=O)(=O)[O-])cc7F)c7ccc4[nH]7)C=C6)C=C5)cc3)CC2)CCO1
REMARK SMILES IDX 16 1 15 2 13 3 14 4 12 5 9 6 10 7 88 8 11 9 87 10 8 11 7 12
REMARK SMILES IDX 6 15 3 16 4 17 5 18 91 19 90 20 89 21 2 22 1 23 17 24 18 25
REMARK SMILES IDX 19 26 20 27 21 28 22 29 86 30 23 31 85 32 24 33 25 34 26 35
REMARK SMILES IDX 79 36 27 37 84 38 78 39 80 40 28 41 83 42 77 43 76 44 29 46
REMARK SMILES IDX 63 47 42 48 62 49 43 50 46 51 61 52 81 53 44 54 45 55 60 57
REMARK SMILES IDX 82 58 47 59 30 60 31 61 40 62 32 63 33 64 39 65 41 66 34 67
REMARK SMILES IDX 35 68 36 69 37 70 38 71 64 72 65 73 74 74 66 75 67 76 73 77
REMARK SMILES IDX 75 78 68 79 69 80 70 81 71 82 72 83 48 84 49 85 58 86 50 87
REMARK SMILES IDX 51 88 57 89 59 90 52 91 53 92 54 93 55 94 56 95
REMARK H PARENT 7 13 7 14 80 45 46 56
REMARK Flexibility Score: inf
ROOT
ATOM      1  C   UNL A   1      33.169  30.282  27.351  1.00  0.00     0.274 C 
ENDROOT
BRANCH   1   2
ATOM      2  O   UNL A   1      32.809  30.428  25.966  1.00  0.00    -0.462 OA
BRANCH   2   3
ATOM      3  C   UNL A   1      32.830  29.265  25.269  1.00  0.00     0.309 C 
ATOM      4  O   UNL A   1      33.860  28.738  24.858  1.00  0.00    -0.252 OA
BRANCH   3   5
ATOM      5  C   UNL A   1      31.458  28.617  25.115  1.00  0.00     0.099 C 
ATOM      6  C   UNL A   1      30.040  26.252  23.867  1.00  0.00     0.044 C 
ATOM      7  C   UNL A   1      30.433  26.299  25.342  1.00  0.00     0.010 C 
ATOM      8  C   UNL A   1      29.692  27.710  23.478  1.00  0.00     0.010 C 
ATOM      9  C   UNL A   1      31.641  27.173  25.583  1.00  0.00     0.016 C 
ATOM     10  C   UNL A   1      30.859  28.692  23.705  1.00  0.00     0.016 C 
BRANCH   6  11
ATOM     11  C   UNL A   1      31.037  25.636  22.836  1.00  0.00     0.264 C 
BRANCH  11  12
ATOM     12  N   UNL A   1      31.274  24.186  22.768  1.00  0.00    -0.343 N 
ATOM     13  H   UNL A   1      31.023  23.789  23.673  1.00  0.00     0.346 HD
ATOM     14  H   UNL A   1      30.705  23.856  21.989  1.00  0.00     0.346 HD
BRANCH  12  15
ATOM     15  C   UNL A   1      32.645  23.761  22.458  1.00  0.00     0.187 C 
ATOM     16  C   UNL A   1      33.310  22.703  24.733  1.00  0.00     0.071 C 
ATOM     17  C   UNL A   1      33.875  21.342  25.217  1.00  0.00     0.042 C 
ATOM     18  C   UNL A   1      33.042  22.506  23.224  1.00  0.00     0.100 C 
ATOM     19  O   UNL A   1      34.364  23.658  24.887  1.00  0.00    -0.375 OA
ATOM     20  C   UNL A   1      34.174  24.909  24.232  1.00  0.00     0.167 C 
ATOM     21  C   UNL A   1      33.710  24.832  22.776  1.00  0.00     0.093 C 
BRANCH  16  22
ATOM     22  C   UNL A   1      32.086  22.974  25.657  1.00  0.00     0.032 C 
ATOM     23  C   UNL A   1      32.238  23.074  27.168  1.00  0.00     0.007 C 
ENDBRANCH  16  22
ENDBRANCH  12  15
ENDBRANCH  11  12
ENDBRANCH   6  11
ENDBRANCH   3   5
ENDBRANCH   2   3
ENDBRANCH   1   2
BRANCH   1  24
ATOM     24  C   UNL A   1      34.597  30.764  27.621  1.00  0.00     0.275 C 
BRANCH  24  25
ATOM     25  O   UNL A   1      35.464  29.703  28.067  1.00  0.00    -0.458 OA
BRANCH  25  26
ATOM     26  C   UNL A   1      36.156  29.978  29.197  1.00  0.00     0.338 C 
ATOM     27  O   UNL A   1      35.693  30.245  30.298  1.00  0.00    -0.246 OA
BRANCH  26  28
ATOM     28  C   UNL A   1      37.603  29.913  28.958  1.00  0.00     0.060 A 
ATOM     29  C   UNL A   1      38.089  29.725  27.663  1.00  0.00     0.016 A 
ATOM     30  C   UNL A   1      38.466  29.844  30.053  1.00  0.00     0.016 A 
ATOM     31  C   UNL A   1      39.427  29.387  27.464  1.00  0.00     0.010 A 
ATOM     32  C   UNL A   1      39.820  29.569  29.845  1.00  0.00     0.010 A 
ATOM     33  C   UNL A   1      40.305  29.296  28.553  1.00  0.00    -0.014 A 
BRANCH  33  34
ATOM     34  C   UNL A   1      41.713  28.859  28.363  1.00  0.00     0.031 A 
ATOM     35  C   UNL A   1      42.828  29.869  28.441  1.00  0.00     0.074 A 
ATOM     36  C   UNL A   1      41.996  27.567  28.111  1.00  0.00     0.049 A 
ATOM     37  N   UNL A   1      44.089  29.738  28.120  1.00  0.00    -0.248 NA
ATOM     38  C   UNL A   1      42.471  31.208  28.937  1.00  0.00     0.031 C 
ATOM     39  C   UNL A   1      41.016  26.481  28.055  1.00  0.00     0.029 A 
ATOM     40  N   UNL A   1      43.193  26.949  27.848  1.00  0.00    -0.354 N 
ATOM     41  C   UNL A   1      44.665  30.987  28.323  1.00  0.00     0.074 A 
ATOM     42  C   UNL A   1      43.617  31.863  28.800  1.00  0.00     0.031 C 
ATOM     43  C   UNL A   1      41.652  25.330  27.784  1.00  0.00     0.029 A 
ATOM     44  C   UNL A   1      43.071  25.607  27.585  1.00  0.00     0.049 A 
ATOM     45  H   UNL A   1      44.056  27.424  27.849  1.00  0.00     0.167 HD
ATOM     46  C   UNL A   1      45.951  31.368  28.124  1.00  0.00     0.037 A 
ATOM     47  C   UNL A   1      43.991  24.706  27.187  1.00  0.00     0.037 A 
ATOM     48  C   UNL A   1      46.999  30.480  27.692  1.00  0.00     0.049 A 
ATOM     49  C   UNL A   1      45.409  25.151  26.965  1.00  0.00     0.074 A 
ATOM     50  C   UNL A   1      48.334  30.766  27.461  1.00  0.00     0.029 A 
ATOM     51  N   UNL A   1      46.833  29.125  27.441  1.00  0.00    -0.354 N 
ATOM     52  N   UNL A   1      45.926  26.348  27.104  1.00  0.00    -0.248 NA
ATOM     53  C   UNL A   1      46.364  24.127  26.521  1.00  0.00     0.031 C 
ATOM     54  C   UNL A   1      48.971  29.589  27.052  1.00  0.00     0.029 A 
ATOM     55  C   UNL A   1      48.039  28.562  27.057  1.00  0.00     0.049 A 
ATOM     56  H   UNL A   1      45.983  28.636  27.523  1.00  0.00     0.167 HD
ATOM     57  C   UNL A   1      47.270  26.221  26.771  1.00  0.00     0.074 A 
ATOM     58  C   UNL A   1      47.488  24.826  26.442  1.00  0.00     0.031 C 
ATOM     59  C   UNL A   1      48.235  27.172  26.737  1.00  0.00     0.037 A 
BRANCH  46  60
ATOM     60  C   UNL A   1      46.287  32.816  28.340  1.00  0.00     0.058 A 
ATOM     61  C   UNL A   1      46.584  33.330  29.611  1.00  0.00     0.135 A 
ATOM     62  C   UNL A   1      46.330  33.702  27.249  1.00  0.00     0.135 A 
ATOM     63  F   UNL A   1      46.539  32.532  30.690  1.00  0.00    -0.206 F 
ATOM     64  C   UNL A   1      46.887  34.676  29.799  1.00  0.00     0.059 A 
ATOM     65  C   UNL A   1      46.652  35.046  27.411  1.00  0.00     0.059 A 
ATOM     66  F   UNL A   1      46.053  33.262  26.012  1.00  0.00    -0.206 F 
ATOM     67  C   UNL A   1      46.912  35.527  28.693  1.00  0.00     0.060 A 
BRANCH  67  68
ATOM     68  S   UNL A   1      47.299  37.273  28.948  1.00  0.00     0.124 S 
ATOM     69  O   UNL A   1      48.504  37.424  28.139  1.00  0.00    -0.237 OA
ATOM     70  O   UNL A   1      46.106  37.940  28.438  1.00  0.00    -0.237 OA
ATOM     71  O   UNL A   1      47.497  37.369  30.391  1.00  0.00    -0.744 OA
ENDBRANCH  67  68
ENDBRANCH  46  60
BRANCH  47  72
ATOM     72  C   UNL A   1      43.583  23.299  26.941  1.00  0.00     0.058 A 
ATOM     73  C   UNL A   1      43.268  22.443  28.005  1.00  0.00     0.135 A 
ATOM     74  C   UNL A   1      43.470  22.793  25.636  1.00  0.00     0.135 A 
ATOM     75  F   UNL A   1      43.373  22.879  29.270  1.00  0.00    -0.206 F 
ATOM     76  C   UNL A   1      42.860  21.131  27.788  1.00  0.00     0.059 A 
ATOM     77  C   UNL A   1      43.042  21.492  25.392  1.00  0.00     0.059 A 
ATOM     78  F   UNL A   1      43.748  23.579  24.585  1.00  0.00    -0.206 F 
ATOM     79  C   UNL A   1      42.747  20.666  26.476  1.00  0.00     0.060 A 
BRANCH  79  80
ATOM     80  S   UNL A   1      42.150  18.984  26.194  1.00  0.00     0.124 S 
ATOM     81  O   UNL A   1      43.025  18.541  25.114  1.00  0.00    -0.237 OA
ATOM     82  O   UNL A   1      42.369  18.354  27.492  1.00  0.00    -0.237 OA
ATOM     83  O   UNL A   1      40.749  19.185  25.833  1.00  0.00    -0.744 OA
ENDBRANCH  79  80
ENDBRANCH  47  72
BRANCH  59  84
ATOM     84  C   UNL A   1      49.618  26.727  26.355  1.00  0.00     0.058 A 
ATOM     85  C   UNL A   1      50.482  26.141  27.292  1.00  0.00     0.135 A 
ATOM     86  C   UNL A   1      50.069  26.862  25.034  1.00  0.00     0.135 A 
ATOM     87  F   UNL A   1      50.097  25.996  28.569  1.00  0.00    -0.206 F 
ATOM     88  C   UNL A   1      51.760  25.724  26.936  1.00  0.00     0.059 A 
ATOM     89  C   UNL A   1      51.337  26.435  24.652  1.00  0.00     0.059 A 
ATOM     90  F   UNL A   1      49.276  27.410  24.101  1.00  0.00    -0.206 F 
ATOM     91  C   UNL A   1      52.180  25.879  25.614  1.00  0.00     0.060 A 
BRANCH  91  92
ATOM     92  S   UNL A   1      53.833  25.319  25.152  1.00  0.00     0.124 S 
ATOM     93  O   UNL A   1      53.699  23.872  25.282  1.00  0.00    -0.237 OA
ATOM     94  O   UNL A   1      53.971  25.822  23.790  1.00  0.00    -0.237 OA
ATOM     95  O   UNL A   1      54.696  25.961  26.140  1.00  0.00    -0.744 OA
ENDBRANCH  91  92
ENDBRANCH  59  84
ENDBRANCH  33  34
ENDBRANCH  26  28
ENDBRANCH  25  26
ENDBRANCH  24  25
ENDBRANCH   1  24
TORSDOF 18
ENDMDL
