MODEL 1
REMARK VINA RESULT:     -12.6      0.000      0.000
REMARK SMILES COC(=O)c1ccc2c(c1)=N[C@H](c1cn(CCC(=O)OCCOC(=O)c3ccc(-c4c5nc(c(-c6c(F)cc(S(=O)(=O)[O-])cc6F)c6ccc([nH]6)c(-c6c(F)cc(S(=O)(=O)[O-])cc6F)c6nc(c(-c7c(F)cc(S(=O)(=O)[O-])cc7F)c7ccc4[nH]7)C=C6)C=C5)cc3)c3ccccc13)N=2
REMARK SMILES IDX 21 1 20 2 18 3 19 4 17 5 16 6 15 7 13 8 14 9 97 10 92 11
REMARK SMILES IDX 96 12 93 13 95 14 94 15 12 16 5 17 6 18 10 19 7 20 9 21 8 22
REMARK SMILES IDX 11 23 98 24 3 25 4 26 2 27 1 28 22 29 23 30 24 31 25 32
REMARK SMILES IDX 26 33 27 34 91 35 28 36 90 37 29 38 30 39 31 40 84 41 32 42
REMARK SMILES IDX 89 43 83 44 85 45 33 46 88 47 82 48 81 49 34 51 68 52 47 53
REMARK SMILES IDX 67 54 48 55 51 56 66 57 86 58 49 59 50 60 65 62 87 63 52 64
REMARK SMILES IDX 35 65 36 66 45 67 37 68 38 69 44 70 46 71 39 72 40 73 41 74
REMARK SMILES IDX 42 75 43 76 69 77 70 78 79 79 71 80 72 81 78 82 80 83 73 84
REMARK SMILES IDX 74 85 75 86 76 87 77 88 53 89 54 90 63 91 55 92 56 93 62 94
REMARK SMILES IDX 64 95 57 96 58 97 59 98 60 99 61 100
REMARK H PARENT 85 50 51 61
REMARK Flexibility Score: inf
ROOT
ATOM      1  C   UNL A   1      32.462  30.633  26.839  1.00  0.00     0.274 C 
ENDROOT
BRANCH   1   2
ATOM      2  O   UNL A   1      33.365  29.762  26.135  1.00  0.00    -0.462 OA
BRANCH   2   3
ATOM      3  C   UNL A   1      32.972  29.296  24.929  1.00  0.00     0.307 C 
ATOM      4  O   UNL A   1      33.739  28.885  24.070  1.00  0.00    -0.252 OA
BRANCH   3   5
ATOM      5  C   UNL A   1      31.473  29.359  24.733  1.00  0.00     0.144 C 
BRANCH   5   6
ATOM      6  C   UNL A   1      30.927  28.597  23.516  1.00  0.00     0.134 C 
BRANCH   6   7
ATOM      7  N   UNL A   1      30.810  27.176  23.808  1.00  0.00    -0.346 N 
ATOM      8  C   UNL A   1      31.047  25.621  25.349  1.00  0.00     0.024 A 
ATOM      9  C   UNL A   1      30.261  26.699  24.970  1.00  0.00     0.094 A 
ATOM     10  C   UNL A   1      32.163  25.615  24.452  1.00  0.00     0.007 A 
ATOM     11  C   UNL A   1      31.638  26.201  23.307  1.00  0.00     0.048 A 
ATOM     12  C   UNL A   1      33.379  24.924  24.359  1.00  0.00     0.011 A 
ATOM     13  C   UNL A   1      31.997  25.776  22.028  1.00  0.00     0.027 A 
ATOM     14  C   UNL A   1      33.813  24.545  23.089  1.00  0.00     0.001 A 
ATOM     15  C   UNL A   1      33.059  24.866  21.957  1.00  0.00     0.002 A 
BRANCH   8  16
ATOM     16  C   UNL A   1      30.626  24.519  26.278  1.00  0.00     0.255 C 
ATOM     17  C   UNL A   1      32.986  20.689  25.812  1.00  0.00     0.062 A 
ATOM     18  C   UNL A   1      33.611  21.221  27.020  1.00  0.00     0.018 A 
ATOM     19  C   UNL A   1      32.000  21.339  25.170  1.00  0.00     0.046 A 
ATOM     20  C   UNL A   1      33.278  22.400  27.568  1.00  0.00     0.031 A 
ATOM     21  C   UNL A   1      31.519  22.596  25.754  1.00  0.00     0.087 A 
ATOM     22  C   UNL A   1      32.191  23.158  26.941  1.00  0.00     0.086 A 
ATOM     23  N   UNL A   1      30.498  23.298  25.412  1.00  0.00    -0.252 NA
ATOM     24  N   UNL A   1      31.656  24.263  27.328  1.00  0.00    -0.252 NA
BRANCH  17  25
ATOM     25  C   UNL A   1      33.407  19.383  25.227  1.00  0.00     0.337 C 
ATOM     26  O   UNL A   1      34.423  19.215  24.562  1.00  0.00    -0.246 OA
BRANCH  25  27
ATOM     27  O   UNL A   1      32.478  18.432  25.504  1.00  0.00    -0.465 OA
ATOM     28  C   UNL A   1      32.561  17.264  24.684  1.00  0.00     0.282 C 
ENDBRANCH  25  27
ENDBRANCH  17  25
ENDBRANCH   8  16
ENDBRANCH   6   7
ENDBRANCH   5   6
ENDBRANCH   3   5
ENDBRANCH   2   3
ENDBRANCH   1   2
BRANCH   1  29
ATOM     29  C   UNL A   1      33.295  31.742  27.487  1.00  0.00     0.275 C 
BRANCH  29  30
ATOM     30  O   UNL A   1      34.520  31.179  27.993  1.00  0.00    -0.458 OA
BRANCH  30  31
ATOM     31  C   UNL A   1      35.140  31.907  28.956  1.00  0.00     0.338 C 
ATOM     32  O   UNL A   1      34.667  32.851  29.566  1.00  0.00    -0.246 OA
BRANCH  31  33
ATOM     33  C   UNL A   1      36.342  31.149  29.386  1.00  0.00     0.060 A 
ATOM     34  C   UNL A   1      37.553  31.799  29.643  1.00  0.00     0.016 A 
ATOM     35  C   UNL A   1      36.304  29.757  29.245  1.00  0.00     0.016 A 
ATOM     36  C   UNL A   1      38.740  31.082  29.560  1.00  0.00     0.010 A 
ATOM     37  C   UNL A   1      37.496  29.047  29.140  1.00  0.00     0.010 A 
ATOM     38  C   UNL A   1      38.716  29.723  29.219  1.00  0.00    -0.014 A 
BRANCH  38  39
ATOM     39  C   UNL A   1      39.978  28.984  29.256  1.00  0.00     0.031 A 
ATOM     40  C   UNL A   1      40.449  28.850  30.655  1.00  0.00     0.074 A 
ATOM     41  C   UNL A   1      40.656  28.409  28.239  1.00  0.00     0.049 A 
ATOM     42  N   UNL A   1      41.367  29.545  31.239  1.00  0.00    -0.248 NA
ATOM     43  C   UNL A   1      39.645  28.021  31.568  1.00  0.00     0.031 C 
ATOM     44  C   UNL A   1      40.247  28.199  26.853  1.00  0.00     0.029 A 
ATOM     45  N   UNL A   1      41.895  27.824  28.271  1.00  0.00    -0.354 N 
ATOM     46  C   UNL A   1      41.405  29.073  32.543  1.00  0.00     0.074 A 
ATOM     47  C   UNL A   1      40.184  28.341  32.744  1.00  0.00     0.031 C 
ATOM     48  C   UNL A   1      41.120  27.368  26.235  1.00  0.00     0.029 A 
ATOM     49  C   UNL A   1      42.231  27.096  27.130  1.00  0.00     0.049 A 
ATOM     50  H   UNL A   1      42.501  27.911  29.041  1.00  0.00     0.167 HD
ATOM     51  C   UNL A   1      42.560  29.078  33.261  1.00  0.00     0.037 A 
ATOM     52  C   UNL A   1      43.336  26.323  26.942  1.00  0.00     0.037 A 
ATOM     53  C   UNL A   1      43.523  29.983  32.686  1.00  0.00     0.049 A 
ATOM     54  C   UNL A   1      44.358  26.795  27.909  1.00  0.00     0.074 A 
ATOM     55  C   UNL A   1      43.549  31.341  32.427  1.00  0.00     0.029 A 
ATOM     56  N   UNL A   1      44.531  29.436  31.929  1.00  0.00    -0.354 N 
ATOM     57  N   UNL A   1      44.937  27.963  27.849  1.00  0.00    -0.248 NA
ATOM     58  C   UNL A   1      44.425  26.130  29.199  1.00  0.00     0.031 C 
ATOM     59  C   UNL A   1      44.263  31.475  31.201  1.00  0.00     0.029 A 
ATOM     60  C   UNL A   1      44.684  30.204  30.804  1.00  0.00     0.049 A 
ATOM     61  H   UNL A   1      45.053  28.633  32.156  1.00  0.00     0.167 HD
ATOM     62  C   UNL A   1      45.062  28.363  29.171  1.00  0.00     0.074 A 
ATOM     63  C   UNL A   1      44.816  27.157  29.957  1.00  0.00     0.031 C 
ATOM     64  C   UNL A   1      45.079  29.685  29.510  1.00  0.00     0.037 A 
BRANCH  51  65
ATOM     65  C   UNL A   1      42.936  27.984  34.234  1.00  0.00     0.058 A 
ATOM     66  C   UNL A   1      43.053  28.294  35.603  1.00  0.00     0.135 A 
ATOM     67  C   UNL A   1      43.440  26.715  33.857  1.00  0.00     0.135 A 
ATOM     68  F   UNL A   1      42.625  29.475  36.076  1.00  0.00    -0.206 F 
ATOM     69  C   UNL A   1      43.680  27.440  36.512  1.00  0.00     0.059 A 
ATOM     70  C   UNL A   1      44.011  25.826  34.756  1.00  0.00     0.059 A 
ATOM     71  F   UNL A   1      43.500  26.304  32.586  1.00  0.00    -0.206 F 
ATOM     72  C   UNL A   1      44.165  26.212  36.073  1.00  0.00     0.060 A 
BRANCH  72  73
ATOM     73  S   UNL A   1      45.060  25.149  37.214  1.00  0.00     0.124 S 
ATOM     74  O   UNL A   1      46.425  25.634  37.052  1.00  0.00    -0.237 OA
ATOM     75  O   UNL A   1      44.413  25.462  38.485  1.00  0.00    -0.237 OA
ATOM     76  O   UNL A   1      44.800  23.808  36.699  1.00  0.00    -0.744 OA
ENDBRANCH  72  73
ENDBRANCH  51  65
BRANCH  52  77
ATOM     77  C   UNL A   1      43.473  25.020  26.225  1.00  0.00     0.058 A 
ATOM     78  C   UNL A   1      44.477  24.815  25.254  1.00  0.00     0.135 A 
ATOM     79  C   UNL A   1      42.827  23.858  26.689  1.00  0.00     0.135 A 
ATOM     80  F   UNL A   1      45.163  25.857  24.762  1.00  0.00    -0.206 F 
ATOM     81  C   UNL A   1      44.856  23.536  24.818  1.00  0.00     0.059 A 
ATOM     82  C   UNL A   1      43.182  22.574  26.264  1.00  0.00     0.059 A 
ATOM     83  F   UNL A   1      41.891  23.925  27.646  1.00  0.00    -0.206 F 
ATOM     84  C   UNL A   1      44.217  22.418  25.349  1.00  0.00     0.060 A 
BRANCH  84  85
ATOM     85  S   UNL A   1      44.816  20.762  24.926  1.00  0.00     0.124 S 
ATOM     86  O   UNL A   1      44.673  20.747  23.474  1.00  0.00    -0.237 OA
ATOM     87  O   UNL A   1      46.184  20.790  25.431  1.00  0.00    -0.237 OA
ATOM     88  O   UNL A   1      43.906  19.877  25.649  1.00  0.00    -0.744 OA
ENDBRANCH  84  85
ENDBRANCH  52  77
BRANCH  64  89
ATOM     89  C   UNL A   1      45.297  30.708  28.420  1.00  0.00     0.058 A 
ATOM     90  C   UNL A   1      44.279  31.223  27.597  1.00  0.00     0.135 A 
ATOM     91  C   UNL A   1      46.553  31.330  28.351  1.00  0.00     0.135 A 
ATOM     92  F   UNL A   1      43.032  30.736  27.656  1.00  0.00    -0.206 F 
ATOM     93  C   UNL A   1      44.502  32.313  26.749  1.00  0.00     0.059 A 
ATOM     94  C   UNL A   1      46.789  32.434  27.536  1.00  0.00     0.059 A 
ATOM     95  F   UNL A   1      47.553  30.912  29.143  1.00  0.00    -0.206 F 
ATOM     96  C   UNL A   1      45.757  32.924  26.739  1.00  0.00     0.060 A 
BRANCH  96  97
ATOM     97  S   UNL A   1      46.005  34.421  25.756  1.00  0.00     0.124 S 
ATOM     98  O   UNL A   1      45.122  34.193  24.617  1.00  0.00    -0.237 OA
ATOM     99  O   UNL A   1      45.594  35.476  26.677  1.00  0.00    -0.237 OA
ATOM    100  O   UNL A   1      47.433  34.398  25.449  1.00  0.00    -0.744 OA
ENDBRANCH  96  97
ENDBRANCH  64  89
ENDBRANCH  38  39
ENDBRANCH  31  33
ENDBRANCH  30  31
ENDBRANCH  29  30
ENDBRANCH   1  29
TORSDOF 19
ENDMDL
MODEL 2
REMARK VINA RESULT:     -12.6      2.777      9.575
REMARK SMILES COC(=O)c1ccc2c(c1)=N[C@H](c1cn(CCC(=O)OCCOC(=O)c3ccc(-c4c5nc(c(-c6c(F)cc(S(=O)(=O)[O-])cc6F)c6ccc([nH]6)c(-c6c(F)cc(S(=O)(=O)[O-])cc6F)c6nc(c(-c7c(F)cc(S(=O)(=O)[O-])cc7F)c7ccc4[nH]7)C=C6)C=C5)cc3)c3ccccc13)N=2
REMARK SMILES IDX 21 1 20 2 18 3 19 4 17 5 16 6 15 7 13 8 14 9 97 10 92 11
REMARK SMILES IDX 96 12 93 13 95 14 94 15 12 16 5 17 6 18 10 19 7 20 9 21 8 22
REMARK SMILES IDX 11 23 98 24 3 25 4 26 2 27 1 28 22 29 23 30 24 31 25 32
REMARK SMILES IDX 26 33 27 34 91 35 28 36 90 37 29 38 30 39 31 40 84 41 32 42
REMARK SMILES IDX 89 43 83 44 85 45 33 46 88 47 82 48 81 49 34 51 68 52 47 53
REMARK SMILES IDX 67 54 48 55 51 56 66 57 86 58 49 59 50 60 65 62 87 63 52 64
REMARK SMILES IDX 35 65 36 66 45 67 37 68 38 69 44 70 46 71 39 72 40 73 41 74
REMARK SMILES IDX 42 75 43 76 69 77 70 78 79 79 71 80 72 81 78 82 80 83 73 84
REMARK SMILES IDX 74 85 75 86 76 87 77 88 53 89 54 90 63 91 55 92 56 93 62 94
REMARK SMILES IDX 64 95 57 96 58 97 59 98 60 99 61 100
REMARK H PARENT 85 50 51 61
REMARK Flexibility Score: inf
ROOT
ATOM      1  C   UNL A   1      36.378  21.437  24.962  1.00  0.00     0.274 C 
ENDROOT
BRANCH   1   2
ATOM      2  O   UNL A   1      36.087  20.027  24.989  1.00  0.00    -0.462 OA
BRANCH   2   3
ATOM      3  C   UNL A   1      34.794  19.654  24.880  1.00  0.00     0.307 C 
ATOM      4  O   UNL A   1      34.425  18.605  24.369  1.00  0.00    -0.252 OA
BRANCH   3   5
ATOM      5  C   UNL A   1      33.833  20.683  25.432  1.00  0.00     0.144 C 
BRANCH   5   6
ATOM      6  C   UNL A   1      32.453  20.738  24.759  1.00  0.00     0.134 C 
BRANCH   6   7
ATOM      7  N   UNL A   1      32.207  22.059  24.199  1.00  0.00    -0.346 N 
ATOM      8  C   UNL A   1      33.007  23.657  22.912  1.00  0.00     0.024 A 
ATOM      9  C   UNL A   1      32.477  22.374  22.893  1.00  0.00     0.094 A 
ATOM     10  C   UNL A   1      33.187  23.986  24.293  1.00  0.00     0.007 A 
ATOM     11  C   UNL A   1      32.204  23.230  24.919  1.00  0.00     0.048 A 
ATOM     12  C   UNL A   1      33.801  25.020  25.012  1.00  0.00     0.011 A 
ATOM     13  C   UNL A   1      31.493  23.707  26.020  1.00  0.00     0.027 A 
ATOM     14  C   UNL A   1      33.161  25.477  26.163  1.00  0.00     0.001 A 
ATOM     15  C   UNL A   1      31.958  24.902  26.582  1.00  0.00     0.002 A 
BRANCH   8  16
ATOM     16  C   UNL A   1      33.053  24.598  21.743  1.00  0.00     0.255 C 
ATOM     17  C   UNL A   1      31.205  28.647  22.541  1.00  0.00     0.062 A 
ATOM     18  C   UNL A   1      32.620  28.995  22.644  1.00  0.00     0.018 A 
ATOM     19  C   UNL A   1      30.792  27.395  22.284  1.00  0.00     0.046 A 
ATOM     20  C   UNL A   1      33.613  28.101  22.518  1.00  0.00     0.031 A 
ATOM     21  C   UNL A   1      31.819  26.373  22.050  1.00  0.00     0.087 A 
ATOM     22  C   UNL A   1      33.245  26.716  22.210  1.00  0.00     0.086 A 
ATOM     23  N   UNL A   1      31.666  25.166  21.637  1.00  0.00    -0.252 NA
ATOM     24  N   UNL A   1      34.018  25.713  21.975  1.00  0.00    -0.252 NA
BRANCH  17  25
ATOM     25  C   UNL A   1      30.136  29.675  22.711  1.00  0.00     0.337 C 
ATOM     26  O   UNL A   1      29.749  30.102  23.793  1.00  0.00    -0.246 OA
BRANCH  25  27
ATOM     27  O   UNL A   1      29.634  30.023  21.499  1.00  0.00    -0.465 OA
ATOM     28  C   UNL A   1      28.211  30.156  21.461  1.00  0.00     0.282 C 
ENDBRANCH  25  27
ENDBRANCH  17  25
ENDBRANCH   8  16
ENDBRANCH   6   7
ENDBRANCH   5   6
ENDBRANCH   3   5
ENDBRANCH   2   3
ENDBRANCH   1   2
BRANCH   1  29
ATOM     29  C   UNL A   1      37.895  21.601  25.078  1.00  0.00     0.275 C 
BRANCH  29  30
ATOM     30  O   UNL A   1      38.194  22.452  26.201  1.00  0.00    -0.458 OA
BRANCH  30  31
ATOM     31  C   UNL A   1      39.437  22.305  26.728  1.00  0.00     0.338 C 
ATOM     32  O   UNL A   1      40.111  21.288  26.716  1.00  0.00    -0.246 OA
BRANCH  31  33
ATOM     33  C   UNL A   1      39.972  23.662  27.000  1.00  0.00     0.060 A 
ATOM     34  C   UNL A   1      41.082  23.849  27.831  1.00  0.00     0.016 A 
ATOM     35  C   UNL A   1      39.167  24.750  26.642  1.00  0.00     0.016 A 
ATOM     36  C   UNL A   1      41.263  25.076  28.454  1.00  0.00     0.010 A 
ATOM     37  C   UNL A   1      39.340  25.970  27.286  1.00  0.00     0.010 A 
ATOM     38  C   UNL A   1      40.340  26.110  28.252  1.00  0.00    -0.014 A 
BRANCH  38  39
ATOM     39  C   UNL A   1      40.635  27.418  28.837  1.00  0.00     0.031 A 
ATOM     40  C   UNL A   1      41.902  27.950  28.282  1.00  0.00     0.074 A 
ATOM     41  C   UNL A   1      39.898  28.147  29.704  1.00  0.00     0.049 A 
ATOM     42  N   UNL A   1      43.064  27.947  28.846  1.00  0.00    -0.248 NA
ATOM     43  C   UNL A   1      41.925  28.304  26.853  1.00  0.00     0.031 C 
ATOM     44  C   UNL A   1      38.529  27.935  30.163  1.00  0.00     0.029 A 
ATOM     45  N   UNL A   1      40.242  29.314  30.334  1.00  0.00    -0.354 N 
ATOM     46  C   UNL A   1      43.922  28.511  27.912  1.00  0.00     0.074 A 
ATOM     47  C   UNL A   1      43.231  28.471  26.652  1.00  0.00     0.031 C 
ATOM     48  C   UNL A   1      38.091  29.029  30.831  1.00  0.00     0.029 A 
ATOM     49  C   UNL A   1      39.189  29.967  30.975  1.00  0.00     0.049 A 
ATOM     50  H   UNL A   1      41.161  29.664  30.335  1.00  0.00     0.167 HD
ATOM     51  C   UNL A   1      45.013  29.223  28.299  1.00  0.00     0.037 A 
ATOM     52  C   UNL A   1      39.221  31.191  31.572  1.00  0.00     0.037 A 
ATOM     53  C   UNL A   1      45.362  28.934  29.668  1.00  0.00     0.049 A 
ATOM     54  C   UNL A   1      40.642  31.473  31.894  1.00  0.00     0.074 A 
ATOM     55  C   UNL A   1      45.724  27.793  30.359  1.00  0.00     0.029 A 
ATOM     56  N   UNL A   1      44.991  29.851  30.623  1.00  0.00    -0.354 N 
ATOM     57  N   UNL A   1      41.335  30.816  32.785  1.00  0.00    -0.248 NA
ATOM     58  C   UNL A   1      41.423  32.212  30.917  1.00  0.00     0.031 C 
ATOM     59  C   UNL A   1      45.129  27.930  31.647  1.00  0.00     0.029 A 
ATOM     60  C   UNL A   1      44.483  29.167  31.696  1.00  0.00     0.049 A 
ATOM     61  H   UNL A   1      45.077  30.829  30.548  1.00  0.00     0.167 HD
ATOM     62  C   UNL A   1      42.603  30.708  32.235  1.00  0.00     0.074 A 
ATOM     63  C   UNL A   1      42.621  31.665  31.132  1.00  0.00     0.031 C 
ATOM     64  C   UNL A   1      43.422  29.661  32.550  1.00  0.00     0.037 A 
BRANCH  51  65
ATOM     65  C   UNL A   1      45.506  30.450  27.566  1.00  0.00     0.058 A 
ATOM     66  C   UNL A   1      46.843  30.495  27.127  1.00  0.00     0.135 A 
ATOM     67  C   UNL A   1      44.808  31.680  27.504  1.00  0.00     0.135 A 
ATOM     68  F   UNL A   1      47.610  29.394  27.154  1.00  0.00    -0.206 F 
ATOM     69  C   UNL A   1      47.458  31.682  26.722  1.00  0.00     0.059 A 
ATOM     70  C   UNL A   1      45.381  32.858  27.046  1.00  0.00     0.059 A 
ATOM     71  F   UNL A   1      43.566  31.838  27.973  1.00  0.00    -0.206 F 
ATOM     72  C   UNL A   1      46.718  32.860  26.697  1.00  0.00     0.060 A 
BRANCH  72  73
ATOM     73  S   UNL A   1      47.526  34.409  26.271  1.00  0.00     0.124 S 
ATOM     74  O   UNL A   1      48.899  33.972  26.059  1.00  0.00    -0.237 OA
ATOM     75  O   UNL A   1      46.787  34.813  25.078  1.00  0.00    -0.237 OA
ATOM     76  O   UNL A   1      47.301  35.241  27.451  1.00  0.00    -0.744 OA
ENDBRANCH  72  73
ENDBRANCH  51  65
BRANCH  52  77
ATOM     77  C   UNL A   1      38.181  32.262  31.600  1.00  0.00     0.058 A 
ATOM     78  C   UNL A   1      37.411  32.572  30.458  1.00  0.00     0.135 A 
ATOM     79  C   UNL A   1      37.708  32.792  32.816  1.00  0.00     0.135 A 
ATOM     80  F   UNL A   1      37.768  32.100  29.254  1.00  0.00    -0.206 F 
ATOM     81  C   UNL A   1      36.218  33.308  30.529  1.00  0.00     0.059 A 
ATOM     82  C   UNL A   1      36.527  33.533  32.910  1.00  0.00     0.059 A 
ATOM     83  F   UNL A   1      38.331  32.523  33.972  1.00  0.00    -0.206 F 
ATOM     84  C   UNL A   1      35.771  33.763  31.767  1.00  0.00     0.060 A 
BRANCH  84  85
ATOM     85  S   UNL A   1      34.148  34.560  31.893  1.00  0.00     0.124 S 
ATOM     86  O   UNL A   1      33.463  33.705  32.855  1.00  0.00    -0.237 OA
ATOM     87  O   UNL A   1      34.497  35.895  32.363  1.00  0.00    -0.237 OA
ATOM     88  O   UNL A   1      33.633  34.499  30.527  1.00  0.00    -0.744 OA
ENDBRANCH  84  85
ENDBRANCH  52  77
BRANCH  64  89
ATOM     89  C   UNL A   1      43.075  28.806  33.745  1.00  0.00     0.058 A 
ATOM     90  C   UNL A   1      42.160  27.738  33.720  1.00  0.00     0.135 A 
ATOM     91  C   UNL A   1      43.854  28.955  34.902  1.00  0.00     0.135 A 
ATOM     92  F   UNL A   1      41.430  27.480  32.627  1.00  0.00    -0.206 F 
ATOM     93  C   UNL A   1      42.033  26.856  34.799  1.00  0.00     0.059 A 
ATOM     94  C   UNL A   1      43.765  28.072  35.974  1.00  0.00     0.059 A 
ATOM     95  F   UNL A   1      44.776  29.929  34.969  1.00  0.00    -0.206 F 
ATOM     96  C   UNL A   1      42.854  27.020  35.915  1.00  0.00     0.060 A 
BRANCH  96  97
ATOM     97  S   UNL A   1      42.795  25.796  37.244  1.00  0.00     0.124 S 
ATOM     98  O   UNL A   1      43.313  26.548  38.382  1.00  0.00    -0.237 OA
ATOM     99  O   UNL A   1      41.376  25.456  37.300  1.00  0.00    -0.237 OA
ATOM    100  O   UNL A   1      43.662  24.724  36.762  1.00  0.00    -0.744 OA
ENDBRANCH  96  97
ENDBRANCH  64  89
ENDBRANCH  38  39
ENDBRANCH  31  33
ENDBRANCH  30  31
ENDBRANCH  29  30
ENDBRANCH   1  29
TORSDOF 19
ENDMDL
MODEL 3
REMARK VINA RESULT:     -12.5      2.924      9.669
REMARK SMILES COC(=O)c1ccc2c(c1)=N[C@H](c1cn(CCC(=O)OCCOC(=O)c3ccc(-c4c5nc(c(-c6c(F)cc(S(=O)(=O)[O-])cc6F)c6ccc([nH]6)c(-c6c(F)cc(S(=O)(=O)[O-])cc6F)c6nc(c(-c7c(F)cc(S(=O)(=O)[O-])cc7F)c7ccc4[nH]7)C=C6)C=C5)cc3)c3ccccc13)N=2
REMARK SMILES IDX 21 1 20 2 18 3 19 4 17 5 16 6 15 7 13 8 14 9 97 10 92 11
REMARK SMILES IDX 96 12 93 13 95 14 94 15 12 16 5 17 6 18 10 19 7 20 9 21 8 22
REMARK SMILES IDX 11 23 98 24 3 25 4 26 2 27 1 28 22 29 23 30 24 31 25 32
REMARK SMILES IDX 26 33 27 34 91 35 28 36 90 37 29 38 30 39 31 40 84 41 32 42
REMARK SMILES IDX 89 43 83 44 85 45 33 46 88 47 82 48 81 49 34 51 68 52 47 53
REMARK SMILES IDX 67 54 48 55 51 56 66 57 86 58 49 59 50 60 65 62 87 63 52 64
REMARK SMILES IDX 35 65 36 66 45 67 37 68 38 69 44 70 46 71 39 72 40 73 41 74
REMARK SMILES IDX 42 75 43 76 69 77 70 78 79 79 71 80 72 81 78 82 80 83 73 84
REMARK SMILES IDX 74 85 75 86 76 87 77 88 53 89 54 90 63 91 55 92 56 93 62 94
REMARK SMILES IDX 64 95 57 96 58 97 59 98 60 99 61 100
REMARK H PARENT 85 50 51 61
REMARK Flexibility Score: inf
ROOT
ATOM      1  C   UNL A   1      38.070  21.286  25.777  1.00  0.00     0.274 C 
ENDROOT
BRANCH   1   2
ATOM      2  O   UNL A   1      37.693  21.309  24.388  1.00  0.00    -0.462 OA
BRANCH   2   3
ATOM      3  C   UNL A   1      36.858  22.291  23.984  1.00  0.00     0.307 C 
ATOM      4  O   UNL A   1      36.773  22.685  22.829  1.00  0.00    -0.252 OA
BRANCH   3   5
ATOM      5  C   UNL A   1      36.047  22.880  25.117  1.00  0.00     0.144 C 
BRANCH   5   6
ATOM      6  C   UNL A   1      35.971  24.414  25.157  1.00  0.00     0.134 C 
BRANCH   6   7
ATOM      7  N   UNL A   1      34.605  24.868  24.937  1.00  0.00    -0.346 N 
ATOM      8  C   UNL A   1      32.609  25.098  25.837  1.00  0.00     0.024 A 
ATOM      9  C   UNL A   1      33.905  25.593  25.865  1.00  0.00     0.094 A 
ATOM     10  C   UNL A   1      32.646  23.951  24.983  1.00  0.00     0.007 A 
ATOM     11  C   UNL A   1      33.694  24.245  24.118  1.00  0.00     0.048 A 
ATOM     12  C   UNL A   1      31.763  22.917  24.642  1.00  0.00     0.011 A 
ATOM     13  C   UNL A   1      33.658  23.899  22.768  1.00  0.00     0.027 A 
ATOM     14  C   UNL A   1      31.749  22.488  23.316  1.00  0.00     0.001 A 
ATOM     15  C   UNL A   1      32.604  23.066  22.374  1.00  0.00     0.002 A 
BRANCH   8  16
ATOM     16  C   UNL A   1      31.389  25.822  26.328  1.00  0.00     0.255 C 
ATOM     17  C   UNL A   1      29.622  28.727  23.347  1.00  0.00     0.062 A 
ATOM     18  C   UNL A   1      28.682  27.619  23.201  1.00  0.00     0.018 A 
ATOM     19  C   UNL A   1      30.667  28.675  24.191  1.00  0.00     0.046 A 
ATOM     20  C   UNL A   1      28.795  26.460  23.868  1.00  0.00     0.031 A 
ATOM     21  C   UNL A   1      30.813  27.473  25.020  1.00  0.00     0.087 A 
ATOM     22  C   UNL A   1      29.895  26.334  24.830  1.00  0.00     0.086 A 
ATOM     23  N   UNL A   1      31.625  27.268  25.994  1.00  0.00    -0.252 NA
ATOM     24  N   UNL A   1      30.156  25.358  25.627  1.00  0.00    -0.252 NA
BRANCH  17  25
ATOM     25  C   UNL A   1      29.467  29.989  22.565  1.00  0.00     0.337 C 
ATOM     26  O   UNL A   1      29.599  30.073  21.349  1.00  0.00    -0.246 OA
BRANCH  25  27
ATOM     27  O   UNL A   1      29.204  31.023  23.404  1.00  0.00    -0.465 OA
ATOM     28  C   UNL A   1      27.944  31.662  23.184  1.00  0.00     0.282 C 
ENDBRANCH  25  27
ENDBRANCH  17  25
ENDBRANCH   8  16
ENDBRANCH   6   7
ENDBRANCH   5   6
ENDBRANCH   3   5
ENDBRANCH   2   3
ENDBRANCH   1   2
BRANCH   1  29
ATOM     29  C   UNL A   1      39.589  21.108  25.844  1.00  0.00     0.275 C 
BRANCH  29  30
ATOM     30  O   UNL A   1      40.159  22.189  26.606  1.00  0.00    -0.458 OA
BRANCH  30  31
ATOM     31  C   UNL A   1      41.424  22.540  26.260  1.00  0.00     0.338 C 
ATOM     32  O   UNL A   1      42.157  21.938  25.493  1.00  0.00    -0.246 OA
BRANCH  31  33
ATOM     33  C   UNL A   1      41.632  23.946  26.689  1.00  0.00     0.060 A 
ATOM     34  C   UNL A   1      42.534  24.264  27.710  1.00  0.00     0.016 A 
ATOM     35  C   UNL A   1      40.699  24.892  26.251  1.00  0.00     0.016 A 
ATOM     36  C   UNL A   1      42.368  25.448  28.417  1.00  0.00     0.010 A 
ATOM     37  C   UNL A   1      40.523  26.066  26.976  1.00  0.00     0.010 A 
ATOM     38  C   UNL A   1      41.306  26.308  28.107  1.00  0.00    -0.014 A 
BRANCH  38  39
ATOM     39  C   UNL A   1      41.241  27.595  28.800  1.00  0.00     0.031 A 
ATOM     40  C   UNL A   1      42.335  28.479  28.335  1.00  0.00     0.074 A 
ATOM     41  C   UNL A   1      40.325  28.035  29.690  1.00  0.00     0.049 A 
ATOM     42  N   UNL A   1      43.448  28.729  28.941  1.00  0.00    -0.248 NA
ATOM     43  C   UNL A   1      42.290  28.944  26.939  1.00  0.00     0.031 C 
ATOM     44  C   UNL A   1      39.049  27.440  30.079  1.00  0.00     0.029 A 
ATOM     45  N   UNL A   1      40.342  29.195  30.419  1.00  0.00    -0.354 N 
ATOM     46  C   UNL A   1      44.146  29.570  28.087  1.00  0.00     0.074 A 
ATOM     47  C   UNL A   1      43.512  29.458  26.802  1.00  0.00     0.031 C 
ATOM     48  C   UNL A   1      38.330  28.326  30.810  1.00  0.00     0.029 A 
ATOM     49  C   UNL A   1      39.145  29.500  31.066  1.00  0.00     0.049 A 
ATOM     50  H   UNL A   1      41.138  29.769  30.481  1.00  0.00     0.167 HD
ATOM     51  C   UNL A   1      45.008  30.505  28.568  1.00  0.00     0.037 A 
ATOM     52  C   UNL A   1      38.847  30.637  31.753  1.00  0.00     0.037 A 
ATOM     53  C   UNL A   1      45.395  30.204  29.923  1.00  0.00     0.049 A 
ATOM     54  C   UNL A   1      40.140  31.248  32.150  1.00  0.00     0.074 A 
ATOM     55  C   UNL A   1      46.030  29.142  30.541  1.00  0.00     0.029 A 
ATOM     56  N   UNL A   1      44.783  30.912  30.929  1.00  0.00    -0.354 N 
ATOM     57  N   UNL A   1      40.963  30.721  33.015  1.00  0.00    -0.248 NA
ATOM     58  C   UNL A   1      40.719  32.242  31.262  1.00  0.00     0.031 C 
ATOM     59  C   UNL A   1      45.397  29.014  31.811  1.00  0.00     0.029 A 
ATOM     60  C   UNL A   1      44.450  30.034  31.928  1.00  0.00     0.049 A 
ATOM     61  H   UNL A   1      44.612  31.882  30.931  1.00  0.00     0.167 HD
ATOM     62  C   UNL A   1      42.226  30.989  32.508  1.00  0.00     0.074 A 
ATOM     63  C   UNL A   1      42.014  32.006  31.481  1.00  0.00     0.031 C 
ATOM     64  C   UNL A   1      43.282  30.166  32.775  1.00  0.00     0.037 A 
BRANCH  51  65
ATOM     65  C   UNL A   1      45.178  31.873  27.948  1.00  0.00     0.058 A 
ATOM     66  C   UNL A   1      46.446  32.258  27.473  1.00  0.00     0.135 A 
ATOM     67  C   UNL A   1      44.224  32.916  28.034  1.00  0.00     0.135 A 
ATOM     68  F   UNL A   1      47.438  31.359  27.362  1.00  0.00    -0.206 F 
ATOM     69  C   UNL A   1      46.762  33.584  27.172  1.00  0.00     0.059 A 
ATOM     70  C   UNL A   1      44.498  34.229  27.681  1.00  0.00     0.059 A 
ATOM     71  F   UNL A   1      43.005  32.746  28.558  1.00  0.00    -0.206 F 
ATOM     72  C   UNL A   1      45.781  34.563  27.291  1.00  0.00     0.060 A 
BRANCH  72  73
ATOM     73  S   UNL A   1      46.203  36.287  27.000  1.00  0.00     0.124 S 
ATOM     74  O   UNL A   1      46.998  36.594  28.181  1.00  0.00    -0.237 OA
ATOM     75  O   UNL A   1      46.931  36.207  25.737  1.00  0.00    -0.237 OA
ATOM     76  O   UNL A   1      44.901  36.944  26.925  1.00  0.00    -0.744 OA
ENDBRANCH  72  73
ENDBRANCH  51  65
BRANCH  52  77
ATOM     77  C   UNL A   1      37.563  31.398  31.822  1.00  0.00     0.058 A 
ATOM     78  C   UNL A   1      36.919  31.650  33.052  1.00  0.00     0.135 A 
ATOM     79  C   UNL A   1      37.100  32.152  30.726  1.00  0.00     0.135 A 
ATOM     80  F   UNL A   1      37.300  30.995  34.160  1.00  0.00    -0.206 F 
ATOM     81  C   UNL A   1      35.925  32.629  33.198  1.00  0.00     0.059 A 
ATOM     82  C   UNL A   1      36.106  33.127  30.845  1.00  0.00     0.059 A 
ATOM     83  F   UNL A   1      37.668  32.032  29.518  1.00  0.00    -0.206 F 
ATOM     84  C   UNL A   1      35.543  33.381  32.090  1.00  0.00     0.060 A 
BRANCH  84  85
ATOM     85  S   UNL A   1      34.390  34.763  32.303  1.00  0.00     0.124 S 
ATOM     86  O   UNL A   1      33.307  34.143  33.058  1.00  0.00    -0.237 OA
ATOM     87  O   UNL A   1      35.201  35.731  33.032  1.00  0.00    -0.237 OA
ATOM     88  O   UNL A   1      34.057  35.141  30.932  1.00  0.00    -0.744 OA
ENDBRANCH  84  85
ENDBRANCH  52  77
BRANCH  64  89
ATOM     89  C   UNL A   1      43.148  29.155  33.888  1.00  0.00     0.058 A 
ATOM     90  C   UNL A   1      43.350  29.441  35.251  1.00  0.00     0.135 A 
ATOM     91  C   UNL A   1      42.598  27.904  33.571  1.00  0.00     0.135 A 
ATOM     92  F   UNL A   1      43.802  30.639  35.645  1.00  0.00    -0.206 F 
ATOM     93  C   UNL A   1      43.013  28.522  36.251  1.00  0.00     0.059 A 
ATOM     94  C   UNL A   1      42.228  26.987  34.551  1.00  0.00     0.059 A 
ATOM     95  F   UNL A   1      42.341  27.589  32.291  1.00  0.00    -0.206 F 
ATOM     96  C   UNL A   1      42.435  27.304  35.891  1.00  0.00     0.060 A 
BRANCH  96  97
ATOM     97  S   UNL A   1      41.863  26.179  37.187  1.00  0.00     0.124 S 
ATOM     98  O   UNL A   1      42.903  26.319  38.200  1.00  0.00    -0.237 OA
ATOM     99  O   UNL A   1      40.559  26.735  37.535  1.00  0.00    -0.237 OA
ATOM    100  O   UNL A   1      41.816  24.881  36.518  1.00  0.00    -0.744 OA
ENDBRANCH  96  97
ENDBRANCH  64  89
ENDBRANCH  38  39
ENDBRANCH  31  33
ENDBRANCH  30  31
ENDBRANCH  29  30
ENDBRANCH   1  29
TORSDOF 19
ENDMDL
