MODEL 1
REMARK VINA RESULT:     -12.9      0.000      0.000
REMARK SMILES C[C@@]12CCC[C@](C)(C(=O)OCCOC(=O)c3ccc(-c4c5nc(c(-c6c(F)cc(S(=O)(=O)[O-])cc6F)c6ccc([nH]6)c(-c6c(F)cc(S(=O)(=O)[O-])cc6F)c6nc(c(-c7c(F)cc(S(=O)(=O)[O-])cc7F)c7ccc4[nH]7)C=C6)C=C5)cc3)[C@H]1CC[C@@]13C=C(CO)[C@@H](CC[C@@H]12)C3
REMARK SMILES IDX 12 1 11 2 10 3 8 4 9 5 6 6 1 7 2 8 3 9 82 10 93 11 4 12
REMARK SMILES IDX 83 13 85 14 92 15 5 16 7 17 84 18 86 19 94 20 91 21 87 22
REMARK SMILES IDX 90 23 88 24 89 25 13 27 14 28 15 29 16 30 17 31 81 32 18 33
REMARK SMILES IDX 80 34 19 35 20 36 21 37 74 38 22 39 79 40 73 41 75 42 23 43
REMARK SMILES IDX 78 44 72 45 71 46 24 48 58 49 37 50 57 51 38 52 41 53 56 54
REMARK SMILES IDX 76 55 39 56 40 57 55 59 77 60 42 61 25 62 26 63 35 64 27 65
REMARK SMILES IDX 28 66 34 67 36 68 29 69 30 70 31 71 32 72 33 73 59 74 60 75
REMARK SMILES IDX 69 76 61 77 62 78 68 79 70 80 63 81 64 82 65 83 66 84 67 85
REMARK SMILES IDX 43 86 44 87 53 88 45 89 46 90 52 91 54 92 47 93 48 94 49 95
REMARK SMILES IDX 50 96 51 97
REMARK H PARENT 89 26 75 47 41 58
REMARK Flexibility Score: inf
ROOT
ATOM      1  C   UNL A   1      32.416  30.358  26.885  1.00  0.00     0.275 C 
ENDROOT
BRANCH   1   2
ATOM      2  C   UNL A   1      32.257  29.812  25.469  1.00  0.00     0.274 C 
BRANCH   2   3
ATOM      3  O   UNL A   1      31.688  28.486  25.466  1.00  0.00    -0.462 OA
BRANCH   3   4
ATOM      4  C   UNL A   1      30.995  28.165  24.354  1.00  0.00     0.312 C 
ATOM      5  O   UNL A   1      30.069  28.857  23.934  1.00  0.00    -0.252 OA
BRANCH   4   6
ATOM      6  C   UNL A   1      31.311  26.780  23.740  1.00  0.00     0.069 C 
ATOM      7  C   UNL A   1      31.407  23.678  23.475  1.00  0.00     0.012 C 
ATOM      8  C   UNL A   1      32.714  24.546  23.614  1.00  0.00    -0.025 C 
ATOM      9  C   UNL A   1      33.194  24.932  22.197  1.00  0.00     0.007 C 
ATOM     10  C   UNL A   1      32.424  25.873  24.433  1.00  0.00     0.012 C 
ATOM     11  C   UNL A   1      33.752  23.586  24.290  1.00  0.00     0.005 C 
ATOM     12  C   UNL A   1      32.233  25.859  21.462  1.00  0.00     0.002 C 
ATOM     13  C   UNL A   1      32.227  25.575  25.936  1.00  0.00     0.006 C 
ATOM     14  C   UNL A   1      33.676  23.475  25.858  1.00  0.00    -0.008 C 
ATOM     15  C   UNL A   1      35.186  23.321  23.820  1.00  0.00     0.006 C 
ATOM     16  C   UNL A   1      31.842  27.067  22.302  1.00  0.00     0.019 C 
ATOM     17  C   UNL A   1      29.884  26.182  23.676  1.00  0.00     0.024 C 
ATOM     18  C   UNL A   1      33.394  24.797  26.542  1.00  0.00     0.012 C 
ATOM     19  C   UNL A   1      32.735  22.322  26.091  1.00  0.00    -0.018 C 
ATOM     20  C   UNL A   1      34.930  22.797  26.467  1.00  0.00     0.019 C 
ATOM     21  C   UNL A   1      35.517  21.848  24.279  1.00  0.00     0.008 C 
ATOM     22  C   UNL A   1      33.414  21.192  25.797  1.00  0.00    -0.045 C 
ATOM     23  C   UNL A   1      34.924  21.486  25.682  1.00  0.00     0.018 C 
BRANCH  22  24
ATOM     24  C   UNL A   1      32.801  19.865  25.513  1.00  0.00     0.187 C 
BRANCH  24  25
ATOM     25  O   UNL A   1      32.938  19.009  26.642  1.00  0.00    -0.392 OA
ATOM     26  H   UNL A   1      33.018  18.089  26.343  1.00  0.00     0.211 HD
ENDBRANCH  24  25
ENDBRANCH  22  24
ENDBRANCH   4   6
ENDBRANCH   3   4
ENDBRANCH   2   3
ENDBRANCH   1   2
BRANCH   1  27
ATOM     27  O   UNL A   1      33.535  29.749  27.553  1.00  0.00    -0.458 OA
BRANCH  27  28
ATOM     28  C   UNL A   1      34.404  30.607  28.126  1.00  0.00     0.338 C 
ATOM     29  O   UNL A   1      34.158  31.736  28.549  1.00  0.00    -0.246 OA
BRANCH  28  30
ATOM     30  C   UNL A   1      35.738  30.002  28.246  1.00  0.00     0.060 A 
ATOM     31  C   UNL A   1      36.153  29.519  29.481  1.00  0.00     0.016 A 
ATOM     32  C   UNL A   1      36.649  30.078  27.200  1.00  0.00     0.016 A 
ATOM     33  C   UNL A   1      37.495  29.255  29.728  1.00  0.00     0.010 A 
ATOM     34  C   UNL A   1      37.967  29.654  27.405  1.00  0.00     0.010 A 
ATOM     35  C   UNL A   1      38.419  29.270  28.685  1.00  0.00    -0.014 A 
BRANCH  35  36
ATOM     36  C   UNL A   1      39.847  28.908  28.916  1.00  0.00     0.031 A 
ATOM     37  C   UNL A   1      40.805  29.965  29.398  1.00  0.00     0.074 A 
ATOM     38  C   UNL A   1      40.307  27.661  28.679  1.00  0.00     0.049 A 
ATOM     39  N   UNL A   1      42.105  30.013  29.290  1.00  0.00    -0.248 NA
ATOM     40  C   UNL A   1      40.212  31.134  30.069  1.00  0.00     0.031 C 
ATOM     41  C   UNL A   1      39.493  26.497  28.315  1.00  0.00     0.029 A 
ATOM     42  N   UNL A   1      41.589  27.164  28.697  1.00  0.00    -0.354 N 
ATOM     43  C   UNL A   1      42.480  31.255  29.791  1.00  0.00     0.074 A 
ATOM     44  C   UNL A   1      41.270  31.918  30.230  1.00  0.00     0.031 C 
ATOM     45  C   UNL A   1      40.286  25.425  28.173  1.00  0.00     0.029 A 
ATOM     46  C   UNL A   1      41.672  25.851  28.294  1.00  0.00     0.049 A 
ATOM     47  H   UNL A   1      42.371  27.697  28.972  1.00  0.00     0.167 HD
ATOM     48  C   UNL A   1      43.721  31.791  29.852  1.00  0.00     0.037 A 
ATOM     49  C   UNL A   1      42.735  25.093  27.963  1.00  0.00     0.037 A 
ATOM     50  C   UNL A   1      44.914  31.078  29.474  1.00  0.00     0.049 A 
ATOM     51  C   UNL A   1      44.101  25.716  27.984  1.00  0.00     0.074 A 
ATOM     52  C   UNL A   1      46.224  31.524  29.475  1.00  0.00     0.029 A 
ATOM     53  N   UNL A   1      44.941  29.755  29.055  1.00  0.00    -0.354 N 
ATOM     54  N   UNL A   1      44.441  26.936  28.322  1.00  0.00    -0.248 NA
ATOM     55  C   UNL A   1      45.223  24.875  27.543  1.00  0.00     0.031 C 
ATOM     56  C   UNL A   1      47.041  30.477  29.034  1.00  0.00     0.029 A 
ATOM     57  C   UNL A   1      46.244  29.367  28.797  1.00  0.00     0.049 A 
ATOM     58  H   UNL A   1      44.151  29.177  28.956  1.00  0.00     0.167 HD
ATOM     59  C   UNL A   1      45.817  27.005  28.154  1.00  0.00     0.074 A 
ATOM     60  C   UNL A   1      46.249  25.703  27.687  1.00  0.00     0.031 C 
ATOM     61  C   UNL A   1      46.649  28.055  28.362  1.00  0.00     0.037 A 
BRANCH  48  62
ATOM     62  C   UNL A   1      43.851  33.223  30.288  1.00  0.00     0.058 A 
ATOM     63  C   UNL A   1      44.067  33.585  31.626  1.00  0.00     0.135 A 
ATOM     64  C   UNL A   1      43.787  34.254  29.334  1.00  0.00     0.135 A 
ATOM     65  F   UNL A   1      44.117  32.643  32.581  1.00  0.00    -0.206 F 
ATOM     66  C   UNL A   1      44.192  34.918  32.008  1.00  0.00     0.059 A 
ATOM     67  C   UNL A   1      43.935  35.592  29.689  1.00  0.00     0.059 A 
ATOM     68  F   UNL A   1      43.580  33.965  28.040  1.00  0.00    -0.206 F 
ATOM     69  C   UNL A   1      44.122  35.916  31.032  1.00  0.00     0.060 A 
BRANCH  69  70
ATOM     70  S   UNL A   1      44.285  37.641  31.538  1.00  0.00     0.124 S 
ATOM     71  O   UNL A   1      43.532  37.648  32.789  1.00  0.00    -0.237 OA
ATOM     72  O   UNL A   1      45.730  37.796  31.668  1.00  0.00    -0.237 OA
ATOM     73  O   UNL A   1      43.676  38.378  30.435  1.00  0.00    -0.744 OA
ENDBRANCH  69  70
ENDBRANCH  48  62
BRANCH  49  74
ATOM     74  C   UNL A   1      42.533  23.693  27.501  1.00  0.00     0.058 A 
ATOM     75  C   UNL A   1      42.456  23.386  26.137  1.00  0.00     0.135 A 
ATOM     76  C   UNL A   1      42.447  22.628  28.415  1.00  0.00     0.135 A 
ATOM     77  F   UNL A   1      42.521  24.369  25.224  1.00  0.00    -0.206 F 
ATOM     78  C   UNL A   1      42.303  22.077  25.691  1.00  0.00     0.059 A 
ATOM     79  C   UNL A   1      42.323  21.309  27.994  1.00  0.00     0.059 A 
ATOM     80  F   UNL A   1      42.525  22.865  29.734  1.00  0.00    -0.206 F 
ATOM     81  C   UNL A   1      42.242  21.044  26.628  1.00  0.00     0.060 A 
BRANCH  81  82
ATOM     82  S   UNL A   1      42.105  19.341  26.041  1.00  0.00     0.124 S 
ATOM     83  O   UNL A   1      42.617  18.595  27.184  1.00  0.00    -0.237 OA
ATOM     84  O   UNL A   1      40.674  19.216  25.783  1.00  0.00    -0.237 OA
ATOM     85  O   UNL A   1      42.949  19.330  24.849  1.00  0.00    -0.744 OA
ENDBRANCH  81  82
ENDBRANCH  49  74
BRANCH  61  86
ATOM     86  C   UNL A   1      48.115  27.826  28.152  1.00  0.00     0.058 A 
ATOM     87  C   UNL A   1      48.916  27.227  29.135  1.00  0.00     0.135 A 
ATOM     88  C   UNL A   1      48.702  28.129  26.913  1.00  0.00     0.135 A 
ATOM     89  F   UNL A   1      48.400  26.932  30.339  1.00  0.00    -0.206 F 
ATOM     90  C   UNL A   1      50.253  26.931  28.895  1.00  0.00     0.059 A 
ATOM     91  C   UNL A   1      50.032  27.824  26.645  1.00  0.00     0.059 A 
ATOM     92  F   UNL A   1      47.973  28.700  25.942  1.00  0.00    -0.206 F 
ATOM     93  C   UNL A   1      50.800  27.226  27.643  1.00  0.00     0.060 A 
BRANCH  93  94
ATOM     94  S   UNL A   1      52.513  26.764  27.317  1.00  0.00     0.124 S 
ATOM     95  O   UNL A   1      52.880  27.713  26.270  1.00  0.00    -0.237 OA
ATOM     96  O   UNL A   1      53.147  26.974  28.614  1.00  0.00    -0.237 OA
ATOM     97  O   UNL A   1      52.414  25.370  26.893  1.00  0.00    -0.744 OA
ENDBRANCH  93  94
ENDBRANCH  61  86
ENDBRANCH  35  36
ENDBRANCH  28  30
ENDBRANCH  27  28
ENDBRANCH   1  27
TORSDOF 16
ENDMDL
MODEL 2
REMARK VINA RESULT:     -12.7      4.070     10.041
REMARK SMILES C[C@@]12CCC[C@](C)(C(=O)OCCOC(=O)c3ccc(-c4c5nc(c(-c6c(F)cc(S(=O)(=O)[O-])cc6F)c6ccc([nH]6)c(-c6c(F)cc(S(=O)(=O)[O-])cc6F)c6nc(c(-c7c(F)cc(S(=O)(=O)[O-])cc7F)c7ccc4[nH]7)C=C6)C=C5)cc3)[C@H]1CC[C@@]13C=C(CO)[C@@H](CC[C@@H]12)C3
REMARK SMILES IDX 12 1 11 2 10 3 8 4 9 5 6 6 1 7 2 8 3 9 82 10 93 11 4 12
REMARK SMILES IDX 83 13 85 14 92 15 5 16 7 17 84 18 86 19 94 20 91 21 87 22
REMARK SMILES IDX 90 23 88 24 89 25 13 27 14 28 15 29 16 30 17 31 81 32 18 33
REMARK SMILES IDX 80 34 19 35 20 36 21 37 74 38 22 39 79 40 73 41 75 42 23 43
REMARK SMILES IDX 78 44 72 45 71 46 24 48 58 49 37 50 57 51 38 52 41 53 56 54
REMARK SMILES IDX 76 55 39 56 40 57 55 59 77 60 42 61 25 62 26 63 35 64 27 65
REMARK SMILES IDX 28 66 34 67 36 68 29 69 30 70 31 71 32 72 33 73 59 74 60 75
REMARK SMILES IDX 69 76 61 77 62 78 68 79 70 80 63 81 64 82 65 83 66 84 67 85
REMARK SMILES IDX 43 86 44 87 53 88 45 89 46 90 52 91 54 92 47 93 48 94 49 95
REMARK SMILES IDX 50 96 51 97
REMARK H PARENT 89 26 75 47 41 58
REMARK Flexibility Score: inf
ROOT
ATOM      1  C   UNL A   1      36.319  23.118  25.597  1.00  0.00     0.275 C 
ENDROOT
BRANCH   1   2
ATOM      2  C   UNL A   1      35.918  21.888  24.788  1.00  0.00     0.274 C 
BRANCH   2   3
ATOM      3  O   UNL A   1      34.835  22.176  23.878  1.00  0.00    -0.462 OA
BRANCH   3   4
ATOM      4  C   UNL A   1      33.642  21.649  24.226  1.00  0.00     0.312 C 
ATOM      5  O   UNL A   1      33.441  20.436  24.251  1.00  0.00    -0.252 OA
BRANCH   4   6
ATOM      6  C   UNL A   1      32.489  22.663  24.416  1.00  0.00     0.069 C 
ATOM      7  C   UNL A   1      30.520  24.978  23.733  1.00  0.00     0.012 C 
ATOM      8  C   UNL A   1      31.569  25.091  24.903  1.00  0.00    -0.025 C 
ATOM      9  C   UNL A   1      30.908  24.576  26.200  1.00  0.00     0.007 C 
ATOM     10  C   UNL A   1      32.850  24.205  24.597  1.00  0.00     0.012 C 
ATOM     11  C   UNL A   1      31.861  26.626  25.020  1.00  0.00     0.005 C 
ATOM     12  C   UNL A   1      30.579  23.088  26.165  1.00  0.00     0.002 C 
ATOM     13  C   UNL A   1      33.721  24.840  23.491  1.00  0.00     0.006 C 
ATOM     14  C   UNL A   1      32.931  27.208  24.024  1.00  0.00    -0.008 C 
ATOM     15  C   UNL A   1      31.843  27.458  26.307  1.00  0.00     0.006 C 
ATOM     16  C   UNL A   1      31.771  22.244  25.736  1.00  0.00     0.019 C 
ATOM     17  C   UNL A   1      31.612  22.305  23.191  1.00  0.00     0.024 C 
ATOM     18  C   UNL A   1      34.111  26.284  23.801  1.00  0.00     0.012 C 
ATOM     19  C   UNL A   1      32.114  27.641  22.834  1.00  0.00    -0.018 C 
ATOM     20  C   UNL A   1      33.410  28.626  24.428  1.00  0.00     0.019 C 
ATOM     21  C   UNL A   1      31.437  28.917  25.862  1.00  0.00     0.008 C 
ATOM     22  C   UNL A   1      31.468  28.774  23.190  1.00  0.00    -0.045 C 
ATOM     23  C   UNL A   1      32.065  29.346  24.493  1.00  0.00     0.018 C 
BRANCH  22  24
ATOM     24  C   UNL A   1      30.279  29.343  22.499  1.00  0.00     0.187 C 
BRANCH  24  25
ATOM     25  O   UNL A   1      30.684  30.069  21.343  1.00  0.00    -0.392 OA
ATOM     26  H   UNL A   1      30.118  29.826  20.593  1.00  0.00     0.211 HD
ENDBRANCH  24  25
ENDBRANCH  22  24
ENDBRANCH   4   6
ENDBRANCH   3   4
ENDBRANCH   2   3
ENDBRANCH   1   2
BRANCH   1  27
ATOM     27  O   UNL A   1      37.598  23.623  25.174  1.00  0.00    -0.458 OA
BRANCH  27  28
ATOM     28  C   UNL A   1      38.663  23.144  25.849  1.00  0.00     0.338 C 
ATOM     29  O   UNL A   1      39.131  22.009  25.782  1.00  0.00    -0.246 OA
BRANCH  28  30
ATOM     30  C   UNL A   1      39.272  24.192  26.680  1.00  0.00     0.060 A 
ATOM     31  C   UNL A   1      38.933  24.270  28.026  1.00  0.00     0.016 A 
ATOM     32  C   UNL A   1      40.023  25.208  26.104  1.00  0.00     0.016 A 
ATOM     33  C   UNL A   1      39.204  25.416  28.763  1.00  0.00     0.010 A 
ATOM     34  C   UNL A   1      40.437  26.288  26.893  1.00  0.00     0.010 A 
ATOM     35  C   UNL A   1      40.002  26.425  28.228  1.00  0.00    -0.014 A 
BRANCH  35  36
ATOM     36  C   UNL A   1      40.372  27.625  29.033  1.00  0.00     0.031 A 
ATOM     37  C   UNL A   1      41.637  27.602  29.849  1.00  0.00     0.074 A 
ATOM     38  C   UNL A   1      39.585  28.723  29.066  1.00  0.00     0.049 A 
ATOM     39  N   UNL A   1      41.958  28.314  30.895  1.00  0.00    -0.248 NA
ATOM     40  C   UNL A   1      42.665  26.629  29.443  1.00  0.00     0.031 C 
ATOM     41  C   UNL A   1      38.387  28.949  28.253  1.00  0.00     0.029 A 
ATOM     42  N   UNL A   1      39.672  29.859  29.835  1.00  0.00    -0.354 N 
ATOM     43  C   UNL A   1      43.179  27.813  31.332  1.00  0.00     0.074 A 
ATOM     44  C   UNL A   1      43.555  26.755  30.418  1.00  0.00     0.031 C 
ATOM     45  C   UNL A   1      37.872  30.153  28.543  1.00  0.00     0.029 A 
ATOM     46  C   UNL A   1      38.613  30.721  29.659  1.00  0.00     0.049 A 
ATOM     47  H   UNL A   1      40.420  30.039  30.451  1.00  0.00     0.167 HD
ATOM     48  C   UNL A   1      43.900  28.194  32.413  1.00  0.00     0.037 A 
ATOM     49  C   UNL A   1      38.220  31.796  30.369  1.00  0.00     0.037 A 
ATOM     50  C   UNL A   1      43.536  29.298  33.262  1.00  0.00     0.049 A 
ATOM     51  C   UNL A   1      38.998  32.175  31.595  1.00  0.00     0.074 A 
ATOM     52  C   UNL A   1      44.177  29.766  34.396  1.00  0.00     0.029 A 
ATOM     53  N   UNL A   1      42.443  30.128  33.049  1.00  0.00    -0.354 N 
ATOM     54  N   UNL A   1      40.075  31.613  32.090  1.00  0.00    -0.248 NA
ATOM     55  C   UNL A   1      38.491  33.308  32.382  1.00  0.00     0.031 C 
ATOM     56  C   UNL A   1      43.459  30.864  34.881  1.00  0.00     0.029 A 
ATOM     57  C   UNL A   1      42.393  31.104  34.028  1.00  0.00     0.049 A 
ATOM     58  H   UNL A   1      41.798  30.036  32.311  1.00  0.00     0.167 HD
ATOM     59  C   UNL A   1      40.385  32.335  33.236  1.00  0.00     0.074 A 
ATOM     60  C   UNL A   1      39.385  33.377  33.358  1.00  0.00     0.031 C 
ATOM     61  C   UNL A   1      41.404  32.149  34.109  1.00  0.00     0.037 A 
BRANCH  48  62
ATOM     62  C   UNL A   1      45.115  27.386  32.771  1.00  0.00     0.058 A 
ATOM     63  C   UNL A   1      46.405  27.741  32.350  1.00  0.00     0.135 A 
ATOM     64  C   UNL A   1      44.983  26.245  33.582  1.00  0.00     0.135 A 
ATOM     65  F   UNL A   1      46.587  28.810  31.558  1.00  0.00    -0.206 F 
ATOM     66  C   UNL A   1      47.519  26.983  32.700  1.00  0.00     0.059 A 
ATOM     67  C   UNL A   1      46.085  25.486  33.965  1.00  0.00     0.059 A 
ATOM     68  F   UNL A   1      43.772  25.858  34.012  1.00  0.00    -0.206 F 
ATOM     69  C   UNL A   1      47.349  25.855  33.507  1.00  0.00     0.060 A 
BRANCH  69  70
ATOM     70  S   UNL A   1      48.800  24.878  33.953  1.00  0.00     0.124 S 
ATOM     71  O   UNL A   1      49.529  24.847  32.689  1.00  0.00    -0.237 OA
ATOM     72  O   UNL A   1      49.405  25.680  35.013  1.00  0.00    -0.237 OA
ATOM     73  O   UNL A   1      48.233  23.603  34.383  1.00  0.00    -0.744 OA
ENDBRANCH  69  70
ENDBRANCH  48  62
BRANCH  49  74
ATOM     74  C   UNL A   1      36.984  32.528  29.982  1.00  0.00     0.058 A 
ATOM     75  C   UNL A   1      35.747  32.210  30.557  1.00  0.00     0.135 A 
ATOM     76  C   UNL A   1      37.021  33.585  29.055  1.00  0.00     0.135 A 
ATOM     77  F   UNL A   1      35.656  31.201  31.438  1.00  0.00    -0.206 F 
ATOM     78  C   UNL A   1      34.589  32.910  30.230  1.00  0.00     0.059 A 
ATOM     79  C   UNL A   1      35.885  34.318  28.735  1.00  0.00     0.059 A 
ATOM     80  F   UNL A   1      38.183  33.938  28.483  1.00  0.00    -0.206 F 
ATOM     81  C   UNL A   1      34.670  33.967  29.321  1.00  0.00     0.060 A 
BRANCH  81  82
ATOM     82  S   UNL A   1      33.176  34.912  28.949  1.00  0.00     0.124 S 
ATOM     83  O   UNL A   1      33.737  36.156  28.435  1.00  0.00    -0.237 OA
ATOM     84  O   UNL A   1      32.506  34.060  27.971  1.00  0.00    -0.237 OA
ATOM     85  O   UNL A   1      32.509  35.006  30.245  1.00  0.00    -0.744 OA
ENDBRANCH  81  82
ENDBRANCH  49  74
BRANCH  61  86
ATOM     86  C   UNL A   1      41.531  33.125  35.239  1.00  0.00     0.058 A 
ATOM     87  C   UNL A   1      42.236  34.329  35.097  1.00  0.00     0.135 A 
ATOM     88  C   UNL A   1      40.859  32.890  36.450  1.00  0.00     0.135 A 
ATOM     89  F   UNL A   1      42.904  34.591  33.962  1.00  0.00    -0.206 F 
ATOM     90  C   UNL A   1      42.269  35.272  36.118  1.00  0.00     0.059 A 
ATOM     91  C   UNL A   1      40.862  33.827  37.476  1.00  0.00     0.059 A 
ATOM     92  F   UNL A   1      40.170  31.752  36.629  1.00  0.00    -0.206 F 
ATOM     93  C   UNL A   1      41.570  35.015  37.301  1.00  0.00     0.060 A 
BRANCH  93  94
ATOM     94  S   UNL A   1      41.553  36.281  38.588  1.00  0.00     0.124 S 
ATOM     95  O   UNL A   1      41.419  35.472  39.795  1.00  0.00    -0.237 OA
ATOM     96  O   UNL A   1      42.845  36.934  38.402  1.00  0.00    -0.237 OA
ATOM     97  O   UNL A   1      40.391  37.096  38.246  1.00  0.00    -0.744 OA
ENDBRANCH  93  94
ENDBRANCH  61  86
ENDBRANCH  35  36
ENDBRANCH  28  30
ENDBRANCH  27  28
ENDBRANCH   1  27
TORSDOF 16
ENDMDL
MODEL 3
REMARK VINA RESULT:     -12.4      4.935     10.642
REMARK SMILES C[C@@]12CCC[C@](C)(C(=O)OCCOC(=O)c3ccc(-c4c5nc(c(-c6c(F)cc(S(=O)(=O)[O-])cc6F)c6ccc([nH]6)c(-c6c(F)cc(S(=O)(=O)[O-])cc6F)c6nc(c(-c7c(F)cc(S(=O)(=O)[O-])cc7F)c7ccc4[nH]7)C=C6)C=C5)cc3)[C@H]1CC[C@@]13C=C(CO)[C@@H](CC[C@@H]12)C3
REMARK SMILES IDX 12 1 11 2 10 3 8 4 9 5 6 6 1 7 2 8 3 9 82 10 93 11 4 12
REMARK SMILES IDX 83 13 85 14 92 15 5 16 7 17 84 18 86 19 94 20 91 21 87 22
REMARK SMILES IDX 90 23 88 24 89 25 13 27 14 28 15 29 16 30 17 31 81 32 18 33
REMARK SMILES IDX 80 34 19 35 20 36 21 37 74 38 22 39 79 40 73 41 75 42 23 43
REMARK SMILES IDX 78 44 72 45 71 46 24 48 58 49 37 50 57 51 38 52 41 53 56 54
REMARK SMILES IDX 76 55 39 56 40 57 55 59 77 60 42 61 25 62 26 63 35 64 27 65
REMARK SMILES IDX 28 66 34 67 36 68 29 69 30 70 31 71 32 72 33 73 59 74 60 75
REMARK SMILES IDX 69 76 61 77 62 78 68 79 70 80 63 81 64 82 65 83 66 84 67 85
REMARK SMILES IDX 43 86 44 87 53 88 45 89 46 90 52 91 54 92 47 93 48 94 49 95
REMARK SMILES IDX 50 96 51 97
REMARK H PARENT 89 26 75 47 41 58
REMARK Flexibility Score: inf
ROOT
ATOM      1  C   UNL A   1      39.186  21.695  26.031  1.00  0.00     0.275 C 
ENDROOT
BRANCH   1   2
ATOM      2  C   UNL A   1      37.852  21.328  25.387  1.00  0.00     0.274 C 
BRANCH   2   3
ATOM      3  O   UNL A   1      36.980  22.472  25.273  1.00  0.00    -0.462 OA
BRANCH   3   4
ATOM      4  C   UNL A   1      35.679  22.226  25.533  1.00  0.00     0.312 C 
ATOM      5  O   UNL A   1      35.320  21.490  26.451  1.00  0.00    -0.252 OA
BRANCH   4   6
ATOM      6  C   UNL A   1      34.669  22.778  24.499  1.00  0.00     0.069 C 
ATOM      7  C   UNL A   1      33.402  24.756  22.454  1.00  0.00     0.012 C 
ATOM      8  C   UNL A   1      32.677  24.363  23.796  1.00  0.00    -0.025 C 
ATOM      9  C   UNL A   1      31.793  23.125  23.526  1.00  0.00     0.007 C 
ATOM     10  C   UNL A   1      33.735  23.999  24.921  1.00  0.00     0.012 C 
ATOM     11  C   UNL A   1      31.779  25.602  24.133  1.00  0.00     0.005 C 
ATOM     12  C   UNL A   1      32.590  21.874  23.178  1.00  0.00     0.002 C 
ATOM     13  C   UNL A   1      34.452  25.261  25.448  1.00  0.00     0.006 C 
ATOM     14  C   UNL A   1      32.489  26.791  24.881  1.00  0.00    -0.008 C 
ATOM     15  C   UNL A   1      30.291  25.574  24.498  1.00  0.00     0.006 C 
ATOM     16  C   UNL A   1      33.699  21.599  24.184  1.00  0.00     0.019 C 
ATOM     17  C   UNL A   1      35.620  23.026  23.302  1.00  0.00     0.024 C 
ATOM     18  C   UNL A   1      33.480  26.335  25.933  1.00  0.00     0.012 C 
ATOM     19  C   UNL A   1      32.974  27.678  23.764  1.00  0.00    -0.018 C 
ATOM     20  C   UNL A   1      31.480  27.805  25.478  1.00  0.00     0.019 C 
ATOM     21  C   UNL A   1      29.707  26.955  24.004  1.00  0.00     0.008 C 
ATOM     22  C   UNL A   1      31.891  28.314  23.265  1.00  0.00    -0.045 C 
ATOM     23  C   UNL A   1      30.688  28.156  24.219  1.00  0.00     0.018 C 
BRANCH  22  24
ATOM     24  C   UNL A   1      31.818  28.981  21.937  1.00  0.00     0.187 C 
BRANCH  24  25
ATOM     25  O   UNL A   1      30.929  30.092  21.994  1.00  0.00    -0.392 OA
ATOM     26  H   UNL A   1      30.028  29.796  21.788  1.00  0.00     0.211 HD
ENDBRANCH  24  25
ENDBRANCH  22  24
ENDBRANCH   4   6
ENDBRANCH   3   4
ENDBRANCH   2   3
ENDBRANCH   1   2
BRANCH   1  27
ATOM     27  O   UNL A   1      39.194  23.067  26.463  1.00  0.00    -0.458 OA
BRANCH  27  28
ATOM     28  C   UNL A   1      40.413  23.631  26.581  1.00  0.00     0.338 C 
ATOM     29  O   UNL A   1      41.468  23.216  26.104  1.00  0.00    -0.246 OA
BRANCH  28  30
ATOM     30  C   UNL A   1      40.339  24.889  27.337  1.00  0.00     0.060 A 
ATOM     31  C   UNL A   1      41.315  25.858  27.136  1.00  0.00     0.016 A 
ATOM     32  C   UNL A   1      39.428  25.041  28.374  1.00  0.00     0.016 A 
ATOM     33  C   UNL A   1      41.487  26.895  28.044  1.00  0.00     0.010 A 
ATOM     34  C   UNL A   1      39.500  26.176  29.191  1.00  0.00     0.010 A 
ATOM     35  C   UNL A   1      40.555  27.102  29.060  1.00  0.00    -0.014 A 
BRANCH  35  36
ATOM     36  C   UNL A   1      40.678  28.259  29.994  1.00  0.00     0.031 A 
ATOM     37  C   UNL A   1      41.766  28.251  31.035  1.00  0.00     0.074 A 
ATOM     38  C   UNL A   1      39.822  29.302  29.942  1.00  0.00     0.049 A 
ATOM     39  N   UNL A   1      41.832  28.901  32.165  1.00  0.00    -0.248 NA
ATOM     40  C   UNL A   1      42.920  27.374  30.776  1.00  0.00     0.031 C 
ATOM     41  C   UNL A   1      38.785  29.516  28.929  1.00  0.00     0.029 A 
ATOM     42  N   UNL A   1      39.680  30.381  30.782  1.00  0.00    -0.354 N 
ATOM     43  C   UNL A   1      42.982  28.443  32.798  1.00  0.00     0.074 A 
ATOM     44  C   UNL A   1      43.600  27.480  31.910  1.00  0.00     0.031 C 
ATOM     45  C   UNL A   1      38.138  30.662  29.189  1.00  0.00     0.029 A 
ATOM     46  C   UNL A   1      38.613  31.189  30.459  1.00  0.00     0.049 A 
ATOM     47  H   UNL A   1      40.283  30.559  31.541  1.00  0.00     0.167 HD
ATOM     48  C   UNL A   1      43.458  28.785  34.018  1.00  0.00     0.037 A 
ATOM     49  C   UNL A   1      38.017  32.183  31.145  1.00  0.00     0.037 A 
ATOM     50  C   UNL A   1      42.861  29.800  34.848  1.00  0.00     0.049 A 
ATOM     51  C   UNL A   1      38.520  32.516  32.519  1.00  0.00     0.074 A 
ATOM     52  C   UNL A   1      43.242  30.219  36.110  1.00  0.00     0.029 A 
ATOM     53  N   UNL A   1      41.771  30.576  34.480  1.00  0.00    -0.354 N 
ATOM     54  N   UNL A   1      39.523  31.984  33.176  1.00  0.00    -0.248 NA
ATOM     55  C   UNL A   1      37.793  33.554  33.261  1.00  0.00     0.031 C 
ATOM     56  C   UNL A   1      42.367  31.233  36.515  1.00  0.00     0.029 A 
ATOM     57  C   UNL A   1      41.466  31.472  35.489  1.00  0.00     0.049 A 
ATOM     58  H   UNL A   1      41.284  30.500  33.627  1.00  0.00     0.167 HD
ATOM     59  C   UNL A   1      39.559  32.636  34.402  1.00  0.00     0.074 A 
ATOM     60  C   UNL A   1      38.480  33.604  34.394  1.00  0.00     0.031 C 
ATOM     61  C   UNL A   1      40.406  32.447  35.442  1.00  0.00     0.037 A 
BRANCH  48  62
ATOM     62  C   UNL A   1      44.639  28.026  34.553  1.00  0.00     0.058 A 
ATOM     63  C   UNL A   1      44.502  26.818  35.253  1.00  0.00     0.135 A 
ATOM     64  C   UNL A   1      45.941  28.509  34.331  1.00  0.00     0.135 A 
ATOM     65  F   UNL A   1      43.283  26.321  35.511  1.00  0.00    -0.206 F 
ATOM     66  C   UNL A   1      45.611  26.127  35.734  1.00  0.00     0.059 A 
ATOM     67  C   UNL A   1      47.065  27.822  34.781  1.00  0.00     0.059 A 
ATOM     68  F   UNL A   1      46.130  29.661  33.669  1.00  0.00    -0.206 F 
ATOM     69  C   UNL A   1      46.889  26.638  35.495  1.00  0.00     0.060 A 
BRANCH  69  70
ATOM     70  S   UNL A   1      48.320  25.734  36.124  1.00  0.00     0.124 S 
ATOM     71  O   UNL A   1      47.749  24.409  36.349  1.00  0.00    -0.237 OA
ATOM     72  O   UNL A   1      49.267  25.835  35.018  1.00  0.00    -0.237 OA
ATOM     73  O   UNL A   1      48.686  26.472  37.329  1.00  0.00    -0.744 OA
ENDBRANCH  69  70
ENDBRANCH  48  62
BRANCH  49  74
ATOM     74  C   UNL A   1      36.825  32.867  30.573  1.00  0.00     0.058 A 
ATOM     75  C   UNL A   1      35.534  32.565  31.024  1.00  0.00     0.135 A 
ATOM     76  C   UNL A   1      36.957  33.862  29.589  1.00  0.00     0.135 A 
ATOM     77  F   UNL A   1      35.354  31.613  31.954  1.00  0.00    -0.206 F 
ATOM     78  C   UNL A   1      34.414  33.222  30.523  1.00  0.00     0.059 A 
ATOM     79  C   UNL A   1      35.857  34.553  29.094  1.00  0.00     0.059 A 
ATOM     80  F   UNL A   1      38.173  34.198  29.129  1.00  0.00    -0.206 F 
ATOM     81  C   UNL A   1      34.587  34.219  29.561  1.00  0.00     0.060 A 
BRANCH  81  82
ATOM     82  S   UNL A   1      33.135  35.112  28.960  1.00  0.00     0.124 S 
ATOM     83  O   UNL A   1      32.599  34.174  27.981  1.00  0.00    -0.237 OA
ATOM     84  O   UNL A   1      32.350  35.282  30.179  1.00  0.00    -0.237 OA
ATOM     85  O   UNL A   1      33.702  36.342  28.414  1.00  0.00    -0.744 OA
ENDBRANCH  81  82
ENDBRANCH  49  74
BRANCH  61  86
ATOM     86  C   UNL A   1      40.247  33.342  36.634  1.00  0.00     0.058 A 
ATOM     87  C   UNL A   1      40.993  34.522  36.773  1.00  0.00     0.135 A 
ATOM     88  C   UNL A   1      39.269  33.058  37.600  1.00  0.00     0.135 A 
ATOM     89  F   UNL A   1      41.948  34.827  35.880  1.00  0.00    -0.206 F 
ATOM     90  C   UNL A   1      40.771  35.395  37.832  1.00  0.00     0.059 A 
ATOM     91  C   UNL A   1      39.017  33.927  38.656  1.00  0.00     0.059 A 
ATOM     92  F   UNL A   1      38.529  31.942  37.505  1.00  0.00    -0.206 F 
ATOM     93  C   UNL A   1      39.774  35.093  38.764  1.00  0.00     0.060 A 
BRANCH  93  94
ATOM     94  S   UNL A   1      39.441  36.273  40.088  1.00  0.00     0.124 S 
ATOM     95  O   UNL A   1      38.931  37.418  39.341  1.00  0.00    -0.237 OA
ATOM     96  O   UNL A   1      38.462  35.561  40.903  1.00  0.00    -0.237 OA
ATOM     97  O   UNL A   1      40.748  36.461  40.711  1.00  0.00    -0.744 OA
ENDBRANCH  93  94
ENDBRANCH  61  86
ENDBRANCH  35  36
ENDBRANCH  28  30
ENDBRANCH  27  28
ENDBRANCH   1  27
TORSDOF 16
ENDMDL
