MODEL 1
REMARK VINA RESULT:      -7.8      0.000      0.000
REMARK SMILES CCC(CC)(C[C@H](O)COC)C(=O)OCCOC(=O)c1ccc(-c2c3nc(c(-c4c(F)cc(S(=O)(=O)[O-])cc4F)c4ccc([nH]4)c(-c4c(F)cc(S(=O)(=O)[O-])cc4F)c4nc(c(-c5c(F)cc(S(=O)(=O)[O-])cc5F)c5ccc2[nH]5)C=C4)C=C3)cc1
REMARK SMILES IDX 15 1 14 2 12 3 13 4 3 5 2 6 1 7 4 8 5 9 6 10 7 11 9 12 10 13
REMARK SMILES IDX 11 14 8 15 16 17 17 18 18 19 19 20 20 21 21 22 85 23 22 24
REMARK SMILES IDX 84 25 23 26 24 27 25 28 78 29 26 30 83 31 77 32 79 33 27 34
REMARK SMILES IDX 82 35 76 36 75 37 28 39 62 40 41 41 61 42 42 43 45 44 60 45
REMARK SMILES IDX 80 46 43 47 44 48 59 50 81 51 46 52 29 53 30 54 39 55 31 56
REMARK SMILES IDX 32 57 38 58 40 59 33 60 34 61 35 62 36 63 37 64 63 65 64 66
REMARK SMILES IDX 73 67 65 68 66 69 72 70 74 71 67 72 68 73 69 74 70 75 71 76
REMARK SMILES IDX 47 77 48 78 57 79 49 80 50 81 56 82 58 83 51 84 52 85 53 86
REMARK SMILES IDX 54 87 55 88
REMARK H PARENT 8 16 79 38 45 49
REMARK Flexibility Score: inf
ROOT
ATOM      1  C   UNL A   1      42.071  20.299  26.333  1.00  0.00     0.274 C 
ENDROOT
BRANCH   1   2
ATOM      2  O   UNL A   1      42.611  21.281  25.422  1.00  0.00    -0.462 OA
BRANCH   2   3
ATOM      3  C   UNL A   1      43.960  21.462  25.470  1.00  0.00     0.312 C 
ATOM      4  O   UNL A   1      44.770  20.550  25.376  1.00  0.00    -0.252 OA
BRANCH   3   5
ATOM      5  C   UNL A   1      44.355  22.925  25.778  1.00  0.00     0.070 C 
BRANCH   5   6
ATOM      6  C   UNL A   1      43.903  23.871  24.625  1.00  0.00     0.015 C 
ATOM      7  C   UNL A   1      42.967  25.023  24.987  1.00  0.00     0.005 C 
ENDBRANCH   5   6
BRANCH   5   8
ATOM      8  C   UNL A   1      45.906  22.871  25.925  1.00  0.00     0.015 C 
ATOM      9  C   UNL A   1      46.648  24.187  25.731  1.00  0.00     0.005 C 
ENDBRANCH   5   8
BRANCH   5  10
ATOM     10  C   UNL A   1      43.732  23.419  27.128  1.00  0.00     0.053 C 
BRANCH  10  11
ATOM     11  C   UNL A   1      44.408  22.895  28.416  1.00  0.00     0.141 C 
BRANCH  11  12
ATOM     12  C   UNL A   1      44.933  24.052  29.291  1.00  0.00     0.191 C 
BRANCH  12  13
ATOM     13  O   UNL A   1      44.004  24.462  30.299  1.00  0.00    -0.382 OA
ATOM     14  C   UNL A   1      44.359  25.670  30.956  1.00  0.00     0.195 C 
ENDBRANCH  12  13
ENDBRANCH  11  12
BRANCH  11  15
ATOM     15  O   UNL A   1      43.405  22.185  29.159  1.00  0.00    -0.391 OA
ATOM     16  H   UNL A   1      43.461  22.434  30.095  1.00  0.00     0.211 HD
ENDBRANCH  11  15
ENDBRANCH  10  11
ENDBRANCH   5  10
ENDBRANCH   3   5
ENDBRANCH   2   3
ENDBRANCH   1   2
BRANCH   1  17
ATOM     17  C   UNL A   1      40.558  20.437  26.446  1.00  0.00     0.275 C 
BRANCH  17  18
ATOM     18  O   UNL A   1      40.251  21.558  27.288  1.00  0.00    -0.458 OA
BRANCH  18  19
ATOM     19  C   UNL A   1      39.415  22.475  26.750  1.00  0.00     0.338 C 
ATOM     20  O   UNL A   1      38.483  22.262  25.997  1.00  0.00    -0.246 OA
BRANCH  19  21
ATOM     21  C   UNL A   1      39.800  23.831  27.190  1.00  0.00     0.060 A 
ATOM     22  C   UNL A   1      39.507  24.956  26.418  1.00  0.00     0.016 A 
ATOM     23  C   UNL A   1      40.550  23.963  28.359  1.00  0.00     0.016 A 
ATOM     24  C   UNL A   1      40.031  26.200  26.769  1.00  0.00     0.010 A 
ATOM     25  C   UNL A   1      41.003  25.223  28.755  1.00  0.00     0.010 A 
ATOM     26  C   UNL A   1      40.778  26.349  27.948  1.00  0.00    -0.014 A 
BRANCH  26  27
ATOM     27  C   UNL A   1      41.341  27.670  28.334  1.00  0.00     0.031 A 
ATOM     28  C   UNL A   1      42.818  27.930  28.203  1.00  0.00     0.074 A 
ATOM     29  C   UNL A   1      40.532  28.636  28.812  1.00  0.00     0.049 A 
ATOM     30  N   UNL A   1      43.524  28.934  28.656  1.00  0.00    -0.248 NA
ATOM     31  C   UNL A   1      43.609  26.923  27.476  1.00  0.00     0.031 C 
ATOM     32  C   UNL A   1      39.080  28.528  28.962  1.00  0.00     0.029 A 
ATOM     33  N   UNL A   1      40.818  29.903  29.256  1.00  0.00    -0.354 N 
ATOM     34  C   UNL A   1      44.844  28.654  28.322  1.00  0.00     0.074 A 
ATOM     35  C   UNL A   1      44.842  27.392  27.613  1.00  0.00     0.031 C 
ATOM     36  C   UNL A   1      38.597  29.690  29.429  1.00  0.00     0.029 A 
ATOM     37  C   UNL A   1      39.712  30.596  29.684  1.00  0.00     0.049 A 
ATOM     38  H   UNL A   1      41.728  30.278  29.268  1.00  0.00     0.167 HD
ATOM     39  C   UNL A   1      45.955  29.379  28.593  1.00  0.00     0.037 A 
ATOM     40  C   UNL A   1      39.605  31.812  30.255  1.00  0.00     0.037 A 
ATOM     41  C   UNL A   1      45.947  30.656  29.260  1.00  0.00     0.049 A 
ATOM     42  C   UNL A   1      40.847  32.604  30.534  1.00  0.00     0.074 A 
ATOM     43  C   UNL A   1      47.021  31.463  29.593  1.00  0.00     0.029 A 
ATOM     44  N   UNL A   1      44.804  31.321  29.677  1.00  0.00    -0.354 N 
ATOM     45  N   UNL A   1      42.096  32.287  30.285  1.00  0.00    -0.248 NA
ATOM     46  C   UNL A   1      40.672  33.905  31.194  1.00  0.00     0.031 C 
ATOM     47  C   UNL A   1      46.528  32.611  30.225  1.00  0.00     0.029 A 
ATOM     48  C   UNL A   1      45.146  32.527  30.264  1.00  0.00     0.049 A 
ATOM     49  H   UNL A   1      43.886  30.984  29.572  1.00  0.00     0.167 HD
ATOM     50  C   UNL A   1      42.857  33.341  30.773  1.00  0.00     0.074 A 
ATOM     51  C   UNL A   1      41.927  34.319  31.303  1.00  0.00     0.031 C 
ATOM     52  C   UNL A   1      44.205  33.479  30.795  1.00  0.00     0.037 A 
BRANCH  39  53
ATOM     53  C   UNL A   1      47.280  28.791  28.201  1.00  0.00     0.058 A 
ATOM     54  C   UNL A   1      47.991  27.934  29.053  1.00  0.00     0.135 A 
ATOM     55  C   UNL A   1      47.829  29.067  26.939  1.00  0.00     0.135 A 
ATOM     56  F   UNL A   1      47.518  27.653  30.277  1.00  0.00    -0.206 F 
ATOM     57  C   UNL A   1      49.212  27.382  28.674  1.00  0.00     0.059 A 
ATOM     58  C   UNL A   1      49.041  28.517  26.532  1.00  0.00     0.059 A 
ATOM     59  F   UNL A   1      47.190  29.886  26.089  1.00  0.00    -0.206 F 
ATOM     60  C   UNL A   1      49.732  27.684  27.413  1.00  0.00     0.060 A 
BRANCH  60  61
ATOM     61  S   UNL A   1      51.314  26.963  26.925  1.00  0.00     0.124 S 
ATOM     62  O   UNL A   1      51.339  27.261  25.496  1.00  0.00    -0.237 OA
ATOM     63  O   UNL A   1      52.268  27.706  27.742  1.00  0.00    -0.237 OA
ATOM     64  O   UNL A   1      51.164  25.554  27.272  1.00  0.00    -0.744 OA
ENDBRANCH  60  61
ENDBRANCH  39  53
BRANCH  40  65
ATOM     65  C   UNL A   1      38.263  32.323  30.634  1.00  0.00     0.058 A 
ATOM     66  C   UNL A   1      37.721  32.051  31.897  1.00  0.00     0.135 A 
ATOM     67  C   UNL A   1      37.530  33.146  29.765  1.00  0.00     0.135 A 
ATOM     68  F   UNL A   1      38.384  31.262  32.756  1.00  0.00    -0.206 F 
ATOM     69  C   UNL A   1      36.500  32.588  32.293  1.00  0.00     0.059 A 
ATOM     70  C   UNL A   1      36.319  33.710  30.147  1.00  0.00     0.059 A 
ATOM     71  F   UNL A   1      38.018  33.443  28.551  1.00  0.00    -0.206 F 
ATOM     72  C   UNL A   1      35.810  33.423  31.413  1.00  0.00     0.060 A 
BRANCH  72  73
ATOM     73  S   UNL A   1      34.277  34.207  31.961  1.00  0.00     0.124 S 
ATOM     74  O   UNL A   1      34.785  35.361  32.694  1.00  0.00    -0.237 OA
ATOM     75  O   UNL A   1      33.602  34.498  30.699  1.00  0.00    -0.237 OA
ATOM     76  O   UNL A   1      33.648  33.167  32.770  1.00  0.00    -0.744 OA
ENDBRANCH  72  73
ENDBRANCH  40  65
BRANCH  52  77
ATOM     77  C   UNL A   1      44.746  34.731  31.418  1.00  0.00     0.058 A 
ATOM     78  C   UNL A   1      44.943  35.893  30.657  1.00  0.00     0.135 A 
ATOM     79  C   UNL A   1      45.052  34.776  32.786  1.00  0.00     0.135 A 
ATOM     80  F   UNL A   1      44.670  35.893  29.343  1.00  0.00    -0.206 F 
ATOM     81  C   UNL A   1      45.446  37.056  31.228  1.00  0.00     0.059 A 
ATOM     82  C   UNL A   1      45.544  35.933  33.381  1.00  0.00     0.059 A 
ATOM     83  F   UNL A   1      44.875  33.690  33.555  1.00  0.00    -0.206 F 
ATOM     84  C   UNL A   1      45.750  37.063  32.591  1.00  0.00     0.060 A 
BRANCH  84  85
ATOM     85  S   UNL A   1      46.393  38.579  33.333  1.00  0.00     0.124 S 
ATOM     86  O   UNL A   1      47.529  38.071  34.095  1.00  0.00    -0.237 OA
ATOM     87  O   UNL A   1      46.725  39.390  32.166  1.00  0.00    -0.237 OA
ATOM     88  O   UNL A   1      45.269  39.066  34.127  1.00  0.00    -0.744 OA
ENDBRANCH  84  85
ENDBRANCH  52  77
ENDBRANCH  26  27
ENDBRANCH  19  21
ENDBRANCH  18  19
ENDBRANCH  17  18
ENDBRANCH   1  17
TORSDOF 21
ENDMDL
MODEL 2
REMARK VINA RESULT:      -7.8      5.280      7.561
REMARK SMILES CCC(CC)(C[C@H](O)COC)C(=O)OCCOC(=O)c1ccc(-c2c3nc(c(-c4c(F)cc(S(=O)(=O)[O-])cc4F)c4ccc([nH]4)c(-c4c(F)cc(S(=O)(=O)[O-])cc4F)c4nc(c(-c5c(F)cc(S(=O)(=O)[O-])cc5F)c5ccc2[nH]5)C=C4)C=C3)cc1
REMARK SMILES IDX 15 1 14 2 12 3 13 4 3 5 2 6 1 7 4 8 5 9 6 10 7 11 9 12 10 13
REMARK SMILES IDX 11 14 8 15 16 17 17 18 18 19 19 20 20 21 21 22 85 23 22 24
REMARK SMILES IDX 84 25 23 26 24 27 25 28 78 29 26 30 83 31 77 32 79 33 27 34
REMARK SMILES IDX 82 35 76 36 75 37 28 39 62 40 41 41 61 42 42 43 45 44 60 45
REMARK SMILES IDX 80 46 43 47 44 48 59 50 81 51 46 52 29 53 30 54 39 55 31 56
REMARK SMILES IDX 32 57 38 58 40 59 33 60 34 61 35 62 36 63 37 64 63 65 64 66
REMARK SMILES IDX 73 67 65 68 66 69 72 70 74 71 67 72 68 73 69 74 70 75 71 76
REMARK SMILES IDX 47 77 48 78 57 79 49 80 50 81 56 82 58 83 51 84 52 85 53 86
REMARK SMILES IDX 54 87 55 88
REMARK H PARENT 8 16 79 38 45 49
REMARK Flexibility Score: inf
ROOT
ATOM      1  C   UNL A   1      37.249  22.478  24.848  1.00  0.00     0.274 C 
ENDROOT
BRANCH   1   2
ATOM      2  O   UNL A   1      36.011  22.863  25.484  1.00  0.00    -0.462 OA
BRANCH   2   3
ATOM      3  C   UNL A   1      34.917  22.918  24.675  1.00  0.00     0.312 C 
ATOM      4  O   UNL A   1      34.978  23.065  23.461  1.00  0.00    -0.252 OA
BRANCH   3   5
ATOM      5  C   UNL A   1      33.588  22.899  25.465  1.00  0.00     0.070 C 
BRANCH   5   6
ATOM      6  C   UNL A   1      32.661  24.065  25.009  1.00  0.00     0.015 C 
ATOM      7  C   UNL A   1      32.915  25.444  25.616  1.00  0.00     0.005 C 
ENDBRANCH   5   6
BRANCH   5   8
ATOM      8  C   UNL A   1      34.033  23.043  26.952  1.00  0.00     0.015 C 
ATOM      9  C   UNL A   1      33.139  22.380  27.991  1.00  0.00     0.005 C 
ENDBRANCH   5   8
BRANCH   5  10
ATOM     10  C   UNL A   1      32.832  21.537  25.289  1.00  0.00     0.053 C 
BRANCH  10  11
ATOM     11  C   UNL A   1      33.061  20.806  23.947  1.00  0.00     0.141 C 
BRANCH  11  12
ATOM     12  C   UNL A   1      32.802  19.291  24.076  1.00  0.00     0.191 C 
BRANCH  12  13
ATOM     13  O   UNL A   1      32.439  18.893  25.402  1.00  0.00    -0.382 OA
ATOM     14  C   UNL A   1      32.469  17.489  25.613  1.00  0.00     0.195 C 
ENDBRANCH  12  13
ENDBRANCH  11  12
BRANCH  11  15
ATOM     15  O   UNL A   1      32.121  21.347  23.006  1.00  0.00    -0.391 OA
ATOM     16  H   UNL A   1      32.124  22.315  23.068  1.00  0.00     0.211 HD
ENDBRANCH  11  15
ENDBRANCH  10  11
ENDBRANCH   5  10
ENDBRANCH   3   5
ENDBRANCH   2   3
ENDBRANCH   1   2
BRANCH   1  17
ATOM     17  C   UNL A   1      38.392  22.451  25.856  1.00  0.00     0.275 C 
BRANCH  17  18
ATOM     18  O   UNL A   1      38.566  23.766  26.404  1.00  0.00    -0.458 OA
BRANCH  18  19
ATOM     19  C   UNL A   1      39.814  24.052  26.840  1.00  0.00     0.338 C 
ATOM     20  O   UNL A   1      40.833  23.431  26.599  1.00  0.00    -0.246 OA
BRANCH  19  21
ATOM     21  C   UNL A   1      39.788  25.250  27.701  1.00  0.00     0.060 A 
ATOM     22  C   UNL A   1      40.608  26.349  27.443  1.00  0.00     0.016 A 
ATOM     23  C   UNL A   1      38.986  25.232  28.843  1.00  0.00     0.016 A 
ATOM     24  C   UNL A   1      40.690  27.393  28.365  1.00  0.00     0.010 A 
ATOM     25  C   UNL A   1      39.005  26.316  29.723  1.00  0.00     0.010 A 
ATOM     26  C   UNL A   1      39.881  27.392  29.512  1.00  0.00    -0.014 A 
BRANCH  26  27
ATOM     27  C   UNL A   1      39.959  28.499  30.501  1.00  0.00     0.031 A 
ATOM     28  C   UNL A   1      40.986  28.459  31.602  1.00  0.00     0.074 A 
ATOM     29  C   UNL A   1      39.104  29.537  30.422  1.00  0.00     0.049 A 
ATOM     30  N   UNL A   1      41.092  29.219  32.661  1.00  0.00    -0.248 NA
ATOM     31  C   UNL A   1      42.023  27.419  31.506  1.00  0.00     0.031 C 
ATOM     32  C   UNL A   1      38.081  29.716  29.391  1.00  0.00     0.029 A 
ATOM     33  N   UNL A   1      38.961  30.641  31.225  1.00  0.00    -0.354 N 
ATOM     34  C   UNL A   1      42.167  28.718  33.385  1.00  0.00     0.074 A 
ATOM     35  C   UNL A   1      42.693  27.595  32.637  1.00  0.00     0.031 C 
ATOM     36  C   UNL A   1      37.441  30.877  29.600  1.00  0.00     0.029 A 
ATOM     37  C   UNL A   1      37.954  31.485  30.823  1.00  0.00     0.049 A 
ATOM     38  H   UNL A   1      39.526  30.812  32.013  1.00  0.00     0.167 HD
ATOM     39  C   UNL A   1      42.662  29.149  34.570  1.00  0.00     0.037 A 
ATOM     40  C   UNL A   1      37.467  32.605  31.393  1.00  0.00     0.037 A 
ATOM     41  C   UNL A   1      42.163  30.294  35.287  1.00  0.00     0.049 A 
ATOM     42  C   UNL A   1      38.039  33.072  32.698  1.00  0.00     0.074 A 
ATOM     43  C   UNL A   1      42.587  30.804  36.503  1.00  0.00     0.029 A 
ATOM     44  N   UNL A   1      41.140  31.119  34.845  1.00  0.00    -0.354 N 
ATOM     45  N   UNL A   1      39.002  32.538  33.410  1.00  0.00    -0.248 NA
ATOM     46  C   UNL A   1      37.442  34.276  33.292  1.00  0.00     0.031 C 
ATOM     47  C   UNL A   1      41.812  31.930  36.801  1.00  0.00     0.029 A 
ATOM     48  C   UNL A   1      40.920  32.134  35.760  1.00  0.00     0.049 A 
ATOM     49  H   UNL A   1      40.645  31.001  34.003  1.00  0.00     0.167 HD
ATOM     50  C   UNL A   1      39.117  33.331  34.545  1.00  0.00     0.074 A 
ATOM     51  C   UNL A   1      38.145  34.399  34.409  1.00  0.00     0.031 C 
ATOM     52  C   UNL A   1      39.941  33.179  35.610  1.00  0.00     0.037 A 
BRANCH  39  53
ATOM     53  C   UNL A   1      43.779  28.357  35.185  1.00  0.00     0.058 A 
ATOM     54  C   UNL A   1      43.535  27.299  36.072  1.00  0.00     0.135 A 
ATOM     55  C   UNL A   1      45.113  28.644  34.855  1.00  0.00     0.135 A 
ATOM     56  F   UNL A   1      42.279  26.996  36.433  1.00  0.00    -0.206 F 
ATOM     57  C   UNL A   1      44.579  26.561  36.625  1.00  0.00     0.059 A 
ATOM     58  C   UNL A   1      46.171  27.912  35.385  1.00  0.00     0.059 A 
ATOM     59  F   UNL A   1      45.399  29.651  34.014  1.00  0.00    -0.206 F 
ATOM     60  C   UNL A   1      45.894  26.879  36.279  1.00  0.00     0.060 A 
BRANCH  60  61
ATOM     61  S   UNL A   1      47.243  25.916  36.997  1.00  0.00     0.124 S 
ATOM     62  O   UNL A   1      46.576  25.286  38.133  1.00  0.00    -0.237 OA
ATOM     63  O   UNL A   1      47.611  25.021  35.905  1.00  0.00    -0.237 OA
ATOM     64  O   UNL A   1      48.238  26.928  37.334  1.00  0.00    -0.744 OA
ENDBRANCH  60  61
ENDBRANCH  39  53
BRANCH  40  65
ATOM     65  C   UNL A   1      36.348  33.328  30.738  1.00  0.00     0.058 A 
ATOM     66  C   UNL A   1      35.046  33.249  31.247  1.00  0.00     0.135 A 
ATOM     67  C   UNL A   1      36.575  34.162  29.632  1.00  0.00     0.135 A 
ATOM     68  F   UNL A   1      34.782  32.456  32.298  1.00  0.00    -0.206 F 
ATOM     69  C   UNL A   1      34.003  33.982  30.690  1.00  0.00     0.059 A 
ATOM     70  C   UNL A   1      35.553  34.920  29.072  1.00  0.00     0.059 A 
ATOM     71  F   UNL A   1      37.809  34.279  29.120  1.00  0.00    -0.206 F 
ATOM     72  C   UNL A   1      34.269  34.822  29.607  1.00  0.00     0.060 A 
BRANCH  72  73
ATOM     73  S   UNL A   1      32.942  35.855  28.947  1.00  0.00     0.124 S 
ATOM     74  O   UNL A   1      33.695  36.958  28.360  1.00  0.00    -0.237 OA
ATOM     75  O   UNL A   1      32.283  34.958  28.002  1.00  0.00    -0.237 OA
ATOM     76  O   UNL A   1      32.159  36.182  30.134  1.00  0.00    -0.744 OA
ENDBRANCH  72  73
ENDBRANCH  40  65
BRANCH  52  77
ATOM     77  C   UNL A   1      39.816  34.191  36.710  1.00  0.00     0.058 A 
ATOM     78  C   UNL A   1      39.045  33.927  37.852  1.00  0.00     0.135 A 
ATOM     79  C   UNL A   1      40.485  35.420  36.632  1.00  0.00     0.135 A 
ATOM     80  F   UNL A   1      38.381  32.767  37.966  1.00  0.00    -0.206 F 
ATOM     81  C   UNL A   1      38.924  34.862  38.875  1.00  0.00     0.059 A 
ATOM     82  C   UNL A   1      40.389  36.364  37.649  1.00  0.00     0.059 A 
ATOM     83  F   UNL A   1      41.239  35.713  35.560  1.00  0.00    -0.206 F 
ATOM     84  C   UNL A   1      39.595  36.081  38.760  1.00  0.00     0.060 A 
BRANCH  84  85
ATOM     85  S   UNL A   1      39.446  37.288  40.095  1.00  0.00     0.124 S 
ATOM     86  O   UNL A   1      40.841  37.664  40.305  1.00  0.00    -0.237 OA
ATOM     87  O   UNL A   1      38.596  38.315  39.503  1.00  0.00    -0.237 OA
ATOM     88  O   UNL A   1      38.831  36.520  41.174  1.00  0.00    -0.744 OA
ENDBRANCH  84  85
ENDBRANCH  52  77
ENDBRANCH  26  27
ENDBRANCH  19  21
ENDBRANCH  18  19
ENDBRANCH  17  18
ENDBRANCH   1  17
TORSDOF 21
ENDMDL
MODEL 3
REMARK VINA RESULT:      -7.6      5.275      7.770
REMARK SMILES CCC(CC)(C[C@H](O)COC)C(=O)OCCOC(=O)c1ccc(-c2c3nc(c(-c4c(F)cc(S(=O)(=O)[O-])cc4F)c4ccc([nH]4)c(-c4c(F)cc(S(=O)(=O)[O-])cc4F)c4nc(c(-c5c(F)cc(S(=O)(=O)[O-])cc5F)c5ccc2[nH]5)C=C4)C=C3)cc1
REMARK SMILES IDX 15 1 14 2 12 3 13 4 3 5 2 6 1 7 4 8 5 9 6 10 7 11 9 12 10 13
REMARK SMILES IDX 11 14 8 15 16 17 17 18 18 19 19 20 20 21 21 22 85 23 22 24
REMARK SMILES IDX 84 25 23 26 24 27 25 28 78 29 26 30 83 31 77 32 79 33 27 34
REMARK SMILES IDX 82 35 76 36 75 37 28 39 62 40 41 41 61 42 42 43 45 44 60 45
REMARK SMILES IDX 80 46 43 47 44 48 59 50 81 51 46 52 29 53 30 54 39 55 31 56
REMARK SMILES IDX 32 57 38 58 40 59 33 60 34 61 35 62 36 63 37 64 63 65 64 66
REMARK SMILES IDX 73 67 65 68 66 69 72 70 74 71 67 72 68 73 69 74 70 75 71 76
REMARK SMILES IDX 47 77 48 78 57 79 49 80 50 81 56 82 58 83 51 84 52 85 53 86
REMARK SMILES IDX 54 87 55 88
REMARK H PARENT 8 16 79 38 45 49
REMARK Flexibility Score: inf
ROOT
ATOM      1  C   UNL A   1      37.122  23.253  24.791  1.00  0.00     0.274 C 
ENDROOT
BRANCH   1   2
ATOM      2  O   UNL A   1      35.817  23.081  25.385  1.00  0.00    -0.462 OA
BRANCH   2   3
ATOM      3  C   UNL A   1      34.761  23.112  24.525  1.00  0.00     0.312 C 
ATOM      4  O   UNL A   1      34.852  23.449  23.351  1.00  0.00    -0.252 OA
BRANCH   3   5
ATOM      5  C   UNL A   1      33.416  22.796  25.218  1.00  0.00     0.070 C 
BRANCH   5   6
ATOM      6  C   UNL A   1      33.393  23.377  26.664  1.00  0.00     0.015 C 
ATOM      7  C   UNL A   1      33.388  22.380  27.822  1.00  0.00     0.005 C 
ENDBRANCH   5   6
BRANCH   5   8
ATOM      8  C   UNL A   1      33.344  21.239  25.205  1.00  0.00     0.015 C 
ATOM      9  C   UNL A   1      32.977  20.592  23.876  1.00  0.00     0.005 C 
ENDBRANCH   5   8
BRANCH   5  10
ATOM     10  C   UNL A   1      32.201  23.370  24.410  1.00  0.00     0.053 C 
BRANCH  10  11
ATOM     11  C   UNL A   1      31.517  24.616  25.015  1.00  0.00     0.141 C 
BRANCH  11  12
ATOM     12  C   UNL A   1      32.066  25.919  24.399  1.00  0.00     0.191 C 
BRANCH  12  13
ATOM     13  O   UNL A   1      31.038  26.798  23.932  1.00  0.00    -0.382 OA
ATOM     14  C   UNL A   1      31.467  27.712  22.933  1.00  0.00     0.195 C 
ENDBRANCH  12  13
ENDBRANCH  11  12
BRANCH  11  15
ATOM     15  O   UNL A   1      30.118  24.522  24.702  1.00  0.00    -0.391 OA
ATOM     16  H   UNL A   1      29.602  24.951  25.403  1.00  0.00     0.211 HD
ENDBRANCH  11  15
ENDBRANCH  10  11
ENDBRANCH   5  10
ENDBRANCH   3   5
ENDBRANCH   2   3
ENDBRANCH   1   2
BRANCH   1  17
ATOM     17  C   UNL A   1      38.218  23.121  25.841  1.00  0.00     0.275 C 
BRANCH  17  18
ATOM     18  O   UNL A   1      38.734  24.424  26.148  1.00  0.00    -0.458 OA
BRANCH  18  19
ATOM     19  C   UNL A   1      39.996  24.448  26.635  1.00  0.00     0.338 C 
ATOM     20  O   UNL A   1      40.936  23.768  26.265  1.00  0.00    -0.246 OA
BRANCH  19  21
ATOM     21  C   UNL A   1      40.096  25.429  27.734  1.00  0.00     0.060 A 
ATOM     22  C   UNL A   1      39.160  25.458  28.769  1.00  0.00     0.016 A 
ATOM     23  C   UNL A   1      41.101  26.395  27.675  1.00  0.00     0.016 A 
ATOM     24  C   UNL A   1      39.178  26.499  29.697  1.00  0.00     0.010 A 
ATOM     25  C   UNL A   1      41.169  27.388  28.654  1.00  0.00     0.010 A 
ATOM     26  C   UNL A   1      40.189  27.471  29.656  1.00  0.00    -0.014 A 
BRANCH  26  27
ATOM     27  C   UNL A   1      40.218  28.584  30.640  1.00  0.00     0.031 A 
ATOM     28  C   UNL A   1      41.233  28.583  31.753  1.00  0.00     0.074 A 
ATOM     29  C   UNL A   1      39.330  29.593  30.547  1.00  0.00     0.049 A 
ATOM     30  N   UNL A   1      41.302  29.352  32.809  1.00  0.00    -0.248 NA
ATOM     31  C   UNL A   1      42.306  27.579  31.674  1.00  0.00     0.031 C 
ATOM     32  C   UNL A   1      38.314  29.733  29.503  1.00  0.00     0.029 A 
ATOM     33  N   UNL A   1      39.142  30.696  31.342  1.00  0.00    -0.354 N 
ATOM     34  C   UNL A   1      42.385  28.890  33.548  1.00  0.00     0.074 A 
ATOM     35  C   UNL A   1      42.956  27.782  32.812  1.00  0.00     0.031 C 
ATOM     36  C   UNL A   1      37.634  30.873  29.699  1.00  0.00     0.029 A 
ATOM     37  C   UNL A   1      38.112  31.504  30.925  1.00  0.00     0.049 A 
ATOM     38  H   UNL A   1      39.692  30.889  32.136  1.00  0.00     0.167 HD
ATOM     39  C   UNL A   1      42.852  29.343  34.736  1.00  0.00     0.037 A 
ATOM     40  C   UNL A   1      37.582  32.609  31.483  1.00  0.00     0.037 A 
ATOM     41  C   UNL A   1      42.307  30.474  35.442  1.00  0.00     0.049 A 
ATOM     42  C   UNL A   1      38.123  33.102  32.792  1.00  0.00     0.074 A 
ATOM     43  C   UNL A   1      42.701  31.004  36.659  1.00  0.00     0.029 A 
ATOM     44  N   UNL A   1      41.263  31.263  34.983  1.00  0.00    -0.354 N 
ATOM     45  N   UNL A   1      39.095  32.603  33.518  1.00  0.00    -0.248 NA
ATOM     46  C   UNL A   1      37.480  34.288  33.374  1.00  0.00     0.031 C 
ATOM     47  C   UNL A   1      41.885  32.105  36.943  1.00  0.00     0.029 A 
ATOM     48  C   UNL A   1      40.999  32.274  35.891  1.00  0.00     0.049 A 
ATOM     49  H   UNL A   1      40.781  31.124  34.137  1.00  0.00     0.167 HD
ATOM     50  C   UNL A   1      39.171  33.405  34.650  1.00  0.00     0.074 A 
ATOM     51  C   UNL A   1      38.166  34.440  34.498  1.00  0.00     0.031 C 
ATOM     52  C   UNL A   1      39.987  33.285  35.725  1.00  0.00     0.037 A 
BRANCH  39  53
ATOM     53  C   UNL A   1      43.988  28.591  35.367  1.00  0.00     0.058 A 
ATOM     54  C   UNL A   1      45.327  28.900  35.087  1.00  0.00     0.135 A 
ATOM     55  C   UNL A   1      43.728  27.565  36.289  1.00  0.00     0.135 A 
ATOM     56  F   UNL A   1      45.627  29.860  34.199  1.00  0.00    -0.206 F 
ATOM     57  C   UNL A   1      46.372  28.205  35.690  1.00  0.00     0.059 A 
ATOM     58  C   UNL A   1      44.757  26.866  36.914  1.00  0.00     0.059 A 
ATOM     59  F   UNL A   1      42.464  27.228  36.586  1.00  0.00    -0.206 F 
ATOM     60  C   UNL A   1      46.077  27.186  36.598  1.00  0.00     0.060 A 
BRANCH  60  61
ATOM     61  S   UNL A   1      47.438  26.291  37.379  1.00  0.00     0.124 S 
ATOM     62  O   UNL A   1      48.412  26.241  36.293  1.00  0.00    -0.237 OA
ATOM     63  O   UNL A   1      47.786  27.158  38.501  1.00  0.00    -0.237 OA
ATOM     64  O   UNL A   1      46.835  25.014  37.745  1.00  0.00    -0.744 OA
ENDBRANCH  60  61
ENDBRANCH  39  53
BRANCH  40  65
ATOM     65  C   UNL A   1      36.447  33.292  30.812  1.00  0.00     0.058 A 
ATOM     66  C   UNL A   1      35.154  33.230  31.347  1.00  0.00     0.135 A 
ATOM     67  C   UNL A   1      36.649  34.072  29.663  1.00  0.00     0.135 A 
ATOM     68  F   UNL A   1      34.914  32.489  32.440  1.00  0.00    -0.206 F 
ATOM     69  C   UNL A   1      34.097  33.928  30.772  1.00  0.00     0.059 A 
ATOM     70  C   UNL A   1      35.613  34.794  29.083  1.00  0.00     0.059 A 
ATOM     71  F   UNL A   1      37.875  34.170  29.125  1.00  0.00    -0.206 F 
ATOM     72  C   UNL A   1      34.339  34.714  29.643  1.00  0.00     0.060 A 
BRANCH  72  73
ATOM     73  S   UNL A   1      32.994  35.705  28.955  1.00  0.00     0.124 S 
ATOM     74  O   UNL A   1      33.729  36.793  28.319  1.00  0.00    -0.237 OA
ATOM     75  O   UNL A   1      32.338  34.764  28.052  1.00  0.00    -0.237 OA
ATOM     76  O   UNL A   1      32.217  36.070  30.136  1.00  0.00    -0.744 OA
ENDBRANCH  72  73
ENDBRANCH  40  65
BRANCH  52  77
ATOM     77  C   UNL A   1      39.817  34.297  36.818  1.00  0.00     0.058 A 
ATOM     78  C   UNL A   1      39.116  33.984  37.992  1.00  0.00     0.135 A 
ATOM     79  C   UNL A   1      40.372  35.580  36.701  1.00  0.00     0.135 A 
ATOM     80  F   UNL A   1      38.562  32.771  38.145  1.00  0.00    -0.206 F 
ATOM     81  C   UNL A   1      38.953  34.918  39.009  1.00  0.00     0.059 A 
ATOM     82  C   UNL A   1      40.232  36.525  37.711  1.00  0.00     0.059 A 
ATOM     83  F   UNL A   1      41.054  35.922  35.597  1.00  0.00    -0.206 F 
ATOM     84  C   UNL A   1      39.510  36.189  38.855  1.00  0.00     0.060 A 
BRANCH  84  85
ATOM     85  S   UNL A   1      39.307  37.397  40.183  1.00  0.00     0.124 S 
ATOM     86  O   UNL A   1      38.512  38.427  39.521  1.00  0.00    -0.237 OA
ATOM     87  O   UNL A   1      38.615  36.627  41.212  1.00  0.00    -0.237 OA
ATOM     88  O   UNL A   1      40.679  37.772  40.508  1.00  0.00    -0.744 OA
ENDBRANCH  84  85
ENDBRANCH  52  77
ENDBRANCH  26  27
ENDBRANCH  19  21
ENDBRANCH  18  19
ENDBRANCH  17  18
ENDBRANCH   1  17
TORSDOF 21
ENDMDL
