MODEL 1
REMARK VINA RESULT:     -13.0      0.000      0.000
REMARK SMILES Cc1oc2cc3c(cc2c1C)[C@H](C)[C@@H](CC(=O)N[C@H](CC1=c2ccccc2=NC1)C(=O)OCCOC(=O)c1ccc(-c2c4nc(c(-c5c(F)cc(S(=O)(=O)[O-])cc5F)c5ccc([nH]5)c(-c5c(F)cc(S(=O)(=O)[O-])cc5F)c5nc(c(-c6c(F)cc(S(=O)(=O)[O-])cc6F)c6ccc2[nH]6)C=C5)C=C4)cc1)C(=O)O3
REMARK SMILES IDX 33 1 32 2 30 3 31 4 19 5 18 6 16 7 17 8 15 10 14 11 1 12
REMARK SMILES IDX 2 13 3 14 10 15 4 16 9 17 11 18 5 19 8 20 6 21 7 22 106 23
REMARK SMILES IDX 12 24 104 25 13 26 105 27 20 28 21 29 22 30 29 31 23 32
REMARK SMILES IDX 27 33 28 34 24 35 26 36 25 37 34 38 35 39 36 40 37 41 38 42
REMARK SMILES IDX 39 43 103 44 40 45 102 46 41 47 42 48 43 49 96 50 44 51
REMARK SMILES IDX 101 52 95 53 97 54 45 55 100 56 94 57 93 58 46 60 80 61
REMARK SMILES IDX 59 62 79 63 60 64 63 65 78 66 98 67 61 68 62 69 77 71 99 72
REMARK SMILES IDX 64 73 47 74 48 75 57 76 49 77 50 78 56 79 58 80 51 81 52 82
REMARK SMILES IDX 53 83 54 84 55 85 81 86 82 87 91 88 83 89 84 90 90 91 92 92
REMARK SMILES IDX 85 93 86 94 87 95 88 96 89 97 65 98 66 99 75 100 67 101
REMARK SMILES IDX 68 102 74 103 76 104 69 105 70 106 71 107 72 108 73 109
REMARK H PARENT 18 9 97 59 63 70
REMARK Flexibility Score: inf
ROOT
ATOM      1  C   UNL A   1      34.324  29.666  26.403  1.00  0.00     0.274 C 
ENDROOT
BRANCH   1   2
ATOM      2  O   UNL A   1      34.231  28.408  25.705  1.00  0.00    -0.461 OA
BRANCH   2   3
ATOM      3  C   UNL A   1      33.580  28.354  24.524  1.00  0.00     0.329 C 
ATOM      4  O   UNL A   1      34.153  28.281  23.444  1.00  0.00    -0.250 OA
BRANCH   3   5
ATOM      5  C   UNL A   1      32.060  28.598  24.668  1.00  0.00     0.196 C 
BRANCH   5   6
ATOM      6  N   UNL A   1      31.476  27.717  25.707  1.00  0.00    -0.342 N 
ATOM      7  C   UNL A   1      30.820  26.530  25.652  1.00  0.00     0.221 C 
ATOM      8  O   UNL A   1      30.163  26.189  26.640  1.00  0.00    -0.275 OA
ATOM      9  H   UNL A   1      31.587  28.063  26.622  1.00  0.00     0.164 HD
BRANCH   7  10
ATOM     10  C   UNL A   1      30.890  25.596  24.454  1.00  0.00     0.116 C 
BRANCH  10  11
ATOM     11  C   UNL A   1      31.793  24.390  24.702  1.00  0.00     0.116 C 
ATOM     12  C   UNL A   1      33.158  16.025  25.063  1.00  0.00     0.088 C 
ATOM     13  C   UNL A   1      32.951  17.457  24.773  1.00  0.00     0.105 A 
ATOM     14  O   UNL A   1      32.975  18.267  25.863  1.00  0.00    -0.461 OA
ATOM     15  C   UNL A   1      32.759  18.199  23.620  1.00  0.00    -0.002 A 
ATOM     16  C   UNL A   1      32.796  19.536  25.422  1.00  0.00     0.138 A 
ATOM     17  C   UNL A   1      32.632  19.560  24.044  1.00  0.00     0.024 A 
ATOM     18  C   UNL A   1      32.708  17.711  22.222  1.00  0.00     0.049 C 
ATOM     19  C   UNL A   1      32.774  20.651  26.238  1.00  0.00     0.095 A 
ATOM     20  C   UNL A   1      32.383  20.797  23.405  1.00  0.00     0.020 A 
ATOM     21  C   UNL A   1      32.535  21.856  25.582  1.00  0.00     0.138 A 
ATOM     22  C   UNL A   1      32.329  21.968  24.179  1.00  0.00    -0.001 A 
ATOM     23  O   UNL A   1      32.414  22.955  26.425  1.00  0.00    -0.426 OA
ATOM     24  C   UNL A   1      31.816  23.304  23.593  1.00  0.00     0.035 C 
ATOM     25  C   UNL A   1      31.336  23.568  25.864  1.00  0.00     0.315 C 
ATOM     26  C   UNL A   1      32.575  23.785  22.361  1.00  0.00     0.014 C 
ATOM     27  O   UNL A   1      30.187  23.217  26.074  1.00  0.00    -0.251 OA
ENDBRANCH  10  11
ENDBRANCH   7  10
ENDBRANCH   5   6
BRANCH   5  28
ATOM     28  C   UNL A   1      31.141  28.736  23.404  1.00  0.00     0.070 C 
BRANCH  28  29
ATOM     29  C   UNL A   1      29.754  29.366  23.587  1.00  0.00    -0.037 C 
ATOM     30  C   UNL A   1      29.495  30.581  23.082  1.00  0.00     0.001 A 
ATOM     31  C   UNL A   1      28.621  28.449  23.224  1.00  0.00     0.174 C 
ATOM     32  C   UNL A   1      28.978  31.750  23.770  1.00  0.00     0.010 A 
ATOM     33  C   UNL A   1      28.600  30.181  21.957  1.00  0.00     0.065 A 
ATOM     34  N   UNL A   1      28.141  28.971  21.933  1.00  0.00    -0.280 NA
ATOM     35  C   UNL A   1      28.337  32.672  23.025  1.00  0.00     0.001 A 
ATOM     36  C   UNL A   1      28.317  31.277  21.015  1.00  0.00     0.028 A 
ATOM     37  C   UNL A   1      28.213  32.494  21.579  1.00  0.00     0.002 A 
ENDBRANCH  28  29
ENDBRANCH   5  28
ENDBRANCH   3   5
ENDBRANCH   2   3
ENDBRANCH   1   2
BRANCH   1  38
ATOM     38  C   UNL A   1      34.975  29.394  27.761  1.00  0.00     0.275 C 
BRANCH  38  39
ATOM     39  O   UNL A   1      36.333  28.996  27.554  1.00  0.00    -0.458 OA
BRANCH  39  40
ATOM     40  C   UNL A   1      37.265  29.931  27.895  1.00  0.00     0.338 C 
ATOM     41  O   UNL A   1      37.118  31.121  28.038  1.00  0.00    -0.246 OA
BRANCH  40  42
ATOM     42  C   UNL A   1      38.434  29.166  28.339  1.00  0.00     0.060 A 
ATOM     43  C   UNL A   1      38.483  28.652  29.627  1.00  0.00     0.016 A 
ATOM     44  C   UNL A   1      39.536  29.086  27.485  1.00  0.00     0.016 A 
ATOM     45  C   UNL A   1      39.656  28.059  30.062  1.00  0.00     0.010 A 
ATOM     46  C   UNL A   1      40.712  28.489  27.912  1.00  0.00     0.010 A 
ATOM     47  C   UNL A   1      40.771  27.978  29.207  1.00  0.00    -0.014 A 
BRANCH  47  48
ATOM     48  C   UNL A   1      41.980  27.350  29.742  1.00  0.00     0.031 A 
ATOM     49  C   UNL A   1      42.601  26.272  28.908  1.00  0.00     0.074 A 
ATOM     50  C   UNL A   1      42.782  28.117  30.504  1.00  0.00     0.049 A 
ATOM     51  N   UNL A   1      43.449  26.465  27.941  1.00  0.00    -0.248 NA
ATOM     52  C   UNL A   1      42.093  24.901  28.984  1.00  0.00     0.031 C 
ATOM     53  C   UNL A   1      43.150  29.505  30.205  1.00  0.00     0.029 A 
ATOM     54  N   UNL A   1      43.553  27.772  31.584  1.00  0.00    -0.354 N 
ATOM     55  C   UNL A   1      43.596  25.253  27.281  1.00  0.00     0.074 A 
ATOM     56  C   UNL A   1      42.729  24.317  27.958  1.00  0.00     0.031 C 
ATOM     57  C   UNL A   1      44.204  29.843  30.975  1.00  0.00     0.029 A 
ATOM     58  C   UNL A   1      44.499  28.746  31.893  1.00  0.00     0.049 A 
ATOM     59  H   UNL A   1      43.449  26.931  32.083  1.00  0.00     0.167 HD
ATOM     60  C   UNL A   1      44.434  25.060  26.227  1.00  0.00     0.037 A 
ATOM     61  C   UNL A   1      45.717  28.460  32.428  1.00  0.00     0.037 A 
ATOM     62  C   UNL A   1      45.211  26.195  25.832  1.00  0.00     0.049 A 
ATOM     63  C   UNL A   1      46.434  27.972  31.187  1.00  0.00     0.074 A 
ATOM     64  C   UNL A   1      45.142  27.199  24.892  1.00  0.00     0.029 A 
ATOM     65  N   UNL A   1      46.352  26.464  26.551  1.00  0.00    -0.354 N 
ATOM     66  N   UNL A   1      46.951  28.724  30.249  1.00  0.00    -0.248 NA
ATOM     67  C   UNL A   1      46.220  26.576  30.791  1.00  0.00     0.031 C 
ATOM     68  C   UNL A   1      45.979  28.246  25.392  1.00  0.00     0.029 A 
ATOM     69  C   UNL A   1      46.464  27.828  26.631  1.00  0.00     0.049 A 
ATOM     70  H   UNL A   1      46.971  25.802  26.935  1.00  0.00     0.167 HD
ATOM     71  C   UNL A   1      46.854  27.974  29.073  1.00  0.00     0.074 A 
ATOM     72  C   UNL A   1      46.421  26.653  29.483  1.00  0.00     0.031 C 
ATOM     73  C   UNL A   1      46.942  28.506  27.818  1.00  0.00     0.037 A 
BRANCH  60  74
ATOM     74  C   UNL A   1      44.746  23.739  25.639  1.00  0.00     0.058 A 
ATOM     75  C   UNL A   1      43.785  23.155  24.798  1.00  0.00     0.135 A 
ATOM     76  C   UNL A   1      45.829  22.956  26.051  1.00  0.00     0.135 A 
ATOM     77  F   UNL A   1      42.730  23.877  24.382  1.00  0.00    -0.206 F 
ATOM     78  C   UNL A   1      43.855  21.820  24.431  1.00  0.00     0.059 A 
ATOM     79  C   UNL A   1      45.926  21.611  25.686  1.00  0.00     0.059 A 
ATOM     80  F   UNL A   1      46.774  23.472  26.852  1.00  0.00    -0.206 F 
ATOM     81  C   UNL A   1      44.914  21.047  24.903  1.00  0.00     0.060 A 
BRANCH  81  82
ATOM     82  S   UNL A   1      44.908  19.283  24.520  1.00  0.00     0.124 S 
ATOM     83  O   UNL A   1      44.707  19.291  23.075  1.00  0.00    -0.237 OA
ATOM     84  O   UNL A   1      46.233  18.869  24.974  1.00  0.00    -0.237 OA
ATOM     85  O   UNL A   1      43.792  18.767  25.306  1.00  0.00    -0.744 OA
ENDBRANCH  81  82
ENDBRANCH  60  74
BRANCH  61  86
ATOM     86  C   UNL A   1      45.640  27.705  33.724  1.00  0.00     0.058 A 
ATOM     87  C   UNL A   1      44.649  28.092  34.657  1.00  0.00     0.135 A 
ATOM     88  C   UNL A   1      46.425  26.601  34.082  1.00  0.00     0.135 A 
ATOM     89  F   UNL A   1      43.933  29.211  34.462  1.00  0.00    -0.206 F 
ATOM     90  C   UNL A   1      44.341  27.330  35.780  1.00  0.00     0.059 A 
ATOM     91  C   UNL A   1      46.123  25.809  35.192  1.00  0.00     0.059 A 
ATOM     92  F   UNL A   1      47.484  26.239  33.346  1.00  0.00    -0.206 F 
ATOM     93  C   UNL A   1      45.054  26.159  36.011  1.00  0.00     0.060 A 
BRANCH  93  94
ATOM     94  S   UNL A   1      44.510  25.079  37.350  1.00  0.00     0.124 S 
ATOM     95  O   UNL A   1      45.005  25.783  38.528  1.00  0.00    -0.237 OA
ATOM     96  O   UNL A   1      43.062  25.087  37.166  1.00  0.00    -0.237 OA
ATOM     97  O   UNL A   1      45.169  23.812  37.052  1.00  0.00    -0.744 OA
ENDBRANCH  93  94
ENDBRANCH  61  86
BRANCH  73  98
ATOM     98  C   UNL A   1      47.343  29.939  27.735  1.00  0.00     0.058 A 
ATOM     99  C   UNL A   1      48.693  30.285  27.596  1.00  0.00     0.135 A 
ATOM    100  C   UNL A   1      46.393  30.974  27.708  1.00  0.00     0.135 A 
ATOM    101  F   UNL A   1      49.642  29.335  27.602  1.00  0.00    -0.206 F 
ATOM    102  C   UNL A   1      49.085  31.605  27.398  1.00  0.00     0.059 A 
ATOM    103  C   UNL A   1      46.761  32.297  27.484  1.00  0.00     0.059 A 
ATOM    104  F   UNL A   1      45.085  30.708  27.860  1.00  0.00    -0.206 F 
ATOM    105  C   UNL A   1      48.112  32.602  27.323  1.00  0.00     0.060 A 
BRANCH 105 106
ATOM    106  S   UNL A   1      48.630  34.286  26.934  1.00  0.00     0.124 S 
ATOM    107  O   UNL A   1      48.340  34.373  25.506  1.00  0.00    -0.237 OA
ATOM    108  O   UNL A   1      47.771  35.085  27.804  1.00  0.00    -0.237 OA
ATOM    109  O   UNL A   1      50.047  34.302  27.287  1.00  0.00    -0.744 OA
ENDBRANCH 105 106
ENDBRANCH  73  98
ENDBRANCH  47  48
ENDBRANCH  40  42
ENDBRANCH  39  40
ENDBRANCH  38  39
ENDBRANCH   1  38
TORSDOF 19
ENDMDL
MODEL 2
REMARK VINA RESULT:     -13.0      2.805      4.088
REMARK SMILES Cc1oc2cc3c(cc2c1C)[C@H](C)[C@@H](CC(=O)N[C@H](CC1=c2ccccc2=NC1)C(=O)OCCOC(=O)c1ccc(-c2c4nc(c(-c5c(F)cc(S(=O)(=O)[O-])cc5F)c5ccc([nH]5)c(-c5c(F)cc(S(=O)(=O)[O-])cc5F)c5nc(c(-c6c(F)cc(S(=O)(=O)[O-])cc6F)c6ccc2[nH]6)C=C5)C=C4)cc1)C(=O)O3
REMARK SMILES IDX 33 1 32 2 30 3 31 4 19 5 18 6 16 7 17 8 15 10 14 11 1 12
REMARK SMILES IDX 2 13 3 14 10 15 4 16 9 17 11 18 5 19 8 20 6 21 7 22 106 23
REMARK SMILES IDX 12 24 104 25 13 26 105 27 20 28 21 29 22 30 29 31 23 32
REMARK SMILES IDX 27 33 28 34 24 35 26 36 25 37 34 38 35 39 36 40 37 41 38 42
REMARK SMILES IDX 39 43 103 44 40 45 102 46 41 47 42 48 43 49 96 50 44 51
REMARK SMILES IDX 101 52 95 53 97 54 45 55 100 56 94 57 93 58 46 60 80 61
REMARK SMILES IDX 59 62 79 63 60 64 63 65 78 66 98 67 61 68 62 69 77 71 99 72
REMARK SMILES IDX 64 73 47 74 48 75 57 76 49 77 50 78 56 79 58 80 51 81 52 82
REMARK SMILES IDX 53 83 54 84 55 85 81 86 82 87 91 88 83 89 84 90 90 91 92 92
REMARK SMILES IDX 85 93 86 94 87 95 88 96 89 97 65 98 66 99 75 100 67 101
REMARK SMILES IDX 68 102 74 103 76 104 69 105 70 106 71 107 72 108 73 109
REMARK H PARENT 18 9 97 59 63 70
REMARK Flexibility Score: inf
ROOT
ATOM      1  C   UNL A   1      34.208  31.020  27.397  1.00  0.00     0.274 C 
ENDROOT
BRANCH   1   2
ATOM      2  O   UNL A   1      33.044  30.184  27.242  1.00  0.00    -0.461 OA
BRANCH   2   3
ATOM      3  C   UNL A   1      32.283  30.310  26.136  1.00  0.00     0.329 C 
ATOM      4  O   UNL A   1      31.380  31.132  26.031  1.00  0.00    -0.250 OA
BRANCH   3   5
ATOM      5  C   UNL A   1      32.535  29.185  25.105  1.00  0.00     0.196 C 
BRANCH   5   6
ATOM      6  N   UNL A   1      33.702  28.359  25.494  1.00  0.00    -0.342 N 
ATOM      7  C   UNL A   1      33.823  27.084  25.944  1.00  0.00     0.221 C 
ATOM      8  O   UNL A   1      34.880  26.767  26.498  1.00  0.00    -0.275 OA
ATOM      9  H   UNL A   1      34.562  28.829  25.409  1.00  0.00     0.164 HD
BRANCH   7  10
ATOM     10  C   UNL A   1      32.741  26.031  25.763  1.00  0.00     0.116 C 
BRANCH  10  11
ATOM     11  C   UNL A   1      33.290  24.608  25.820  1.00  0.00     0.116 C 
ATOM     12  C   UNL A   1      32.391  16.212  24.998  1.00  0.00     0.088 C 
ATOM     13  C   UNL A   1      32.574  17.674  24.913  1.00  0.00     0.105 A 
ATOM     14  O   UNL A   1      32.798  18.290  26.102  1.00  0.00    -0.461 OA
ATOM     15  C   UNL A   1      32.599  18.593  23.877  1.00  0.00    -0.002 A 
ATOM     16  C   UNL A   1      32.966  19.609  25.843  1.00  0.00     0.138 A 
ATOM     17  C   UNL A   1      32.830  19.867  24.486  1.00  0.00     0.024 A 
ATOM     18  C   UNL A   1      32.437  18.335  22.427  1.00  0.00     0.049 C 
ATOM     19  C   UNL A   1      33.229  20.567  26.805  1.00  0.00     0.095 A 
ATOM     20  C   UNL A   1      32.925  21.202  24.029  1.00  0.00     0.020 A 
ATOM     21  C   UNL A   1      33.326  21.871  26.326  1.00  0.00     0.138 A 
ATOM     22  C   UNL A   1      33.173  22.227  24.957  1.00  0.00    -0.001 A 
ATOM     23  O   UNL A   1      33.489  22.835  27.314  1.00  0.00    -0.426 OA
ATOM     24  C   UNL A   1      33.038  23.718  24.573  1.00  0.00     0.035 C 
ATOM     25  C   UNL A   1      32.618  23.782  26.871  1.00  0.00     0.315 C 
ATOM     26  C   UNL A   1      33.912  24.149  23.400  1.00  0.00     0.014 C 
ATOM     27  O   UNL A   1      31.415  23.721  27.059  1.00  0.00    -0.251 OA
ENDBRANCH  10  11
ENDBRANCH   7  10
ENDBRANCH   5   6
BRANCH   5  28
ATOM     28  C   UNL A   1      32.485  29.477  23.564  1.00  0.00     0.070 C 
BRANCH  28  29
ATOM     29  C   UNL A   1      31.532  28.637  22.703  1.00  0.00    -0.037 C 
ATOM     30  C   UNL A   1      31.249  27.373  23.049  1.00  0.00     0.001 A 
ATOM     31  C   UNL A   1      30.245  29.337  22.369  1.00  0.00     0.174 C 
ATOM     32  C   UNL A   1      31.376  26.170  22.245  1.00  0.00     0.010 A 
ATOM     33  C   UNL A   1      29.843  27.565  23.510  1.00  0.00     0.065 A 
ATOM     34  N   UNL A   1      29.248  28.681  23.233  1.00  0.00    -0.280 NA
ATOM     35  C   UNL A   1      30.600  25.120  22.580  1.00  0.00     0.001 A 
ATOM     36  C   UNL A   1      29.290  26.392  24.208  1.00  0.00     0.028 A 
ATOM     37  C   UNL A   1      29.702  25.204  23.730  1.00  0.00     0.002 A 
ENDBRANCH  28  29
ENDBRANCH   5  28
ENDBRANCH   3   5
ENDBRANCH   2   3
ENDBRANCH   1   2
BRANCH   1  38
ATOM     38  C   UNL A   1      33.744  32.353  27.990  1.00  0.00     0.275 C 
BRANCH  38  39
ATOM     39  O   UNL A   1      34.885  33.071  28.468  1.00  0.00    -0.458 OA
BRANCH  39  40
ATOM     40  C   UNL A   1      34.889  33.318  29.809  1.00  0.00     0.338 C 
ATOM     41  O   UNL A   1      33.999  33.764  30.492  1.00  0.00    -0.246 OA
BRANCH  40  42
ATOM     42  C   UNL A   1      36.098  32.664  30.318  1.00  0.00     0.060 A 
ATOM     43  C   UNL A   1      37.192  32.474  29.485  1.00  0.00     0.016 A 
ATOM     44  C   UNL A   1      36.066  32.124  31.605  1.00  0.00     0.016 A 
ATOM     45  C   UNL A   1      38.261  31.728  29.951  1.00  0.00     0.010 A 
ATOM     46  C   UNL A   1      37.135  31.380  32.081  1.00  0.00     0.010 A 
ATOM     47  C   UNL A   1      38.233  31.180  31.247  1.00  0.00    -0.014 A 
BRANCH  47  48
ATOM     48  C   UNL A   1      39.394  30.391  31.664  1.00  0.00     0.031 A 
ATOM     49  C   UNL A   1      39.556  29.048  31.023  1.00  0.00     0.074 A 
ATOM     50  C   UNL A   1      40.500  31.072  32.022  1.00  0.00     0.049 A 
ATOM     51  N   UNL A   1      40.145  28.823  29.885  1.00  0.00    -0.248 NA
ATOM     52  C   UNL A   1      38.830  27.891  31.550  1.00  0.00     0.031 C 
ATOM     53  C   UNL A   1      41.039  32.234  31.308  1.00  0.00     0.029 A 
ATOM     54  N   UNL A   1      41.442  30.771  32.970  1.00  0.00    -0.354 N 
ATOM     55  C   UNL A   1      39.879  27.505  29.541  1.00  0.00     0.074 A 
ATOM     56  C   UNL A   1      39.052  26.972  30.599  1.00  0.00     0.031 C 
ATOM     57  C   UNL A   1      42.301  32.446  31.732  1.00  0.00     0.029 A 
ATOM     58  C   UNL A   1      42.606  31.520  32.818  1.00  0.00     0.049 A 
ATOM     59  H   UNL A   1      41.310  30.100  33.678  1.00  0.00     0.167 HD
ATOM     60  C   UNL A   1      40.360  26.901  28.422  1.00  0.00     0.037 A 
ATOM     61  C   UNL A   1      43.842  31.052  33.145  1.00  0.00     0.037 A 
ATOM     62  C   UNL A   1      41.213  27.702  27.599  1.00  0.00     0.049 A 
ATOM     63  C   UNL A   1      44.103  30.161  31.950  1.00  0.00     0.074 A 
ATOM     64  C   UNL A   1      41.099  28.481  26.468  1.00  0.00     0.029 A 
ATOM     65  N   UNL A   1      42.532  27.818  27.974  1.00  0.00    -0.354 N 
ATOM     66  N   UNL A   1      44.495  30.555  30.765  1.00  0.00    -0.248 NA
ATOM     67  C   UNL A   1      43.528  28.812  31.977  1.00  0.00     0.031 C 
ATOM     68  C   UNL A   1      42.224  29.365  26.500  1.00  0.00     0.029 A 
ATOM     69  C   UNL A   1      42.922  29.098  27.677  1.00  0.00     0.049 A 
ATOM     70  H   UNL A   1      43.088  27.114  28.378  1.00  0.00     0.167 HD
ATOM     71  C   UNL A   1      43.953  29.632  29.866  1.00  0.00     0.074 A 
ATOM     72  C   UNL A   1      43.393  28.571  30.680  1.00  0.00     0.031 C 
ATOM     73  C   UNL A   1      43.814  29.860  28.526  1.00  0.00     0.037 A 
BRANCH  60  74
ATOM     74  C   UNL A   1      40.247  25.454  28.140  1.00  0.00     0.058 A 
ATOM     75  C   UNL A   1      41.322  24.629  28.507  1.00  0.00     0.135 A 
ATOM     76  C   UNL A   1      39.240  24.909  27.335  1.00  0.00     0.135 A 
ATOM     77  F   UNL A   1      42.308  25.118  29.279  1.00  0.00    -0.206 F 
ATOM     78  C   UNL A   1      41.436  23.329  28.039  1.00  0.00     0.059 A 
ATOM     79  C   UNL A   1      39.327  23.599  26.860  1.00  0.00     0.059 A 
ATOM     80  F   UNL A   1      38.191  25.658  26.961  1.00  0.00    -0.206 F 
ATOM     81  C   UNL A   1      40.447  22.831  27.192  1.00  0.00     0.060 A 
BRANCH  81  82
ATOM     82  S   UNL A   1      40.688  21.185  26.492  1.00  0.00     0.124 S 
ATOM     83  O   UNL A   1      41.823  21.401  25.601  1.00  0.00    -0.237 OA
ATOM     84  O   UNL A   1      40.960  20.386  27.683  1.00  0.00    -0.237 OA
ATOM     85  O   UNL A   1      39.416  20.905  25.832  1.00  0.00    -0.744 OA
ENDBRANCH  81  82
ENDBRANCH  60  74
BRANCH  61  86
ATOM     86  C   UNL A   1      43.958  30.618  34.578  1.00  0.00     0.058 A 
ATOM     87  C   UNL A   1      44.968  29.684  34.908  1.00  0.00     0.135 A 
ATOM     88  C   UNL A   1      43.191  31.099  35.648  1.00  0.00     0.135 A 
ATOM     89  F   UNL A   1      45.670  29.073  33.939  1.00  0.00    -0.206 F 
ATOM     90  C   UNL A   1      45.310  29.385  36.223  1.00  0.00     0.059 A 
ATOM     91  C   UNL A   1      43.527  30.830  36.977  1.00  0.00     0.059 A 
ATOM     92  F   UNL A   1      42.117  31.871  35.436  1.00  0.00    -0.206 F 
ATOM     93  C   UNL A   1      44.613  30.006  37.254  1.00  0.00     0.060 A 
BRANCH  93  94
ATOM     94  S   UNL A   1      45.199  29.767  38.943  1.00  0.00     0.124 S 
ATOM     95  O   UNL A   1      44.325  30.659  39.697  1.00  0.00    -0.237 OA
ATOM     96  O   UNL A   1      44.970  28.339  39.137  1.00  0.00    -0.237 OA
ATOM     97  O   UNL A   1      46.601  30.170  38.875  1.00  0.00    -0.744 OA
ENDBRANCH  93  94
ENDBRANCH  61  86
BRANCH  73  98
ATOM     98  C   UNL A   1      44.450  31.101  27.999  1.00  0.00     0.058 A 
ATOM     99  C   UNL A   1      45.668  31.030  27.312  1.00  0.00     0.135 A 
ATOM    100  C   UNL A   1      43.822  32.354  28.095  1.00  0.00     0.135 A 
ATOM    101  F   UNL A   1      46.306  29.855  27.179  1.00  0.00    -0.206 F 
ATOM    102  C   UNL A   1      46.225  32.152  26.708  1.00  0.00     0.059 A 
ATOM    103  C   UNL A   1      44.347  33.484  27.474  1.00  0.00     0.059 A 
ATOM    104  F   UNL A   1      42.663  32.491  28.761  1.00  0.00    -0.206 F 
ATOM    105  C   UNL A   1      45.548  33.371  26.777  1.00  0.00     0.060 A 
BRANCH 105 106
ATOM    106  S   UNL A   1      46.220  34.782  25.875  1.00  0.00     0.124 S 
ATOM    107  O   UNL A   1      45.917  34.433  24.491  1.00  0.00    -0.237 OA
ATOM    108  O   UNL A   1      45.454  35.897  26.428  1.00  0.00    -0.237 OA
ATOM    109  O   UNL A   1      47.637  34.776  26.227  1.00  0.00    -0.744 OA
ENDBRANCH 105 106
ENDBRANCH  73  98
ENDBRANCH  47  48
ENDBRANCH  40  42
ENDBRANCH  39  40
ENDBRANCH  38  39
ENDBRANCH   1  38
TORSDOF 19
ENDMDL
MODEL 3
REMARK VINA RESULT:     -12.6      1.837      7.504
REMARK SMILES Cc1oc2cc3c(cc2c1C)[C@H](C)[C@@H](CC(=O)N[C@H](CC1=c2ccccc2=NC1)C(=O)OCCOC(=O)c1ccc(-c2c4nc(c(-c5c(F)cc(S(=O)(=O)[O-])cc5F)c5ccc([nH]5)c(-c5c(F)cc(S(=O)(=O)[O-])cc5F)c5nc(c(-c6c(F)cc(S(=O)(=O)[O-])cc6F)c6ccc2[nH]6)C=C5)C=C4)cc1)C(=O)O3
REMARK SMILES IDX 33 1 32 2 30 3 31 4 19 5 18 6 16 7 17 8 15 10 14 11 1 12
REMARK SMILES IDX 2 13 3 14 10 15 4 16 9 17 11 18 5 19 8 20 6 21 7 22 106 23
REMARK SMILES IDX 12 24 104 25 13 26 105 27 20 28 21 29 22 30 29 31 23 32
REMARK SMILES IDX 27 33 28 34 24 35 26 36 25 37 34 38 35 39 36 40 37 41 38 42
REMARK SMILES IDX 39 43 103 44 40 45 102 46 41 47 42 48 43 49 96 50 44 51
REMARK SMILES IDX 101 52 95 53 97 54 45 55 100 56 94 57 93 58 46 60 80 61
REMARK SMILES IDX 59 62 79 63 60 64 63 65 78 66 98 67 61 68 62 69 77 71 99 72
REMARK SMILES IDX 64 73 47 74 48 75 57 76 49 77 50 78 56 79 58 80 51 81 52 82
REMARK SMILES IDX 53 83 54 84 55 85 81 86 82 87 91 88 83 89 84 90 90 91 92 92
REMARK SMILES IDX 85 93 86 94 87 95 88 96 89 97 65 98 66 99 75 100 67 101
REMARK SMILES IDX 68 102 74 103 76 104 69 105 70 106 71 107 72 108 73 109
REMARK H PARENT 18 9 97 59 63 70
REMARK Flexibility Score: inf
ROOT
ATOM      1  C   UNL A   1      34.236  29.553  27.588  1.00  0.00     0.274 C 
ENDROOT
BRANCH   1   2
ATOM      2  O   UNL A   1      34.153  29.278  26.175  1.00  0.00    -0.461 OA
BRANCH   2   3
ATOM      3  C   UNL A   1      33.544  28.149  25.757  1.00  0.00     0.329 C 
ATOM      4  O   UNL A   1      33.887  27.028  26.115  1.00  0.00    -0.250 OA
BRANCH   3   5
ATOM      5  C   UNL A   1      32.511  28.407  24.635  1.00  0.00     0.196 C 
BRANCH   5   6
ATOM      6  N   UNL A   1      33.084  28.098  23.304  1.00  0.00    -0.342 N 
ATOM      7  C   UNL A   1      33.085  26.979  22.535  1.00  0.00     0.221 C 
ATOM      8  O   UNL A   1      33.914  26.908  21.623  1.00  0.00    -0.275 OA
ATOM      9  H   UNL A   1      33.559  28.856  22.895  1.00  0.00     0.164 HD
BRANCH   7  10
ATOM     10  C   UNL A   1      32.094  25.840  22.722  1.00  0.00     0.116 C 
BRANCH  10  11
ATOM     11  C   UNL A   1      32.736  24.598  23.334  1.00  0.00     0.116 C 
ATOM     12  C   UNL A   1      32.474  16.470  25.752  1.00  0.00     0.088 C 
ATOM     13  C   UNL A   1      32.560  17.801  25.120  1.00  0.00     0.105 A 
ATOM     14  O   UNL A   1      32.668  18.838  25.990  1.00  0.00    -0.461 OA
ATOM     15  C   UNL A   1      32.583  18.259  23.813  1.00  0.00    -0.002 A 
ATOM     16  C   UNL A   1      32.760  19.971  25.253  1.00  0.00     0.138 A 
ATOM     17  C   UNL A   1      32.688  19.683  23.897  1.00  0.00     0.024 A 
ATOM     18  C   UNL A   1      32.527  17.459  22.568  1.00  0.00     0.049 C 
ATOM     19  C   UNL A   1      32.897  21.240  25.784  1.00  0.00     0.095 A 
ATOM     20  C   UNL A   1      32.717  20.750  22.968  1.00  0.00     0.020 A 
ATOM     21  C   UNL A   1      32.932  22.269  24.847  1.00  0.00     0.138 A 
ATOM     22  C   UNL A   1      32.838  22.067  23.442  1.00  0.00    -0.001 A 
ATOM     23  O   UNL A   1      32.967  23.546  25.396  1.00  0.00    -0.426 OA
ATOM     24  C   UNL A   1      32.622  23.285  22.514  1.00  0.00     0.035 C 
ATOM     25  C   UNL A   1      32.061  24.175  24.600  1.00  0.00     0.315 C 
ATOM     26  C   UNL A   1      33.534  23.314  21.291  1.00  0.00     0.014 C 
ATOM     27  O   UNL A   1      30.856  24.085  24.762  1.00  0.00    -0.251 OA
ENDBRANCH  10  11
ENDBRANCH   7  10
ENDBRANCH   5   6
BRANCH   5  28
ATOM     28  C   UNL A   1      31.631  29.706  24.631  1.00  0.00     0.070 C 
BRANCH  28  29
ATOM     29  C   UNL A   1      30.158  29.577  24.223  1.00  0.00    -0.037 C 
ATOM     30  C   UNL A   1      29.558  30.566  23.545  1.00  0.00     0.001 A 
ATOM     31  C   UNL A   1      29.829  28.273  23.554  1.00  0.00     0.174 C 
ATOM     32  C   UNL A   1      28.332  31.269  23.876  1.00  0.00     0.010 A 
ATOM     33  C   UNL A   1      29.454  29.905  22.211  1.00  0.00     0.065 A 
ATOM     34  N   UNL A   1      29.676  28.631  22.133  1.00  0.00    -0.280 NA
ATOM     35  C   UNL A   1      27.657  31.845  22.860  1.00  0.00     0.001 A 
ATOM     36  C   UNL A   1      29.054  30.823  21.131  1.00  0.00     0.028 A 
ATOM     37  C   UNL A   1      28.179  31.777  21.497  1.00  0.00     0.002 A 
ENDBRANCH  28  29
ENDBRANCH   5  28
ENDBRANCH   3   5
ENDBRANCH   2   3
ENDBRANCH   1   2
BRANCH   1  38
ATOM     38  C   UNL A   1      35.595  30.207  27.852  1.00  0.00     0.275 C 
BRANCH  38  39
ATOM     39  O   UNL A   1      36.446  29.262  28.504  1.00  0.00    -0.458 OA
BRANCH  39  40
ATOM     40  C   UNL A   1      36.667  29.504  29.828  1.00  0.00     0.338 C 
ATOM     41  O   UNL A   1      35.899  29.384  30.752  1.00  0.00    -0.246 OA
BRANCH  40  42
ATOM     42  C   UNL A   1      38.119  29.667  29.953  1.00  0.00     0.060 A 
ATOM     43  C   UNL A   1      38.687  30.932  29.887  1.00  0.00     0.016 A 
ATOM     44  C   UNL A   1      38.912  28.519  30.003  1.00  0.00     0.016 A 
ATOM     45  C   UNL A   1      40.067  31.040  29.865  1.00  0.00     0.010 A 
ATOM     46  C   UNL A   1      40.294  28.620  29.986  1.00  0.00     0.010 A 
ATOM     47  C   UNL A   1      40.871  29.886  29.912  1.00  0.00    -0.014 A 
BRANCH  47  48
ATOM     48  C   UNL A   1      42.322  30.080  29.870  1.00  0.00     0.031 A 
ATOM     49  C   UNL A   1      43.092  29.639  31.076  1.00  0.00     0.074 A 
ATOM     50  C   UNL A   1      42.915  30.002  28.663  1.00  0.00     0.049 A 
ATOM     51  N   UNL A   1      43.526  28.433  31.292  1.00  0.00    -0.248 NA
ATOM     52  C   UNL A   1      43.206  30.524  32.237  1.00  0.00     0.031 C 
ATOM     53  C   UNL A   1      42.615  28.992  27.643  1.00  0.00     0.029 A 
ATOM     54  N   UNL A   1      44.000  30.684  28.178  1.00  0.00    -0.354 N 
ATOM     55  C   UNL A   1      43.974  28.389  32.605  1.00  0.00     0.074 A 
ATOM     56  C   UNL A   1      43.746  29.706  33.152  1.00  0.00     0.031 C 
ATOM     57  C   UNL A   1      43.603  29.007  26.726  1.00  0.00     0.029 A 
ATOM     58  C   UNL A   1      44.526  30.096  27.030  1.00  0.00     0.049 A 
ATOM     59  H   UNL A   1      44.366  31.497  28.594  1.00  0.00     0.167 HD
ATOM     60  C   UNL A   1      44.530  27.290  33.180  1.00  0.00     0.037 A 
ATOM     61  C   UNL A   1      45.849  30.134  26.713  1.00  0.00     0.037 A 
ATOM     62  C   UNL A   1      44.669  26.145  32.333  1.00  0.00     0.049 A 
ATOM     63  C   UNL A   1      46.369  29.069  27.655  1.00  0.00     0.074 A 
ATOM     64  C   UNL A   1      43.977  24.983  32.068  1.00  0.00     0.029 A 
ATOM     65  N   UNL A   1      45.749  26.113  31.481  1.00  0.00    -0.354 N 
ATOM     66  N   UNL A   1      46.295  27.775  27.472  1.00  0.00    -0.248 NA
ATOM     67  C   UNL A   1      46.636  29.468  29.040  1.00  0.00     0.031 C 
ATOM     68  C   UNL A   1      44.426  24.560  30.778  1.00  0.00     0.029 A 
ATOM     69  C   UNL A   1      45.326  25.521  30.319  1.00  0.00     0.049 A 
ATOM     70  H   UNL A   1      46.654  26.450  31.671  1.00  0.00     0.167 HD
ATOM     71  C   UNL A   1      46.216  27.221  28.753  1.00  0.00     0.074 A 
ATOM     72  C   UNL A   1      46.459  28.315  29.671  1.00  0.00     0.031 C 
ATOM     73  C   UNL A   1      45.773  25.955  29.012  1.00  0.00     0.037 A 
BRANCH  60  74
ATOM     74  C   UNL A   1      45.185  27.282  34.506  1.00  0.00     0.058 A 
ATOM     75  C   UNL A   1      44.400  26.945  35.621  1.00  0.00     0.135 A 
ATOM     76  C   UNL A   1      46.463  27.805  34.731  1.00  0.00     0.135 A 
ATOM     77  F   UNL A   1      43.167  26.439  35.444  1.00  0.00    -0.206 F 
ATOM     78  C   UNL A   1      44.836  27.179  36.916  1.00  0.00     0.059 A 
ATOM     79  C   UNL A   1      46.927  28.042  36.026  1.00  0.00     0.059 A 
ATOM     80  F   UNL A   1      47.250  28.140  33.697  1.00  0.00    -0.206 F 
ATOM     81  C   UNL A   1      46.090  27.755  37.109  1.00  0.00     0.060 A 
BRANCH  81  82
ATOM     82  S   UNL A   1      46.575  28.172  38.797  1.00  0.00     0.124 S 
ATOM     83  O   UNL A   1      45.283  28.415  39.429  1.00  0.00    -0.237 OA
ATOM     84  O   UNL A   1      47.271  26.961  39.221  1.00  0.00    -0.237 OA
ATOM     85  O   UNL A   1      47.422  29.349  38.628  1.00  0.00    -0.744 OA
ENDBRANCH  81  82
ENDBRANCH  60  74
BRANCH  61  86
ATOM     86  C   UNL A   1      46.400  31.526  26.607  1.00  0.00     0.058 A 
ATOM     87  C   UNL A   1      45.521  32.558  26.201  1.00  0.00     0.135 A 
ATOM     88  C   UNL A   1      47.704  31.922  26.931  1.00  0.00     0.135 A 
ATOM     89  F   UNL A   1      44.290  32.263  25.750  1.00  0.00    -0.206 F 
ATOM     90  C   UNL A   1      45.859  33.905  26.284  1.00  0.00     0.059 A 
ATOM     91  C   UNL A   1      48.063  33.267  27.042  1.00  0.00     0.059 A 
ATOM     92  F   UNL A   1      48.658  31.016  27.186  1.00  0.00    -0.206 F 
ATOM     93  C   UNL A   1      47.120  34.251  26.756  1.00  0.00     0.060 A 
BRANCH  93  94
ATOM     94  S   UNL A   1      47.471  35.996  27.051  1.00  0.00     0.124 S 
ATOM     95  O   UNL A   1      48.811  35.944  27.626  1.00  0.00    -0.237 OA
ATOM     96  O   UNL A   1      47.379  36.548  25.703  1.00  0.00    -0.237 OA
ATOM     97  O   UNL A   1      46.409  36.405  27.965  1.00  0.00    -0.744 OA
ENDBRANCH  93  94
ENDBRANCH  61  86
BRANCH  73  98
ATOM     98  C   UNL A   1      45.538  25.082  27.827  1.00  0.00     0.058 A 
ATOM     99  C   UNL A   1      46.591  24.337  27.282  1.00  0.00     0.135 A 
ATOM    100  C   UNL A   1      44.258  24.911  27.275  1.00  0.00     0.135 A 
ATOM    101  F   UNL A   1      47.834  24.453  27.779  1.00  0.00    -0.206 F 
ATOM    102  C   UNL A   1      46.377  23.427  26.253  1.00  0.00     0.059 A 
ATOM    103  C   UNL A   1      44.016  23.985  26.264  1.00  0.00     0.059 A 
ATOM    104  F   UNL A   1      43.211  25.614  27.739  1.00  0.00    -0.206 F 
ATOM    105  C   UNL A   1      45.083  23.242  25.763  1.00  0.00     0.060 A 
BRANCH 105 106
ATOM    106  S   UNL A   1      44.805  21.963  24.522  1.00  0.00     0.124 S 
ATOM    107  O   UNL A   1      46.014  21.154  24.640  1.00  0.00    -0.237 OA
ATOM    108  O   UNL A   1      43.575  21.333  24.995  1.00  0.00    -0.237 OA
ATOM    109  O   UNL A   1      44.673  22.712  23.275  1.00  0.00    -0.744 OA
ENDBRANCH 105 106
ENDBRANCH  73  98
ENDBRANCH  47  48
ENDBRANCH  40  42
ENDBRANCH  39  40
ENDBRANCH  38  39
ENDBRANCH   1  38
TORSDOF 19
ENDMDL
