MODEL 1
REMARK VINA RESULT:     -12.2      0.000      0.000
REMARK SMILES O=C(OCCOC(=O)[C@@H]1CCCN1S(=O)(=O)c1ccc2c3c(cccc13)C(=O)N2)c1ccc(-c2c3nc(c(-c4c(F)cc(S(=O)(=O)[O-])cc4F)c4ccc([nH]4)c(-c4c(F)cc(S(=O)(=O)[O-])cc4F)c4nc(c(-c5c(F)cc(S(=O)(=O)[O-])cc5F)c5ccc2[nH]5)C=C4)C=C3)cc1
REMARK SMILES IDX 4 1 3 2 2 3 1 4 30 5 31 6 95 7 32 8 94 9 33 10 34 11 35 12
REMARK SMILES IDX 88 13 36 14 93 15 87 16 89 17 37 18 92 19 86 20 85 21 38 23
REMARK SMILES IDX 72 24 51 25 71 26 52 27 55 28 70 29 90 30 53 31 54 32 69 34
REMARK SMILES IDX 91 35 56 36 39 37 40 38 49 39 41 40 42 41 48 42 50 43 43 44
REMARK SMILES IDX 44 45 45 46 46 47 47 48 73 49 74 50 83 51 75 52 76 53 82 54
REMARK SMILES IDX 84 55 77 56 78 57 79 58 80 59 81 60 57 61 58 62 67 63 59 64
REMARK SMILES IDX 60 65 66 66 68 67 61 68 62 69 63 70 64 71 65 72 5 73 6 74
REMARK SMILES IDX 7 75 8 76 9 77 10 78 13 79 11 80 12 81 14 82 15 83 16 84
REMARK SMILES IDX 17 85 18 86 26 87 19 88 21 89 25 90 20 91 22 92 24 93 29 94
REMARK SMILES IDX 23 95 27 96 28 98
REMARK H PARENT 89 22 55 33 29 97
REMARK Flexibility Score: inf
ROOT
ATOM      1  C   UNL A   1      32.311  30.239  26.834  1.00  0.00     0.275 C 
ENDROOT
BRANCH   1   2
ATOM      2  O   UNL A   1      33.741  30.268  26.950  1.00  0.00    -0.458 OA
BRANCH   2   3
ATOM      3  C   UNL A   1      34.499  30.794  27.936  1.00  0.00     0.338 C 
ATOM      4  O   UNL A   1      34.045  31.763  28.546  1.00  0.00    -0.246 OA
BRANCH   3   5
ATOM      5  C   UNL A   1      35.847  30.271  28.358  1.00  0.00     0.060 A 
ATOM      6  C   UNL A   1      36.235  29.861  29.642  1.00  0.00     0.016 A 
ATOM      7  C   UNL A   1      36.782  30.107  27.318  1.00  0.00     0.016 A 
ATOM      8  C   UNL A   1      37.470  29.249  29.876  1.00  0.00     0.010 A 
ATOM      9  C   UNL A   1      38.032  29.528  27.549  1.00  0.00     0.010 A 
ATOM     10  C   UNL A   1      38.381  29.103  28.835  1.00  0.00    -0.014 A 
BRANCH  10  11
ATOM     11  C   UNL A   1      39.792  28.777  29.118  1.00  0.00     0.031 A 
ATOM     12  C   UNL A   1      40.667  29.895  29.567  1.00  0.00     0.074 A 
ATOM     13  C   UNL A   1      40.285  27.537  28.976  1.00  0.00     0.049 A 
ATOM     14  N   UNL A   1      41.938  29.870  29.845  1.00  0.00    -0.248 NA
ATOM     15  C   UNL A   1      40.011  31.192  29.813  1.00  0.00     0.031 C 
ATOM     16  C   UNL A   1      39.483  26.342  28.789  1.00  0.00     0.029 A 
ATOM     17  N   UNL A   1      41.572  27.074  28.930  1.00  0.00    -0.354 N 
ATOM     18  C   UNL A   1      42.212  31.107  30.398  1.00  0.00     0.074 A 
ATOM     19  C   UNL A   1      41.003  31.897  30.327  1.00  0.00     0.031 C 
ATOM     20  C   UNL A   1      40.278  25.310  28.461  1.00  0.00     0.029 A 
ATOM     21  C   UNL A   1      41.658  25.768  28.499  1.00  0.00     0.049 A 
ATOM     22  H   UNL A   1      42.353  27.617  29.177  1.00  0.00     0.167 HD
ATOM     23  C   UNL A   1      43.368  31.518  30.962  1.00  0.00     0.037 A 
ATOM     24  C   UNL A   1      42.740  25.032  28.185  1.00  0.00     0.037 A 
ATOM     25  C   UNL A   1      44.577  30.746  30.904  1.00  0.00     0.049 A 
ATOM     26  C   UNL A   1      44.081  25.620  28.516  1.00  0.00     0.074 A 
ATOM     27  C   UNL A   1      45.843  31.093  31.330  1.00  0.00     0.029 A 
ATOM     28  N   UNL A   1      44.671  29.476  30.343  1.00  0.00    -0.354 N 
ATOM     29  N   UNL A   1      44.345  26.797  29.036  1.00  0.00    -0.248 NA
ATOM     30  C   UNL A   1      45.258  24.775  28.296  1.00  0.00     0.031 C 
ATOM     31  C   UNL A   1      46.715  30.060  30.966  1.00  0.00     0.029 A 
ATOM     32  C   UNL A   1      45.983  29.040  30.373  1.00  0.00     0.049 A 
ATOM     33  H   UNL A   1      43.914  28.963  29.978  1.00  0.00     0.167 HD
ATOM     34  C   UNL A   1      45.709  26.806  29.286  1.00  0.00     0.074 A 
ATOM     35  C   UNL A   1      46.219  25.528  28.818  1.00  0.00     0.031 C 
ATOM     36  C   UNL A   1      46.459  27.765  29.883  1.00  0.00     0.037 A 
BRANCH  23  37
ATOM     37  C   UNL A   1      43.338  32.862  31.621  1.00  0.00     0.058 A 
ATOM     38  C   UNL A   1      43.609  34.034  30.891  1.00  0.00     0.135 A 
ATOM     39  C   UNL A   1      43.132  32.979  33.001  1.00  0.00     0.135 A 
ATOM     40  F   UNL A   1      43.856  33.970  29.572  1.00  0.00    -0.206 F 
ATOM     41  C   UNL A   1      43.713  35.271  31.517  1.00  0.00     0.059 A 
ATOM     42  C   UNL A   1      43.207  34.211  33.644  1.00  0.00     0.059 A 
ATOM     43  F   UNL A   1      42.897  31.888  33.745  1.00  0.00    -0.206 F 
ATOM     44  C   UNL A   1      43.518  35.347  32.896  1.00  0.00     0.060 A 
BRANCH  44  45
ATOM     45  S   UNL A   1      43.712  36.949  33.702  1.00  0.00     0.124 S 
ATOM     46  O   UNL A   1      43.892  37.834  32.555  1.00  0.00    -0.237 OA
ATOM     47  O   UNL A   1      42.449  37.090  34.420  1.00  0.00    -0.237 OA
ATOM     48  O   UNL A   1      44.893  36.767  34.542  1.00  0.00    -0.744 OA
ENDBRANCH  44  45
ENDBRANCH  23  37
BRANCH  24  49
ATOM     49  C   UNL A   1      42.579  23.664  27.629  1.00  0.00     0.058 A 
ATOM     50  C   UNL A   1      42.589  23.437  26.246  1.00  0.00     0.135 A 
ATOM     51  C   UNL A   1      42.470  22.543  28.470  1.00  0.00     0.135 A 
ATOM     52  F   UNL A   1      42.689  24.474  25.401  1.00  0.00    -0.206 F 
ATOM     53  C   UNL A   1      42.500  22.153  25.715  1.00  0.00     0.059 A 
ATOM     54  C   UNL A   1      42.388  21.247  27.964  1.00  0.00     0.059 A 
ATOM     55  F   UNL A   1      42.464  22.701  29.804  1.00  0.00    -0.206 F 
ATOM     56  C   UNL A   1      42.408  21.062  26.582  1.00  0.00     0.060 A 
BRANCH  56  57
ATOM     57  S   UNL A   1      42.349  19.401  25.871  1.00  0.00     0.124 S 
ATOM     58  O   UNL A   1      43.211  19.544  24.704  1.00  0.00    -0.237 OA
ATOM     59  O   UNL A   1      42.879  18.588  26.961  1.00  0.00    -0.237 OA
ATOM     60  O   UNL A   1      40.930  19.206  25.584  1.00  0.00    -0.744 OA
ENDBRANCH  56  57
ENDBRANCH  24  49
BRANCH  36  61
ATOM     61  C   UNL A   1      47.911  27.458  30.095  1.00  0.00     0.058 A 
ATOM     62  C   UNL A   1      48.895  27.901  29.200  1.00  0.00     0.135 A 
ATOM     63  C   UNL A   1      48.324  26.780  31.253  1.00  0.00     0.135 A 
ATOM     64  F   UNL A   1      48.547  28.545  28.075  1.00  0.00    -0.206 F 
ATOM     65  C   UNL A   1      50.243  27.667  29.439  1.00  0.00     0.059 A 
ATOM     66  C   UNL A   1      49.669  26.566  31.529  1.00  0.00     0.059 A 
ATOM     67  F   UNL A   1      47.418  26.346  32.144  1.00  0.00    -0.206 F 
ATOM     68  C   UNL A   1      50.620  27.007  30.611  1.00  0.00     0.060 A 
BRANCH  68  69
ATOM     69  S   UNL A   1      52.378  26.761  30.931  1.00  0.00     0.124 S 
ATOM     70  O   UNL A   1      52.850  26.297  29.631  1.00  0.00    -0.237 OA
ATOM     71  O   UNL A   1      52.809  28.100  31.323  1.00  0.00    -0.237 OA
ATOM     72  O   UNL A   1      52.394  25.765  31.997  1.00  0.00    -0.744 OA
ENDBRANCH  68  69
ENDBRANCH  36  61
ENDBRANCH  10  11
ENDBRANCH   3   5
ENDBRANCH   2   3
ENDBRANCH   1   2
BRANCH   1  73
ATOM     73  C   UNL A   1      31.826  29.893  25.425  1.00  0.00     0.274 C 
BRANCH  73  74
ATOM     74  O   UNL A   1      32.113  28.526  25.082  1.00  0.00    -0.461 OA
BRANCH  74  75
ATOM     75  C   UNL A   1      31.344  27.926  24.124  1.00  0.00     0.324 C 
ATOM     76  O   UNL A   1      30.149  28.139  23.975  1.00  0.00    -0.250 OA
BRANCH  75  77
ATOM     77  C   UNL A   1      32.197  27.047  23.242  1.00  0.00     0.183 C 
ATOM     78  C   UNL A   1      31.435  26.510  22.032  1.00  0.00     0.034 C 
ATOM     79  N   UNL A   1      33.001  25.880  23.729  1.00  0.00    -0.184 NA
ATOM     80  C   UNL A   1      32.486  25.682  21.331  1.00  0.00     0.019 C 
ATOM     81  C   UNL A   1      33.308  25.086  22.463  1.00  0.00     0.103 C 
BRANCH  79  82
ATOM     82  S   UNL A   1      32.399  24.870  24.985  1.00  0.00     0.244 S 
ATOM     83  O   UNL A   1      32.764  25.508  26.233  1.00  0.00    -0.207 OA
ATOM     84  O   UNL A   1      31.008  24.608  24.690  1.00  0.00    -0.207 OA
BRANCH  82  85
ATOM     85  C   UNL A   1      33.264  23.301  24.921  1.00  0.00     0.090 A 
ATOM     86  C   UNL A   1      32.477  22.173  24.561  1.00  0.00     0.024 A 
ATOM     87  C   UNL A   1      34.692  23.167  25.027  1.00  0.00     0.005 A 
ATOM     88  C   UNL A   1      33.005  20.873  24.491  1.00  0.00     0.028 A 
ATOM     89  C   UNL A   1      35.140  21.872  24.976  1.00  0.00     0.019 A 
ATOM     90  C   UNL A   1      35.756  24.111  25.131  1.00  0.00     0.010 A 
ATOM     91  C   UNL A   1      34.347  20.764  24.768  1.00  0.00     0.050 A 
ATOM     92  C   UNL A   1      36.455  21.431  25.061  1.00  0.00     0.050 A 
ATOM     93  C   UNL A   1      37.114  23.707  25.148  1.00  0.00     0.002 A 
ATOM     94  N   UNL A   1      35.156  19.647  24.824  1.00  0.00    -0.321 N 
ATOM     95  C   UNL A   1      37.491  22.355  25.128  1.00  0.00     0.014 A 
ATOM     96  C   UNL A   1      36.504  19.981  25.007  1.00  0.00     0.256 C 
ATOM     97  H   UNL A   1      34.824  18.723  24.746  1.00  0.00     0.170 HD
ATOM     98  O   UNL A   1      37.408  19.170  25.081  1.00  0.00    -0.269 OA
ENDBRANCH  82  85
ENDBRANCH  79  82
ENDBRANCH  75  77
ENDBRANCH  74  75
ENDBRANCH  73  74
ENDBRANCH   1  73
TORSDOF 16
ENDMDL
MODEL 2
REMARK VINA RESULT:     -12.0      2.800      9.511
REMARK SMILES O=C(OCCOC(=O)[C@@H]1CCCN1S(=O)(=O)c1ccc2c3c(cccc13)C(=O)N2)c1ccc(-c2c3nc(c(-c4c(F)cc(S(=O)(=O)[O-])cc4F)c4ccc([nH]4)c(-c4c(F)cc(S(=O)(=O)[O-])cc4F)c4nc(c(-c5c(F)cc(S(=O)(=O)[O-])cc5F)c5ccc2[nH]5)C=C4)C=C3)cc1
REMARK SMILES IDX 4 1 3 2 2 3 1 4 30 5 31 6 95 7 32 8 94 9 33 10 34 11 35 12
REMARK SMILES IDX 88 13 36 14 93 15 87 16 89 17 37 18 92 19 86 20 85 21 38 23
REMARK SMILES IDX 72 24 51 25 71 26 52 27 55 28 70 29 90 30 53 31 54 32 69 34
REMARK SMILES IDX 91 35 56 36 39 37 40 38 49 39 41 40 42 41 48 42 50 43 43 44
REMARK SMILES IDX 44 45 45 46 46 47 47 48 73 49 74 50 83 51 75 52 76 53 82 54
REMARK SMILES IDX 84 55 77 56 78 57 79 58 80 59 81 60 57 61 58 62 67 63 59 64
REMARK SMILES IDX 60 65 66 66 68 67 61 68 62 69 63 70 64 71 65 72 5 73 6 74
REMARK SMILES IDX 7 75 8 76 9 77 10 78 13 79 11 80 12 81 14 82 15 83 16 84
REMARK SMILES IDX 17 85 18 86 26 87 19 88 21 89 25 90 20 91 22 92 24 93 29 94
REMARK SMILES IDX 23 95 27 96 28 98
REMARK H PARENT 89 22 55 33 29 97
REMARK Flexibility Score: inf
ROOT
ATOM      1  C   UNL A   1      37.502  21.290  25.050  1.00  0.00     0.275 C 
ENDROOT
BRANCH   1   2
ATOM      2  O   UNL A   1      38.022  22.523  25.568  1.00  0.00    -0.458 OA
BRANCH   2   3
ATOM      3  C   UNL A   1      39.231  22.766  26.120  1.00  0.00     0.338 C 
ATOM      4  O   UNL A   1      40.062  21.857  26.089  1.00  0.00    -0.246 OA
BRANCH   3   5
ATOM      5  C   UNL A   1      39.642  24.070  26.751  1.00  0.00     0.060 A 
ATOM      6  C   UNL A   1      40.499  25.041  26.212  1.00  0.00     0.016 A 
ATOM      7  C   UNL A   1      39.024  24.365  27.981  1.00  0.00     0.016 A 
ATOM      8  C   UNL A   1      40.684  26.282  26.828  1.00  0.00     0.010 A 
ATOM      9  C   UNL A   1      39.229  25.589  28.622  1.00  0.00     0.010 A 
ATOM     10  C   UNL A   1      40.069  26.550  28.047  1.00  0.00    -0.014 A 
BRANCH  10  11
ATOM     11  C   UNL A   1      40.506  27.695  28.868  1.00  0.00     0.031 A 
ATOM     12  C   UNL A   1      41.745  27.515  29.674  1.00  0.00     0.074 A 
ATOM     13  C   UNL A   1      39.828  28.852  28.906  1.00  0.00     0.049 A 
ATOM     14  N   UNL A   1      42.310  28.354  30.492  1.00  0.00    -0.248 NA
ATOM     15  C   UNL A   1      42.488  26.257  29.474  1.00  0.00     0.031 C 
ATOM     16  C   UNL A   1      38.767  29.222  27.988  1.00  0.00     0.029 A 
ATOM     17  N   UNL A   1      39.899  29.916  29.764  1.00  0.00    -0.354 N 
ATOM     18  C   UNL A   1      43.524  27.777  30.820  1.00  0.00     0.074 A 
ATOM     19  C   UNL A   1      43.574  26.474  30.196  1.00  0.00     0.031 C 
ATOM     20  C   UNL A   1      38.152  30.333  28.428  1.00  0.00     0.029 A 
ATOM     21  C   UNL A   1      38.844  30.792  29.624  1.00  0.00     0.049 A 
ATOM     22  H   UNL A   1      40.626  30.042  30.414  1.00  0.00     0.167 HD
ATOM     23  C   UNL A   1      44.525  28.324  31.541  1.00  0.00     0.037 A 
ATOM     24  C   UNL A   1      38.494  31.849  30.377  1.00  0.00     0.037 A 
ATOM     25  C   UNL A   1      44.388  29.570  32.241  1.00  0.00     0.049 A 
ATOM     26  C   UNL A   1      39.472  32.290  31.428  1.00  0.00     0.074 A 
ATOM     27  C   UNL A   1      45.280  30.180  33.100  1.00  0.00     0.029 A 
ATOM     28  N   UNL A   1      43.257  30.378  32.191  1.00  0.00    -0.354 N 
ATOM     29  N   UNL A   1      40.623  31.742  31.745  1.00  0.00    -0.248 NA
ATOM     30  C   UNL A   1      39.159  33.516  32.167  1.00  0.00     0.031 C 
ATOM     31  C   UNL A   1      44.660  31.322  33.620  1.00  0.00     0.029 A 
ATOM     32  C   UNL A   1      43.408  31.462  33.036  1.00  0.00     0.049 A 
ATOM     33  H   UNL A   1      42.464  30.203  31.633  1.00  0.00     0.167 HD
ATOM     34  C   UNL A   1      41.213  32.598  32.661  1.00  0.00     0.074 A 
ATOM     35  C   UNL A   1      40.269  33.682  32.876  1.00  0.00     0.031 C 
ATOM     36  C   UNL A   1      42.439  32.516  33.237  1.00  0.00     0.037 A 
BRANCH  23  37
ATOM     37  C   UNL A   1      45.794  27.531  31.614  1.00  0.00     0.058 A 
ATOM     38  C   UNL A   1      46.011  26.604  32.649  1.00  0.00     0.135 A 
ATOM     39  C   UNL A   1      46.835  27.760  30.706  1.00  0.00     0.135 A 
ATOM     40  F   UNL A   1      45.059  26.380  33.570  1.00  0.00    -0.206 F 
ATOM     41  C   UNL A   1      47.233  25.960  32.802  1.00  0.00     0.059 A 
ATOM     42  C   UNL A   1      48.058  27.107  30.826  1.00  0.00     0.059 A 
ATOM     43  F   UNL A   1      46.687  28.654  29.718  1.00  0.00    -0.206 F 
ATOM     44  C   UNL A   1      48.254  26.225  31.888  1.00  0.00     0.060 A 
BRANCH  44  45
ATOM     45  S   UNL A   1      49.852  25.424  32.132  1.00  0.00     0.124 S 
ATOM     46  O   UNL A   1      50.168  24.984  30.777  1.00  0.00    -0.237 OA
ATOM     47  O   UNL A   1      50.670  26.516  32.651  1.00  0.00    -0.237 OA
ATOM     48  O   UNL A   1      49.556  24.357  33.084  1.00  0.00    -0.744 OA
ENDBRANCH  44  45
ENDBRANCH  23  37
BRANCH  24  49
ATOM     49  C   UNL A   1      37.235  32.587  30.094  1.00  0.00     0.058 A 
ATOM     50  C   UNL A   1      37.229  33.725  29.277  1.00  0.00     0.135 A 
ATOM     51  C   UNL A   1      35.999  32.134  30.588  1.00  0.00     0.135 A 
ATOM     52  F   UNL A   1      38.383  34.197  28.782  1.00  0.00    -0.206 F 
ATOM     53  C   UNL A   1      36.048  34.388  28.955  1.00  0.00     0.059 A 
ATOM     54  C   UNL A   1      34.801  32.775  30.273  1.00  0.00     0.059 A 
ATOM     55  F   UNL A   1      35.945  31.043  31.368  1.00  0.00    -0.206 F 
ATOM     56  C   UNL A   1      34.836  33.902  29.452  1.00  0.00     0.060 A 
BRANCH  56  57
ATOM     57  S   UNL A   1      33.310  34.746  28.977  1.00  0.00     0.124 S 
ATOM     58  O   UNL A   1      33.823  35.950  28.333  1.00  0.00    -0.237 OA
ATOM     59  O   UNL A   1      32.686  33.766  28.094  1.00  0.00    -0.237 OA
ATOM     60  O   UNL A   1      32.629  34.957  30.252  1.00  0.00    -0.744 OA
ENDBRANCH  56  57
ENDBRANCH  24  49
BRANCH  36  61
ATOM     61  C   UNL A   1      42.845  33.645  34.135  1.00  0.00     0.058 A 
ATOM     62  C   UNL A   1      43.467  34.797  33.635  1.00  0.00     0.135 A 
ATOM     63  C   UNL A   1      42.530  33.602  35.504  1.00  0.00     0.135 A 
ATOM     64  F   UNL A   1      43.795  34.880  32.336  1.00  0.00    -0.206 F 
ATOM     65  C   UNL A   1      43.780  35.866  34.466  1.00  0.00     0.059 A 
ATOM     66  C   UNL A   1      42.803  34.673  36.346  1.00  0.00     0.059 A 
ATOM     67  F   UNL A   1      41.925  32.524  36.026  1.00  0.00    -0.206 F 
ATOM     68  C   UNL A   1      43.435  35.796  35.818  1.00  0.00     0.060 A 
BRANCH  68  69
ATOM     69  S   UNL A   1      43.800  37.216  36.870  1.00  0.00     0.124 S 
ATOM     70  O   UNL A   1      42.685  37.178  37.809  1.00  0.00    -0.237 OA
ATOM     71  O   UNL A   1      45.106  36.864  37.419  1.00  0.00    -0.237 OA
ATOM     72  O   UNL A   1      43.798  38.339  35.938  1.00  0.00    -0.744 OA
ENDBRANCH  68  69
ENDBRANCH  36  61
ENDBRANCH  10  11
ENDBRANCH   3   5
ENDBRANCH   2   3
ENDBRANCH   1   2
BRANCH   1  73
ATOM     73  C   UNL A   1      36.020  21.079  25.366  1.00  0.00     0.274 C 
BRANCH  73  74
ATOM     74  O   UNL A   1      35.334  22.327  25.566  1.00  0.00    -0.461 OA
BRANCH  74  75
ATOM     75  C   UNL A   1      33.983  22.295  25.775  1.00  0.00     0.324 C 
ATOM     76  O   UNL A   1      33.464  22.042  26.852  1.00  0.00    -0.250 OA
BRANCH  75  77
ATOM     77  C   UNL A   1      33.249  22.700  24.519  1.00  0.00     0.183 C 
ATOM     78  C   UNL A   1      34.158  22.743  23.292  1.00  0.00     0.034 C 
ATOM     79  N   UNL A   1      32.390  23.921  24.395  1.00  0.00    -0.184 NA
ATOM     80  C   UNL A   1      33.203  23.164  22.200  1.00  0.00     0.019 C 
ATOM     81  C   UNL A   1      32.245  24.123  22.889  1.00  0.00     0.103 C 
BRANCH  79  82
ATOM     82  S   UNL A   1      32.828  25.381  25.194  1.00  0.00     0.244 S 
ATOM     83  O   UNL A   1      32.112  25.389  26.452  1.00  0.00    -0.207 OA
ATOM     84  O   UNL A   1      34.273  25.451  25.186  1.00  0.00    -0.207 OA
BRANCH  82  85
ATOM     85  C   UNL A   1      32.221  26.765  24.231  1.00  0.00     0.090 A 
ATOM     86  C   UNL A   1      33.207  27.522  23.541  1.00  0.00     0.024 A 
ATOM     87  C   UNL A   1      30.827  27.020  23.983  1.00  0.00     0.005 A 
ATOM     88  C   UNL A   1      32.891  28.649  22.765  1.00  0.00     0.028 A 
ATOM     89  C   UNL A   1      30.586  28.147  23.241  1.00  0.00     0.019 A 
ATOM     90  C   UNL A   1      29.633  26.314  24.312  1.00  0.00     0.010 A 
ATOM     91  C   UNL A   1      31.553  28.961  22.692  1.00  0.00     0.050 A 
ATOM     92  C   UNL A   1      29.350  28.651  22.851  1.00  0.00     0.050 A 
ATOM     93  C   UNL A   1      28.359  26.754  23.873  1.00  0.00     0.002 A 
ATOM     94  N   UNL A   1      30.917  30.008  22.057  1.00  0.00    -0.321 N 
ATOM     95  C   UNL A   1      28.191  27.942  23.145  1.00  0.00     0.014 A 
ATOM     96  C   UNL A   1      29.522  29.888  22.111  1.00  0.00     0.256 C 
ATOM     97  H   UNL A   1      31.388  30.752  21.618  1.00  0.00     0.170 HD
ATOM     98  O   UNL A   1      28.745  30.684  21.617  1.00  0.00    -0.269 OA
ENDBRANCH  82  85
ENDBRANCH  79  82
ENDBRANCH  75  77
ENDBRANCH  74  75
ENDBRANCH  73  74
ENDBRANCH   1  73
TORSDOF 16
ENDMDL
MODEL 3
REMARK VINA RESULT:     -12.0      2.749      9.450
REMARK SMILES O=C(OCCOC(=O)[C@@H]1CCCN1S(=O)(=O)c1ccc2c3c(cccc13)C(=O)N2)c1ccc(-c2c3nc(c(-c4c(F)cc(S(=O)(=O)[O-])cc4F)c4ccc([nH]4)c(-c4c(F)cc(S(=O)(=O)[O-])cc4F)c4nc(c(-c5c(F)cc(S(=O)(=O)[O-])cc5F)c5ccc2[nH]5)C=C4)C=C3)cc1
REMARK SMILES IDX 4 1 3 2 2 3 1 4 30 5 31 6 95 7 32 8 94 9 33 10 34 11 35 12
REMARK SMILES IDX 88 13 36 14 93 15 87 16 89 17 37 18 92 19 86 20 85 21 38 23
REMARK SMILES IDX 72 24 51 25 71 26 52 27 55 28 70 29 90 30 53 31 54 32 69 34
REMARK SMILES IDX 91 35 56 36 39 37 40 38 49 39 41 40 42 41 48 42 50 43 43 44
REMARK SMILES IDX 44 45 45 46 46 47 47 48 73 49 74 50 83 51 75 52 76 53 82 54
REMARK SMILES IDX 84 55 77 56 78 57 79 58 80 59 81 60 57 61 58 62 67 63 59 64
REMARK SMILES IDX 60 65 66 66 68 67 61 68 62 69 63 70 64 71 65 72 5 73 6 74
REMARK SMILES IDX 7 75 8 76 9 77 10 78 13 79 11 80 12 81 14 82 15 83 16 84
REMARK SMILES IDX 17 85 18 86 26 87 19 88 21 89 25 90 20 91 22 92 24 93 29 94
REMARK SMILES IDX 23 95 27 96 28 98
REMARK H PARENT 89 22 55 33 29 97
REMARK Flexibility Score: inf
ROOT
ATOM      1  C   UNL A   1      37.354  21.384  25.052  1.00  0.00     0.275 C 
ENDROOT
BRANCH   1   2
ATOM      2  O   UNL A   1      37.878  22.614  25.574  1.00  0.00    -0.458 OA
BRANCH   2   3
ATOM      3  C   UNL A   1      39.088  22.851  26.124  1.00  0.00     0.338 C 
ATOM      4  O   UNL A   1      39.907  21.931  26.113  1.00  0.00    -0.246 OA
BRANCH   3   5
ATOM      5  C   UNL A   1      39.516  24.162  26.729  1.00  0.00     0.060 A 
ATOM      6  C   UNL A   1      40.317  25.150  26.137  1.00  0.00     0.016 A 
ATOM      7  C   UNL A   1      38.975  24.445  27.998  1.00  0.00     0.016 A 
ATOM      8  C   UNL A   1      40.519  26.394  26.743  1.00  0.00     0.010 A 
ATOM      9  C   UNL A   1      39.199  25.671  28.627  1.00  0.00     0.010 A 
ATOM     10  C   UNL A   1      39.980  26.648  28.000  1.00  0.00    -0.014 A 
BRANCH  10  11
ATOM     11  C   UNL A   1      40.449  27.801  28.793  1.00  0.00     0.031 A 
ATOM     12  C   UNL A   1      41.720  27.628  29.551  1.00  0.00     0.074 A 
ATOM     13  C   UNL A   1      39.773  28.958  28.848  1.00  0.00     0.049 A 
ATOM     14  N   UNL A   1      42.316  28.474  30.339  1.00  0.00    -0.248 NA
ATOM     15  C   UNL A   1      42.454  26.369  29.332  1.00  0.00     0.031 C 
ATOM     16  C   UNL A   1      38.675  29.320  27.970  1.00  0.00     0.029 A 
ATOM     17  N   UNL A   1      39.877  30.029  29.694  1.00  0.00    -0.354 N 
ATOM     18  C   UNL A   1      43.543  27.900  30.623  1.00  0.00     0.074 A 
ATOM     19  C   UNL A   1      43.568  26.592  30.009  1.00  0.00     0.031 C 
ATOM     20  C   UNL A   1      38.078  30.434  28.425  1.00  0.00     0.029 A 
ATOM     21  C   UNL A   1      38.817  30.904  29.587  1.00  0.00     0.049 A 
ATOM     22  H   UNL A   1      40.630  30.161  30.313  1.00  0.00     0.167 HD
ATOM     23  C   UNL A   1      44.571  28.454  31.299  1.00  0.00     0.037 A 
ATOM     24  C   UNL A   1      38.496  31.967  30.345  1.00  0.00     0.037 A 
ATOM     25  C   UNL A   1      44.461  29.706  31.993  1.00  0.00     0.049 A 
ATOM     26  C   UNL A   1      39.515  32.417  31.352  1.00  0.00     0.074 A 
ATOM     27  C   UNL A   1      45.386  30.323  32.811  1.00  0.00     0.029 A 
ATOM     28  N   UNL A   1      43.328  30.513  31.981  1.00  0.00    -0.354 N 
ATOM     29  N   UNL A   1      40.678  31.872  31.628  1.00  0.00    -0.248 NA
ATOM     30  C   UNL A   1      39.231  33.650  32.092  1.00  0.00     0.031 C 
ATOM     31  C   UNL A   1      44.787  31.469  33.345  1.00  0.00     0.029 A 
ATOM     32  C   UNL A   1      43.513  31.604  32.810  1.00  0.00     0.049 A 
ATOM     33  H   UNL A   1      42.514  30.333  31.457  1.00  0.00     0.167 HD
ATOM     34  C   UNL A   1      41.304  32.737  32.513  1.00  0.00     0.074 A 
ATOM     35  C   UNL A   1      40.368  33.822  32.755  1.00  0.00     0.031 C 
ATOM     36  C   UNL A   1      42.551  32.659  33.040  1.00  0.00     0.037 A 
BRANCH  23  37
ATOM     37  C   UNL A   1      45.842  27.662  31.328  1.00  0.00     0.058 A 
ATOM     38  C   UNL A   1      46.088  26.721  32.345  1.00  0.00     0.135 A 
ATOM     39  C   UNL A   1      46.859  27.904  30.396  1.00  0.00     0.135 A 
ATOM     40  F   UNL A   1      45.160  26.484  33.288  1.00  0.00    -0.206 F 
ATOM     41  C   UNL A   1      47.314  26.077  32.457  1.00  0.00     0.059 A 
ATOM     42  C   UNL A   1      48.086  27.252  30.475  1.00  0.00     0.059 A 
ATOM     43  F   UNL A   1      46.684  28.811  29.424  1.00  0.00    -0.206 F 
ATOM     44  C   UNL A   1      48.310  26.355  31.521  1.00  0.00     0.060 A 
BRANCH  44  45
ATOM     45  S   UNL A   1      49.915  25.554  31.713  1.00  0.00     0.124 S 
ATOM     46  O   UNL A   1      49.628  24.570  32.752  1.00  0.00    -0.237 OA
ATOM     47  O   UNL A   1      50.153  25.015  30.377  1.00  0.00    -0.237 OA
ATOM     48  O   UNL A   1      50.796  26.648  32.112  1.00  0.00    -0.744 OA
ENDBRANCH  44  45
ENDBRANCH  23  37
BRANCH  24  49
ATOM     49  C   UNL A   1      37.227  32.702  30.106  1.00  0.00     0.058 A 
ATOM     50  C   UNL A   1      37.180  33.810  29.249  1.00  0.00     0.135 A 
ATOM     51  C   UNL A   1      36.018  32.275  30.683  1.00  0.00     0.135 A 
ATOM     52  F   UNL A   1      38.307  34.257  28.675  1.00  0.00    -0.206 F 
ATOM     53  C   UNL A   1      35.985  34.469  28.970  1.00  0.00     0.059 A 
ATOM     54  C   UNL A   1      34.808  32.912  30.413  1.00  0.00     0.059 A 
ATOM     55  F   UNL A   1      36.003  31.213  31.505  1.00  0.00    -0.206 F 
ATOM     56  C   UNL A   1      34.802  34.008  29.551  1.00  0.00     0.060 A 
BRANCH  56  57
ATOM     57  S   UNL A   1      33.255  34.844  29.131  1.00  0.00     0.124 S 
ATOM     58  O   UNL A   1      33.737  36.117  28.607  1.00  0.00    -0.237 OA
ATOM     59  O   UNL A   1      32.674  33.930  28.154  1.00  0.00    -0.237 OA
ATOM     60  O   UNL A   1      32.552  34.917  30.409  1.00  0.00    -0.744 OA
ENDBRANCH  56  57
ENDBRANCH  24  49
BRANCH  36  61
ATOM     61  C   UNL A   1      42.992  33.797  33.912  1.00  0.00     0.058 A 
ATOM     62  C   UNL A   1      43.520  34.977  33.371  1.00  0.00     0.135 A 
ATOM     63  C   UNL A   1      42.806  33.729  35.302  1.00  0.00     0.135 A 
ATOM     64  F   UNL A   1      43.724  35.085  32.049  1.00  0.00    -0.206 F 
ATOM     65  C   UNL A   1      43.864  36.051  34.183  1.00  0.00     0.059 A 
ATOM     66  C   UNL A   1      43.111  34.802  36.130  1.00  0.00     0.059 A 
ATOM     67  F   UNL A   1      42.294  32.622  35.864  1.00  0.00    -0.206 F 
ATOM     68  C   UNL A   1      43.647  35.956  35.560  1.00  0.00     0.060 A 
BRANCH  68  69
ATOM     69  S   UNL A   1      44.049  37.380  36.592  1.00  0.00     0.124 S 
ATOM     70  O   UNL A   1      45.352  36.996  37.125  1.00  0.00    -0.237 OA
ATOM     71  O   UNL A   1      44.055  38.471  35.623  1.00  0.00    -0.237 OA
ATOM     72  O   UNL A   1      42.959  37.415  37.562  1.00  0.00    -0.744 OA
ENDBRANCH  68  69
ENDBRANCH  36  61
ENDBRANCH  10  11
ENDBRANCH   3   5
ENDBRANCH   2   3
ENDBRANCH   1   2
BRANCH   1  73
ATOM     73  C   UNL A   1      35.913  21.108  25.485  1.00  0.00     0.274 C 
BRANCH  73  74
ATOM     74  O   UNL A   1      35.061  22.245  25.261  1.00  0.00    -0.461 OA
BRANCH  74  75
ATOM     75  C   UNL A   1      33.811  22.024  24.752  1.00  0.00     0.324 C 
ATOM     76  O   UNL A   1      33.578  21.277  23.813  1.00  0.00    -0.250 OA
BRANCH  75  77
ATOM     77  C   UNL A   1      32.776  22.760  25.568  1.00  0.00     0.183 C 
ATOM     78  C   UNL A   1      31.391  22.120  25.478  1.00  0.00     0.034 C 
ATOM     79  N   UNL A   1      32.516  24.232  25.482  1.00  0.00    -0.184 NA
ATOM     80  C   UNL A   1      30.562  23.023  26.360  1.00  0.00     0.019 C 
ATOM     81  C   UNL A   1      31.147  24.408  26.133  1.00  0.00     0.103 C 
BRANCH  79  82
ATOM     82  S   UNL A   1      32.613  25.048  23.970  1.00  0.00     0.244 S 
ATOM     83  O   UNL A   1      34.022  25.162  23.656  1.00  0.00    -0.207 OA
ATOM     84  O   UNL A   1      31.725  24.360  23.060  1.00  0.00    -0.207 OA
BRANCH  82  85
ATOM     85  C   UNL A   1      31.981  26.713  24.177  1.00  0.00     0.090 A 
ATOM     86  C   UNL A   1      30.878  27.066  23.352  1.00  0.00     0.024 A 
ATOM     87  C   UNL A   1      32.398  27.605  25.226  1.00  0.00     0.005 A 
ATOM     88  C   UNL A   1      30.288  28.340  23.381  1.00  0.00     0.028 A 
ATOM     89  C   UNL A   1      31.804  28.839  25.183  1.00  0.00     0.019 A 
ATOM     90  C   UNL A   1      33.277  27.458  26.339  1.00  0.00     0.010 A 
ATOM     91  C   UNL A   1      30.832  29.223  24.284  1.00  0.00     0.050 A 
ATOM     92  C   UNL A   1      32.011  29.906  26.050  1.00  0.00     0.050 A 
ATOM     93  C   UNL A   1      33.461  28.496  27.288  1.00  0.00     0.002 A 
ATOM     94  N   UNL A   1      30.518  30.544  24.536  1.00  0.00    -0.321 N 
ATOM     95  C   UNL A   1      32.841  29.748  27.153  1.00  0.00     0.014 A 
ATOM     96  C   UNL A   1      31.220  31.052  25.637  1.00  0.00     0.256 C 
ATOM     97  H   UNL A   1      29.877  31.068  24.003  1.00  0.00     0.170 HD
ATOM     98  O   UNL A   1      31.109  32.188  26.057  1.00  0.00    -0.269 OA
ENDBRANCH  82  85
ENDBRANCH  79  82
ENDBRANCH  75  77
ENDBRANCH  74  75
ENDBRANCH  73  74
ENDBRANCH   1  73
TORSDOF 16
ENDMDL
