MODEL 1
REMARK VINA RESULT:     -10.5      0.000      0.000
REMARK SMILES CC[C@@H]1CCC[C@@](CC[NH+]2CCOCC2)(C(=O)OCCOC(=O)c2ccc(-c3c4nc(c(-c5c(F)cc(S(=O)(=O)[O-])cc5F)c5ccc([nH]5)c(-c5c(F)cc(S(=O)(=O)[O-])cc5F)c5nc(c(-c6c(F)cc(S(=O)(=O)[O-])cc6F)c6ccc3[nH]6)C=C5)C=C4)cc2)C1
REMARK SMILES IDX 19 1 18 2 16 3 17 4 7 5 3 6 4 7 90 8 5 9 6 10 2 11 1 12 8 13
REMARK SMILES IDX 9 14 10 15 11 16 15 17 12 19 14 20 13 21 20 22 21 23 22 24
REMARK SMILES IDX 23 25 24 26 25 27 89 28 26 29 88 30 27 31 28 32 29 33 82 34
REMARK SMILES IDX 30 35 87 36 81 37 83 38 31 39 86 40 80 41 79 42 32 44 66 45
REMARK SMILES IDX 45 46 65 47 46 48 49 49 64 50 84 51 47 52 48 53 63 55 85 56
REMARK SMILES IDX 50 57 33 58 34 59 43 60 35 61 36 62 42 63 44 64 37 65 38 66
REMARK SMILES IDX 39 67 40 68 41 69 67 70 68 71 77 72 69 73 70 74 76 75 78 76
REMARK SMILES IDX 71 77 72 78 73 79 74 80 75 81 51 82 52 83 61 84 53 85 54 86
REMARK SMILES IDX 60 87 62 88 55 89 56 90 57 91 58 92 59 93
REMARK H PARENT 10 18 83 43 49 54
REMARK Flexibility Score: inf
ROOT
ATOM      1  C   UNL A   1      36.313  33.789  29.206  1.00  0.00     0.274 C 
ENDROOT
BRANCH   1   2
ATOM      2  O   UNL A   1      36.571  33.006  30.388  1.00  0.00    -0.462 OA
BRANCH   2   3
ATOM      3  C   UNL A   1      37.369  33.579  31.334  1.00  0.00     0.312 C 
ATOM      4  O   UNL A   1      38.377  34.231  31.086  1.00  0.00    -0.252 OA
BRANCH   3   5
ATOM      5  C   UNL A   1      36.927  33.231  32.766  1.00  0.00     0.074 C 
ATOM      6  C   UNL A   1      38.188  30.959  32.943  1.00  0.00    -0.010 C 
ATOM      7  C   UNL A   1      39.123  31.571  33.993  1.00  0.00     0.003 C 
ATOM      8  C   UNL A   1      36.839  31.684  32.929  1.00  0.00     0.022 C 
ATOM      9  C   UNL A   1      39.254  33.083  33.832  1.00  0.00     0.001 C 
ATOM     10  C   UNL A   1      37.889  33.783  33.842  1.00  0.00     0.019 C 
BRANCH   6  11
ATOM     11  C   UNL A   1      38.060  29.437  33.172  1.00  0.00     0.000 C 
ATOM     12  C   UNL A   1      39.281  28.615  32.779  1.00  0.00     0.004 C 
ENDBRANCH   6  11
BRANCH   5  13
ATOM     13  C   UNL A   1      35.471  33.752  32.975  1.00  0.00     0.080 C 
BRANCH  13  14
ATOM     14  C   UNL A   1      35.231  35.250  33.228  1.00  0.00     0.263 C 
BRANCH  14  15
ATOM     15  N   UNL A   1      33.839  35.699  33.376  1.00  0.00    -0.331 N 
ATOM     16  C   UNL A   1      33.021  35.302  32.207  1.00  0.00     0.291 C 
ATOM     17  C   UNL A   1      33.653  37.153  33.587  1.00  0.00     0.291 C 
ATOM     18  H   UNL A   1      33.534  35.232  34.230  1.00  0.00     0.348 HD
ATOM     19  C   UNL A   1      33.226  36.197  30.969  1.00  0.00     0.221 C 
ATOM     20  C   UNL A   1      33.841  38.014  32.332  1.00  0.00     0.221 C 
ATOM     21  O   UNL A   1      32.986  37.576  31.269  1.00  0.00    -0.370 OA
ENDBRANCH  14  15
ENDBRANCH  13  14
ENDBRANCH   5  13
ENDBRANCH   3   5
ENDBRANCH   2   3
ENDBRANCH   1   2
BRANCH   1  22
ATOM     22  C   UNL A   1      35.028  33.341  28.519  1.00  0.00     0.275 C 
BRANCH  22  23
ATOM     23  O   UNL A   1      34.585  32.123  29.131  1.00  0.00    -0.458 OA
BRANCH  23  24
ATOM     24  C   UNL A   1      34.545  31.030  28.337  1.00  0.00     0.338 C 
ATOM     25  O   UNL A   1      33.612  30.678  27.634  1.00  0.00    -0.246 OA
BRANCH  24  26
ATOM     26  C   UNL A   1      35.844  30.316  28.407  1.00  0.00     0.060 A 
ATOM     27  C   UNL A   1      36.243  29.664  29.573  1.00  0.00     0.016 A 
ATOM     28  C   UNL A   1      36.728  30.382  27.330  1.00  0.00     0.016 A 
ATOM     29  C   UNL A   1      37.545  29.193  29.709  1.00  0.00     0.010 A 
ATOM     30  C   UNL A   1      38.008  29.821  27.438  1.00  0.00     0.010 A 
ATOM     31  C   UNL A   1      38.455  29.265  28.650  1.00  0.00    -0.014 A 
BRANCH  31  32
ATOM     32  C   UNL A   1      39.883  28.862  28.831  1.00  0.00     0.031 A 
ATOM     33  C   UNL A   1      40.857  29.845  29.428  1.00  0.00     0.074 A 
ATOM     34  C   UNL A   1      40.328  27.626  28.522  1.00  0.00     0.049 A 
ATOM     35  N   UNL A   1      42.164  29.853  29.379  1.00  0.00    -0.248 NA
ATOM     36  C   UNL A   1      40.279  30.980  30.167  1.00  0.00     0.031 C 
ATOM     37  C   UNL A   1      39.508  26.511  28.049  1.00  0.00     0.029 A 
ATOM     38  N   UNL A   1      41.597  27.097  28.577  1.00  0.00    -0.354 N 
ATOM     39  C   UNL A   1      42.558  31.041  29.983  1.00  0.00     0.074 A 
ATOM     40  C   UNL A   1      41.354  31.711  30.428  1.00  0.00     0.031 C 
ATOM     41  C   UNL A   1      40.278  25.419  27.918  1.00  0.00     0.029 A 
ATOM     42  C   UNL A   1      41.667  25.786  28.164  1.00  0.00     0.049 A 
ATOM     43  H   UNL A   1      42.382  27.608  28.883  1.00  0.00     0.167 HD
ATOM     44  C   UNL A   1      43.812  31.537  30.127  1.00  0.00     0.037 A 
ATOM     45  C   UNL A   1      42.728  24.987  27.936  1.00  0.00     0.037 A 
ATOM     46  C   UNL A   1      45.005  30.821  29.757  1.00  0.00     0.049 A 
ATOM     47  C   UNL A   1      44.114  25.552  28.075  1.00  0.00     0.074 A 
ATOM     48  C   UNL A   1      46.321  31.245  29.813  1.00  0.00     0.029 A 
ATOM     49  N   UNL A   1      45.025  29.512  29.297  1.00  0.00    -0.354 N 
ATOM     50  N   UNL A   1      44.479  26.750  28.467  1.00  0.00    -0.248 NA
ATOM     51  C   UNL A   1      45.230  24.677  27.693  1.00  0.00     0.031 C 
ATOM     52  C   UNL A   1      47.137  30.195  29.370  1.00  0.00     0.029 A 
ATOM     53  C   UNL A   1      46.330  29.109  29.070  1.00  0.00     0.049 A 
ATOM     54  H   UNL A   1      44.229  28.953  29.154  1.00  0.00     0.167 HD
ATOM     55  C   UNL A   1      45.865  26.777  28.363  1.00  0.00     0.074 A 
ATOM     56  C   UNL A   1      46.275  25.467  27.902  1.00  0.00     0.031 C 
ATOM     57  C   UNL A   1      46.719  27.801  28.610  1.00  0.00     0.037 A 
BRANCH  44  58
ATOM     58  C   UNL A   1      43.945  32.943  30.637  1.00  0.00     0.058 A 
ATOM     59  C   UNL A   1      44.148  33.239  31.992  1.00  0.00     0.135 A 
ATOM     60  C   UNL A   1      43.863  34.019  29.736  1.00  0.00     0.135 A 
ATOM     61  F   UNL A   1      44.211  32.250  32.897  1.00  0.00    -0.206 F 
ATOM     62  C   UNL A   1      44.236  34.554  32.442  1.00  0.00     0.059 A 
ATOM     63  C   UNL A   1      43.969  35.339  30.160  1.00  0.00     0.059 A 
ATOM     64  F   UNL A   1      43.666  33.791  28.428  1.00  0.00    -0.206 F 
ATOM     65  C   UNL A   1      44.137  35.598  31.519  1.00  0.00     0.060 A 
BRANCH  65  66
ATOM     66  S   UNL A   1      44.229  37.300  32.112  1.00  0.00     0.124 S 
ATOM     67  O   UNL A   1      43.260  37.279  33.205  1.00  0.00    -0.237 OA
ATOM     68  O   UNL A   1      45.628  37.422  32.510  1.00  0.00    -0.237 OA
ATOM     69  O   UNL A   1      43.843  38.088  30.946  1.00  0.00    -0.744 OA
ENDBRANCH  65  66
ENDBRANCH  44  58
BRANCH  45  70
ATOM     70  C   UNL A   1      42.513  23.593  27.463  1.00  0.00     0.058 A 
ATOM     71  C   UNL A   1      42.472  23.293  26.095  1.00  0.00     0.135 A 
ATOM     72  C   UNL A   1      42.390  22.527  28.371  1.00  0.00     0.135 A 
ATOM     73  F   UNL A   1      42.563  24.278  25.188  1.00  0.00    -0.206 F 
ATOM     74  C   UNL A   1      42.333  21.984  25.641  1.00  0.00     0.059 A 
ATOM     75  C   UNL A   1      42.280  21.210  27.942  1.00  0.00     0.059 A 
ATOM     76  F   UNL A   1      42.426  22.763  29.691  1.00  0.00    -0.206 F 
ATOM     77  C   UNL A   1      42.249  20.948  26.573  1.00  0.00     0.060 A 
BRANCH  77  78
ATOM     78  S   UNL A   1      42.173  19.241  25.986  1.00  0.00     0.124 S 
ATOM     79  O   UNL A   1      40.743  19.073  25.758  1.00  0.00    -0.237 OA
ATOM     80  O   UNL A   1      43.010  19.284  24.790  1.00  0.00    -0.237 OA
ATOM     81  O   UNL A   1      42.732  18.482  27.101  1.00  0.00    -0.744 OA
ENDBRANCH  77  78
ENDBRANCH  45  70
BRANCH  57  82
ATOM     82  C   UNL A   1      48.180  27.541  28.397  1.00  0.00     0.058 A 
ATOM     83  C   UNL A   1      48.994  27.058  29.433  1.00  0.00     0.135 A 
ATOM     84  C   UNL A   1      48.762  27.727  27.133  1.00  0.00     0.135 A 
ATOM     85  F   UNL A   1      48.485  26.870  30.660  1.00  0.00    -0.206 F 
ATOM     86  C   UNL A   1      50.342  26.784  29.226  1.00  0.00     0.059 A 
ATOM     87  C   UNL A   1      50.103  27.443  26.900  1.00  0.00     0.059 A 
ATOM     88  F   UNL A   1      48.021  28.180  26.108  1.00  0.00    -0.206 F 
ATOM     89  C   UNL A   1      50.888  26.980  27.957  1.00  0.00     0.060 A 
BRANCH  89  90
ATOM     90  S   UNL A   1      52.630  26.589  27.689  1.00  0.00     0.124 S 
ATOM     91  O   UNL A   1      53.120  27.826  27.092  1.00  0.00    -0.237 OA
ATOM     92  O   UNL A   1      53.101  26.307  29.041  1.00  0.00    -0.237 OA
ATOM     93  O   UNL A   1      52.584  25.436  26.796  1.00  0.00    -0.744 OA
ENDBRANCH  89  90
ENDBRANCH  57  82
ENDBRANCH  31  32
ENDBRANCH  24  26
ENDBRANCH  23  24
ENDBRANCH  22  23
ENDBRANCH   1  22
TORSDOF 18
ENDMDL
MODEL 2
REMARK VINA RESULT:      -9.8      3.693      5.838
REMARK SMILES CC[C@@H]1CCC[C@@](CC[NH+]2CCOCC2)(C(=O)OCCOC(=O)c2ccc(-c3c4nc(c(-c5c(F)cc(S(=O)(=O)[O-])cc5F)c5ccc([nH]5)c(-c5c(F)cc(S(=O)(=O)[O-])cc5F)c5nc(c(-c6c(F)cc(S(=O)(=O)[O-])cc6F)c6ccc3[nH]6)C=C5)C=C4)cc2)C1
REMARK SMILES IDX 19 1 18 2 16 3 17 4 7 5 3 6 4 7 90 8 5 9 6 10 2 11 1 12 8 13
REMARK SMILES IDX 9 14 10 15 11 16 15 17 12 19 14 20 13 21 20 22 21 23 22 24
REMARK SMILES IDX 23 25 24 26 25 27 89 28 26 29 88 30 27 31 28 32 29 33 82 34
REMARK SMILES IDX 30 35 87 36 81 37 83 38 31 39 86 40 80 41 79 42 32 44 66 45
REMARK SMILES IDX 45 46 65 47 46 48 49 49 64 50 84 51 47 52 48 53 63 55 85 56
REMARK SMILES IDX 50 57 33 58 34 59 43 60 35 61 36 62 42 63 44 64 37 65 38 66
REMARK SMILES IDX 39 67 40 68 41 69 67 70 68 71 77 72 69 73 70 74 76 75 78 76
REMARK SMILES IDX 71 77 72 78 73 79 74 80 75 81 51 82 52 83 61 84 53 85 54 86
REMARK SMILES IDX 60 87 62 88 55 89 56 90 57 91 58 92 59 93
REMARK H PARENT 10 18 83 43 49 54
REMARK Flexibility Score: inf
ROOT
ATOM      1  C   UNL A   1      33.718  29.021  25.705  1.00  0.00     0.274 C 
ENDROOT
BRANCH   1   2
ATOM      2  O   UNL A   1      32.599  29.084  24.798  1.00  0.00    -0.462 OA
BRANCH   2   3
ATOM      3  C   UNL A   1      32.687  28.319  23.672  1.00  0.00     0.312 C 
ATOM      4  O   UNL A   1      33.602  28.387  22.859  1.00  0.00    -0.252 OA
BRANCH   3   5
ATOM      5  C   UNL A   1      31.452  27.424  23.471  1.00  0.00     0.074 C 
ATOM      6  C   UNL A   1      32.632  25.149  23.932  1.00  0.00    -0.010 C 
ATOM      7  C   UNL A   1      31.820  25.000  25.224  1.00  0.00     0.003 C 
ATOM      8  C   UNL A   1      31.892  26.034  22.924  1.00  0.00     0.022 C 
ATOM      9  C   UNL A   1      31.407  26.351  25.800  1.00  0.00     0.001 C 
ATOM     10  C   UNL A   1      30.651  27.206  24.775  1.00  0.00     0.019 C 
BRANCH   6  11
ATOM     11  C   UNL A   1      32.992  23.755  23.370  1.00  0.00     0.000 C 
ATOM     12  C   UNL A   1      31.970  22.659  23.647  1.00  0.00     0.004 C 
ENDBRANCH   6  11
BRANCH   5  13
ATOM     13  C   UNL A   1      30.565  28.048  22.350  1.00  0.00     0.080 C 
BRANCH  13  14
ATOM     14  C   UNL A   1      30.074  29.499  22.490  1.00  0.00     0.263 C 
BRANCH  14  15
ATOM     15  N   UNL A   1      28.757  29.828  21.926  1.00  0.00    -0.331 N 
ATOM     16  C   UNL A   1      28.798  31.106  21.179  1.00  0.00     0.291 C 
ATOM     17  C   UNL A   1      27.643  29.908  22.900  1.00  0.00     0.291 C 
ATOM     18  H   UNL A   1      28.562  29.035  21.314  1.00  0.00     0.348 HD
ATOM     19  C   UNL A   1      28.774  32.356  22.079  1.00  0.00     0.221 C 
ATOM     20  C   UNL A   1      27.635  31.173  23.764  1.00  0.00     0.221 C 
ATOM     21  O   UNL A   1      27.642  32.355  22.954  1.00  0.00    -0.370 OA
ENDBRANCH  14  15
ENDBRANCH  13  14
ENDBRANCH   5  13
ENDBRANCH   3   5
ENDBRANCH   2   3
ENDBRANCH   1   2
BRANCH   1  22
ATOM     22  C   UNL A   1      33.367  29.638  27.054  1.00  0.00     0.275 C 
BRANCH  22  23
ATOM     23  O   UNL A   1      34.028  30.905  27.162  1.00  0.00    -0.458 OA
BRANCH  23  24
ATOM     24  C   UNL A   1      34.627  31.173  28.344  1.00  0.00     0.338 C 
ATOM     25  O   UNL A   1      34.184  31.874  29.239  1.00  0.00    -0.246 OA
BRANCH  24  26
ATOM     26  C   UNL A   1      35.917  30.445  28.425  1.00  0.00     0.060 A 
ATOM     27  C   UNL A   1      36.339  29.861  29.619  1.00  0.00     0.016 A 
ATOM     28  C   UNL A   1      36.772  30.429  27.322  1.00  0.00     0.016 A 
ATOM     29  C   UNL A   1      37.638  29.379  29.749  1.00  0.00     0.010 A 
ATOM     30  C   UNL A   1      38.046  29.855  27.431  1.00  0.00     0.010 A 
ATOM     31  C   UNL A   1      38.519  29.369  28.664  1.00  0.00    -0.014 A 
BRANCH  31  32
ATOM     32  C   UNL A   1      39.945  28.956  28.831  1.00  0.00     0.031 A 
ATOM     33  C   UNL A   1      40.934  29.934  29.413  1.00  0.00     0.074 A 
ATOM     34  C   UNL A   1      40.377  27.715  28.524  1.00  0.00     0.049 A 
ATOM     35  N   UNL A   1      42.240  29.932  29.349  1.00  0.00    -0.248 NA
ATOM     36  C   UNL A   1      40.373  31.079  30.151  1.00  0.00     0.031 C 
ATOM     37  C   UNL A   1      39.543  26.604  28.067  1.00  0.00     0.029 A 
ATOM     38  N   UNL A   1      41.642  27.176  28.569  1.00  0.00    -0.354 N 
ATOM     39  C   UNL A   1      42.650  31.120  29.942  1.00  0.00     0.074 A 
ATOM     40  C   UNL A   1      41.457  31.802  30.396  1.00  0.00     0.031 C 
ATOM     41  C   UNL A   1      40.303  25.505  27.934  1.00  0.00     0.029 A 
ATOM     42  C   UNL A   1      41.697  25.862  28.162  1.00  0.00     0.049 A 
ATOM     43  H   UNL A   1      42.434  27.682  28.864  1.00  0.00     0.167 HD
ATOM     44  C   UNL A   1      43.910  31.606  30.070  1.00  0.00     0.037 A 
ATOM     45  C   UNL A   1      42.750  25.053  27.927  1.00  0.00     0.037 A 
ATOM     46  C   UNL A   1      45.093  30.879  29.690  1.00  0.00     0.049 A 
ATOM     47  C   UNL A   1      44.141  25.608  28.048  1.00  0.00     0.074 A 
ATOM     48  C   UNL A   1      46.413  31.292  29.729  1.00  0.00     0.029 A 
ATOM     49  N   UNL A   1      45.097  29.567  29.238  1.00  0.00    -0.354 N 
ATOM     50  N   UNL A   1      44.520  26.805  28.429  1.00  0.00    -0.248 NA
ATOM     51  C   UNL A   1      45.246  24.721  27.659  1.00  0.00     0.031 C 
ATOM     52  C   UNL A   1      47.215  30.233  29.284  1.00  0.00     0.029 A 
ATOM     53  C   UNL A   1      46.397  29.153  28.999  1.00  0.00     0.049 A 
ATOM     54  H   UNL A   1      44.295  29.013  29.107  1.00  0.00     0.167 HD
ATOM     55  C   UNL A   1      45.905  26.820  28.310  1.00  0.00     0.074 A 
ATOM     56  C   UNL A   1      46.299  25.504  27.852  1.00  0.00     0.031 C 
ATOM     57  C   UNL A   1      46.769  27.838  28.542  1.00  0.00     0.037 A 
BRANCH  44  58
ATOM     58  C   UNL A   1      44.059  33.014  30.570  1.00  0.00     0.058 A 
ATOM     59  C   UNL A   1      43.903  34.132  29.738  1.00  0.00     0.135 A 
ATOM     60  C   UNL A   1      44.370  33.242  31.922  1.00  0.00     0.135 A 
ATOM     61  F   UNL A   1      43.627  33.970  28.435  1.00  0.00    -0.206 F 
ATOM     62  C   UNL A   1      44.078  35.426  30.221  1.00  0.00     0.059 A 
ATOM     63  C   UNL A   1      44.529  34.526  32.431  1.00  0.00     0.059 A 
ATOM     64  F   UNL A   1      44.534  32.207  32.761  1.00  0.00    -0.206 F 
ATOM     65  C   UNL A   1      44.399  35.613  31.568  1.00  0.00     0.060 A 
BRANCH  65  66
ATOM     66  S   UNL A   1      44.649  37.292  32.182  1.00  0.00     0.124 S 
ATOM     67  O   UNL A   1      43.402  37.524  32.906  1.00  0.00    -0.237 OA
ATOM     68  O   UNL A   1      45.844  37.153  33.008  1.00  0.00    -0.237 OA
ATOM     69  O   UNL A   1      44.822  38.076  30.964  1.00  0.00    -0.744 OA
ENDBRANCH  65  66
ENDBRANCH  44  58
BRANCH  45  70
ATOM     70  C   UNL A   1      42.518  23.659  27.465  1.00  0.00     0.058 A 
ATOM     71  C   UNL A   1      42.508  23.343  26.099  1.00  0.00     0.135 A 
ATOM     72  C   UNL A   1      42.348  22.607  28.381  1.00  0.00     0.135 A 
ATOM     73  F   UNL A   1      42.643  24.315  25.185  1.00  0.00    -0.206 F 
ATOM     74  C   UNL A   1      42.354  22.032  25.656  1.00  0.00     0.059 A 
ATOM     75  C   UNL A   1      42.222  21.287  27.964  1.00  0.00     0.059 A 
ATOM     76  F   UNL A   1      42.354  22.857  29.699  1.00  0.00    -0.206 F 
ATOM     77  C   UNL A   1      42.223  21.009  26.598  1.00  0.00     0.060 A 
BRANCH  77  78
ATOM     78  S   UNL A   1      42.127  19.297  26.028  1.00  0.00     0.124 S 
ATOM     79  O   UNL A   1      42.558  18.569  27.216  1.00  0.00    -0.237 OA
ATOM     80  O   UNL A   1      40.717  19.164  25.673  1.00  0.00    -0.237 OA
ATOM     81  O   UNL A   1      43.052  19.272  24.898  1.00  0.00    -0.744 OA
ENDBRANCH  77  78
ENDBRANCH  45  70
BRANCH  57  82
ATOM     82  C   UNL A   1      48.226  27.565  28.314  1.00  0.00     0.058 A 
ATOM     83  C   UNL A   1      49.058  27.127  29.356  1.00  0.00     0.135 A 
ATOM     84  C   UNL A   1      48.786  27.694  27.033  1.00  0.00     0.135 A 
ATOM     85  F   UNL A   1      48.571  26.995  30.599  1.00  0.00    -0.206 F 
ATOM     86  C   UNL A   1      50.402  26.841  29.138  1.00  0.00     0.059 A 
ATOM     87  C   UNL A   1      50.122  27.396  26.789  1.00  0.00     0.059 A 
ATOM     88  F   UNL A   1      48.028  28.103  26.003  1.00  0.00    -0.206 F 
ATOM     89  C   UNL A   1      50.925  26.979  27.851  1.00  0.00     0.060 A 
BRANCH  89  90
ATOM     90  S   UNL A   1      52.661  26.571  27.570  1.00  0.00     0.124 S 
ATOM     91  O   UNL A   1      53.095  26.196  28.911  1.00  0.00    -0.237 OA
ATOM     92  O   UNL A   1      52.577  25.482  26.602  1.00  0.00    -0.237 OA
ATOM     93  O   UNL A   1      53.221  27.816  27.053  1.00  0.00    -0.744 OA
ENDBRANCH  89  90
ENDBRANCH  57  82
ENDBRANCH  31  32
ENDBRANCH  24  26
ENDBRANCH  23  24
ENDBRANCH  22  23
ENDBRANCH   1  22
TORSDOF 18
ENDMDL
MODEL 3
REMARK VINA RESULT:      -9.7      5.505     12.603
REMARK SMILES CC[C@@H]1CCC[C@@](CC[NH+]2CCOCC2)(C(=O)OCCOC(=O)c2ccc(-c3c4nc(c(-c5c(F)cc(S(=O)(=O)[O-])cc5F)c5ccc([nH]5)c(-c5c(F)cc(S(=O)(=O)[O-])cc5F)c5nc(c(-c6c(F)cc(S(=O)(=O)[O-])cc6F)c6ccc3[nH]6)C=C5)C=C4)cc2)C1
REMARK SMILES IDX 19 1 18 2 16 3 17 4 7 5 3 6 4 7 90 8 5 9 6 10 2 11 1 12 8 13
REMARK SMILES IDX 9 14 10 15 11 16 15 17 12 19 14 20 13 21 20 22 21 23 22 24
REMARK SMILES IDX 23 25 24 26 25 27 89 28 26 29 88 30 27 31 28 32 29 33 82 34
REMARK SMILES IDX 30 35 87 36 81 37 83 38 31 39 86 40 80 41 79 42 32 44 66 45
REMARK SMILES IDX 45 46 65 47 46 48 49 49 64 50 84 51 47 52 48 53 63 55 85 56
REMARK SMILES IDX 50 57 33 58 34 59 43 60 35 61 36 62 42 63 44 64 37 65 38 66
REMARK SMILES IDX 39 67 40 68 41 69 67 70 68 71 77 72 69 73 70 74 76 75 78 76
REMARK SMILES IDX 71 77 72 78 73 79 74 80 75 81 51 82 52 83 61 84 53 85 54 86
REMARK SMILES IDX 60 87 62 88 55 89 56 90 57 91 58 92 59 93
REMARK H PARENT 10 18 83 43 49 54
REMARK Flexibility Score: inf
ROOT
ATOM      1  C   UNL A   1      37.179  20.964  24.922  1.00  0.00     0.274 C 
ENDROOT
BRANCH   1   2
ATOM      2  O   UNL A   1      36.351  22.130  25.105  1.00  0.00    -0.462 OA
BRANCH   2   3
ATOM      3  C   UNL A   1      35.188  21.946  25.793  1.00  0.00     0.312 C 
ATOM      4  O   UNL A   1      35.095  21.972  27.015  1.00  0.00    -0.252 OA
BRANCH   3   5
ATOM      5  C   UNL A   1      34.008  21.596  24.871  1.00  0.00     0.074 C 
ATOM      6  C   UNL A   1      32.340  23.365  25.806  1.00  0.00    -0.010 C 
ATOM      7  C   UNL A   1      32.412  24.123  24.475  1.00  0.00     0.003 C 
ATOM      8  C   UNL A   1      32.663  21.881  25.604  1.00  0.00     0.022 C 
ATOM      9  C   UNL A   1      33.735  23.888  23.753  1.00  0.00     0.001 C 
ATOM     10  C   UNL A   1      34.023  22.396  23.548  1.00  0.00     0.019 C 
BRANCH   6  11
ATOM     11  C   UNL A   1      30.969  23.605  26.477  1.00  0.00     0.000 C 
ATOM     12  C   UNL A   1      30.294  24.923  26.122  1.00  0.00     0.004 C 
ENDBRANCH   6  11
BRANCH   5  13
ATOM     13  C   UNL A   1      34.020  20.058  24.613  1.00  0.00     0.080 C 
BRANCH  13  14
ATOM     14  C   UNL A   1      33.138  19.138  25.476  1.00  0.00     0.263 C 
BRANCH  14  15
ATOM     15  N   UNL A   1      32.368  18.093  24.785  1.00  0.00    -0.331 N 
ATOM     16  C   UNL A   1      32.448  16.803  25.508  1.00  0.00     0.291 C 
ATOM     17  C   UNL A   1      32.743  17.846  23.374  1.00  0.00     0.291 C 
ATOM     18  H   UNL A   1      31.419  18.469  24.781  1.00  0.00     0.348 HD
ATOM     19  C   UNL A   1      33.769  16.042  25.282  1.00  0.00     0.221 C 
ATOM     20  C   UNL A   1      34.049  17.067  23.183  1.00  0.00     0.221 C 
ATOM     21  O   UNL A   1      34.019  15.822  23.890  1.00  0.00    -0.370 OA
ENDBRANCH  14  15
ENDBRANCH  13  14
ENDBRANCH   5  13
ENDBRANCH   3   5
ENDBRANCH   2   3
ENDBRANCH   1   2
BRANCH   1  22
ATOM     22  C   UNL A   1      38.537  21.145  25.590  1.00  0.00     0.275 C 
BRANCH  22  23
ATOM     23  O   UNL A   1      38.741  22.543  25.838  1.00  0.00    -0.458 OA
BRANCH  23  24
ATOM     24  C   UNL A   1      39.995  22.917  26.176  1.00  0.00     0.338 C 
ATOM     25  O   UNL A   1      41.024  22.312  25.928  1.00  0.00    -0.246 OA
BRANCH  24  26
ATOM     26  C   UNL A   1      39.952  24.225  26.877  1.00  0.00     0.060 A 
ATOM     27  C   UNL A   1      40.707  25.307  26.427  1.00  0.00     0.016 A 
ATOM     28  C   UNL A   1      39.227  24.349  28.063  1.00  0.00     0.016 A 
ATOM     29  C   UNL A   1      40.837  26.451  27.208  1.00  0.00     0.010 A 
ATOM     30  C   UNL A   1      39.286  25.541  28.799  1.00  0.00     0.010 A 
ATOM     31  C   UNL A   1      40.136  26.592  28.408  1.00  0.00    -0.014 A 
BRANCH  31  32
ATOM     32  C   UNL A   1      40.360  27.770  29.300  1.00  0.00     0.031 A 
ATOM     33  C   UNL A   1      41.610  27.830  30.142  1.00  0.00     0.074 A 
ATOM     34  C   UNL A   1      39.506  28.813  29.346  1.00  0.00     0.049 A 
ATOM     35  N   UNL A   1      41.863  28.553  31.202  1.00  0.00    -0.248 NA
ATOM     36  C   UNL A   1      42.717  26.944  29.744  1.00  0.00     0.031 C 
ATOM     37  C   UNL A   1      38.313  28.984  28.517  1.00  0.00     0.029 A 
ATOM     38  N   UNL A   1      39.525  29.946  30.127  1.00  0.00    -0.354 N 
ATOM     39  C   UNL A   1      43.107  28.134  31.658  1.00  0.00     0.074 A 
ATOM     40  C   UNL A   1      43.577  27.122  30.737  1.00  0.00     0.031 C 
ATOM     41  C   UNL A   1      37.753  30.174  28.785  1.00  0.00     0.029 A 
ATOM     42  C   UNL A   1      38.463  30.791  29.899  1.00  0.00     0.049 A 
ATOM     43  H   UNL A   1      40.231  30.135  30.786  1.00  0.00     0.167 HD
ATOM     44  C   UNL A   1      43.780  28.543  32.762  1.00  0.00     0.037 A 
ATOM     45  C   UNL A   1      38.057  31.897  30.555  1.00  0.00     0.037 A 
ATOM     46  C   UNL A   1      43.339  29.610  33.622  1.00  0.00     0.049 A 
ATOM     47  C   UNL A   1      38.795  32.328  31.791  1.00  0.00     0.074 A 
ATOM     48  C   UNL A   1      43.915  30.074  34.791  1.00  0.00     0.029 A 
ATOM     49  N   UNL A   1      42.230  30.408  33.378  1.00  0.00    -0.354 N 
ATOM     50  N   UNL A   1      39.871  31.806  32.331  1.00  0.00    -0.248 NA
ATOM     51  C   UNL A   1      38.237  33.464  32.536  1.00  0.00     0.031 C 
ATOM     52  C   UNL A   1      43.143  31.143  35.264  1.00  0.00     0.029 A 
ATOM     53  C   UNL A   1      42.106  31.364  34.372  1.00  0.00     0.049 A 
ATOM     54  H   UNL A   1      41.622  30.309  32.612  1.00  0.00     0.167 HD
ATOM     55  C   UNL A   1      40.109  32.540  33.487  1.00  0.00     0.074 A 
ATOM     56  C   UNL A   1      39.084  33.561  33.552  1.00  0.00     0.031 C 
ATOM     57  C   UNL A   1      41.078  32.371  34.420  1.00  0.00     0.037 A 
BRANCH  44  58
ATOM     58  C   UNL A   1      45.018  27.780  33.138  1.00  0.00     0.058 A 
ATOM     59  C   UNL A   1      46.303  28.192  32.758  1.00  0.00     0.135 A 
ATOM     60  C   UNL A   1      44.904  26.603  33.899  1.00  0.00     0.135 A 
ATOM     61  F   UNL A   1      46.466  29.296  32.013  1.00  0.00    -0.206 F 
ATOM     62  C   UNL A   1      47.432  27.448  33.094  1.00  0.00     0.059 A 
ATOM     63  C   UNL A   1      46.019  25.856  34.263  1.00  0.00     0.059 A 
ATOM     64  F   UNL A   1      43.697  26.163  34.286  1.00  0.00    -0.206 F 
ATOM     65  C   UNL A   1      47.279  26.277  33.840  1.00  0.00     0.060 A 
BRANCH  65  66
ATOM     66  S   UNL A   1      48.744  25.306  34.251  1.00  0.00     0.124 S 
ATOM     67  O   UNL A   1      48.270  24.539  35.400  1.00  0.00    -0.237 OA
ATOM     68  O   UNL A   1      48.969  24.540  33.029  1.00  0.00    -0.237 OA
ATOM     69  O   UNL A   1      49.751  26.319  34.545  1.00  0.00    -0.744 OA
ENDBRANCH  65  66
ENDBRANCH  44  58
BRANCH  45  70
ATOM     70  C   UNL A   1      36.838  32.617  30.100  1.00  0.00     0.058 A 
ATOM     71  C   UNL A   1      35.586  32.351  30.672  1.00  0.00     0.135 A 
ATOM     72  C   UNL A   1      36.908  33.618  29.116  1.00  0.00     0.135 A 
ATOM     73  F   UNL A   1      35.463  31.389  31.600  1.00  0.00    -0.206 F 
ATOM     74  C   UNL A   1      34.449  33.062  30.299  1.00  0.00     0.059 A 
ATOM     75  C   UNL A   1      35.792  34.361  28.748  1.00  0.00     0.059 A 
ATOM     76  F   UNL A   1      38.083  33.913  28.540  1.00  0.00    -0.206 F 
ATOM     77  C   UNL A   1      34.565  34.073  29.343  1.00  0.00     0.060 A 
BRANCH  77  78
ATOM     78  S   UNL A   1      33.112  35.066  28.933  1.00  0.00     0.124 S 
ATOM     79  O   UNL A   1      33.726  36.276  28.399  1.00  0.00    -0.237 OA
ATOM     80  O   UNL A   1      32.419  34.221  27.965  1.00  0.00    -0.237 OA
ATOM     81  O   UNL A   1      32.436  35.211  30.219  1.00  0.00    -0.744 OA
ENDBRANCH  77  78
ENDBRANCH  45  70
BRANCH  57  82
ATOM     82  C   UNL A   1      41.081  33.318  35.583  1.00  0.00     0.058 A 
ATOM     83  C   UNL A   1      41.824  34.508  35.554  1.00  0.00     0.135 A 
ATOM     84  C   UNL A   1      40.296  33.059  36.717  1.00  0.00     0.135 A 
ATOM     85  F   UNL A   1      42.596  34.796  34.494  1.00  0.00    -0.206 F 
ATOM     86  C   UNL A   1      41.801  35.403  36.619  1.00  0.00     0.059 A 
ATOM     87  C   UNL A   1      40.243  33.948  37.785  1.00  0.00     0.059 A 
ATOM     88  F   UNL A   1      39.561  31.937  36.788  1.00  0.00    -0.206 F 
ATOM     89  C   UNL A   1      41.008  35.114  37.731  1.00  0.00     0.060 A 
BRANCH  89  90
ATOM     90  S   UNL A   1      40.956  36.297  39.093  1.00  0.00     0.124 S 
ATOM     91  O   UNL A   1      39.908  37.209  38.649  1.00  0.00    -0.237 OA
ATOM     92  O   UNL A   1      40.619  35.451  40.233  1.00  0.00    -0.237 OA
ATOM     93  O   UNL A   1      42.306  36.852  39.110  1.00  0.00    -0.744 OA
ENDBRANCH  89  90
ENDBRANCH  57  82
ENDBRANCH  31  32
ENDBRANCH  24  26
ENDBRANCH  23  24
ENDBRANCH  22  23
ENDBRANCH   1  22
TORSDOF 18
ENDMDL
