MODEL 1
REMARK VINA RESULT:      -9.2      0.000      0.000
REMARK SMILES C=C(C)C(=O)OCC[C@@H](C(C)=O)C(=O)OCCOC(=O)c1ccc(-c2c3nc(c(-c4c(F)cc(S(=O)(=O)[O-])cc4F)c4ccc([nH]4)c(-c4c(F)cc(S(=O)(=O)[O-])cc4F)c4nc(c(-c5c(F)cc(S(=O)(=O)[O-])cc5F)c5ccc2[nH]5)C=C4)C=C3)cc1
REMARK SMILES IDX 16 1 15 2 13 3 14 4 9 5 8 6 7 7 6 8 4 9 5 10 2 11 1 12 3 13
REMARK SMILES IDX 10 14 11 15 12 16 17 17 18 18 19 19 20 20 21 21 22 22 86 23
REMARK SMILES IDX 23 24 85 25 24 26 25 27 26 28 79 29 27 30 84 31 78 32 80 33
REMARK SMILES IDX 28 34 83 35 77 36 76 37 29 39 63 40 42 41 62 42 43 43 46 44
REMARK SMILES IDX 61 45 81 46 44 47 45 48 60 50 82 51 47 52 30 53 31 54 40 55
REMARK SMILES IDX 32 56 33 57 39 58 41 59 34 60 35 61 36 62 37 63 38 64 64 65
REMARK SMILES IDX 65 66 74 67 66 68 67 69 73 70 75 71 68 72 69 73 70 74 71 75
REMARK SMILES IDX 72 76 48 77 49 78 58 79 50 80 51 81 57 82 59 83 52 84 53 85
REMARK SMILES IDX 54 86 55 87 56 88
REMARK H PARENT 80 38 46 49
REMARK Flexibility Score: inf
ROOT
ATOM      1  C   UNL A   1      45.768  24.076  25.533  1.00  0.00     0.274 C 
ENDROOT
BRANCH   1   2
ATOM      2  O   UNL A   1      45.888  23.264  24.347  1.00  0.00    -0.462 OA
BRANCH   2   3
ATOM      3  C   UNL A   1      44.890  22.363  24.149  1.00  0.00     0.316 C 
ATOM      4  O   UNL A   1      43.984  22.498  23.335  1.00  0.00    -0.251 OA
BRANCH   3   5
ATOM      5  C   UNL A   1      44.938  21.206  25.118  1.00  0.00     0.169 C 
BRANCH   5   6
ATOM      6  C   UNL A   1      43.537  20.767  25.573  1.00  0.00     0.065 C 
BRANCH   6   7
ATOM      7  C   UNL A   1      42.927  21.680  26.642  1.00  0.00     0.234 C 
BRANCH   7   8
ATOM      8  O   UNL A   1      41.655  22.207  26.218  1.00  0.00    -0.462 OA
BRANCH   8   9
ATOM      9  C   UNL A   1      40.544  21.603  26.708  1.00  0.00     0.333 C 
ATOM     10  O   UNL A   1      40.522  20.545  27.320  1.00  0.00    -0.247 OA
BRANCH   9  11
ATOM     11  C   UNL A   1      39.349  22.448  26.445  1.00  0.00     0.027 C 
ATOM     12  C   UNL A   1      39.382  23.727  26.854  1.00  0.00     0.020 C 
ATOM     13  C   UNL A   1      38.163  21.840  25.762  1.00  0.00     0.051 C 
ENDBRANCH   9  11
ENDBRANCH   8   9
ENDBRANCH   7   8
ENDBRANCH   6   7
ENDBRANCH   5   6
BRANCH   5  14
ATOM     14  C   UNL A   1      45.754  20.059  24.547  1.00  0.00     0.144 C 
ATOM     15  C   UNL A   1      45.020  19.035  23.715  1.00  0.00     0.088 C 
ATOM     16  O   UNL A   1      46.971  19.964  24.718  1.00  0.00    -0.299 OA
ENDBRANCH   5  14
ENDBRANCH   3   5
ENDBRANCH   2   3
ENDBRANCH   1   2
BRANCH   1  17
ATOM     17  C   UNL A   1      44.790  25.240  25.355  1.00  0.00     0.275 C 
BRANCH  17  18
ATOM     18  O   UNL A   1      43.544  25.007  26.037  1.00  0.00    -0.458 OA
BRANCH  18  19
ATOM     19  C   UNL A   1      42.648  26.016  25.936  1.00  0.00     0.338 C 
ATOM     20  O   UNL A   1      41.883  26.228  25.009  1.00  0.00    -0.246 OA
BRANCH  19  21
ATOM     21  C   UNL A   1      42.605  26.784  27.190  1.00  0.00     0.060 A 
ATOM     22  C   UNL A   1      41.827  26.279  28.230  1.00  0.00     0.016 A 
ATOM     23  C   UNL A   1      43.215  28.035  27.306  1.00  0.00     0.016 A 
ATOM     24  C   UNL A   1      41.631  27.034  29.379  1.00  0.00     0.010 A 
ATOM     25  C   UNL A   1      43.022  28.790  28.473  1.00  0.00     0.010 A 
ATOM     26  C   UNL A   1      42.207  28.302  29.510  1.00  0.00    -0.014 A 
BRANCH  26  27
ATOM     27  C   UNL A   1      41.878  29.109  30.712  1.00  0.00     0.031 A 
ATOM     28  C   UNL A   1      40.657  29.987  30.719  1.00  0.00     0.074 A 
ATOM     29  C   UNL A   1      42.619  28.981  31.830  1.00  0.00     0.049 A 
ATOM     30  N   UNL A   1      40.201  30.762  31.670  1.00  0.00    -0.248 NA
ATOM     31  C   UNL A   1      39.836  29.988  29.498  1.00  0.00     0.031 C 
ATOM     32  C   UNL A   1      43.791  28.116  31.971  1.00  0.00     0.029 A 
ATOM     33  N   UNL A   1      42.486  29.567  33.065  1.00  0.00    -0.354 N 
ATOM     34  C   UNL A   1      39.056  31.359  31.159  1.00  0.00     0.074 A 
ATOM     35  C   UNL A   1      38.892  30.866  29.808  1.00  0.00     0.031 C 
ATOM     36  C   UNL A   1      44.265  28.220  33.224  1.00  0.00     0.029 A 
ATOM     37  C   UNL A   1      43.458  29.189  33.961  1.00  0.00     0.049 A 
ATOM     38  H   UNL A   1      41.763  30.196  33.287  1.00  0.00     0.167 HD
ATOM     39  C   UNL A   1      38.216  32.234  31.763  1.00  0.00     0.037 A 
ATOM     40  C   UNL A   1      43.687  29.595  35.225  1.00  0.00     0.037 A 
ATOM     41  C   UNL A   1      38.369  32.712  33.113  1.00  0.00     0.049 A 
ATOM     42  C   UNL A   1      42.769  30.606  35.854  1.00  0.00     0.074 A 
ATOM     43  C   UNL A   1      37.566  33.598  33.811  1.00  0.00     0.029 A 
ATOM     44  N   UNL A   1      39.394  32.345  33.973  1.00  0.00    -0.354 N 
ATOM     45  N   UNL A   1      41.700  31.175  35.351  1.00  0.00    -0.248 NA
ATOM     46  C   UNL A   1      43.090  31.032  37.224  1.00  0.00     0.031 C 
ATOM     47  C   UNL A   1      38.125  33.795  35.079  1.00  0.00     0.029 A 
ATOM     48  C   UNL A   1      39.253  32.997  35.187  1.00  0.00     0.049 A 
ATOM     49  H   UNL A   1      40.115  31.711  33.753  1.00  0.00     0.167 HD
ATOM     50  C   UNL A   1      41.214  32.017  36.344  1.00  0.00     0.074 A 
ATOM     51  C   UNL A   1      42.093  31.866  37.487  1.00  0.00     0.031 C 
ATOM     52  C   UNL A   1      40.138  32.843  36.314  1.00  0.00     0.037 A 
BRANCH  39  53
ATOM     53  C   UNL A   1      37.065  32.762  30.951  1.00  0.00     0.058 A 
ATOM     54  C   UNL A   1      37.228  33.805  30.025  1.00  0.00     0.135 A 
ATOM     55  C   UNL A   1      35.786  32.197  31.083  1.00  0.00     0.135 A 
ATOM     56  F   UNL A   1      38.426  34.391  29.872  1.00  0.00    -0.206 F 
ATOM     57  C   UNL A   1      36.158  34.285  29.276  1.00  0.00     0.059 A 
ATOM     58  C   UNL A   1      34.706  32.647  30.329  1.00  0.00     0.059 A 
ATOM     59  F   UNL A   1      35.576  31.200  31.957  1.00  0.00    -0.206 F 
ATOM     60  C   UNL A   1      34.900  33.702  29.438  1.00  0.00     0.060 A 
BRANCH  60  61
ATOM     61  S   UNL A   1      33.518  34.337  28.464  1.00  0.00     0.124 S 
ATOM     62  O   UNL A   1      32.605  34.780  29.513  1.00  0.00    -0.237 OA
ATOM     63  O   UNL A   1      34.146  35.397  27.682  1.00  0.00    -0.237 OA
ATOM     64  O   UNL A   1      33.079  33.174  27.700  1.00  0.00    -0.744 OA
ENDBRANCH  60  61
ENDBRANCH  39  53
BRANCH  40  65
ATOM     65  C   UNL A   1      44.856  29.059  35.974  1.00  0.00     0.058 A 
ATOM     66  C   UNL A   1      44.735  27.936  36.803  1.00  0.00     0.135 A 
ATOM     67  C   UNL A   1      46.118  29.664  35.868  1.00  0.00     0.135 A 
ATOM     68  F   UNL A   1      43.544  27.332  36.945  1.00  0.00    -0.206 F 
ATOM     69  C   UNL A   1      45.821  27.434  37.511  1.00  0.00     0.059 A 
ATOM     70  C   UNL A   1      47.226  29.165  36.546  1.00  0.00     0.059 A 
ATOM     71  F   UNL A   1      46.287  30.736  35.079  1.00  0.00    -0.206 F 
ATOM     72  C   UNL A   1      47.064  28.056  37.374  1.00  0.00     0.060 A 
BRANCH  72  73
ATOM     73  S   UNL A   1      48.484  27.368  38.255  1.00  0.00     0.124 S 
ATOM     74  O   UNL A   1      48.063  25.987  38.454  1.00  0.00    -0.237 OA
ATOM     75  O   UNL A   1      49.569  27.576  37.301  1.00  0.00    -0.237 OA
ATOM     76  O   UNL A   1      48.557  28.188  39.461  1.00  0.00    -0.744 OA
ENDBRANCH  72  73
ENDBRANCH  40  65
BRANCH  52  77
ATOM     77  C   UNL A   1      39.843  33.631  37.561  1.00  0.00     0.058 A 
ATOM     78  C   UNL A   1      40.483  34.851  37.829  1.00  0.00     0.135 A 
ATOM     79  C   UNL A   1      38.897  33.169  38.489  1.00  0.00     0.135 A 
ATOM     80  F   UNL A   1      41.401  35.335  36.977  1.00  0.00    -0.206 F 
ATOM     81  C   UNL A   1      40.220  35.569  38.991  1.00  0.00     0.059 A 
ATOM     82  C   UNL A   1      38.599  33.883  39.646  1.00  0.00     0.059 A 
ATOM     83  F   UNL A   1      38.248  32.014  38.275  1.00  0.00    -0.206 F 
ATOM     84  C   UNL A   1      39.280  35.074  39.897  1.00  0.00     0.060 A 
BRANCH  84  85
ATOM     85  S   UNL A   1      38.941  36.016  41.400  1.00  0.00     0.124 S 
ATOM     86  O   UNL A   1      37.649  35.469  41.803  1.00  0.00    -0.237 OA
ATOM     87  O   UNL A   1      40.072  35.666  42.254  1.00  0.00    -0.237 OA
ATOM     88  O   UNL A   1      38.920  37.399  40.934  1.00  0.00    -0.744 OA
ENDBRANCH  84  85
ENDBRANCH  52  77
ENDBRANCH  26  27
ENDBRANCH  19  21
ENDBRANCH  18  19
ENDBRANCH  17  18
ENDBRANCH   1  17
TORSDOF 20
ENDMDL
MODEL 2
REMARK VINA RESULT:      -8.9      4.935     10.847
REMARK SMILES C=C(C)C(=O)OCC[C@@H](C(C)=O)C(=O)OCCOC(=O)c1ccc(-c2c3nc(c(-c4c(F)cc(S(=O)(=O)[O-])cc4F)c4ccc([nH]4)c(-c4c(F)cc(S(=O)(=O)[O-])cc4F)c4nc(c(-c5c(F)cc(S(=O)(=O)[O-])cc5F)c5ccc2[nH]5)C=C4)C=C3)cc1
REMARK SMILES IDX 16 1 15 2 13 3 14 4 9 5 8 6 7 7 6 8 4 9 5 10 2 11 1 12 3 13
REMARK SMILES IDX 10 14 11 15 12 16 17 17 18 18 19 19 20 20 21 21 22 22 86 23
REMARK SMILES IDX 23 24 85 25 24 26 25 27 26 28 79 29 27 30 84 31 78 32 80 33
REMARK SMILES IDX 28 34 83 35 77 36 76 37 29 39 63 40 42 41 62 42 43 43 46 44
REMARK SMILES IDX 61 45 81 46 44 47 45 48 60 50 82 51 47 52 30 53 31 54 40 55
REMARK SMILES IDX 32 56 33 57 39 58 41 59 34 60 35 61 36 62 37 63 38 64 64 65
REMARK SMILES IDX 65 66 74 67 66 68 67 69 73 70 75 71 68 72 69 73 70 74 71 75
REMARK SMILES IDX 72 76 48 77 49 78 58 79 50 80 51 81 57 82 59 83 52 84 53 85
REMARK SMILES IDX 54 86 55 87 56 88
REMARK H PARENT 80 38 46 49
REMARK Flexibility Score: inf
ROOT
ATOM      1  C   UNL A   1      34.034  28.240  25.644  1.00  0.00     0.274 C 
ENDROOT
BRANCH   1   2
ATOM      2  O   UNL A   1      33.323  27.458  24.662  1.00  0.00    -0.462 OA
BRANCH   2   3
ATOM      3  C   UNL A   1      32.057  27.099  25.002  1.00  0.00     0.316 C 
ATOM      4  O   UNL A   1      31.737  26.622  26.084  1.00  0.00    -0.251 OA
BRANCH   3   5
ATOM      5  C   UNL A   1      31.076  27.246  23.863  1.00  0.00     0.169 C 
BRANCH   5   6
ATOM      6  C   UNL A   1      31.512  28.320  22.852  1.00  0.00     0.065 C 
BRANCH   6   7
ATOM      7  C   UNL A   1      30.485  29.443  22.674  1.00  0.00     0.234 C 
BRANCH   7   8
ATOM      8  O   UNL A   1      29.446  29.062  21.752  1.00  0.00    -0.462 OA
BRANCH   8   9
ATOM      9  C   UNL A   1      28.379  29.894  21.648  1.00  0.00     0.333 C 
ATOM     10  O   UNL A   1      28.042  30.494  20.638  1.00  0.00    -0.247 OA
BRANCH   9  11
ATOM     11  C   UNL A   1      27.632  29.924  22.933  1.00  0.00     0.027 C 
ATOM     12  C   UNL A   1      27.044  28.789  23.346  1.00  0.00     0.020 C 
ATOM     13  C   UNL A   1      27.550  31.210  23.697  1.00  0.00     0.051 C 
ENDBRANCH   9  11
ENDBRANCH   8   9
ENDBRANCH   7   8
ENDBRANCH   6   7
ENDBRANCH   5   6
BRANCH   5  14
ATOM     14  C   UNL A   1      30.806  25.902  23.209  1.00  0.00     0.144 C 
ATOM     15  C   UNL A   1      31.715  25.488  22.076  1.00  0.00     0.088 C 
ATOM     16  O   UNL A   1      29.906  25.151  23.589  1.00  0.00    -0.299 OA
ENDBRANCH   5  14
ENDBRANCH   3   5
ENDBRANCH   2   3
ENDBRANCH   1   2
BRANCH   1  17
ATOM     17  C   UNL A   1      33.280  29.510  26.044  1.00  0.00     0.275 C 
BRANCH  17  18
ATOM     18  O   UNL A   1      33.452  29.824  27.438  1.00  0.00    -0.458 OA
BRANCH  18  19
ATOM     19  C   UNL A   1      34.302  30.847  27.686  1.00  0.00     0.338 C 
ATOM     20  O   UNL A   1      34.040  32.038  27.671  1.00  0.00    -0.246 OA
BRANCH  19  21
ATOM     21  C   UNL A   1      35.606  30.329  28.129  1.00  0.00     0.060 A 
ATOM     22  C   UNL A   1      35.660  29.691  29.367  1.00  0.00     0.016 A 
ATOM     23  C   UNL A   1      36.776  30.566  27.404  1.00  0.00     0.016 A 
ATOM     24  C   UNL A   1      36.887  29.316  29.900  1.00  0.00     0.010 A 
ATOM     25  C   UNL A   1      38.011  30.176  27.943  1.00  0.00     0.010 A 
ATOM     26  C   UNL A   1      38.076  29.568  29.207  1.00  0.00    -0.014 A 
BRANCH  26  27
ATOM     27  C   UNL A   1      39.364  29.242  29.871  1.00  0.00     0.031 A 
ATOM     28  C   UNL A   1      39.769  29.965  31.126  1.00  0.00     0.074 A 
ATOM     29  C   UNL A   1      40.123  28.232  29.404  1.00  0.00     0.049 A 
ATOM     30  N   UNL A   1      40.849  29.821  31.851  1.00  0.00    -0.248 NA
ATOM     31  C   UNL A   1      38.833  30.978  31.637  1.00  0.00     0.031 C 
ATOM     32  C   UNL A   1      39.810  27.414  28.231  1.00  0.00     0.029 A 
ATOM     33  N   UNL A   1      41.307  27.713  29.867  1.00  0.00    -0.354 N 
ATOM     34  C   UNL A   1      40.736  30.737  32.889  1.00  0.00     0.074 A 
ATOM     35  C   UNL A   1      39.486  31.442  32.694  1.00  0.00     0.031 C 
ATOM     36  C   UNL A   1      40.772  26.489  28.073  1.00  0.00     0.029 A 
ATOM     37  C   UNL A   1      41.790  26.676  29.103  1.00  0.00     0.049 A 
ATOM     38  H   UNL A   1      41.766  28.051  30.669  1.00  0.00     0.167 HD
ATOM     39  C   UNL A   1      41.593  30.967  33.914  1.00  0.00     0.037 A 
ATOM     40  C   UNL A   1      42.933  25.972  29.208  1.00  0.00     0.037 A 
ATOM     41  C   UNL A   1      42.828  30.255  34.118  1.00  0.00     0.049 A 
ATOM     42  C   UNL A   1      43.892  26.281  30.325  1.00  0.00     0.074 A 
ATOM     43  C   UNL A   1      43.760  30.416  35.129  1.00  0.00     0.029 A 
ATOM     44  N   UNL A   1      43.307  29.244  33.296  1.00  0.00    -0.354 N 
ATOM     45  N   UNL A   1      43.778  27.163  31.289  1.00  0.00    -0.248 NA
ATOM     46  C   UNL A   1      45.136  25.499  30.367  1.00  0.00     0.031 C 
ATOM     47  C   UNL A   1      44.818  29.530  34.898  1.00  0.00     0.029 A 
ATOM     48  C   UNL A   1      44.526  28.785  33.767  1.00  0.00     0.049 A 
ATOM     49  H   UNL A   1      42.846  28.903  32.495  1.00  0.00     0.167 HD
ATOM     50  C   UNL A   1      44.929  27.035  32.058  1.00  0.00     0.074 A 
ATOM     51  C   UNL A   1      45.716  25.975  31.461  1.00  0.00     0.031 C 
ATOM     52  C   UNL A   1      45.302  27.734  33.160  1.00  0.00     0.037 A 
BRANCH  39  53
ATOM     53  C   UNL A   1      41.238  32.062  34.882  1.00  0.00     0.058 A 
ATOM     54  C   UNL A   1      40.477  31.814  36.035  1.00  0.00     0.135 A 
ATOM     55  C   UNL A   1      41.690  33.373  34.664  1.00  0.00     0.135 A 
ATOM     56  F   UNL A   1      40.006  30.581  36.282  1.00  0.00    -0.206 F 
ATOM     57  C   UNL A   1      40.156  32.834  36.926  1.00  0.00     0.059 A 
ATOM     58  C   UNL A   1      41.399  34.404  35.553  1.00  0.00     0.059 A 
ATOM     59  F   UNL A   1      42.419  33.665  33.575  1.00  0.00    -0.206 F 
ATOM     60  C   UNL A   1      40.618  34.127  36.674  1.00  0.00     0.060 A 
BRANCH  60  61
ATOM     61  S   UNL A   1      40.191  35.442  37.835  1.00  0.00     0.124 S 
ATOM     62  O   UNL A   1      41.378  35.475  38.683  1.00  0.00    -0.237 OA
ATOM     63  O   UNL A   1      40.010  36.592  36.955  1.00  0.00    -0.237 OA
ATOM     64  O   UNL A   1      38.976  34.949  38.474  1.00  0.00    -0.744 OA
ENDBRANCH  60  61
ENDBRANCH  39  53
BRANCH  40  65
ATOM     65  C   UNL A   1      43.246  24.916  28.207  1.00  0.00     0.058 A 
ATOM     66  C   UNL A   1      42.926  23.572  28.444  1.00  0.00     0.135 A 
ATOM     67  C   UNL A   1      43.871  25.238  26.992  1.00  0.00     0.135 A 
ATOM     68  F   UNL A   1      42.339  23.216  29.597  1.00  0.00    -0.206 F 
ATOM     69  C   UNL A   1      43.222  22.580  27.516  1.00  0.00     0.059 A 
ATOM     70  C   UNL A   1      44.155  24.267  26.037  1.00  0.00     0.059 A 
ATOM     71  F   UNL A   1      44.189  26.512  26.715  1.00  0.00    -0.206 F 
ATOM     72  C   UNL A   1      43.836  22.938  26.314  1.00  0.00     0.060 A 
BRANCH  72  73
ATOM     73  S   UNL A   1      44.170  21.653  25.089  1.00  0.00     0.124 S 
ATOM     74  O   UNL A   1      45.527  21.258  25.443  1.00  0.00    -0.237 OA
ATOM     75  O   UNL A   1      43.123  20.676  25.373  1.00  0.00    -0.237 OA
ATOM     76  O   UNL A   1      44.028  22.358  23.819  1.00  0.00    -0.744 OA
ENDBRANCH  72  73
ENDBRANCH  40  65
BRANCH  52  77
ATOM     77  C   UNL A   1      46.610  27.358  33.799  1.00  0.00     0.058 A 
ATOM     78  C   UNL A   1      47.809  28.006  33.459  1.00  0.00     0.135 A 
ATOM     79  C   UNL A   1      46.664  26.351  34.775  1.00  0.00     0.135 A 
ATOM     80  F   UNL A   1      47.813  28.973  32.528  1.00  0.00    -0.206 F 
ATOM     81  C   UNL A   1      49.020  27.646  34.040  1.00  0.00     0.059 A 
ATOM     82  C   UNL A   1      47.861  25.990  35.388  1.00  0.00     0.059 A 
ATOM     83  F   UNL A   1      45.546  25.707  35.144  1.00  0.00    -0.206 F 
ATOM     84  C   UNL A   1      49.037  26.631  35.000  1.00  0.00     0.060 A 
BRANCH  84  85
ATOM     85  S   UNL A   1      50.613  26.173  35.753  1.00  0.00     0.124 S 
ATOM     86  O   UNL A   1      51.544  26.416  34.654  1.00  0.00    -0.237 OA
ATOM     87  O   UNL A   1      50.707  27.098  36.878  1.00  0.00    -0.237 OA
ATOM     88  O   UNL A   1      50.420  24.772  36.115  1.00  0.00    -0.744 OA
ENDBRANCH  84  85
ENDBRANCH  52  77
ENDBRANCH  26  27
ENDBRANCH  19  21
ENDBRANCH  18  19
ENDBRANCH  17  18
ENDBRANCH   1  17
TORSDOF 20
ENDMDL
MODEL 3
REMARK VINA RESULT:      -8.7      1.501      8.982
REMARK SMILES C=C(C)C(=O)OCC[C@@H](C(C)=O)C(=O)OCCOC(=O)c1ccc(-c2c3nc(c(-c4c(F)cc(S(=O)(=O)[O-])cc4F)c4ccc([nH]4)c(-c4c(F)cc(S(=O)(=O)[O-])cc4F)c4nc(c(-c5c(F)cc(S(=O)(=O)[O-])cc5F)c5ccc2[nH]5)C=C4)C=C3)cc1
REMARK SMILES IDX 16 1 15 2 13 3 14 4 9 5 8 6 7 7 6 8 4 9 5 10 2 11 1 12 3 13
REMARK SMILES IDX 10 14 11 15 12 16 17 17 18 18 19 19 20 20 21 21 22 22 86 23
REMARK SMILES IDX 23 24 85 25 24 26 25 27 26 28 79 29 27 30 84 31 78 32 80 33
REMARK SMILES IDX 28 34 83 35 77 36 76 37 29 39 63 40 42 41 62 42 43 43 46 44
REMARK SMILES IDX 61 45 81 46 44 47 45 48 60 50 82 51 47 52 30 53 31 54 40 55
REMARK SMILES IDX 32 56 33 57 39 58 41 59 34 60 35 61 36 62 37 63 38 64 64 65
REMARK SMILES IDX 65 66 74 67 66 68 67 69 73 70 75 71 68 72 69 73 70 74 71 75
REMARK SMILES IDX 72 76 48 77 49 78 58 79 50 80 51 81 57 82 59 83 52 84 53 85
REMARK SMILES IDX 54 86 55 87 56 88
REMARK H PARENT 80 38 46 49
REMARK Flexibility Score: inf
ROOT
ATOM      1  C   UNL A   1      44.334  24.006  27.757  1.00  0.00     0.274 C 
ENDROOT
BRANCH   1   2
ATOM      2  O   UNL A   1      44.690  25.369  27.450  1.00  0.00    -0.462 OA
BRANCH   2   3
ATOM      3  C   UNL A   1      45.521  25.534  26.388  1.00  0.00     0.316 C 
ATOM      4  O   UNL A   1      45.380  26.389  25.521  1.00  0.00    -0.251 OA
BRANCH   3   5
ATOM      5  C   UNL A   1      46.597  24.477  26.311  1.00  0.00     0.169 C 
BRANCH   5   6
ATOM      6  C   UNL A   1      46.982  24.140  24.861  1.00  0.00     0.065 C 
BRANCH   6   7
ATOM      7  C   UNL A   1      46.259  22.907  24.307  1.00  0.00     0.234 C 
BRANCH   7   8
ATOM      8  O   UNL A   1      46.306  21.810  25.241  1.00  0.00    -0.462 OA
BRANCH   8   9
ATOM      9  C   UNL A   1      46.340  20.558  24.718  1.00  0.00     0.333 C 
ATOM     10  O   UNL A   1      47.349  19.899  24.518  1.00  0.00    -0.247 OA
BRANCH   9  11
ATOM     11  C   UNL A   1      44.955  20.072  24.478  1.00  0.00     0.027 C 
ATOM     12  C   UNL A   1      44.003  20.426  25.357  1.00  0.00     0.020 C 
ATOM     13  C   UNL A   1      44.685  19.200  23.291  1.00  0.00     0.051 C 
ENDBRANCH   9  11
ENDBRANCH   8   9
ENDBRANCH   7   8
ENDBRANCH   6   7
ENDBRANCH   5   6
BRANCH   5  14
ATOM     14  C   UNL A   1      47.796  24.867  27.159  1.00  0.00     0.144 C 
ATOM     15  C   UNL A   1      47.527  25.664  28.413  1.00  0.00     0.088 C 
ATOM     16  O   UNL A   1      48.947  24.532  26.870  1.00  0.00    -0.299 OA
ENDBRANCH   5  14
ENDBRANCH   3   5
ENDBRANCH   2   3
ENDBRANCH   1   2
BRANCH   1  17
ATOM     17  C   UNL A   1      43.061  23.552  27.037  1.00  0.00     0.275 C 
BRANCH  17  18
ATOM     18  O   UNL A   1      42.320  24.662  26.501  1.00  0.00    -0.458 OA
BRANCH  18  19
ATOM     19  C   UNL A   1      40.995  24.643  26.779  1.00  0.00     0.338 C 
ATOM     20  O   UNL A   1      40.180  23.814  26.409  1.00  0.00    -0.246 OA
BRANCH  19  21
ATOM     21  C   UNL A   1      40.660  25.712  27.732  1.00  0.00     0.060 A 
ATOM     22  C   UNL A   1      41.544  26.785  27.836  1.00  0.00     0.016 A 
ATOM     23  C   UNL A   1      39.567  25.611  28.595  1.00  0.00     0.016 A 
ATOM     24  C   UNL A   1      41.356  27.745  28.822  1.00  0.00     0.010 A 
ATOM     25  C   UNL A   1      39.376  26.589  29.583  1.00  0.00     0.010 A 
ATOM     26  C   UNL A   1      40.285  27.652  29.717  1.00  0.00    -0.014 A 
BRANCH  26  27
ATOM     27  C   UNL A   1      40.193  28.646  30.816  1.00  0.00     0.031 A 
ATOM     28  C   UNL A   1      41.140  28.570  31.982  1.00  0.00     0.074 A 
ATOM     29  C   UNL A   1      39.325  29.673  30.722  1.00  0.00     0.049 A 
ATOM     30  N   UNL A   1      41.220  29.344  33.034  1.00  0.00    -0.248 NA
ATOM     31  C   UNL A   1      42.133  27.485  31.958  1.00  0.00     0.031 C 
ATOM     32  C   UNL A   1      38.396  29.893  29.614  1.00  0.00     0.029 A 
ATOM     33  N   UNL A   1      39.095  30.731  31.567  1.00  0.00    -0.354 N 
ATOM     34  C   UNL A   1      42.254  28.831  33.808  1.00  0.00     0.074 A 
ATOM     35  C   UNL A   1      42.763  27.670  33.110  1.00  0.00     0.031 C 
ATOM     36  C   UNL A   1      37.703  31.021  29.841  1.00  0.00     0.029 A 
ATOM     37  C   UNL A   1      38.106  31.580  31.128  1.00  0.00     0.049 A 
ATOM     38  H   UNL A   1      39.591  30.868  32.405  1.00  0.00     0.167 HD
ATOM     39  C   UNL A   1      42.735  29.288  34.989  1.00  0.00     0.037 A 
ATOM     40  C   UNL A   1      37.570  32.671  31.708  1.00  0.00     0.037 A 
ATOM     41  C   UNL A   1      42.238  30.452  35.676  1.00  0.00     0.049 A 
ATOM     42  C   UNL A   1      38.088  33.127  33.044  1.00  0.00     0.074 A 
ATOM     43  C   UNL A   1      42.665  30.993  36.876  1.00  0.00     0.029 A 
ATOM     44  N   UNL A   1      41.203  31.258  35.225  1.00  0.00    -0.354 N 
ATOM     45  N   UNL A   1      39.054  32.620  33.771  1.00  0.00    -0.248 NA
ATOM     46  C   UNL A   1      37.441  34.305  33.640  1.00  0.00     0.031 C 
ATOM     47  C   UNL A   1      41.865  32.104  37.169  1.00  0.00     0.029 A 
ATOM     48  C   UNL A   1      40.967  32.281  36.129  1.00  0.00     0.049 A 
ATOM     49  H   UNL A   1      40.709  31.124  34.383  1.00  0.00     0.167 HD
ATOM     50  C   UNL A   1      39.139  33.422  34.903  1.00  0.00     0.074 A 
ATOM     51  C   UNL A   1      38.141  34.462  34.755  1.00  0.00     0.031 C 
ATOM     52  C   UNL A   1      39.967  33.306  35.972  1.00  0.00     0.037 A 
BRANCH  39  53
ATOM     53  C   UNL A   1      43.842  28.502  35.636  1.00  0.00     0.058 A 
ATOM     54  C   UNL A   1      43.582  27.478  36.560  1.00  0.00     0.135 A 
ATOM     55  C   UNL A   1      45.182  28.762  35.305  1.00  0.00     0.135 A 
ATOM     56  F   UNL A   1      42.320  27.201  36.925  1.00  0.00    -0.206 F 
ATOM     57  C   UNL A   1      44.614  26.755  37.152  1.00  0.00     0.059 A 
ATOM     58  C   UNL A   1      46.228  28.036  35.867  1.00  0.00     0.059 A 
ATOM     59  F   UNL A   1      45.485  29.733  34.429  1.00  0.00    -0.206 F 
ATOM     60  C   UNL A   1      45.934  27.044  36.802  1.00  0.00     0.060 A 
BRANCH  60  61
ATOM     61  S   UNL A   1      47.264  26.102  37.580  1.00  0.00     0.124 S 
ATOM     62  O   UNL A   1      47.260  26.657  38.929  1.00  0.00    -0.237 OA
ATOM     63  O   UNL A   1      46.787  24.728  37.460  1.00  0.00    -0.237 OA
ATOM     64  O   UNL A   1      48.431  26.430  36.769  1.00  0.00    -0.744 OA
ENDBRANCH  60  61
ENDBRANCH  39  53
BRANCH  40  65
ATOM     65  C   UNL A   1      36.458  33.395  31.035  1.00  0.00     0.058 A 
ATOM     66  C   UNL A   1      36.682  34.164  29.885  1.00  0.00     0.135 A 
ATOM     67  C   UNL A   1      35.148  33.329  31.535  1.00  0.00     0.135 A 
ATOM     68  F   UNL A   1      37.921  34.267  29.377  1.00  0.00    -0.206 F 
ATOM     69  C   UNL A   1      35.649  34.849  29.255  1.00  0.00     0.059 A 
ATOM     70  C   UNL A   1      34.093  33.984  30.908  1.00  0.00     0.059 A 
ATOM     71  F   UNL A   1      34.881  32.599  32.629  1.00  0.00    -0.206 F 
ATOM     72  C   UNL A   1      34.356  34.751  29.775  1.00  0.00     0.060 A 
BRANCH  72  73
ATOM     73  S   UNL A   1      33.008  35.600  28.922  1.00  0.00     0.124 S 
ATOM     74  O   UNL A   1      32.383  34.502  28.197  1.00  0.00    -0.237 OA
ATOM     75  O   UNL A   1      32.240  36.153  30.034  1.00  0.00    -0.237 OA
ATOM     76  O   UNL A   1      33.703  36.587  28.101  1.00  0.00    -0.744 OA
ENDBRANCH  72  73
ENDBRANCH  40  65
BRANCH  52  77
ATOM     77  C   UNL A   1      39.840  34.344  37.053  1.00  0.00     0.058 A 
ATOM     78  C   UNL A   1      39.116  34.096  38.230  1.00  0.00     0.135 A 
ATOM     79  C   UNL A   1      40.462  35.595  36.918  1.00  0.00     0.135 A 
ATOM     80  F   UNL A   1      38.496  32.918  38.407  1.00  0.00    -0.206 F 
ATOM     81  C   UNL A   1      38.986  35.064  39.221  1.00  0.00     0.059 A 
ATOM     82  C   UNL A   1      40.367  36.569  37.908  1.00  0.00     0.059 A 
ATOM     83  F   UNL A   1      41.176  35.880  35.818  1.00  0.00    -0.206 F 
ATOM     84  C   UNL A   1      39.611  36.301  39.049  1.00  0.00     0.060 A 
BRANCH  84  85
ATOM     85  S   UNL A   1      39.442  37.548  40.342  1.00  0.00     0.124 S 
ATOM     86  O   UNL A   1      38.824  36.776  41.415  1.00  0.00    -0.237 OA
ATOM     87  O   UNL A   1      40.824  37.957  40.571  1.00  0.00    -0.237 OA
ATOM     88  O   UNL A   1      38.589  38.560  39.725  1.00  0.00    -0.744 OA
ENDBRANCH  84  85
ENDBRANCH  52  77
ENDBRANCH  26  27
ENDBRANCH  19  21
ENDBRANCH  18  19
ENDBRANCH  17  18
ENDBRANCH   1  17
TORSDOF 20
ENDMDL
