MODEL 1
REMARK VINA RESULT:     -10.9      0.000      0.000
REMARK SMILES COC(=O)c1nccc(N2CCO[C@H](CC(=O)OCCOC(=O)c3ccc(-c4c5nc(c(-c6c(F)cc(S(=O)(=O)[O-])cc6F)c6ccc([nH]6)c(-c6c(F)cc(S(=O)(=O)[O-])cc6F)c6nc(c(-c7c(F)cc(S(=O)(=O)[O-])cc7F)c7ccc4[nH]7)C=C6)C=C5)cc3)C2)n1
REMARK SMILES IDX 19 1 18 2 16 3 17 4 15 5 14 6 10 7 11 8 90 9 12 10 13 11
REMARK SMILES IDX 9 12 5 13 6 14 91 15 7 16 8 17 3 18 4 19 2 20 1 21 20 22
REMARK SMILES IDX 21 23 22 24 23 25 24 26 25 27 89 28 26 29 88 30 27 31 28 32
REMARK SMILES IDX 29 33 82 34 30 35 87 36 81 37 83 38 31 39 86 40 80 41 79 42
REMARK SMILES IDX 32 44 66 45 45 46 65 47 46 48 49 49 64 50 84 51 47 52 48 53
REMARK SMILES IDX 63 55 85 56 50 57 33 58 34 59 43 60 35 61 36 62 42 63 44 64
REMARK SMILES IDX 37 65 38 66 39 67 40 68 41 69 67 70 68 71 77 72 69 73 70 74
REMARK SMILES IDX 76 75 78 76 71 77 72 78 73 79 74 80 75 81 51 82 52 83 61 84
REMARK SMILES IDX 53 85 54 86 60 87 62 88 55 89 56 90 57 91 58 92 59 93
REMARK H PARENT 83 43 49 54
REMARK Flexibility Score: inf
ROOT
ATOM      1  C   UNL A   1      35.647  23.432  24.605  1.00  0.00     0.274 C 
ENDROOT
BRANCH   1   2
ATOM      2  O   UNL A   1      35.424  24.680  25.300  1.00  0.00    -0.462 OA
BRANCH   2   3
ATOM      3  C   UNL A   1      34.145  25.070  25.513  1.00  0.00     0.308 C 
ATOM      4  O   UNL A   1      33.228  24.303  25.788  1.00  0.00    -0.252 OA
BRANCH   3   5
ATOM      5  C   UNL A   1      33.950  26.573  25.463  1.00  0.00     0.156 C 
BRANCH   5   6
ATOM      6  C   UNL A   1      33.113  27.269  26.541  1.00  0.00     0.148 C 
ATOM      7  N   UNL A   1      31.800  28.892  25.283  1.00  0.00    -0.352 N 
ATOM      8  C   UNL A   1      32.504  30.022  25.904  1.00  0.00     0.146 C 
ATOM      9  C   UNL A   1      31.705  27.700  26.117  1.00  0.00     0.150 C 
ATOM     10  C   UNL A   1      33.865  29.561  26.491  1.00  0.00     0.182 C 
ATOM     11  O   UNL A   1      33.803  28.330  27.226  1.00  0.00    -0.374 OA
BRANCH   7  12
ATOM     12  C   UNL A   1      30.871  29.067  24.274  1.00  0.00     0.133 A 
ATOM     13  C   UNL A   1      29.356  30.297  23.081  1.00  0.00     0.241 A 
ATOM     14  N   UNL A   1      29.211  29.374  22.104  1.00  0.00    -0.231 NA
ATOM     15  N   UNL A   1      30.223  30.229  24.124  1.00  0.00    -0.205 NA
ATOM     16  C   UNL A   1      29.872  28.238  22.290  1.00  0.00     0.117 A 
ATOM     17  C   UNL A   1      30.642  28.015  23.398  1.00  0.00     0.067 A 
BRANCH  13  18
ATOM     18  C   UNL A   1      28.239  31.302  23.122  1.00  0.00     0.376 C 
ATOM     19  O   UNL A   1      27.253  31.197  23.842  1.00  0.00    -0.242 OA
BRANCH  18  20
ATOM     20  O   UNL A   1      28.537  32.400  22.375  1.00  0.00    -0.463 OA
ATOM     21  C   UNL A   1      29.139  33.453  23.128  1.00  0.00     0.282 C 
ENDBRANCH  18  20
ENDBRANCH  13  18
ENDBRANCH   7  12
ENDBRANCH   5   6
ENDBRANCH   3   5
ENDBRANCH   2   3
ENDBRANCH   1   2
BRANCH   1  22
ATOM     22  C   UNL A   1      37.053  22.922  24.904  1.00  0.00     0.275 C 
BRANCH  22  23
ATOM     23  O   UNL A   1      37.779  23.976  25.545  1.00  0.00    -0.458 OA
BRANCH  23  24
ATOM     24  C   UNL A   1      38.883  23.580  26.221  1.00  0.00     0.338 C 
ATOM     25  O   UNL A   1      39.508  22.543  26.108  1.00  0.00    -0.246 OA
BRANCH  24  26
ATOM     26  C   UNL A   1      39.295  24.711  27.056  1.00  0.00     0.060 A 
ATOM     27  C   UNL A   1      40.111  25.692  26.489  1.00  0.00     0.016 A 
ATOM     28  C   UNL A   1      38.885  24.796  28.379  1.00  0.00     0.016 A 
ATOM     29  C   UNL A   1      40.557  26.762  27.248  1.00  0.00     0.010 A 
ATOM     30  C   UNL A   1      39.272  25.907  29.123  1.00  0.00     0.010 A 
ATOM     31  C   UNL A   1      40.109  26.893  28.562  1.00  0.00    -0.014 A 
BRANCH  31  32
ATOM     32  C   UNL A   1      40.476  28.069  29.376  1.00  0.00     0.031 A 
ATOM     33  C   UNL A   1      41.660  27.975  30.285  1.00  0.00     0.074 A 
ATOM     34  C   UNL A   1      39.683  29.156  29.359  1.00  0.00     0.049 A 
ATOM     35  N   UNL A   1      41.964  28.708  31.319  1.00  0.00    -0.248 NA
ATOM     36  C   UNL A   1      42.611  26.886  30.008  1.00  0.00     0.031 C 
ATOM     37  C   UNL A   1      38.539  29.361  28.466  1.00  0.00     0.029 A 
ATOM     38  N   UNL A   1      39.692  30.275  30.149  1.00  0.00    -0.354 N 
ATOM     39  C   UNL A   1      43.111  28.137  31.855  1.00  0.00     0.074 A 
ATOM     40  C   UNL A   1      43.451  27.001  31.027  1.00  0.00     0.031 C 
ATOM     41  C   UNL A   1      37.940  30.521  28.777  1.00  0.00     0.029 A 
ATOM     42  C   UNL A   1      38.607  31.095  29.937  1.00  0.00     0.049 A 
ATOM     43  H   UNL A   1      40.403  30.473  30.801  1.00  0.00     0.167 HD
ATOM     44  C   UNL A   1      43.798  28.531  32.953  1.00  0.00     0.037 A 
ATOM     45  C   UNL A   1      38.164  32.148  30.647  1.00  0.00     0.037 A 
ATOM     46  C   UNL A   1      43.436  29.683  33.737  1.00  0.00     0.049 A 
ATOM     47  C   UNL A   1      38.917  32.544  31.884  1.00  0.00     0.074 A 
ATOM     48  C   UNL A   1      44.065  30.200  34.855  1.00  0.00     0.029 A 
ATOM     49  N   UNL A   1      42.344  30.501  33.476  1.00  0.00    -0.354 N 
ATOM     50  N   UNL A   1      39.981  31.984  32.412  1.00  0.00    -0.248 NA
ATOM     51  C   UNL A   1      38.404  33.696  32.634  1.00  0.00     0.031 C 
ATOM     52  C   UNL A   1      43.334  31.312  35.288  1.00  0.00     0.029 A 
ATOM     53  C   UNL A   1      42.272  31.511  34.419  1.00  0.00     0.049 A 
ATOM     54  H   UNL A   1      41.715  30.380  32.729  1.00  0.00     0.167 HD
ATOM     55  C   UNL A   1      40.273  32.721  33.551  1.00  0.00     0.074 A 
ATOM     56  C   UNL A   1      39.281  33.777  33.626  1.00  0.00     0.031 C 
ATOM     57  C   UNL A   1      41.266  32.544  34.458  1.00  0.00     0.037 A 
BRANCH  44  58
ATOM     58  C   UNL A   1      44.968  27.692  33.381  1.00  0.00     0.058 A 
ATOM     59  C   UNL A   1      44.815  26.566  34.205  1.00  0.00     0.135 A 
ATOM     60  C   UNL A   1      46.266  28.015  32.952  1.00  0.00     0.135 A 
ATOM     61  F   UNL A   1      43.600  26.225  34.663  1.00  0.00    -0.206 F 
ATOM     62  C   UNL A   1      45.907  25.805  34.608  1.00  0.00     0.059 A 
ATOM     63  C   UNL A   1      47.371  27.255  33.324  1.00  0.00     0.059 A 
ATOM     64  F   UNL A   1      46.472  29.087  32.170  1.00  0.00    -0.206 F 
ATOM     65  C   UNL A   1      47.183  26.159  34.164  1.00  0.00     0.060 A 
BRANCH  65  66
ATOM     66  S   UNL A   1      48.591  25.161  34.695  1.00  0.00     0.124 S 
ATOM     67  O   UNL A   1      48.108  24.630  35.966  1.00  0.00    -0.237 OA
ATOM     68  O   UNL A   1      48.717  24.192  33.611  1.00  0.00    -0.237 OA
ATOM     69  O   UNL A   1      49.677  26.131  34.793  1.00  0.00    -0.744 OA
ENDBRANCH  65  66
ENDBRANCH  44  58
BRANCH  45  70
ATOM     70  C   UNL A   1      36.927  32.856  30.226  1.00  0.00     0.058 A 
ATOM     71  C   UNL A   1      35.696  32.570  30.831  1.00  0.00     0.135 A 
ATOM     72  C   UNL A   1      36.955  33.865  29.248  1.00  0.00     0.135 A 
ATOM     73  F   UNL A   1      35.616  31.611  31.766  1.00  0.00    -0.206 F 
ATOM     74  C   UNL A   1      34.536  33.255  30.483  1.00  0.00     0.059 A 
ATOM     75  C   UNL A   1      35.814  34.579  28.900  1.00  0.00     0.059 A 
ATOM     76  F   UNL A   1      38.112  34.189  28.650  1.00  0.00    -0.206 F 
ATOM     77  C   UNL A   1      34.606  34.262  29.520  1.00  0.00     0.060 A 
BRANCH  77  78
ATOM     78  S   UNL A   1      33.107  35.193  29.127  1.00  0.00     0.124 S 
ATOM     79  O   UNL A   1      33.662  36.461  28.669  1.00  0.00    -0.237 OA
ATOM     80  O   UNL A   1      32.488  34.359  28.101  1.00  0.00    -0.237 OA
ATOM     81  O   UNL A   1      32.397  35.235  30.401  1.00  0.00    -0.744 OA
ENDBRANCH  77  78
ENDBRANCH  45  70
BRANCH  57  82
ATOM     82  C   UNL A   1      41.333  33.527  35.588  1.00  0.00     0.058 A 
ATOM     83  C   UNL A   1      40.727  33.261  36.824  1.00  0.00     0.135 A 
ATOM     84  C   UNL A   1      42.052  34.723  35.445  1.00  0.00     0.135 A 
ATOM     85  F   UNL A   1      40.020  32.134  37.003  1.00  0.00    -0.206 F 
ATOM     86  C   UNL A   1      40.820  34.158  37.882  1.00  0.00     0.059 A 
ATOM     87  C   UNL A   1      42.177  35.624  36.495  1.00  0.00     0.059 A 
ATOM     88  F   UNL A   1      42.653  35.016  34.281  1.00  0.00    -0.206 F 
ATOM     89  C   UNL A   1      41.549  35.336  37.707  1.00  0.00     0.060 A 
BRANCH  89  90
ATOM     90  S   UNL A   1      41.699  36.475  39.099  1.00  0.00     0.124 S 
ATOM     91  O   UNL A   1      41.568  35.569  40.234  1.00  0.00    -0.237 OA
ATOM     92  O   UNL A   1      43.026  37.048  38.894  1.00  0.00    -0.237 OA
ATOM     93  O   UNL A   1      40.587  37.400  38.900  1.00  0.00    -0.744 OA
ENDBRANCH  89  90
ENDBRANCH  57  82
ENDBRANCH  31  32
ENDBRANCH  24  26
ENDBRANCH  23  24
ENDBRANCH  22  23
ENDBRANCH   1  22
TORSDOF 18
ENDMDL
MODEL 2
REMARK VINA RESULT:     -10.6      6.050     11.562
REMARK SMILES COC(=O)c1nccc(N2CCO[C@H](CC(=O)OCCOC(=O)c3ccc(-c4c5nc(c(-c6c(F)cc(S(=O)(=O)[O-])cc6F)c6ccc([nH]6)c(-c6c(F)cc(S(=O)(=O)[O-])cc6F)c6nc(c(-c7c(F)cc(S(=O)(=O)[O-])cc7F)c7ccc4[nH]7)C=C6)C=C5)cc3)C2)n1
REMARK SMILES IDX 19 1 18 2 16 3 17 4 15 5 14 6 10 7 11 8 90 9 12 10 13 11
REMARK SMILES IDX 9 12 5 13 6 14 91 15 7 16 8 17 3 18 4 19 2 20 1 21 20 22
REMARK SMILES IDX 21 23 22 24 23 25 24 26 25 27 89 28 26 29 88 30 27 31 28 32
REMARK SMILES IDX 29 33 82 34 30 35 87 36 81 37 83 38 31 39 86 40 80 41 79 42
REMARK SMILES IDX 32 44 66 45 45 46 65 47 46 48 49 49 64 50 84 51 47 52 48 53
REMARK SMILES IDX 63 55 85 56 50 57 33 58 34 59 43 60 35 61 36 62 42 63 44 64
REMARK SMILES IDX 37 65 38 66 39 67 40 68 41 69 67 70 68 71 77 72 69 73 70 74
REMARK SMILES IDX 76 75 78 76 71 77 72 78 73 79 74 80 75 81 51 82 52 83 61 84
REMARK SMILES IDX 53 85 54 86 60 87 62 88 55 89 56 90 57 91 58 92 59 93
REMARK H PARENT 83 43 49 54
REMARK Flexibility Score: inf
ROOT
ATOM      1  C   UNL A   1      33.057  29.386  27.271  1.00  0.00     0.274 C 
ENDROOT
BRANCH   1   2
ATOM      2  O   UNL A   1      33.196  28.042  26.755  1.00  0.00    -0.462 OA
BRANCH   2   3
ATOM      3  C   UNL A   1      32.135  27.208  26.858  1.00  0.00     0.308 C 
ATOM      4  O   UNL A   1      31.132  27.449  27.523  1.00  0.00    -0.252 OA
BRANCH   3   5
ATOM      5  C   UNL A   1      32.253  25.962  26.002  1.00  0.00     0.156 C 
BRANCH   5   6
ATOM      6  C   UNL A   1      31.039  25.045  25.820  1.00  0.00     0.148 C 
ATOM      7  N   UNL A   1      31.977  23.067  24.747  1.00  0.00    -0.352 N 
ATOM      8  C   UNL A   1      31.250  23.334  23.499  1.00  0.00     0.146 C 
ATOM      9  C   UNL A   1      31.312  23.544  25.954  1.00  0.00     0.150 C 
ATOM     10  C   UNL A   1      30.817  24.823  23.427  1.00  0.00     0.182 C 
ATOM     11  O   UNL A   1      30.257  25.333  24.646  1.00  0.00    -0.374 OA
BRANCH   7  12
ATOM     12  C   UNL A   1      32.892  22.038  24.861  1.00  0.00     0.133 A 
ATOM     13  C   UNL A   1      33.531  19.846  24.728  1.00  0.00     0.241 A 
ATOM     14  N   UNL A   1      34.846  20.103  24.904  1.00  0.00    -0.231 NA
ATOM     15  N   UNL A   1      32.542  20.769  24.614  1.00  0.00    -0.205 NA
ATOM     16  C   UNL A   1      35.152  21.373  25.144  1.00  0.00     0.117 A 
ATOM     17  C   UNL A   1      34.198  22.352  25.213  1.00  0.00     0.067 A 
BRANCH  13  18
ATOM     18  C   UNL A   1      33.165  18.410  24.983  1.00  0.00     0.376 C 
ATOM     19  O   UNL A   1      32.193  18.061  25.643  1.00  0.00    -0.242 OA
BRANCH  18  20
ATOM     20  O   UNL A   1      33.959  17.565  24.270  1.00  0.00    -0.463 OA
ATOM     21  C   UNL A   1      33.425  17.228  22.990  1.00  0.00     0.282 C 
ENDBRANCH  18  20
ENDBRANCH  13  18
ENDBRANCH   7  12
ENDBRANCH   5   6
ENDBRANCH   3   5
ENDBRANCH   2   3
ENDBRANCH   1   2
BRANCH   1  22
ATOM     22  C   UNL A   1      34.377  30.135  27.117  1.00  0.00     0.275 C 
BRANCH  22  23
ATOM     23  O   UNL A   1      35.373  29.432  27.866  1.00  0.00    -0.458 OA
BRANCH  23  24
ATOM     24  C   UNL A   1      36.005  30.170  28.808  1.00  0.00     0.338 C 
ATOM     25  O   UNL A   1      35.520  30.921  29.632  1.00  0.00    -0.246 OA
BRANCH  24  26
ATOM     26  C   UNL A   1      37.422  29.799  28.756  1.00  0.00     0.060 A 
ATOM     27  C   UNL A   1      38.091  29.560  29.958  1.00  0.00     0.016 A 
ATOM     28  C   UNL A   1      38.078  29.695  27.537  1.00  0.00     0.016 A 
ATOM     29  C   UNL A   1      39.440  29.242  29.962  1.00  0.00     0.010 A 
ATOM     30  C   UNL A   1      39.414  29.306  27.535  1.00  0.00     0.010 A 
ATOM     31  C   UNL A   1      40.100  29.078  28.744  1.00  0.00    -0.014 A 
BRANCH  31  32
ATOM     32  C   UNL A   1      41.510  28.641  28.699  1.00  0.00     0.031 A 
ATOM     33  C   UNL A   1      42.587  29.676  28.767  1.00  0.00     0.074 A 
ATOM     34  C   UNL A   1      41.790  27.341  28.493  1.00  0.00     0.049 A 
ATOM     35  N   UNL A   1      43.836  29.588  28.405  1.00  0.00    -0.248 NA
ATOM     36  C   UNL A   1      42.193  30.995  29.285  1.00  0.00     0.031 C 
ATOM     37  C   UNL A   1      40.810  26.252  28.467  1.00  0.00     0.029 A 
ATOM     38  N   UNL A   1      42.982  26.721  28.221  1.00  0.00    -0.354 N 
ATOM     39  C   UNL A   1      44.368  30.857  28.594  1.00  0.00     0.074 A 
ATOM     40  C   UNL A   1      43.307  31.694  29.111  1.00  0.00     0.031 C 
ATOM     41  C   UNL A   1      41.435  25.103  28.167  1.00  0.00     0.029 A 
ATOM     42  C   UNL A   1      42.838  25.391  27.902  1.00  0.00     0.049 A 
ATOM     43  H   UNL A   1      43.852  27.181  28.252  1.00  0.00     0.167 HD
ATOM     44  C   UNL A   1      45.630  31.275  28.339  1.00  0.00     0.037 A 
ATOM     45  C   UNL A   1      43.725  24.522  27.383  1.00  0.00     0.037 A 
ATOM     46  C   UNL A   1      46.663  30.402  27.845  1.00  0.00     0.049 A 
ATOM     47  C   UNL A   1      45.107  25.015  27.069  1.00  0.00     0.074 A 
ATOM     48  C   UNL A   1      47.986  30.697  27.570  1.00  0.00     0.029 A 
ATOM     49  N   UNL A   1      46.483  29.055  27.555  1.00  0.00    -0.354 N 
ATOM     50  N   UNL A   1      45.601  26.223  27.216  1.00  0.00    -0.248 NA
ATOM     51  C   UNL A   1      46.047  24.041  26.504  1.00  0.00     0.031 C 
ATOM     52  C   UNL A   1      48.597  29.536  27.085  1.00  0.00     0.029 A 
ATOM     53  C   UNL A   1      47.666  28.508  27.092  1.00  0.00     0.049 A 
ATOM     54  H   UNL A   1      45.638  28.563  27.665  1.00  0.00     0.167 HD
ATOM     55  C   UNL A   1      46.914  26.153  26.769  1.00  0.00     0.074 A 
ATOM     56  C   UNL A   1      47.141  24.779  26.363  1.00  0.00     0.031 C 
ATOM     57  C   UNL A   1      47.849  27.132  26.696  1.00  0.00     0.037 A 
BRANCH  44  58
ATOM     58  C   UNL A   1      45.940  32.729  28.551  1.00  0.00     0.058 A 
ATOM     59  C   UNL A   1      46.421  33.216  29.776  1.00  0.00     0.135 A 
ATOM     60  C   UNL A   1      45.762  33.651  27.507  1.00  0.00     0.135 A 
ATOM     61  F   UNL A   1      46.589  32.383  30.815  1.00  0.00    -0.206 F 
ATOM     62  C   UNL A   1      46.692  34.567  29.967  1.00  0.00     0.059 A 
ATOM     63  C   UNL A   1      46.048  35.004  27.667  1.00  0.00     0.059 A 
ATOM     64  F   UNL A   1      45.295  33.242  26.316  1.00  0.00    -0.206 F 
ATOM     65  C   UNL A   1      46.499  35.455  28.906  1.00  0.00     0.060 A 
BRANCH  65  66
ATOM     66  S   UNL A   1      46.854  37.206  29.168  1.00  0.00     0.124 S 
ATOM     67  O   UNL A   1      45.530  37.725  29.499  1.00  0.00    -0.237 OA
ATOM     68  O   UNL A   1      47.813  37.172  30.267  1.00  0.00    -0.237 OA
ATOM     69  O   UNL A   1      47.394  37.639  27.883  1.00  0.00    -0.744 OA
ENDBRANCH  65  66
ENDBRANCH  44  58
BRANCH  45  70
ATOM     70  C   UNL A   1      43.307  23.126  27.088  1.00  0.00     0.058 A 
ATOM     71  C   UNL A   1      43.140  22.692  25.766  1.00  0.00     0.135 A 
ATOM     72  C   UNL A   1      43.115  22.186  28.114  1.00  0.00     0.135 A 
ATOM     73  F   UNL A   1      43.306  23.554  24.752  1.00  0.00    -0.206 F 
ATOM     74  C   UNL A   1      42.795  21.377  25.469  1.00  0.00     0.059 A 
ATOM     75  C   UNL A   1      42.793  20.860  27.842  1.00  0.00     0.059 A 
ATOM     76  F   UNL A   1      43.280  22.547  29.396  1.00  0.00    -0.206 F 
ATOM     77  C   UNL A   1      42.629  20.467  26.514  1.00  0.00     0.060 A 
BRANCH  77  78
ATOM     78  S   UNL A   1      42.252  18.745  26.114  1.00  0.00     0.124 S 
ATOM     79  O   UNL A   1      42.536  18.081  27.380  1.00  0.00    -0.237 OA
ATOM     80  O   UNL A   1      40.844  18.820  25.734  1.00  0.00    -0.237 OA
ATOM     81  O   UNL A   1      43.172  18.447  25.021  1.00  0.00    -0.744 OA
ENDBRANCH  77  78
ENDBRANCH  45  70
BRANCH  57  82
ATOM     82  C   UNL A   1      49.200  26.740  26.179  1.00  0.00     0.058 A 
ATOM     83  C   UNL A   1      49.555  26.940  24.837  1.00  0.00     0.135 A 
ATOM     84  C   UNL A   1      50.163  26.204  27.047  1.00  0.00     0.135 A 
ATOM     85  F   UNL A   1      48.662  27.440  23.969  1.00  0.00    -0.206 F 
ATOM     86  C   UNL A   1      50.820  26.607  24.367  1.00  0.00     0.059 A 
ATOM     87  C   UNL A   1      51.442  25.885  26.605  1.00  0.00     0.059 A 
ATOM     88  F   UNL A   1      49.869  26.001  28.341  1.00  0.00    -0.206 F 
ATOM     89  C   UNL A   1      51.757  26.082  25.261  1.00  0.00     0.060 A 
BRANCH  89  90
ATOM     90  S   UNL A   1      53.410  25.691  24.651  1.00  0.00     0.124 S 
ATOM     91  O   UNL A   1      54.235  26.599  25.439  1.00  0.00    -0.237 OA
ATOM     92  O   UNL A   1      53.538  24.274  24.976  1.00  0.00    -0.237 OA
ATOM     93  O   UNL A   1      53.326  25.996  23.226  1.00  0.00    -0.744 OA
ENDBRANCH  89  90
ENDBRANCH  57  82
ENDBRANCH  31  32
ENDBRANCH  24  26
ENDBRANCH  23  24
ENDBRANCH  22  23
ENDBRANCH   1  22
TORSDOF 18
ENDMDL
MODEL 3
REMARK VINA RESULT:     -10.6      4.782     10.589
REMARK SMILES COC(=O)c1nccc(N2CCO[C@H](CC(=O)OCCOC(=O)c3ccc(-c4c5nc(c(-c6c(F)cc(S(=O)(=O)[O-])cc6F)c6ccc([nH]6)c(-c6c(F)cc(S(=O)(=O)[O-])cc6F)c6nc(c(-c7c(F)cc(S(=O)(=O)[O-])cc7F)c7ccc4[nH]7)C=C6)C=C5)cc3)C2)n1
REMARK SMILES IDX 19 1 18 2 16 3 17 4 15 5 14 6 10 7 11 8 90 9 12 10 13 11
REMARK SMILES IDX 9 12 5 13 6 14 91 15 7 16 8 17 3 18 4 19 2 20 1 21 20 22
REMARK SMILES IDX 21 23 22 24 23 25 24 26 25 27 89 28 26 29 88 30 27 31 28 32
REMARK SMILES IDX 29 33 82 34 30 35 87 36 81 37 83 38 31 39 86 40 80 41 79 42
REMARK SMILES IDX 32 44 66 45 45 46 65 47 46 48 49 49 64 50 84 51 47 52 48 53
REMARK SMILES IDX 63 55 85 56 50 57 33 58 34 59 43 60 35 61 36 62 42 63 44 64
REMARK SMILES IDX 37 65 38 66 39 67 40 68 41 69 67 70 68 71 77 72 69 73 70 74
REMARK SMILES IDX 76 75 78 76 71 77 72 78 73 79 74 80 75 81 51 82 52 83 61 84
REMARK SMILES IDX 53 85 54 86 60 87 62 88 55 89 56 90 57 91 58 92 59 93
REMARK H PARENT 83 43 49 54
REMARK Flexibility Score: inf
ROOT
ATOM      1  C   UNL A   1      32.555  28.834  25.672  1.00  0.00     0.274 C 
ENDROOT
BRANCH   1   2
ATOM      2  O   UNL A   1      31.757  27.634  25.790  1.00  0.00    -0.462 OA
BRANCH   2   3
ATOM      3  C   UNL A   1      30.874  27.358  24.801  1.00  0.00     0.308 C 
ATOM      4  O   UNL A   1      30.454  28.189  24.001  1.00  0.00    -0.252 OA
BRANCH   3   5
ATOM      5  C   UNL A   1      30.500  25.891  24.709  1.00  0.00     0.156 C 
BRANCH   5   6
ATOM      6  C   UNL A   1      30.629  25.155  23.372  1.00  0.00     0.148 C 
ATOM      7  N   UNL A   1      32.322  23.459  23.818  1.00  0.00    -0.352 N 
ATOM      8  C   UNL A   1      33.281  24.101  22.909  1.00  0.00     0.146 C 
ATOM      9  C   UNL A   1      30.921  23.654  23.463  1.00  0.00     0.150 C 
ATOM     10  C   UNL A   1      32.897  25.586  22.672  1.00  0.00     0.182 C 
ATOM     11  O   UNL A   1      31.500  25.803  22.427  1.00  0.00    -0.374 OA
BRANCH   7  12
ATOM     12  C   UNL A   1      32.660  22.366  24.593  1.00  0.00     0.133 A 
ATOM     13  C   UNL A   1      33.058  20.137  24.923  1.00  0.00     0.241 A 
ATOM     14  N   UNL A   1      33.559  20.298  26.167  1.00  0.00    -0.231 NA
ATOM     15  N   UNL A   1      32.682  21.130  24.076  1.00  0.00    -0.205 NA
ATOM     16  C   UNL A   1      33.521  21.538  26.642  1.00  0.00     0.117 A 
ATOM     17  C   UNL A   1      33.004  22.579  25.921  1.00  0.00     0.067 A 
BRANCH  13  18
ATOM     18  C   UNL A   1      32.634  18.725  24.629  1.00  0.00     0.376 C 
ATOM     19  O   UNL A   1      32.013  18.022  25.417  1.00  0.00    -0.242 OA
BRANCH  18  20
ATOM     20  O   UNL A   1      32.895  18.391  23.336  1.00  0.00    -0.463 OA
ATOM     21  C   UNL A   1      33.444  17.082  23.187  1.00  0.00     0.282 C 
ENDBRANCH  18  20
ENDBRANCH  13  18
ENDBRANCH   7  12
ENDBRANCH   5   6
ENDBRANCH   3   5
ENDBRANCH   2   3
ENDBRANCH   1   2
BRANCH   1  22
ATOM     22  C   UNL A   1      33.950  28.580  26.233  1.00  0.00     0.275 C 
BRANCH  22  23
ATOM     23  O   UNL A   1      33.930  28.895  27.628  1.00  0.00    -0.458 OA
BRANCH  23  24
ATOM     24  C   UNL A   1      34.500  30.079  27.954  1.00  0.00     0.338 C 
ATOM     25  O   UNL A   1      33.966  31.161  28.103  1.00  0.00    -0.246 OA
BRANCH  24  26
ATOM     26  C   UNL A   1      35.911  29.804  28.238  1.00  0.00     0.060 A 
ATOM     27  C   UNL A   1      36.256  29.347  29.511  1.00  0.00     0.016 A 
ATOM     28  C   UNL A   1      36.877  30.002  27.261  1.00  0.00     0.016 A 
ATOM     29  C   UNL A   1      37.581  29.108  29.839  1.00  0.00     0.010 A 
ATOM     30  C   UNL A   1      38.200  29.693  27.566  1.00  0.00     0.010 A 
ATOM     31  C   UNL A   1      38.557  29.247  28.853  1.00  0.00    -0.014 A 
BRANCH  31  32
ATOM     32  C   UNL A   1      39.967  28.905  29.129  1.00  0.00     0.031 A 
ATOM     33  C   UNL A   1      40.904  29.994  29.545  1.00  0.00     0.074 A 
ATOM     34  C   UNL A   1      40.399  27.652  28.900  1.00  0.00     0.049 A 
ATOM     35  N   UNL A   1      42.206  30.021  29.502  1.00  0.00    -0.248 NA
ATOM     36  C   UNL A   1      40.285  31.231  30.049  1.00  0.00     0.031 C 
ATOM     37  C   UNL A   1      39.550  26.511  28.546  1.00  0.00     0.029 A 
ATOM     38  N   UNL A   1      41.669  27.136  28.889  1.00  0.00    -0.354 N 
ATOM     39  C   UNL A   1      42.566  31.297  29.917  1.00  0.00     0.074 A 
ATOM     40  C   UNL A   1      41.344  32.011  30.215  1.00  0.00     0.031 C 
ATOM     41  C   UNL A   1      40.325  25.438  28.323  1.00  0.00     0.029 A 
ATOM     42  C   UNL A   1      41.720  25.837  28.442  1.00  0.00     0.049 A 
ATOM     43  H   UNL A   1      42.463  27.645  29.173  1.00  0.00     0.167 HD
ATOM     44  C   UNL A   1      43.812  31.815  30.019  1.00  0.00     0.037 A 
ATOM     45  C   UNL A   1      42.778  25.079  28.096  1.00  0.00     0.037 A 
ATOM     46  C   UNL A   1      45.005  31.061  29.734  1.00  0.00     0.049 A 
ATOM     47  C   UNL A   1      44.148  25.686  28.179  1.00  0.00     0.074 A 
ATOM     48  C   UNL A   1      46.325  31.463  29.824  1.00  0.00     0.029 A 
ATOM     49  N   UNL A   1      45.016  29.739  29.305  1.00  0.00    -0.354 N 
ATOM     50  N   UNL A   1      44.487  26.903  28.537  1.00  0.00    -0.248 NA
ATOM     51  C   UNL A   1      45.276  24.832  27.793  1.00  0.00     0.031 C 
ATOM     52  C   UNL A   1      47.132  30.394  29.419  1.00  0.00     0.029 A 
ATOM     53  C   UNL A   1      46.319  29.314  29.113  1.00  0.00     0.049 A 
ATOM     54  H   UNL A   1      44.214  29.186  29.161  1.00  0.00     0.167 HD
ATOM     55  C   UNL A   1      45.870  26.958  28.431  1.00  0.00     0.074 A 
ATOM     56  C   UNL A   1      46.305  25.647  27.989  1.00  0.00     0.031 C 
ATOM     57  C   UNL A   1      46.708  27.997  28.671  1.00  0.00     0.037 A 
BRANCH  44  58
ATOM     58  C   UNL A   1      43.937  33.259  30.415  1.00  0.00     0.058 A 
ATOM     59  C   UNL A   1      43.945  34.292  29.465  1.00  0.00     0.135 A 
ATOM     60  C   UNL A   1      44.042  33.616  31.769  1.00  0.00     0.135 A 
ATOM     61  F   UNL A   1      43.871  34.006  28.155  1.00  0.00    -0.206 F 
ATOM     62  C   UNL A   1      44.075  35.625  29.841  1.00  0.00     0.059 A 
ATOM     63  C   UNL A   1      44.150  34.945  32.170  1.00  0.00     0.059 A 
ATOM     64  F   UNL A   1      44.049  32.668  32.719  1.00  0.00    -0.206 F 
ATOM     65  C   UNL A   1      44.181  35.942  31.197  1.00  0.00     0.060 A 
BRANCH  65  66
ATOM     66  S   UNL A   1      44.349  37.676  31.670  1.00  0.00     0.124 S 
ATOM     67  O   UNL A   1      45.801  37.825  31.714  1.00  0.00    -0.237 OA
ATOM     68  O   UNL A   1      43.675  38.368  30.576  1.00  0.00    -0.237 OA
ATOM     69  O   UNL A   1      43.672  37.744  32.961  1.00  0.00    -0.744 OA
ENDBRANCH  65  66
ENDBRANCH  44  58
BRANCH  45  70
ATOM     70  C   UNL A   1      42.565  23.695  27.599  1.00  0.00     0.058 A 
ATOM     71  C   UNL A   1      42.517  23.426  26.225  1.00  0.00     0.135 A 
ATOM     72  C   UNL A   1      42.453  22.607  28.482  1.00  0.00     0.135 A 
ATOM     73  F   UNL A   1      42.612  24.431  25.342  1.00  0.00    -0.206 F 
ATOM     74  C   UNL A   1      42.365  22.130  25.741  1.00  0.00     0.059 A 
ATOM     75  C   UNL A   1      42.325  21.301  28.022  1.00  0.00     0.059 A 
ATOM     76  F   UNL A   1      42.510  22.809  29.808  1.00  0.00    -0.206 F 
ATOM     77  C   UNL A   1      42.275  21.073  26.647  1.00  0.00     0.060 A 
BRANCH  77  78
ATOM     78  S   UNL A   1      42.150  19.388  26.006  1.00  0.00     0.124 S 
ATOM     79  O   UNL A   1      40.737  19.313  25.654  1.00  0.00    -0.237 OA
ATOM     80  O   UNL A   1      43.086  19.415  24.887  1.00  0.00    -0.237 OA
ATOM     81  O   UNL A   1      42.565  18.568  27.140  1.00  0.00    -0.744 OA
ENDBRANCH  77  78
ENDBRANCH  45  70
BRANCH  57  82
ATOM     82  C   UNL A   1      48.173  27.742  28.480  1.00  0.00     0.058 A 
ATOM     83  C   UNL A   1      48.971  27.255  29.526  1.00  0.00     0.135 A 
ATOM     84  C   UNL A   1      48.770  27.939  27.227  1.00  0.00     0.135 A 
ATOM     85  F   UNL A   1      48.445  27.061  30.745  1.00  0.00    -0.206 F 
ATOM     86  C   UNL A   1      50.322  26.986  29.338  1.00  0.00     0.059 A 
ATOM     87  C   UNL A   1      50.113  27.655  27.010  1.00  0.00     0.059 A 
ATOM     88  F   UNL A   1      48.043  28.398  26.195  1.00  0.00    -0.206 F 
ATOM     89  C   UNL A   1      50.883  27.188  28.075  1.00  0.00     0.060 A 
BRANCH  89  90
ATOM     90  S   UNL A   1      52.627  26.796  27.830  1.00  0.00     0.124 S 
ATOM     91  O   UNL A   1      53.171  28.099  27.464  1.00  0.00    -0.237 OA
ATOM     92  O   UNL A   1      53.022  26.290  29.141  1.00  0.00    -0.237 OA
ATOM     93  O   UNL A   1      52.605  25.801  26.762  1.00  0.00    -0.744 OA
ENDBRANCH  89  90
ENDBRANCH  57  82
ENDBRANCH  31  32
ENDBRANCH  24  26
ENDBRANCH  23  24
ENDBRANCH  22  23
ENDBRANCH   1  22
TORSDOF 18
ENDMDL
