MODEL 1
REMARK VINA RESULT:     -11.1      0.000      0.000
REMARK SMILES O=C(OCCOC(=O)[C@H]1CCCN1C(=O)Cc1csc(-c2cccs2)n1)c1ccc(-c2c3nc(c(-c4c(F)cc(S(=O)(=O)[O-])cc4F)c4ccc([nH]4)c(-c4c(F)cc(S(=O)(=O)[O-])cc4F)c4nc(c(-c5c(F)cc(S(=O)(=O)[O-])cc5F)c5ccc2[nH]5)C=C4)C=C3)cc1
REMARK SMILES IDX 5 1 4 2 3 3 2 4 1 5 27 6 28 7 92 8 29 9 91 10 30 11 31 12
REMARK SMILES IDX 32 13 85 14 33 15 90 16 84 17 86 18 34 19 89 20 83 21 82 22
REMARK SMILES IDX 35 24 69 25 48 26 68 27 49 28 52 29 67 30 87 31 50 32 51 33
REMARK SMILES IDX 66 35 88 36 53 37 36 38 37 39 46 40 38 41 39 42 45 43 47 44
REMARK SMILES IDX 40 45 41 46 42 47 43 48 44 49 70 50 71 51 80 52 72 53 73 54
REMARK SMILES IDX 79 55 81 56 74 57 75 58 76 59 77 60 78 61 54 62 55 63 64 64
REMARK SMILES IDX 56 65 57 66 63 67 65 68 58 69 59 70 60 71 61 72 62 73 6 74
REMARK SMILES IDX 7 75 8 76 9 77 10 78 13 79 11 80 12 81 14 82 15 83 16 84
REMARK SMILES IDX 17 85 18 86 26 87 19 88 20 89 21 90 22 91 25 92 23 93 24 94
REMARK H PARENT 86 23 52 34
REMARK Flexibility Score: inf
ROOT
ATOM      1  C   UNL A   1      32.003  28.776  27.092  1.00  0.00     0.274 C 
ENDROOT
BRANCH   1   2
ATOM      2  C   UNL A   1      33.269  29.614  26.828  1.00  0.00     0.275 C 
BRANCH   2   3
ATOM      3  O   UNL A   1      33.437  30.733  27.682  1.00  0.00    -0.458 OA
BRANCH   3   4
ATOM      4  C   UNL A   1      34.643  31.243  27.994  1.00  0.00     0.338 C 
ATOM      5  O   UNL A   1      34.834  32.439  27.775  1.00  0.00    -0.246 OA
BRANCH   4   6
ATOM      6  C   UNL A   1      35.806  30.370  28.412  1.00  0.00     0.060 A 
ATOM      7  C   UNL A   1      36.112  29.640  29.543  1.00  0.00     0.016 A 
ATOM      8  C   UNL A   1      36.757  30.264  27.434  1.00  0.00     0.016 A 
ATOM      9  C   UNL A   1      37.456  29.132  29.751  1.00  0.00     0.010 A 
ATOM     10  C   UNL A   1      38.016  29.629  27.572  1.00  0.00     0.010 A 
ATOM     11  C   UNL A   1      38.489  29.280  28.804  1.00  0.00    -0.014 A 
BRANCH  11  12
ATOM     12  C   UNL A   1      39.955  28.935  28.905  1.00  0.00     0.031 A 
ATOM     13  C   UNL A   1      40.659  27.582  28.586  1.00  0.00     0.074 A 
ATOM     14  C   UNL A   1      40.705  29.798  29.609  1.00  0.00     0.049 A 
ATOM     15  N   UNL A   1      41.934  27.330  28.327  1.00  0.00    -0.248 NA
ATOM     16  C   UNL A   1      39.898  26.339  28.644  1.00  0.00     0.031 C 
ATOM     17  C   UNL A   1      40.209  30.998  30.283  1.00  0.00     0.029 A 
ATOM     18  N   UNL A   1      42.046  29.778  29.873  1.00  0.00    -0.354 N 
ATOM     19  C   UNL A   1      42.038  25.947  28.077  1.00  0.00     0.074 A 
ATOM     20  C   UNL A   1      40.754  25.378  28.324  1.00  0.00     0.031 C 
ATOM     21  C   UNL A   1      41.253  31.650  30.811  1.00  0.00     0.029 A 
ATOM     22  C   UNL A   1      42.479  30.919  30.491  1.00  0.00     0.049 A 
ATOM     23  H   UNL A   1      42.636  29.025  29.642  1.00  0.00     0.167 HD
ATOM     24  C   UNL A   1      43.087  25.165  27.703  1.00  0.00     0.037 A 
ATOM     25  C   UNL A   1      43.727  31.367  30.700  1.00  0.00     0.037 A 
ATOM     26  C   UNL A   1      44.436  25.632  27.710  1.00  0.00     0.049 A 
ATOM     27  C   UNL A   1      44.911  30.589  30.198  1.00  0.00     0.074 A 
ATOM     28  C   UNL A   1      45.595  24.992  27.311  1.00  0.00     0.029 A 
ATOM     29  N   UNL A   1      44.803  26.850  28.246  1.00  0.00    -0.354 N 
ATOM     30  N   UNL A   1      44.956  29.419  29.608  1.00  0.00    -0.248 NA
ATOM     31  C   UNL A   1      46.223  31.228  30.365  1.00  0.00     0.031 C 
ATOM     32  C   UNL A   1      46.675  25.809  27.668  1.00  0.00     0.029 A 
ATOM     33  C   UNL A   1      46.173  26.978  28.221  1.00  0.00     0.049 A 
ATOM     34  H   UNL A   1      44.178  27.527  28.595  1.00  0.00     0.167 HD
ATOM     35  C   UNL A   1      46.299  29.200  29.302  1.00  0.00     0.074 A 
ATOM     36  C   UNL A   1      47.026  30.359  29.768  1.00  0.00     0.031 C 
ATOM     37  C   UNL A   1      46.878  28.142  28.683  1.00  0.00     0.037 A 
BRANCH  24  38
ATOM     38  C   UNL A   1      42.799  23.738  27.266  1.00  0.00     0.058 A 
ATOM     39  C   UNL A   1      42.594  22.731  28.228  1.00  0.00     0.135 A 
ATOM     40  C   UNL A   1      42.721  23.356  25.915  1.00  0.00     0.135 A 
ATOM     41  F   UNL A   1      42.641  23.029  29.537  1.00  0.00    -0.206 F 
ATOM     42  C   UNL A   1      42.387  21.400  27.873  1.00  0.00     0.059 A 
ATOM     43  C   UNL A   1      42.489  22.030  25.535  1.00  0.00     0.059 A 
ATOM     44  F   UNL A   1      42.889  24.264  24.941  1.00  0.00    -0.206 F 
ATOM     45  C   UNL A   1      42.351  21.054  26.523  1.00  0.00     0.060 A 
BRANCH  45  46
ATOM     46  S   UNL A   1      42.146  19.311  26.089  1.00  0.00     0.124 S 
ATOM     47  O   UNL A   1      40.705  19.231  25.874  1.00  0.00    -0.237 OA
ATOM     48  O   UNL A   1      42.971  19.185  24.892  1.00  0.00    -0.237 OA
ATOM     49  O   UNL A   1      42.645  18.604  27.266  1.00  0.00    -0.744 OA
ENDBRANCH  45  46
ENDBRANCH  24  38
BRANCH  25  50
ATOM     50  C   UNL A   1      43.887  32.721  31.274  1.00  0.00     0.058 A 
ATOM     51  C   UNL A   1      43.833  33.848  30.441  1.00  0.00     0.135 A 
ATOM     52  C   UNL A   1      44.009  32.918  32.655  1.00  0.00     0.135 A 
ATOM     53  F   UNL A   1      43.694  33.698  29.114  1.00  0.00    -0.206 F 
ATOM     54  C   UNL A   1      43.923  35.131  30.958  1.00  0.00     0.059 A 
ATOM     55  C   UNL A   1      44.075  34.194  33.198  1.00  0.00     0.059 A 
ATOM     56  F   UNL A   1      44.011  31.865  33.488  1.00  0.00    -0.206 F 
ATOM     57  C   UNL A   1      44.041  35.293  32.340  1.00  0.00     0.060 A 
BRANCH  57  58
ATOM     58  S   UNL A   1      44.091  36.969  33.001  1.00  0.00     0.124 S 
ATOM     59  O   UNL A   1      44.106  37.765  31.780  1.00  0.00    -0.237 OA
ATOM     60  O   UNL A   1      42.862  37.023  33.787  1.00  0.00    -0.237 OA
ATOM     61  O   UNL A   1      45.325  36.984  33.781  1.00  0.00    -0.744 OA
ENDBRANCH  57  58
ENDBRANCH  25  50
BRANCH  37  62
ATOM     62  C   UNL A   1      48.353  28.177  28.430  1.00  0.00     0.058 A 
ATOM     63  C   UNL A   1      49.267  27.538  29.281  1.00  0.00     0.135 A 
ATOM     64  C   UNL A   1      48.844  28.760  27.249  1.00  0.00     0.135 A 
ATOM     65  F   UNL A   1      48.844  26.962  30.417  1.00  0.00    -0.206 F 
ATOM     66  C   UNL A   1      50.621  27.490  28.977  1.00  0.00     0.059 A 
ATOM     67  C   UNL A   1      50.188  28.697  26.911  1.00  0.00     0.059 A 
ATOM     68  F   UNL A   1      48.004  29.366  26.394  1.00  0.00    -0.206 F 
ATOM     69  C   UNL A   1      51.071  28.066  27.786  1.00  0.00     0.060 A 
BRANCH  69  70
ATOM     70  S   UNL A   1      52.824  27.948  27.376  1.00  0.00     0.124 S 
ATOM     71  O   UNL A   1      53.152  29.341  27.092  1.00  0.00    -0.237 OA
ATOM     72  O   UNL A   1      53.395  27.398  28.601  1.00  0.00    -0.237 OA
ATOM     73  O   UNL A   1      52.843  27.050  26.224  1.00  0.00    -0.744 OA
ENDBRANCH  69  70
ENDBRANCH  37  62
ENDBRANCH  11  12
ENDBRANCH   4   6
ENDBRANCH   3   4
ENDBRANCH   2   3
ENDBRANCH   1   2
BRANCH   1  74
ATOM     74  O   UNL A   1      31.388  28.130  25.941  1.00  0.00    -0.461 OA
BRANCH  74  75
ATOM     75  C   UNL A   1      32.154  27.280  25.167  1.00  0.00     0.328 C 
ATOM     76  O   UNL A   1      32.991  26.522  25.637  1.00  0.00    -0.250 OA
BRANCH  75  77
ATOM     77  C   UNL A   1      31.882  27.476  23.606  1.00  0.00     0.195 C 
ATOM     78  C   UNL A   1      32.092  28.987  23.383  1.00  0.00     0.039 C 
ATOM     79  N   UNL A   1      32.820  26.793  22.522  1.00  0.00    -0.329 N 
ATOM     80  C   UNL A   1      33.558  29.054  23.036  1.00  0.00     0.024 C 
ATOM     81  C   UNL A   1      33.739  27.869  22.101  1.00  0.00     0.120 C 
BRANCH  79  82
ATOM     82  C   UNL A   1      33.028  25.580  21.761  1.00  0.00     0.229 C 
ATOM     83  O   UNL A   1      33.128  25.790  20.522  1.00  0.00    -0.274 OA
BRANCH  82  84
ATOM     84  C   UNL A   1      32.924  23.966  22.015  1.00  0.00     0.157 C 
BRANCH  84  85
ATOM     85  C   UNL A   1      33.598  22.947  23.077  1.00  0.00     0.061 A 
ATOM     86  C   UNL A   1      33.128  21.754  23.584  1.00  0.00     0.091 A 
ATOM     87  N   UNL A   1      34.776  23.328  23.825  1.00  0.00    -0.240 NA
ATOM     88  S   UNL A   1      34.215  21.070  24.772  1.00  0.00    -0.121 S 
ATOM     89  C   UNL A   1      35.254  22.430  24.672  1.00  0.00     0.133 A 
BRANCH  89  90
ATOM     90  C   UNL A   1      36.555  22.547  25.362  1.00  0.00     0.063 A 
ATOM     91  C   UNL A   1      37.113  23.607  26.074  1.00  0.00     0.023 A 
ATOM     92  S   UNL A   1      37.688  21.227  25.398  1.00  0.00    -0.141 S 
ATOM     93  C   UNL A   1      38.497  23.406  26.429  1.00  0.00     0.012 A 
ATOM     94  C   UNL A   1      38.979  22.210  25.953  1.00  0.00     0.065 A 
ENDBRANCH  89  90
ENDBRANCH  84  85
ENDBRANCH  82  84
ENDBRANCH  79  82
ENDBRANCH  75  77
ENDBRANCH  74  75
ENDBRANCH   1  74
TORSDOF 18
ENDMDL
MODEL 2
REMARK VINA RESULT:     -11.0      3.663      9.937
REMARK SMILES O=C(OCCOC(=O)[C@H]1CCCN1C(=O)Cc1csc(-c2cccs2)n1)c1ccc(-c2c3nc(c(-c4c(F)cc(S(=O)(=O)[O-])cc4F)c4ccc([nH]4)c(-c4c(F)cc(S(=O)(=O)[O-])cc4F)c4nc(c(-c5c(F)cc(S(=O)(=O)[O-])cc5F)c5ccc2[nH]5)C=C4)C=C3)cc1
REMARK SMILES IDX 5 1 4 2 3 3 2 4 1 5 27 6 28 7 92 8 29 9 91 10 30 11 31 12
REMARK SMILES IDX 32 13 85 14 33 15 90 16 84 17 86 18 34 19 89 20 83 21 82 22
REMARK SMILES IDX 35 24 69 25 48 26 68 27 49 28 52 29 67 30 87 31 50 32 51 33
REMARK SMILES IDX 66 35 88 36 53 37 36 38 37 39 46 40 38 41 39 42 45 43 47 44
REMARK SMILES IDX 40 45 41 46 42 47 43 48 44 49 70 50 71 51 80 52 72 53 73 54
REMARK SMILES IDX 79 55 81 56 74 57 75 58 76 59 77 60 78 61 54 62 55 63 64 64
REMARK SMILES IDX 56 65 57 66 63 67 65 68 58 69 59 70 60 71 61 72 62 73 6 74
REMARK SMILES IDX 7 75 8 76 9 77 10 78 13 79 11 80 12 81 14 82 15 83 16 84
REMARK SMILES IDX 17 85 18 86 26 87 19 88 20 89 21 90 22 91 25 92 23 93 24 94
REMARK H PARENT 86 23 52 34
REMARK Flexibility Score: inf
ROOT
ATOM      1  C   UNL A   1      36.254  32.854  32.550  1.00  0.00     0.274 C 
ENDROOT
BRANCH   1   2
ATOM      2  C   UNL A   1      36.927  31.661  33.258  1.00  0.00     0.275 C 
BRANCH   2   3
ATOM      3  O   UNL A   1      36.563  30.385  32.759  1.00  0.00    -0.458 OA
BRANCH   3   4
ATOM      4  C   UNL A   1      37.466  29.458  32.389  1.00  0.00     0.338 C 
ATOM      5  O   UNL A   1      37.437  28.369  32.960  1.00  0.00    -0.246 OA
BRANCH   4   6
ATOM      6  C   UNL A   1      38.613  29.775  31.454  1.00  0.00     0.060 A 
ATOM      7  C   UNL A   1      38.721  30.408  30.232  1.00  0.00     0.016 A 
ATOM      8  C   UNL A   1      39.819  29.359  31.948  1.00  0.00     0.016 A 
ATOM      9  C   UNL A   1      39.939  30.298  29.450  1.00  0.00     0.010 A 
ATOM     10  C   UNL A   1      41.053  29.394  31.252  1.00  0.00     0.010 A 
ATOM     11  C   UNL A   1      41.087  29.623  29.906  1.00  0.00    -0.014 A 
BRANCH  11  12
ATOM     12  C   UNL A   1      42.376  29.303  29.188  1.00  0.00     0.031 A 
ATOM     13  C   UNL A   1      43.540  30.267  28.805  1.00  0.00     0.074 A 
ATOM     14  C   UNL A   1      42.410  28.117  28.561  1.00  0.00     0.049 A 
ATOM     15  N   UNL A   1      44.800  29.996  28.500  1.00  0.00    -0.248 NA
ATOM     16  C   UNL A   1      43.276  31.693  28.647  1.00  0.00     0.031 C 
ATOM     17  C   UNL A   1      41.310  27.153  28.510  1.00  0.00     0.029 A 
ATOM     18  N   UNL A   1      43.417  27.536  27.843  1.00  0.00    -0.354 N 
ATOM     19  C   UNL A   1      45.442  31.228  28.263  1.00  0.00     0.074 A 
ATOM     20  C   UNL A   1      44.441  32.241  28.331  1.00  0.00     0.031 C 
ATOM     21  C   UNL A   1      41.736  26.057  27.869  1.00  0.00     0.029 A 
ATOM     22  C   UNL A   1      43.137  26.244  27.490  1.00  0.00     0.049 A 
ATOM     23  H   UNL A   1      44.254  27.997  27.605  1.00  0.00     0.167 HD
ATOM     24  C   UNL A   1      46.734  31.542  27.979  1.00  0.00     0.037 A 
ATOM     25  C   UNL A   1      43.942  25.290  26.995  1.00  0.00     0.037 A 
ATOM     26  C   UNL A   1      47.709  30.556  27.633  1.00  0.00     0.049 A 
ATOM     27  C   UNL A   1      45.403  25.562  26.778  1.00  0.00     0.074 A 
ATOM     28  C   UNL A   1      49.059  30.701  27.376  1.00  0.00     0.029 A 
ATOM     29  N   UNL A   1      47.385  29.234  27.400  1.00  0.00    -0.354 N 
ATOM     30  N   UNL A   1      46.080  26.675  26.926  1.00  0.00    -0.248 NA
ATOM     31  C   UNL A   1      46.219  24.416  26.356  1.00  0.00     0.031 C 
ATOM     32  C   UNL A   1      49.539  29.465  26.924  1.00  0.00     0.029 A 
ATOM     33  C   UNL A   1      48.498  28.550  26.971  1.00  0.00     0.049 A 
ATOM     34  H   UNL A   1      46.490  28.840  27.522  1.00  0.00     0.167 HD
ATOM     35  C   UNL A   1      47.408  26.352  26.649  1.00  0.00     0.074 A 
ATOM     36  C   UNL A   1      47.435  24.942  26.330  1.00  0.00     0.031 C 
ATOM     37  C   UNL A   1      48.507  27.146  26.665  1.00  0.00     0.037 A 
BRANCH  24  38
ATOM     38  C   UNL A   1      47.147  33.004  28.034  1.00  0.00     0.058 A 
ATOM     39  C   UNL A   1      47.653  33.552  29.227  1.00  0.00     0.135 A 
ATOM     40  C   UNL A   1      47.051  33.865  26.926  1.00  0.00     0.135 A 
ATOM     41  F   UNL A   1      47.784  32.783  30.321  1.00  0.00    -0.206 F 
ATOM     42  C   UNL A   1      47.986  34.900  29.339  1.00  0.00     0.059 A 
ATOM     43  C   UNL A   1      47.403  35.215  27.008  1.00  0.00     0.059 A 
ATOM     44  F   UNL A   1      46.593  33.409  25.749  1.00  0.00    -0.206 F 
ATOM     45  C   UNL A   1      47.843  35.730  28.229  1.00  0.00     0.060 A 
BRANCH  45  46
ATOM     46  S   UNL A   1      48.221  37.489  28.417  1.00  0.00     0.124 S 
ATOM     47  O   UNL A   1      48.283  37.924  27.026  1.00  0.00    -0.237 OA
ATOM     48  O   UNL A   1      47.077  37.976  29.180  1.00  0.00    -0.237 OA
ATOM     49  O   UNL A   1      49.495  37.490  29.133  1.00  0.00    -0.744 OA
ENDBRANCH  45  46
ENDBRANCH  24  38
BRANCH  25  50
ATOM     50  C   UNL A   1      43.384  23.928  26.844  1.00  0.00     0.058 A 
ATOM     51  C   UNL A   1      43.217  23.109  27.970  1.00  0.00     0.135 A 
ATOM     52  C   UNL A   1      42.936  23.457  25.604  1.00  0.00     0.135 A 
ATOM     53  F   UNL A   1      43.615  23.536  29.178  1.00  0.00    -0.206 F 
ATOM     54  C   UNL A   1      42.646  21.850  27.867  1.00  0.00     0.059 A 
ATOM     55  C   UNL A   1      42.337  22.210  25.480  1.00  0.00     0.059 A 
ATOM     56  F   UNL A   1      43.031  24.235  24.514  1.00  0.00    -0.206 F 
ATOM     57  C   UNL A   1      42.205  21.411  26.616  1.00  0.00     0.060 A 
BRANCH  57  58
ATOM     58  S   UNL A   1      41.405  19.800  26.510  1.00  0.00     0.124 S 
ATOM     59  O   UNL A   1      40.014  20.178  26.290  1.00  0.00    -0.237 OA
ATOM     60  O   UNL A   1      42.092  19.193  25.373  1.00  0.00    -0.237 OA
ATOM     61  O   UNL A   1      41.699  19.194  27.805  1.00  0.00    -0.744 OA
ENDBRANCH  57  58
ENDBRANCH  25  50
BRANCH  37  62
ATOM     62  C   UNL A   1      49.841  26.531  26.372  1.00  0.00     0.058 A 
ATOM     63  C   UNL A   1      50.376  26.506  25.077  1.00  0.00     0.135 A 
ATOM     64  C   UNL A   1      50.642  26.069  27.429  1.00  0.00     0.135 A 
ATOM     65  F   UNL A   1      49.650  26.943  24.036  1.00  0.00    -0.206 F 
ATOM     66  C   UNL A   1      51.658  26.028  24.837  1.00  0.00     0.059 A 
ATOM     67  C   UNL A   1      51.937  25.616  27.216  1.00  0.00     0.059 A 
ATOM     68  F   UNL A   1      50.180  26.091  28.690  1.00  0.00    -0.206 F 
ATOM     69  C   UNL A   1      52.433  25.592  25.914  1.00  0.00     0.060 A 
BRANCH  69  70
ATOM     70  S   UNL A   1      54.116  25.026  25.596  1.00  0.00     0.124 S 
ATOM     71  O   UNL A   1      54.686  25.033  26.939  1.00  0.00    -0.237 OA
ATOM     72  O   UNL A   1      53.896  23.709  25.006  1.00  0.00    -0.237 OA
ATOM     73  O   UNL A   1      54.647  26.035  24.683  1.00  0.00    -0.744 OA
ENDBRANCH  69  70
ENDBRANCH  37  62
ENDBRANCH  11  12
ENDBRANCH   4   6
ENDBRANCH   3   4
ENDBRANCH   2   3
ENDBRANCH   1   2
BRANCH   1  74
ATOM     74  O   UNL A   1      35.064  33.408  33.179  1.00  0.00    -0.461 OA
BRANCH  74  75
ATOM     75  C   UNL A   1      34.758  34.738  32.968  1.00  0.00     0.328 C 
ATOM     76  O   UNL A   1      35.402  35.656  33.457  1.00  0.00    -0.250 OA
BRANCH  75  77
ATOM     77  C   UNL A   1      33.430  34.923  32.102  1.00  0.00     0.195 C 
ATOM     78  C   UNL A   1      32.749  36.154  32.732  1.00  0.00     0.039 C 
ATOM     79  N   UNL A   1      33.507  35.274  30.554  1.00  0.00    -0.329 N 
ATOM     80  C   UNL A   1      33.323  37.284  31.914  1.00  0.00     0.024 C 
ATOM     81  C   UNL A   1      33.282  36.732  30.498  1.00  0.00     0.120 C 
BRANCH  79  82
ATOM     82  C   UNL A   1      33.616  34.694  29.234  1.00  0.00     0.229 C 
ATOM     83  O   UNL A   1      32.531  34.730  28.592  1.00  0.00    -0.274 OA
BRANCH  82  84
ATOM     84  C   UNL A   1      34.686  33.771  28.407  1.00  0.00     0.157 C 
BRANCH  84  85
ATOM     85  C   UNL A   1      34.800  32.188  28.092  1.00  0.00     0.061 A 
ATOM     86  C   UNL A   1      35.895  31.351  28.134  1.00  0.00     0.091 A 
ATOM     87  N   UNL A   1      33.704  31.474  27.475  1.00  0.00    -0.240 NA
ATOM     88  S   UNL A   1      35.499  29.725  27.625  1.00  0.00    -0.121 S 
ATOM     89  C   UNL A   1      33.890  30.183  27.253  1.00  0.00     0.133 A 
BRANCH  89  90
ATOM     90  C   UNL A   1      32.826  29.248  26.833  1.00  0.00     0.063 A 
ATOM     91  C   UNL A   1      32.133  28.279  27.557  1.00  0.00     0.023 A 
ATOM     92  S   UNL A   1      32.211  29.238  25.206  1.00  0.00    -0.141 S 
ATOM     93  C   UNL A   1      31.303  27.425  26.741  1.00  0.00     0.012 A 
ATOM     94  C   UNL A   1      31.404  27.739  25.406  1.00  0.00     0.065 A 
ENDBRANCH  89  90
ENDBRANCH  84  85
ENDBRANCH  82  84
ENDBRANCH  79  82
ENDBRANCH  75  77
ENDBRANCH  74  75
ENDBRANCH   1  74
TORSDOF 18
ENDMDL
MODEL 3
REMARK VINA RESULT:     -10.7      1.295      2.308
REMARK SMILES O=C(OCCOC(=O)[C@H]1CCCN1C(=O)Cc1csc(-c2cccs2)n1)c1ccc(-c2c3nc(c(-c4c(F)cc(S(=O)(=O)[O-])cc4F)c4ccc([nH]4)c(-c4c(F)cc(S(=O)(=O)[O-])cc4F)c4nc(c(-c5c(F)cc(S(=O)(=O)[O-])cc5F)c5ccc2[nH]5)C=C4)C=C3)cc1
REMARK SMILES IDX 5 1 4 2 3 3 2 4 1 5 27 6 28 7 92 8 29 9 91 10 30 11 31 12
REMARK SMILES IDX 32 13 85 14 33 15 90 16 84 17 86 18 34 19 89 20 83 21 82 22
REMARK SMILES IDX 35 24 69 25 48 26 68 27 49 28 52 29 67 30 87 31 50 32 51 33
REMARK SMILES IDX 66 35 88 36 53 37 36 38 37 39 46 40 38 41 39 42 45 43 47 44
REMARK SMILES IDX 40 45 41 46 42 47 43 48 44 49 70 50 71 51 80 52 72 53 73 54
REMARK SMILES IDX 79 55 81 56 74 57 75 58 76 59 77 60 78 61 54 62 55 63 64 64
REMARK SMILES IDX 56 65 57 66 63 67 65 68 58 69 59 70 60 71 61 72 62 73 6 74
REMARK SMILES IDX 7 75 8 76 9 77 10 78 13 79 11 80 12 81 14 82 15 83 16 84
REMARK SMILES IDX 17 85 18 86 26 87 19 88 20 89 21 90 22 91 25 92 23 93 24 94
REMARK H PARENT 86 23 52 34
REMARK Flexibility Score: inf
ROOT
ATOM      1  C   UNL A   1      31.766  28.742  27.412  1.00  0.00     0.274 C 
ENDROOT
BRANCH   1   2
ATOM      2  C   UNL A   1      33.147  29.389  27.187  1.00  0.00     0.275 C 
BRANCH   2   3
ATOM      3  O   UNL A   1      33.288  30.698  27.713  1.00  0.00    -0.458 OA
BRANCH   3   4
ATOM      4  C   UNL A   1      34.483  31.251  27.991  1.00  0.00     0.338 C 
ATOM      5  O   UNL A   1      34.635  32.446  27.739  1.00  0.00    -0.246 OA
BRANCH   4   6
ATOM      6  C   UNL A   1      35.678  30.424  28.412  1.00  0.00     0.060 A 
ATOM      7  C   UNL A   1      36.023  29.730  29.555  1.00  0.00     0.016 A 
ATOM      8  C   UNL A   1      36.618  30.323  27.423  1.00  0.00     0.016 A 
ATOM      9  C   UNL A   1      37.384  29.268  29.755  1.00  0.00     0.010 A 
ATOM     10  C   UNL A   1      37.898  29.730  27.557  1.00  0.00     0.010 A 
ATOM     11  C   UNL A   1      38.398  29.425  28.790  1.00  0.00    -0.014 A 
BRANCH  11  12
ATOM     12  C   UNL A   1      39.875  29.127  28.877  1.00  0.00     0.031 A 
ATOM     13  C   UNL A   1      40.612  27.779  28.615  1.00  0.00     0.074 A 
ATOM     14  C   UNL A   1      40.614  30.047  29.517  1.00  0.00     0.049 A 
ATOM     15  N   UNL A   1      41.888  27.548  28.342  1.00  0.00    -0.248 NA
ATOM     16  C   UNL A   1      39.889  26.520  28.756  1.00  0.00     0.031 C 
ATOM     17  C   UNL A   1      40.098  31.268  30.137  1.00  0.00     0.029 A 
ATOM     18  N   UNL A   1      41.961  30.079  29.752  1.00  0.00    -0.354 N 
ATOM     19  C   UNL A   1      42.027  26.158  28.164  1.00  0.00     0.074 A 
ATOM     20  C   UNL A   1      40.766  25.568  28.468  1.00  0.00     0.031 C 
ATOM     21  C   UNL A   1      41.133  31.976  30.606  1.00  0.00     0.029 A 
ATOM     22  C   UNL A   1      42.373  31.263  30.299  1.00  0.00     0.049 A 
ATOM     23  H   UNL A   1      42.568  29.331  29.550  1.00  0.00     0.167 HD
ATOM     24  C   UNL A   1      43.090  25.386  27.810  1.00  0.00     0.037 A 
ATOM     25  C   UNL A   1      43.612  31.756  30.457  1.00  0.00     0.037 A 
ATOM     26  C   UNL A   1      44.426  25.891  27.761  1.00  0.00     0.049 A 
ATOM     27  C   UNL A   1      44.807  30.985  29.971  1.00  0.00     0.074 A 
ATOM     28  C   UNL A   1      45.594  25.262  27.372  1.00  0.00     0.029 A 
ATOM     29  N   UNL A   1      44.768  27.146  28.224  1.00  0.00    -0.354 N 
ATOM     30  N   UNL A   1      44.874  29.787  29.443  1.00  0.00    -0.248 NA
ATOM     31  C   UNL A   1      46.103  31.669  30.075  1.00  0.00     0.031 C 
ATOM     32  C   UNL A   1      46.657  26.128  27.661  1.00  0.00     0.029 A 
ATOM     33  C   UNL A   1      46.133  27.310  28.163  1.00  0.00     0.049 A 
ATOM     34  H   UNL A   1      44.131  27.823  28.550  1.00  0.00     0.167 HD
ATOM     35  C   UNL A   1      46.216  29.589  29.120  1.00  0.00     0.074 A 
ATOM     36  C   UNL A   1      46.919  30.792  29.508  1.00  0.00     0.031 C 
ATOM     37  C   UNL A   1      46.813  28.516  28.546  1.00  0.00     0.037 A 
BRANCH  24  38
ATOM     38  C   UNL A   1      42.835  23.931  27.455  1.00  0.00     0.058 A 
ATOM     39  C   UNL A   1      42.706  23.542  26.108  1.00  0.00     0.135 A 
ATOM     40  C   UNL A   1      42.720  22.919  28.424  1.00  0.00     0.135 A 
ATOM     41  F   UNL A   1      42.818  24.456  25.129  1.00  0.00    -0.206 F 
ATOM     42  C   UNL A   1      42.412  22.232  25.741  1.00  0.00     0.059 A 
ATOM     43  C   UNL A   1      42.450  21.591  28.078  1.00  0.00     0.059 A 
ATOM     44  F   UNL A   1      42.848  23.210  29.729  1.00  0.00    -0.206 F 
ATOM     45  C   UNL A   1      42.270  21.263  26.733  1.00  0.00     0.060 A 
BRANCH  45  46
ATOM     46  S   UNL A   1      41.824  19.583  26.236  1.00  0.00     0.124 S 
ATOM     47  O   UNL A   1      42.654  19.400  25.049  1.00  0.00    -0.237 OA
ATOM     48  O   UNL A   1      42.210  18.796  27.402  1.00  0.00    -0.237 OA
ATOM     49  O   UNL A   1      40.387  19.668  25.990  1.00  0.00    -0.744 OA
ENDBRANCH  45  46
ENDBRANCH  24  38
BRANCH  25  50
ATOM     50  C   UNL A   1      43.743  33.144  30.954  1.00  0.00     0.058 A 
ATOM     51  C   UNL A   1      44.079  33.380  32.294  1.00  0.00     0.135 A 
ATOM     52  C   UNL A   1      43.620  34.241  30.092  1.00  0.00     0.135 A 
ATOM     53  F   UNL A   1      44.228  32.351  33.143  1.00  0.00    -0.206 F 
ATOM     54  C   UNL A   1      44.264  34.668  32.774  1.00  0.00     0.059 A 
ATOM     55  C   UNL A   1      43.826  35.538  30.545  1.00  0.00     0.059 A 
ATOM     56  F   UNL A   1      43.351  34.049  28.792  1.00  0.00    -0.206 F 
ATOM     57  C   UNL A   1      44.138  35.740  31.889  1.00  0.00     0.060 A 
BRANCH  57  58
ATOM     58  S   UNL A   1      44.446  37.403  32.513  1.00  0.00     0.124 S 
ATOM     59  O   UNL A   1      43.268  37.626  33.343  1.00  0.00    -0.237 OA
ATOM     60  O   UNL A   1      45.709  37.233  33.224  1.00  0.00    -0.237 OA
ATOM     61  O   UNL A   1      44.524  38.207  31.297  1.00  0.00    -0.744 OA
ENDBRANCH  57  58
ENDBRANCH  25  50
BRANCH  37  62
ATOM     62  C   UNL A   1      48.281  28.579  28.259  1.00  0.00     0.058 A 
ATOM     63  C   UNL A   1      49.238  28.172  29.200  1.00  0.00     0.135 A 
ATOM     64  C   UNL A   1      48.725  28.940  26.976  1.00  0.00     0.135 A 
ATOM     65  F   UNL A   1      48.861  27.813  30.437  1.00  0.00    -0.206 F 
ATOM     66  C   UNL A   1      50.590  28.137  28.883  1.00  0.00     0.059 A 
ATOM     67  C   UNL A   1      50.068  28.882  26.629  1.00  0.00     0.059 A 
ATOM     68  F   UNL A   1      47.844  29.317  26.036  1.00  0.00    -0.206 F 
ATOM     69  C   UNL A   1      50.994  28.487  27.592  1.00  0.00     0.060 A 
BRANCH  69  70
ATOM     70  S   UNL A   1      52.747  28.383  27.176  1.00  0.00     0.124 S 
ATOM     71  O   UNL A   1      53.276  29.567  27.843  1.00  0.00    -0.237 OA
ATOM     72  O   UNL A   1      53.130  27.101  27.758  1.00  0.00    -0.237 OA
ATOM     73  O   UNL A   1      52.752  28.429  25.716  1.00  0.00    -0.744 OA
ENDBRANCH  69  70
ENDBRANCH  37  62
ENDBRANCH  11  12
ENDBRANCH   4   6
ENDBRANCH   3   4
ENDBRANCH   2   3
ENDBRANCH   1   2
BRANCH   1  74
ATOM     74  O   UNL A   1      31.154  28.080  26.268  1.00  0.00    -0.461 OA
BRANCH  74  75
ATOM     75  C   UNL A   1      31.816  27.020  25.681  1.00  0.00     0.328 C 
ATOM     76  O   UNL A   1      32.520  26.241  26.310  1.00  0.00    -0.250 OA
BRANCH  75  77
ATOM     77  C   UNL A   1      31.627  26.993  24.096  1.00  0.00     0.195 C 
ATOM     78  C   UNL A   1      31.824  28.464  23.678  1.00  0.00     0.039 C 
ATOM     79  N   UNL A   1      32.633  26.189  23.167  1.00  0.00    -0.329 N 
ATOM     80  C   UNL A   1      33.306  28.516  23.401  1.00  0.00     0.024 C 
ATOM     81  C   UNL A   1      33.556  27.218  22.649  1.00  0.00     0.120 C 
BRANCH  79  82
ATOM     82  C   UNL A   1      32.901  24.889  22.593  1.00  0.00     0.229 C 
ATOM     83  O   UNL A   1      33.297  24.952  21.398  1.00  0.00    -0.274 OA
BRANCH  82  84
ATOM     84  C   UNL A   1      32.603  23.322  22.966  1.00  0.00     0.157 C 
BRANCH  84  85
ATOM     85  C   UNL A   1      33.430  22.174  23.750  1.00  0.00     0.061 A 
ATOM     86  C   UNL A   1      34.674  22.223  24.343  1.00  0.00     0.091 A 
ATOM     87  N   UNL A   1      32.994  20.795  23.720  1.00  0.00    -0.240 NA
ATOM     88  S   UNL A   1      35.153  20.673  24.997  1.00  0.00    -0.121 S 
ATOM     89  C   UNL A   1      33.736  19.926  24.388  1.00  0.00     0.133 A 
BRANCH  89  90
ATOM     90  C   UNL A   1      33.344  18.526  24.652  1.00  0.00     0.063 A 
ATOM     91  C   UNL A   1      32.615  17.971  25.702  1.00  0.00     0.023 A 
ATOM     92  S   UNL A   1      33.768  17.239  23.561  1.00  0.00    -0.141 S 
ATOM     93  C   UNL A   1      32.613  16.527  25.712  1.00  0.00     0.012 A 
ATOM     94  C   UNL A   1      33.367  16.009  24.685  1.00  0.00     0.065 A 
ENDBRANCH  89  90
ENDBRANCH  84  85
ENDBRANCH  82  84
ENDBRANCH  79  82
ENDBRANCH  75  77
ENDBRANCH  74  75
ENDBRANCH   1  74
TORSDOF 18
ENDMDL
