MODEL 1
REMARK VINA RESULT:     -11.4      0.000      0.000
REMARK SMILES COc1cc(/C=C2\SC(=S)N(CC(=O)OCCOC(=O)c3ccc(-c4c5nc(c(-c6c(F)cc(S(=O)(=O)[O-])cc6F)c6ccc([nH]6)c(-c6c(F)cc(S(=O)(=O)[O-])cc6F)c6nc(c(-c7c(F)cc(S(=O)(=O)[O-])cc7F)c7ccc4[nH]7)C=C6)C=C5)cc3)C2=O)cc2c1OCO2
REMARK SMILES IDX 16 1 15 2 13 3 14 4 12 5 11 6 6 7 7 8 8 9 87 10 9 11 88 12
REMARK SMILES IDX 10 13 5 14 3 15 4 16 91 17 90 18 92 19 89 20 94 21 93 22
REMARK SMILES IDX 2 23 1 24 17 25 18 26 19 27 20 28 21 29 22 30 86 31 23 32
REMARK SMILES IDX 85 33 24 34 25 35 26 36 79 37 27 38 84 39 78 40 80 41 28 42
REMARK SMILES IDX 83 43 77 44 76 45 29 47 63 48 42 49 62 50 43 51 46 52 61 53
REMARK SMILES IDX 81 54 44 55 45 56 60 58 82 59 47 60 30 61 31 62 40 63 32 64
REMARK SMILES IDX 33 65 39 66 41 67 34 68 35 69 36 70 37 71 38 72 64 73 65 74
REMARK SMILES IDX 74 75 66 76 67 77 73 78 75 79 68 80 69 81 70 82 71 83 72 84
REMARK SMILES IDX 48 85 49 86 58 87 50 88 51 89 57 90 59 91 52 92 53 93 54 94
REMARK SMILES IDX 55 95 56 96
REMARK H PARENT 80 46 46 57
REMARK Flexibility Score: inf
ROOT
ATOM      1  C   UNL A   1      32.336  29.667  25.446  1.00  0.00     0.274 C 
ENDROOT
BRANCH   1   2
ATOM      2  O   UNL A   1      31.280  28.733  25.141  1.00  0.00    -0.461 OA
BRANCH   2   3
ATOM      3  C   UNL A   1      31.361  28.120  23.928  1.00  0.00     0.326 C 
ATOM      4  O   UNL A   1      30.424  27.979  23.151  1.00  0.00    -0.250 OA
BRANCH   3   5
ATOM      5  C   UNL A   1      32.755  27.592  23.617  1.00  0.00     0.250 C 
BRANCH   5   6
ATOM      6  N   UNL A   1      32.851  26.135  23.576  1.00  0.00    -0.282 N 
ATOM      7  C   UNL A   1      33.415  23.109  25.479  1.00  0.00     0.029 C 
ATOM      8  C   UNL A   1      33.163  23.996  24.507  1.00  0.00     0.081 C 
ATOM      9  S   UNL A   1      32.974  23.680  22.824  1.00  0.00    -0.054 SA
ATOM     10  C   UNL A   1      33.068  25.455  24.761  1.00  0.00     0.266 C 
ATOM     11  C   UNL A   1      32.742  25.376  22.434  1.00  0.00     0.148 C 
ATOM     12  O   UNL A   1      33.220  25.971  25.858  1.00  0.00    -0.268 OA
ATOM     13  S   UNL A   1      32.448  25.898  20.877  1.00  0.00    -0.052 S 
BRANCH   7  14
ATOM     14  C   UNL A   1      33.687  21.691  25.227  1.00  0.00    -0.017 A 
ATOM     15  C   UNL A   1      35.255  19.852  24.862  1.00  0.00     0.165 A 
ATOM     16  C   UNL A   1      35.002  21.220  25.041  1.00  0.00     0.058 A 
ATOM     17  C   UNL A   1      34.180  18.982  24.923  1.00  0.00     0.207 A 
ATOM     18  C   UNL A   1      32.896  19.451  25.099  1.00  0.00     0.170 A 
ATOM     19  O   UNL A   1      34.204  17.620  24.861  1.00  0.00    -0.450 OA
ATOM     20  C   UNL A   1      32.614  20.792  25.233  1.00  0.00     0.059 A 
ATOM     21  O   UNL A   1      31.969  18.457  25.156  1.00  0.00    -0.453 OA
ATOM     22  C   UNL A   1      32.815  17.298  25.068  1.00  0.00     0.468 C 
BRANCH  15  23
ATOM     23  O   UNL A   1      36.568  19.507  24.703  1.00  0.00    -0.493 OA
ATOM     24  C   UNL A   1      37.495  20.555  24.971  1.00  0.00     0.278 C 
ENDBRANCH  15  23
ENDBRANCH   7  14
ENDBRANCH   5   6
ENDBRANCH   3   5
ENDBRANCH   2   3
ENDBRANCH   1   2
BRANCH   1  25
ATOM     25  C   UNL A   1      32.438  29.880  26.953  1.00  0.00     0.275 C 
BRANCH  25  26
ATOM     26  O   UNL A   1      33.754  29.517  27.401  1.00  0.00    -0.458 OA
BRANCH  26  27
ATOM     27  C   UNL A   1      34.415  30.467  28.105  1.00  0.00     0.338 C 
ATOM     28  O   UNL A   1      33.982  31.541  28.486  1.00  0.00    -0.246 OA
BRANCH  27  29
ATOM     29  C   UNL A   1      35.801  30.019  28.312  1.00  0.00     0.060 A 
ATOM     30  C   UNL A   1      36.227  29.621  29.580  1.00  0.00     0.016 A 
ATOM     31  C   UNL A   1      36.698  30.059  27.246  1.00  0.00     0.016 A 
ATOM     32  C   UNL A   1      37.568  29.316  29.803  1.00  0.00     0.010 A 
ATOM     33  C   UNL A   1      38.028  29.685  27.455  1.00  0.00     0.010 A 
ATOM     34  C   UNL A   1      38.480  29.332  28.739  1.00  0.00    -0.014 A 
BRANCH  34  35
ATOM     35  C   UNL A   1      39.911  28.998  28.962  1.00  0.00     0.031 A 
ATOM     36  C   UNL A   1      40.862  30.049  29.464  1.00  0.00     0.074 A 
ATOM     37  C   UNL A   1      40.362  27.759  28.688  1.00  0.00     0.049 A 
ATOM     38  N   UNL A   1      42.166  30.006  29.559  1.00  0.00    -0.248 NA
ATOM     39  C   UNL A   1      40.268  31.321  29.904  1.00  0.00     0.031 C 
ATOM     40  C   UNL A   1      39.537  26.641  28.227  1.00  0.00     0.029 A 
ATOM     41  N   UNL A   1      41.630  27.235  28.745  1.00  0.00    -0.354 N 
ATOM     42  C   UNL A   1      42.554  31.256  30.030  1.00  0.00     0.074 A 
ATOM     43  C   UNL A   1      41.345  32.037  30.194  1.00  0.00     0.031 C 
ATOM     44  C   UNL A   1      40.317  25.564  28.048  1.00  0.00     0.029 A 
ATOM     45  C   UNL A   1      41.705  25.931  28.316  1.00  0.00     0.049 A 
ATOM     46  H   UNL A   1      42.410  27.744  29.063  1.00  0.00     0.167 HD
ATOM     47  C   UNL A   1      43.802  31.707  30.301  1.00  0.00     0.037 A 
ATOM     48  C   UNL A   1      42.771  25.134  28.115  1.00  0.00     0.037 A 
ATOM     49  C   UNL A   1      44.997  30.912  30.168  1.00  0.00     0.049 A 
ATOM     50  C   UNL A   1      44.149  25.667  28.383  1.00  0.00     0.074 A 
ATOM     51  C   UNL A   1      46.303  31.265  30.456  1.00  0.00     0.029 A 
ATOM     52  N   UNL A   1      45.030  29.603  29.710  1.00  0.00    -0.354 N 
ATOM     53  N   UNL A   1      44.503  26.853  28.816  1.00  0.00    -0.248 NA
ATOM     54  C   UNL A   1      45.275  24.760  28.122  1.00  0.00     0.031 C 
ATOM     55  C   UNL A   1      47.131  30.184  30.136  1.00  0.00     0.029 A 
ATOM     56  C   UNL A   1      46.336  29.142  29.684  1.00  0.00     0.049 A 
ATOM     57  H   UNL A   1      44.240  29.078  29.442  1.00  0.00     0.167 HD
ATOM     58  C   UNL A   1      45.891  26.836  28.883  1.00  0.00     0.074 A 
ATOM     59  C   UNL A   1      46.312  25.514  28.464  1.00  0.00     0.031 C 
ATOM     60  C   UNL A   1      46.739  27.826  29.253  1.00  0.00     0.037 A 
BRANCH  47  61
ATOM     61  C   UNL A   1      43.943  33.139  30.736  1.00  0.00     0.058 A 
ATOM     62  C   UNL A   1      43.864  33.519  32.084  1.00  0.00     0.135 A 
ATOM     63  C   UNL A   1      44.177  34.147  29.786  1.00  0.00     0.135 A 
ATOM     64  F   UNL A   1      43.627  32.598  33.033  1.00  0.00    -0.206 F 
ATOM     65  C   UNL A   1      43.978  34.850  32.473  1.00  0.00     0.059 A 
ATOM     66  C   UNL A   1      44.318  35.481  30.153  1.00  0.00     0.059 A 
ATOM     67  F   UNL A   1      44.262  33.839  28.481  1.00  0.00    -0.206 F 
ATOM     68  C   UNL A   1      44.200  35.825  31.499  1.00  0.00     0.060 A 
BRANCH  68  69
ATOM     69  S   UNL A   1      44.333  37.551  32.014  1.00  0.00     0.124 S 
ATOM     70  O   UNL A   1      45.771  37.682  32.226  1.00  0.00    -0.237 OA
ATOM     71  O   UNL A   1      43.797  38.266  30.860  1.00  0.00    -0.237 OA
ATOM     72  O   UNL A   1      43.512  37.610  33.219  1.00  0.00    -0.744 OA
ENDBRANCH  68  69
ENDBRANCH  47  61
BRANCH  48  73
ATOM     73  C   UNL A   1      42.567  23.756  27.599  1.00  0.00     0.058 A 
ATOM     74  C   UNL A   1      42.571  23.493  26.223  1.00  0.00     0.135 A 
ATOM     75  C   UNL A   1      42.413  22.669  28.475  1.00  0.00     0.135 A 
ATOM     76  F   UNL A   1      42.703  24.501  25.347  1.00  0.00    -0.206 F 
ATOM     77  C   UNL A   1      42.432  22.199  25.730  1.00  0.00     0.059 A 
ATOM     78  C   UNL A   1      42.297  21.364  28.007  1.00  0.00     0.059 A 
ATOM     79  F   UNL A   1      42.415  22.869  29.801  1.00  0.00    -0.206 F 
ATOM     80  C   UNL A   1      42.304  21.140  26.631  1.00  0.00     0.060 A 
BRANCH  80  81
ATOM     81  S   UNL A   1      42.211  19.456  25.986  1.00  0.00     0.124 S 
ATOM     82  O   UNL A   1      40.778  19.308  25.759  1.00  0.00    -0.237 OA
ATOM     83  O   UNL A   1      43.042  19.537  24.789  1.00  0.00    -0.237 OA
ATOM     84  O   UNL A   1      42.766  18.651  27.070  1.00  0.00    -0.744 OA
ENDBRANCH  80  81
ENDBRANCH  48  73
BRANCH  60  85
ATOM     85  C   UNL A   1      48.209  27.514  29.228  1.00  0.00     0.058 A 
ATOM     86  C   UNL A   1      48.992  27.767  28.091  1.00  0.00     0.135 A 
ATOM     87  C   UNL A   1      48.848  26.995  30.365  1.00  0.00     0.135 A 
ATOM     88  F   UNL A   1      48.426  28.255  26.976  1.00  0.00    -0.206 F 
ATOM     89  C   UNL A   1      50.357  27.499  28.076  1.00  0.00     0.059 A 
ATOM     90  C   UNL A   1      50.216  26.738  30.379  1.00  0.00     0.059 A 
ATOM     91  F   UNL A   1      48.145  26.742  31.480  1.00  0.00    -0.206 F 
ATOM     92  C   UNL A   1      50.960  26.983  29.224  1.00  0.00     0.060 A 
BRANCH  92  93
ATOM     93  S   UNL A   1      52.737  26.666  29.204  1.00  0.00     0.124 S 
ATOM     94  O   UNL A   1      52.913  25.903  30.434  1.00  0.00    -0.237 OA
ATOM     95  O   UNL A   1      52.909  25.916  27.962  1.00  0.00    -0.237 OA
ATOM     96  O   UNL A   1      53.320  28.004  29.205  1.00  0.00    -0.744 OA
ENDBRANCH  92  93
ENDBRANCH  60  85
ENDBRANCH  34  35
ENDBRANCH  27  29
ENDBRANCH  26  27
ENDBRANCH  25  26
ENDBRANCH   1  25
TORSDOF 17
ENDMDL
MODEL 2
REMARK VINA RESULT:     -11.3      5.008     11.026
REMARK SMILES COc1cc(/C=C2\SC(=S)N(CC(=O)OCCOC(=O)c3ccc(-c4c5nc(c(-c6c(F)cc(S(=O)(=O)[O-])cc6F)c6ccc([nH]6)c(-c6c(F)cc(S(=O)(=O)[O-])cc6F)c6nc(c(-c7c(F)cc(S(=O)(=O)[O-])cc7F)c7ccc4[nH]7)C=C6)C=C5)cc3)C2=O)cc2c1OCO2
REMARK SMILES IDX 16 1 15 2 13 3 14 4 12 5 11 6 6 7 7 8 8 9 87 10 9 11 88 12
REMARK SMILES IDX 10 13 5 14 3 15 4 16 91 17 90 18 92 19 89 20 94 21 93 22
REMARK SMILES IDX 2 23 1 24 17 25 18 26 19 27 20 28 21 29 22 30 86 31 23 32
REMARK SMILES IDX 85 33 24 34 25 35 26 36 79 37 27 38 84 39 78 40 80 41 28 42
REMARK SMILES IDX 83 43 77 44 76 45 29 47 63 48 42 49 62 50 43 51 46 52 61 53
REMARK SMILES IDX 81 54 44 55 45 56 60 58 82 59 47 60 30 61 31 62 40 63 32 64
REMARK SMILES IDX 33 65 39 66 41 67 34 68 35 69 36 70 37 71 38 72 64 73 65 74
REMARK SMILES IDX 74 75 66 76 67 77 73 78 75 79 68 80 69 81 70 82 71 83 72 84
REMARK SMILES IDX 48 85 49 86 58 87 50 88 51 89 57 90 59 91 52 92 53 93 54 94
REMARK SMILES IDX 55 95 56 96
REMARK H PARENT 80 46 46 57
REMARK Flexibility Score: inf
ROOT
ATOM      1  C   UNL A   1      37.849  22.360  25.139  1.00  0.00     0.274 C 
ENDROOT
BRANCH   1   2
ATOM      2  O   UNL A   1      37.010  21.230  25.448  1.00  0.00    -0.461 OA
BRANCH   2   3
ATOM      3  C   UNL A   1      35.689  21.505  25.637  1.00  0.00     0.326 C 
ATOM      4  O   UNL A   1      35.160  21.682  26.728  1.00  0.00    -0.250 OA
BRANCH   3   5
ATOM      5  C   UNL A   1      34.899  21.561  24.336  1.00  0.00     0.250 C 
BRANCH   5   6
ATOM      6  N   UNL A   1      33.947  22.666  24.258  1.00  0.00    -0.282 N 
ATOM      7  C   UNL A   1      33.445  26.136  23.359  1.00  0.00     0.029 C 
ATOM      8  C   UNL A   1      33.282  24.870  23.768  1.00  0.00     0.081 C 
ATOM      9  S   UNL A   1      31.869  24.165  24.455  1.00  0.00    -0.054 SA
ATOM     10  C   UNL A   1      34.379  23.872  23.734  1.00  0.00     0.266 C 
ATOM     11  C   UNL A   1      32.638  22.602  24.673  1.00  0.00     0.148 C 
ATOM     12  O   UNL A   1      35.513  24.113  23.348  1.00  0.00    -0.268 OA
ATOM     13  S   UNL A   1      31.824  21.292  25.310  1.00  0.00    -0.052 S 
BRANCH   7  14
ATOM     14  C   UNL A   1      32.434  27.180  23.546  1.00  0.00    -0.017 A 
ATOM     15  C   UNL A   1      31.503  29.044  24.825  1.00  0.00     0.165 A 
ATOM     16  C   UNL A   1      32.438  28.007  24.687  1.00  0.00     0.058 A 
ATOM     17  C   UNL A   1      30.614  29.255  23.786  1.00  0.00     0.207 A 
ATOM     18  C   UNL A   1      30.611  28.438  22.676  1.00  0.00     0.170 A 
ATOM     19  O   UNL A   1      29.686  30.247  23.671  1.00  0.00    -0.450 OA
ATOM     20  C   UNL A   1      31.489  27.386  22.534  1.00  0.00     0.059 A 
ATOM     21  O   UNL A   1      29.687  28.804  21.747  1.00  0.00    -0.453 OA
ATOM     22  C   UNL A   1      29.150  29.988  22.358  1.00  0.00     0.468 C 
BRANCH  15  23
ATOM     23  O   UNL A   1      31.608  29.790  25.966  1.00  0.00    -0.493 OA
ATOM     24  C   UNL A   1      32.184  29.104  27.074  1.00  0.00     0.278 C 
ENDBRANCH  15  23
ENDBRANCH   7  14
ENDBRANCH   5   6
ENDBRANCH   3   5
ENDBRANCH   2   3
ENDBRANCH   1   2
BRANCH   1  25
ATOM     25  C   UNL A   1      38.943  22.513  26.192  1.00  0.00     0.275 C 
BRANCH  25  26
ATOM     26  O   UNL A   1      39.066  23.897  26.560  1.00  0.00    -0.458 OA
BRANCH  26  27
ATOM     27  C   UNL A   1      40.331  24.344  26.742  1.00  0.00     0.338 C 
ATOM     28  O   UNL A   1      41.356  23.874  26.279  1.00  0.00    -0.246 OA
BRANCH  27  29
ATOM     29  C   UNL A   1      40.295  25.498  27.655  1.00  0.00     0.060 A 
ATOM     30  C   UNL A   1      41.268  26.494  27.564  1.00  0.00     0.016 A 
ATOM     31  C   UNL A   1      39.320  25.551  28.650  1.00  0.00     0.016 A 
ATOM     32  C   UNL A   1      41.307  27.520  28.506  1.00  0.00     0.010 A 
ATOM     33  C   UNL A   1      39.318  26.619  29.551  1.00  0.00     0.010 A 
ATOM     34  C   UNL A   1      40.324  27.600  29.501  1.00  0.00    -0.014 A 
BRANCH  34  35
ATOM     35  C   UNL A   1      40.348  28.696  30.505  1.00  0.00     0.031 A 
ATOM     36  C   UNL A   1      41.315  28.645  31.655  1.00  0.00     0.074 A 
ATOM     37  C   UNL A   1      39.484  29.724  30.398  1.00  0.00     0.049 A 
ATOM     38  N   UNL A   1      41.378  29.406  32.717  1.00  0.00    -0.248 NA
ATOM     39  C   UNL A   1      42.339  27.589  31.610  1.00  0.00     0.031 C 
ATOM     40  C   UNL A   1      38.518  29.908  29.314  1.00  0.00     0.029 A 
ATOM     41  N   UNL A   1      39.269  30.801  31.221  1.00  0.00    -0.354 N 
ATOM     42  C   UNL A   1      42.418  28.899  33.488  1.00  0.00     0.074 A 
ATOM     43  C   UNL A   1      42.954  27.758  32.772  1.00  0.00     0.031 C 
ATOM     44  C   UNL A   1      37.818  31.032  29.535  1.00  0.00     0.029 A 
ATOM     45  C   UNL A   1      38.238  31.611  30.808  1.00  0.00     0.049 A 
ATOM     46  H   UNL A   1      39.803  30.978  32.030  1.00  0.00     0.167 HD
ATOM     47  C   UNL A   1      42.883  29.344  34.680  1.00  0.00     0.037 A 
ATOM     48  C   UNL A   1      37.662  32.671  31.405  1.00  0.00     0.037 A 
ATOM     49  C   UNL A   1      42.366  30.499  35.369  1.00  0.00     0.049 A 
ATOM     50  C   UNL A   1      38.166  33.124  32.746  1.00  0.00     0.074 A 
ATOM     51  C   UNL A   1      42.796  31.054  36.562  1.00  0.00     0.029 A 
ATOM     52  N   UNL A   1      41.307  31.278  34.925  1.00  0.00    -0.354 N 
ATOM     53  N   UNL A   1      39.141  32.629  33.469  1.00  0.00    -0.248 NA
ATOM     54  C   UNL A   1      37.481  34.270  33.360  1.00  0.00     0.031 C 
ATOM     55  C   UNL A   1      41.972  32.146  36.859  1.00  0.00     0.029 A 
ATOM     56  C   UNL A   1      41.053  32.294  35.832  1.00  0.00     0.049 A 
ATOM     57  H   UNL A   1      40.809  31.130  34.088  1.00  0.00     0.167 HD
ATOM     58  C   UNL A   1      39.192  33.403  34.622  1.00  0.00     0.074 A 
ATOM     59  C   UNL A   1      38.161  34.413  34.491  1.00  0.00     0.031 C 
ATOM     60  C   UNL A   1      40.014  33.285  35.692  1.00  0.00     0.037 A 
BRANCH  47  61
ATOM     61  C   UNL A   1      43.984  28.557  35.333  1.00  0.00     0.058 A 
ATOM     62  C   UNL A   1      45.338  28.799  35.055  1.00  0.00     0.135 A 
ATOM     63  C   UNL A   1      43.678  27.552  36.266  1.00  0.00     0.135 A 
ATOM     64  F   UNL A   1      45.686  29.738  34.160  1.00  0.00    -0.206 F 
ATOM     65  C   UNL A   1      46.348  28.052  35.653  1.00  0.00     0.059 A 
ATOM     66  C   UNL A   1      44.673  26.809  36.894  1.00  0.00     0.059 A 
ATOM     67  F   UNL A   1      42.399  27.279  36.570  1.00  0.00    -0.206 F 
ATOM     68  C   UNL A   1      46.005  27.055  36.568  1.00  0.00     0.060 A 
BRANCH  68  69
ATOM     69  S   UNL A   1      47.324  26.082  37.326  1.00  0.00     0.124 S 
ATOM     70  O   UNL A   1      46.927  26.101  38.732  1.00  0.00    -0.237 OA
ATOM     71  O   UNL A   1      47.195  24.796  36.650  1.00  0.00    -0.237 OA
ATOM     72  O   UNL A   1      48.530  26.837  37.005  1.00  0.00    -0.744 OA
ENDBRANCH  68  69
ENDBRANCH  47  61
BRANCH  48  73
ATOM     73  C   UNL A   1      36.518  33.350  30.745  1.00  0.00     0.058 A 
ATOM     74  C   UNL A   1      35.209  33.182  31.216  1.00  0.00     0.135 A 
ATOM     75  C   UNL A   1      36.718  34.220  29.660  1.00  0.00     0.135 A 
ATOM     76  F   UNL A   1      34.967  32.352  32.242  1.00  0.00    -0.206 F 
ATOM     77  C   UNL A   1      34.136  33.853  30.637  1.00  0.00     0.059 A 
ATOM     78  C   UNL A   1      35.666  34.920  29.080  1.00  0.00     0.059 A 
ATOM     79  F   UNL A   1      37.955  34.423  29.182  1.00  0.00    -0.206 F 
ATOM     80  C   UNL A   1      34.376  34.726  29.575  1.00  0.00     0.060 A 
BRANCH  80  81
ATOM     81  S   UNL A   1      32.991  35.658  28.885  1.00  0.00     0.124 S 
ATOM     82  O   UNL A   1      33.683  36.726  28.173  1.00  0.00    -0.237 OA
ATOM     83  O   UNL A   1      32.330  34.659  28.052  1.00  0.00    -0.237 OA
ATOM     84  O   UNL A   1      32.242  36.069  30.070  1.00  0.00    -0.744 OA
ENDBRANCH  80  81
ENDBRANCH  48  73
BRANCH  60  85
ATOM     85  C   UNL A   1      39.837  34.279  36.805  1.00  0.00     0.058 A 
ATOM     86  C   UNL A   1      39.051  33.985  37.930  1.00  0.00     0.135 A 
ATOM     87  C   UNL A   1      40.490  35.520  36.766  1.00  0.00     0.135 A 
ATOM     88  F   UNL A   1      38.398  32.815  38.012  1.00  0.00    -0.206 F 
ATOM     89  C   UNL A   1      38.904  34.897  38.971  1.00  0.00     0.059 A 
ATOM     90  C   UNL A   1      40.375  36.439  37.805  1.00  0.00     0.059 A 
ATOM     91  F   UNL A   1      41.260  35.847  35.715  1.00  0.00    -0.206 F 
ATOM     92  C   UNL A   1      39.570  36.122  38.899  1.00  0.00     0.060 A 
BRANCH  92  93
ATOM     93  S   UNL A   1      39.396  37.286  40.268  1.00  0.00     0.124 S 
ATOM     94  O   UNL A   1      40.786  37.484  40.662  1.00  0.00    -0.237 OA
ATOM     95  O   UNL A   1      38.750  38.429  39.629  1.00  0.00    -0.237 OA
ATOM     96  O   UNL A   1      38.568  36.561  41.226  1.00  0.00    -0.744 OA
ENDBRANCH  92  93
ENDBRANCH  60  85
ENDBRANCH  34  35
ENDBRANCH  27  29
ENDBRANCH  26  27
ENDBRANCH  25  26
ENDBRANCH   1  25
TORSDOF 17
ENDMDL
MODEL 3
REMARK VINA RESULT:     -11.3      1.987      2.527
REMARK SMILES COc1cc(/C=C2\SC(=S)N(CC(=O)OCCOC(=O)c3ccc(-c4c5nc(c(-c6c(F)cc(S(=O)(=O)[O-])cc6F)c6ccc([nH]6)c(-c6c(F)cc(S(=O)(=O)[O-])cc6F)c6nc(c(-c7c(F)cc(S(=O)(=O)[O-])cc7F)c7ccc4[nH]7)C=C6)C=C5)cc3)C2=O)cc2c1OCO2
REMARK SMILES IDX 16 1 15 2 13 3 14 4 12 5 11 6 6 7 7 8 8 9 87 10 9 11 88 12
REMARK SMILES IDX 10 13 5 14 3 15 4 16 91 17 90 18 92 19 89 20 94 21 93 22
REMARK SMILES IDX 2 23 1 24 17 25 18 26 19 27 20 28 21 29 22 30 86 31 23 32
REMARK SMILES IDX 85 33 24 34 25 35 26 36 79 37 27 38 84 39 78 40 80 41 28 42
REMARK SMILES IDX 83 43 77 44 76 45 29 47 63 48 42 49 62 50 43 51 46 52 61 53
REMARK SMILES IDX 81 54 44 55 45 56 60 58 82 59 47 60 30 61 31 62 40 63 32 64
REMARK SMILES IDX 33 65 39 66 41 67 34 68 35 69 36 70 37 71 38 72 64 73 65 74
REMARK SMILES IDX 74 75 66 76 67 77 73 78 75 79 68 80 69 81 70 82 71 83 72 84
REMARK SMILES IDX 48 85 49 86 58 87 50 88 51 89 57 90 59 91 52 92 53 93 54 94
REMARK SMILES IDX 55 95 56 96
REMARK H PARENT 80 46 46 57
REMARK Flexibility Score: inf
ROOT
ATOM      1  C   UNL A   1      33.073  29.986  27.314  1.00  0.00     0.274 C 
ENDROOT
BRANCH   1   2
ATOM      2  O   UNL A   1      32.858  28.680  26.744  1.00  0.00    -0.461 OA
BRANCH   2   3
ATOM      3  C   UNL A   1      32.583  28.652  25.410  1.00  0.00     0.326 C 
ATOM      4  O   UNL A   1      33.177  29.306  24.560  1.00  0.00    -0.250 OA
BRANCH   3   5
ATOM      5  C   UNL A   1      31.430  27.723  25.056  1.00  0.00     0.250 C 
BRANCH   5   6
ATOM      6  N   UNL A   1      31.838  26.366  24.705  1.00  0.00    -0.282 N 
ATOM      7  C   UNL A   1      32.314  22.976  25.882  1.00  0.00     0.029 C 
ATOM      8  C   UNL A   1      32.243  24.088  25.136  1.00  0.00     0.081 C 
ATOM      9  S   UNL A   1      32.735  24.282  23.497  1.00  0.00    -0.054 SA
ATOM     10  C   UNL A   1      31.759  25.382  25.675  1.00  0.00     0.266 C 
ATOM     11  C   UNL A   1      32.305  25.983  23.469  1.00  0.00     0.148 C 
ATOM     12  O   UNL A   1      31.398  25.552  26.831  1.00  0.00    -0.268 OA
ATOM     13  S   UNL A   1      32.481  26.923  22.101  1.00  0.00    -0.052 S 
BRANCH   7  14
ATOM     14  C   UNL A   1      32.951  21.738  25.426  1.00  0.00    -0.017 A 
ATOM     15  C   UNL A   1      34.950  20.394  25.009  1.00  0.00     0.165 A 
ATOM     16  C   UNL A   1      34.353  21.605  25.389  1.00  0.00     0.058 A 
ATOM     17  C   UNL A   1      34.118  19.326  24.720  1.00  0.00     0.207 A 
ATOM     18  C   UNL A   1      32.747  19.465  24.752  1.00  0.00     0.170 A 
ATOM     19  O   UNL A   1      34.478  18.047  24.415  1.00  0.00    -0.450 OA
ATOM     20  C   UNL A   1      32.135  20.654  25.079  1.00  0.00     0.059 A 
ATOM     21  O   UNL A   1      32.088  18.310  24.463  1.00  0.00    -0.453 OA
ATOM     22  C   UNL A   1      33.193  17.403  24.314  1.00  0.00     0.468 C 
BRANCH  15  23
ATOM     23  O   UNL A   1      36.316  20.376  25.021  1.00  0.00    -0.493 OA
ATOM     24  C   UNL A   1      36.928  21.662  25.080  1.00  0.00     0.278 C 
ENDBRANCH  15  23
ENDBRANCH   7  14
ENDBRANCH   5   6
ENDBRANCH   3   5
ENDBRANCH   2   3
ENDBRANCH   1   2
BRANCH   1  25
ATOM     25  C   UNL A   1      34.550  30.362  27.238  1.00  0.00     0.275 C 
BRANCH  25  26
ATOM     26  O   UNL A   1      35.301  29.543  28.148  1.00  0.00    -0.458 OA
BRANCH  26  27
ATOM     27  C   UNL A   1      36.007  30.212  29.091  1.00  0.00     0.338 C 
ATOM     28  O   UNL A   1      35.574  30.985  29.928  1.00  0.00    -0.246 OA
BRANCH  27  29
ATOM     29  C   UNL A   1      37.434  29.894  28.924  1.00  0.00     0.060 A 
ATOM     30  C   UNL A   1      37.976  29.756  27.644  1.00  0.00     0.016 A 
ATOM     31  C   UNL A   1      38.220  29.667  30.052  1.00  0.00     0.016 A 
ATOM     32  C   UNL A   1      39.293  29.334  27.486  1.00  0.00     0.010 A 
ATOM     33  C   UNL A   1      39.562  29.312  29.892  1.00  0.00     0.010 A 
ATOM     34  C   UNL A   1      40.104  29.119  28.608  1.00  0.00    -0.014 A 
BRANCH  34  35
ATOM     35  C   UNL A   1      41.516  28.680  28.451  1.00  0.00     0.031 A 
ATOM     36  C   UNL A   1      42.633  29.681  28.549  1.00  0.00     0.074 A 
ATOM     37  C   UNL A   1      41.792  27.387  28.195  1.00  0.00     0.049 A 
ATOM     38  N   UNL A   1      43.903  29.532  28.276  1.00  0.00    -0.248 NA
ATOM     39  C   UNL A   1      42.269  31.033  29.001  1.00  0.00     0.031 C 
ATOM     40  C   UNL A   1      40.803  26.311  28.107  1.00  0.00     0.029 A 
ATOM     41  N   UNL A   1      42.988  26.759  27.947  1.00  0.00    -0.354 N 
ATOM     42  C   UNL A   1      44.486  30.777  28.483  1.00  0.00     0.074 A 
ATOM     43  C   UNL A   1      43.426  31.673  28.897  1.00  0.00     0.031 C 
ATOM     44  C   UNL A   1      41.431  25.158  27.831  1.00  0.00     0.029 A 
ATOM     45  C   UNL A   1      42.856  25.423  27.655  1.00  0.00     0.049 A 
ATOM     46  H   UNL A   1      43.856  27.222  27.975  1.00  0.00     0.167 HD
ATOM     47  C   UNL A   1      45.784  31.138  28.340  1.00  0.00     0.037 A 
ATOM     48  C   UNL A   1      43.768  24.520  27.248  1.00  0.00     0.037 A 
ATOM     49  C   UNL A   1      46.838  30.231  27.960  1.00  0.00     0.049 A 
ATOM     50  C   UNL A   1      45.195  24.950  27.057  1.00  0.00     0.074 A 
ATOM     51  C   UNL A   1      48.191  30.491  27.828  1.00  0.00     0.029 A 
ATOM     52  N   UNL A   1      46.658  28.890  27.654  1.00  0.00    -0.354 N 
ATOM     53  N   UNL A   1      45.730  26.133  27.243  1.00  0.00    -0.248 NA
ATOM     54  C   UNL A   1      46.140  23.928  26.586  1.00  0.00     0.031 C 
ATOM     55  C   UNL A   1      48.823  29.317  27.404  1.00  0.00     0.029 A 
ATOM     56  C   UNL A   1      47.870  28.315  27.309  1.00  0.00     0.049 A 
ATOM     57  H   UNL A   1      45.795  28.417  27.677  1.00  0.00     0.167 HD
ATOM     58  C   UNL A   1      47.074  25.998  26.916  1.00  0.00     0.074 A 
ATOM     59  C   UNL A   1      47.274  24.614  26.540  1.00  0.00     0.031 C 
ATOM     60  C   UNL A   1      48.051  26.937  26.924  1.00  0.00     0.037 A 
BRANCH  47  61
ATOM     61  C   UNL A   1      46.131  32.583  28.562  1.00  0.00     0.058 A 
ATOM     62  C   UNL A   1      46.514  33.072  29.820  1.00  0.00     0.135 A 
ATOM     63  C   UNL A   1      46.093  33.492  27.492  1.00  0.00     0.135 A 
ATOM     64  F   UNL A   1      46.553  32.249  30.881  1.00  0.00    -0.206 F 
ATOM     65  C   UNL A   1      46.816  34.415  30.018  1.00  0.00     0.059 A 
ATOM     66  C   UNL A   1      46.414  34.836  27.660  1.00  0.00     0.059 A 
ATOM     67  F   UNL A   1      45.734  33.078  26.266  1.00  0.00    -0.206 F 
ATOM     68  C   UNL A   1      46.758  35.291  28.932  1.00  0.00     0.060 A 
BRANCH  68  69
ATOM     69  S   UNL A   1      47.138  37.036  29.203  1.00  0.00     0.124 S 
ATOM     70  O   UNL A   1      48.399  36.949  29.934  1.00  0.00    -0.237 OA
ATOM     71  O   UNL A   1      47.231  37.553  27.842  1.00  0.00    -0.237 OA
ATOM     72  O   UNL A   1      45.997  37.516  29.975  1.00  0.00    -0.744 OA
ENDBRANCH  68  69
ENDBRANCH  47  61
BRANCH  48  73
ATOM     73  C   UNL A   1      43.341  23.127  26.960  1.00  0.00     0.058 A 
ATOM     74  C   UNL A   1      43.294  22.643  25.645  1.00  0.00     0.135 A 
ATOM     75  C   UNL A   1      43.018  22.238  27.998  1.00  0.00     0.135 A 
ATOM     76  F   UNL A   1      43.583  23.458  24.620  1.00  0.00    -0.206 F 
ATOM     77  C   UNL A   1      42.944  21.325  25.368  1.00  0.00     0.059 A 
ATOM     78  C   UNL A   1      42.689  20.910  27.748  1.00  0.00     0.059 A 
ATOM     79  F   UNL A   1      43.060  22.652  29.274  1.00  0.00    -0.206 F 
ATOM     80  C   UNL A   1      42.651  20.464  26.428  1.00  0.00     0.060 A 
BRANCH  80  81
ATOM     81  S   UNL A   1      42.283  18.733  26.065  1.00  0.00     0.124 S 
ATOM     82  O   UNL A   1      43.223  18.454  24.987  1.00  0.00    -0.237 OA
ATOM     83  O   UNL A   1      42.563  18.084  27.341  1.00  0.00    -0.237 OA
ATOM     84  O   UNL A   1      40.874  18.765  25.683  1.00  0.00    -0.744 OA
ENDBRANCH  80  81
ENDBRANCH  48  73
BRANCH  60  85
ATOM     85  C   UNL A   1      49.429  26.496  26.519  1.00  0.00     0.058 A 
ATOM     86  C   UNL A   1      49.908  26.696  25.215  1.00  0.00     0.135 A 
ATOM     87  C   UNL A   1      50.293  25.903  27.453  1.00  0.00     0.135 A 
ATOM     88  F   UNL A   1      49.116  27.250  24.283  1.00  0.00    -0.206 F 
ATOM     89  C   UNL A   1      51.191  26.307  24.845  1.00  0.00     0.059 A 
ATOM     90  C   UNL A   1      51.588  25.525  27.111  1.00  0.00     0.059 A 
ATOM     91  F   UNL A   1      49.886  25.697  28.715  1.00  0.00    -0.206 F 
ATOM     92  C   UNL A   1      52.024  25.721  25.800  1.00  0.00     0.060 A 
BRANCH  92  93
ATOM     93  S   UNL A   1      53.698  25.247  25.318  1.00  0.00     0.124 S 
ATOM     94  O   UNL A   1      54.500  25.947  26.315  1.00  0.00    -0.237 OA
ATOM     95  O   UNL A   1      53.661  23.792  25.442  1.00  0.00    -0.237 OA
ATOM     96  O   UNL A   1      53.812  25.749  23.952  1.00  0.00    -0.744 OA
ENDBRANCH  92  93
ENDBRANCH  60  85
ENDBRANCH  34  35
ENDBRANCH  27  29
ENDBRANCH  26  27
ENDBRANCH  25  26
ENDBRANCH   1  25
TORSDOF 17
ENDMDL
