MODEL 1
REMARK VINA RESULT:      -9.9      0.000      0.000
REMARK SMILES CCNC(=O)C[NH2+][C@@H](C)[C@@H](C)C(=O)OCCOC(=O)c1ccc(-c2c3nc(c(-c4c(F)cc(S(=O)(=O)[O-])cc4F)c4ccc([nH]4)c(-c4c(F)cc(S(=O)(=O)[O-])cc4F)c4nc(c(-c5c(F)cc(S(=O)(=O)[O-])cc5F)c5ccc2[nH]5)C=C4)C=C3)cc1
REMARK SMILES IDX 15 1 14 2 12 3 13 4 10 5 11 6 8 7 9 8 7 9 6 12 4 13 3 14
REMARK SMILES IDX 5 16 2 17 1 18 16 19 17 20 18 21 19 22 20 23 21 24 85 25
REMARK SMILES IDX 22 26 84 27 23 28 24 29 25 30 78 31 26 32 83 33 77 34 79 35
REMARK SMILES IDX 27 36 82 37 76 38 75 39 28 41 62 42 41 43 61 44 42 45 45 46
REMARK SMILES IDX 60 47 80 48 43 49 44 50 59 52 81 53 46 54 29 55 30 56 39 57
REMARK SMILES IDX 31 58 32 59 38 60 40 61 33 62 34 63 35 64 36 65 37 66 63 67
REMARK SMILES IDX 64 68 73 69 65 70 66 71 72 72 74 73 67 74 68 75 69 76 70 77
REMARK SMILES IDX 71 78 47 79 48 80 57 81 49 82 50 83 56 84 58 85 51 86 52 87
REMARK SMILES IDX 53 88 54 89 55 90
REMARK H PARENT 7 10 7 11 3 15 79 40 45 51
REMARK Flexibility Score: inf
ROOT
ATOM      1  C   UNL A   1      37.834  22.008  25.025  1.00  0.00     0.274 C 
ENDROOT
BRANCH   1   2
ATOM      2  O   UNL A   1      36.522  22.433  25.448  1.00  0.00    -0.462 OA
BRANCH   2   3
ATOM      3  C   UNL A   1      35.583  21.451  25.438  1.00  0.00     0.314 C 
ATOM      4  O   UNL A   1      35.788  20.300  25.063  1.00  0.00    -0.252 OA
BRANCH   3   5
ATOM      5  C   UNL A   1      34.204  21.911  25.868  1.00  0.00     0.154 C 
ATOM      6  C   UNL A   1      34.112  21.612  27.368  1.00  0.00     0.026 C 
BRANCH   5   7
ATOM      7  C   UNL A   1      32.999  21.347  25.071  1.00  0.00     0.193 C 
ATOM      8  C   UNL A   1      32.832  22.025  23.705  1.00  0.00     0.076 C 
BRANCH   7   9
ATOM      9  N   UNL A   1      31.786  21.558  25.888  1.00  0.00    -0.336 N 
ATOM     10  H   UNL A   1      31.208  20.719  25.827  1.00  0.00     0.346 HD
ATOM     11  H   UNL A   1      32.099  21.748  26.840  1.00  0.00     0.346 HD
BRANCH   9  12
ATOM     12  C   UNL A   1      30.976  22.710  25.466  1.00  0.00     0.362 C 
BRANCH  12  13
ATOM     13  C   UNL A   1      30.568  23.540  26.689  1.00  0.00     0.275 C 
ATOM     14  N   UNL A   1      30.997  24.832  26.807  1.00  0.00    -0.351 N 
ATOM     15  H   UNL A   1      30.764  25.284  27.651  1.00  0.00     0.163 HD
ATOM     16  O   UNL A   1      29.882  23.061  27.593  1.00  0.00    -0.269 OA
BRANCH  14  17
ATOM     17  C   UNL A   1      31.749  25.625  25.856  1.00  0.00     0.112 C 
ATOM     18  C   UNL A   1      33.238  25.373  25.999  1.00  0.00     0.027 C 
ENDBRANCH  14  17
ENDBRANCH  12  13
ENDBRANCH   9  12
ENDBRANCH   7   9
ENDBRANCH   5   7
ENDBRANCH   3   5
ENDBRANCH   2   3
ENDBRANCH   1   2
BRANCH   1  19
ATOM     19  C   UNL A   1      38.850  22.164  26.156  1.00  0.00     0.275 C 
BRANCH  19  20
ATOM     20  O   UNL A   1      39.066  23.557  26.439  1.00  0.00    -0.458 OA
BRANCH  20  21
ATOM     21  C   UNL A   1      40.347  23.907  26.701  1.00  0.00     0.338 C 
ATOM     22  O   UNL A   1      41.352  23.323  26.336  1.00  0.00    -0.246 OA
BRANCH  21  23
ATOM     23  C   UNL A   1      40.381  25.124  27.539  1.00  0.00     0.060 A 
ATOM     24  C   UNL A   1      41.403  26.070  27.420  1.00  0.00     0.016 A 
ATOM     25  C   UNL A   1      39.408  25.266  28.529  1.00  0.00     0.016 A 
ATOM     26  C   UNL A   1      41.482  27.134  28.321  1.00  0.00     0.010 A 
ATOM     27  C   UNL A   1      39.453  26.363  29.390  1.00  0.00     0.010 A 
ATOM     28  C   UNL A   1      40.504  27.293  29.313  1.00  0.00    -0.014 A 
BRANCH  28  29
ATOM     29  C   UNL A   1      40.568  28.401  30.300  1.00  0.00     0.031 A 
ATOM     30  C   UNL A   1      41.569  28.340  31.423  1.00  0.00     0.074 A 
ATOM     31  C   UNL A   1      39.698  29.425  30.229  1.00  0.00     0.049 A 
ATOM     32  N   UNL A   1      41.644  29.070  32.506  1.00  0.00    -0.248 NA
ATOM     33  C   UNL A   1      42.613  27.309  31.318  1.00  0.00     0.031 C 
ATOM     34  C   UNL A   1      38.701  29.618  29.175  1.00  0.00     0.029 A 
ATOM     35  N   UNL A   1      39.496  30.484  31.078  1.00  0.00    -0.354 N 
ATOM     36  C   UNL A   1      42.715  28.562  33.231  1.00  0.00     0.074 A 
ATOM     37  C   UNL A   1      43.257  27.459  32.466  1.00  0.00     0.031 C 
ATOM     38  C   UNL A   1      37.989  30.724  29.444  1.00  0.00     0.029 A 
ATOM     39  C   UNL A   1      38.436  31.281  30.716  1.00  0.00     0.049 A 
ATOM     40  H   UNL A   1      40.056  30.656  31.870  1.00  0.00     0.167 HD
ATOM     41  C   UNL A   1      43.196  28.976  34.429  1.00  0.00     0.037 A 
ATOM     42  C   UNL A   1      37.860  32.317  31.358  1.00  0.00     0.037 A 
ATOM     43  C   UNL A   1      42.670  30.092  35.170  1.00  0.00     0.049 A 
ATOM     44  C   UNL A   1      38.393  32.744  32.696  1.00  0.00     0.074 A 
ATOM     45  C   UNL A   1      43.098  30.601  36.384  1.00  0.00     0.029 A 
ATOM     46  N   UNL A   1      41.602  30.878  34.762  1.00  0.00    -0.354 N 
ATOM     47  N   UNL A   1      39.384  32.234  33.388  1.00  0.00    -0.248 NA
ATOM     48  C   UNL A   1      37.723  33.877  33.347  1.00  0.00     0.031 C 
ATOM     49  C   UNL A   1      42.272  31.679  36.722  1.00  0.00     0.029 A 
ATOM     50  C   UNL A   1      41.350  31.861  35.704  1.00  0.00     0.049 A 
ATOM     51  H   UNL A   1      41.097  30.754  33.926  1.00  0.00     0.167 HD
ATOM     52  C   UNL A   1      39.462  32.989  34.552  1.00  0.00     0.074 A 
ATOM     53  C   UNL A   1      38.426  33.999  34.466  1.00  0.00     0.031 C 
ATOM     54  C   UNL A   1      40.313  32.857  35.599  1.00  0.00     0.037 A 
BRANCH  41  55
ATOM     55  C   UNL A   1      44.333  28.192  35.023  1.00  0.00     0.058 A 
ATOM     56  C   UNL A   1      45.673  28.530  34.779  1.00  0.00     0.135 A 
ATOM     57  C   UNL A   1      44.075  27.095  35.860  1.00  0.00     0.135 A 
ATOM     58  F   UNL A   1      45.974  29.560  33.973  1.00  0.00    -0.206 F 
ATOM     59  C   UNL A   1      46.719  27.788  35.322  1.00  0.00     0.059 A 
ATOM     60  C   UNL A   1      45.105  26.352  36.430  1.00  0.00     0.059 A 
ATOM     61  F   UNL A   1      42.811  26.729  36.126  1.00  0.00    -0.206 F 
ATOM     62  C   UNL A   1      46.425  26.696  36.140  1.00  0.00     0.060 A 
BRANCH  62  63
ATOM     63  S   UNL A   1      47.788  25.731  36.827  1.00  0.00     0.124 S 
ATOM     64  O   UNL A   1      48.119  24.858  35.705  1.00  0.00    -0.237 OA
ATOM     65  O   UNL A   1      48.775  26.758  37.143  1.00  0.00    -0.237 OA
ATOM     66  O   UNL A   1      47.186  25.070  37.981  1.00  0.00    -0.744 OA
ENDBRANCH  62  63
ENDBRANCH  41  55
BRANCH  42  67
ATOM     67  C   UNL A   1      36.691  32.998  30.746  1.00  0.00     0.058 A 
ATOM     68  C   UNL A   1      35.394  32.771  31.225  1.00  0.00     0.135 A 
ATOM     69  C   UNL A   1      36.854  33.921  29.702  1.00  0.00     0.135 A 
ATOM     70  F   UNL A   1      35.190  31.888  32.215  1.00  0.00    -0.206 F 
ATOM     71  C   UNL A   1      34.296  33.438  30.693  1.00  0.00     0.059 A 
ATOM     72  C   UNL A   1      35.773  34.616  29.167  1.00  0.00     0.059 A 
ATOM     73  F   UNL A   1      38.079  34.181  29.217  1.00  0.00    -0.206 F 
ATOM     74  C   UNL A   1      34.496  34.364  29.668  1.00  0.00     0.060 A 
BRANCH  74  75
ATOM     75  S   UNL A   1      33.078  35.288  29.038  1.00  0.00     0.124 S 
ATOM     76  O   UNL A   1      33.723  36.471  28.478  1.00  0.00    -0.237 OA
ATOM     77  O   UNL A   1      32.504  34.357  28.072  1.00  0.00    -0.237 OA
ATOM     78  O   UNL A   1      32.270  35.514  30.234  1.00  0.00    -0.744 OA
ENDBRANCH  74  75
ENDBRANCH  42  67
BRANCH  54  79
ATOM     79  C   UNL A   1      40.175  33.843  36.722  1.00  0.00     0.058 A 
ATOM     80  C   UNL A   1      39.337  33.589  37.819  1.00  0.00     0.135 A 
ATOM     81  C   UNL A   1      40.916  35.035  36.720  1.00  0.00     0.135 A 
ATOM     82  F   UNL A   1      38.602  32.468  37.864  1.00  0.00    -0.206 F 
ATOM     83  C   UNL A   1      39.226  34.494  38.870  1.00  0.00     0.059 A 
ATOM     84  C   UNL A   1      40.834  35.945  37.769  1.00  0.00     0.059 A 
ATOM     85  F   UNL A   1      41.736  35.318  35.696  1.00  0.00    -0.206 F 
ATOM     86  C   UNL A   1      39.977  35.672  38.834  1.00  0.00     0.060 A 
BRANCH  86  87
ATOM     87  S   UNL A   1      39.850  36.828  40.215  1.00  0.00     0.124 S 
ATOM     88  O   UNL A   1      38.506  36.546  40.710  1.00  0.00    -0.237 OA
ATOM     89  O   UNL A   1      40.946  36.409  41.082  1.00  0.00    -0.237 OA
ATOM     90  O   UNL A   1      40.025  38.131  39.581  1.00  0.00    -0.744 OA
ENDBRANCH  86  87
ENDBRANCH  54  79
ENDBRANCH  28  29
ENDBRANCH  21  23
ENDBRANCH  20  21
ENDBRANCH  19  20
ENDBRANCH   1  19
TORSDOF 19
ENDMDL
MODEL 2
REMARK VINA RESULT:      -9.9      5.793     12.157
REMARK SMILES CCNC(=O)C[NH2+][C@@H](C)[C@@H](C)C(=O)OCCOC(=O)c1ccc(-c2c3nc(c(-c4c(F)cc(S(=O)(=O)[O-])cc4F)c4ccc([nH]4)c(-c4c(F)cc(S(=O)(=O)[O-])cc4F)c4nc(c(-c5c(F)cc(S(=O)(=O)[O-])cc5F)c5ccc2[nH]5)C=C4)C=C3)cc1
REMARK SMILES IDX 15 1 14 2 12 3 13 4 10 5 11 6 8 7 9 8 7 9 6 12 4 13 3 14
REMARK SMILES IDX 5 16 2 17 1 18 16 19 17 20 18 21 19 22 20 23 21 24 85 25
REMARK SMILES IDX 22 26 84 27 23 28 24 29 25 30 78 31 26 32 83 33 77 34 79 35
REMARK SMILES IDX 27 36 82 37 76 38 75 39 28 41 62 42 41 43 61 44 42 45 45 46
REMARK SMILES IDX 60 47 80 48 43 49 44 50 59 52 81 53 46 54 29 55 30 56 39 57
REMARK SMILES IDX 31 58 32 59 38 60 40 61 33 62 34 63 35 64 36 65 37 66 63 67
REMARK SMILES IDX 64 68 73 69 65 70 66 71 72 72 74 73 67 74 68 75 69 76 70 77
REMARK SMILES IDX 71 78 47 79 48 80 57 81 49 82 50 83 56 84 58 85 51 86 52 87
REMARK SMILES IDX 53 88 54 89 55 90
REMARK H PARENT 7 10 7 11 3 15 79 40 45 51
REMARK Flexibility Score: inf
ROOT
ATOM      1  C   UNL A   1      33.941  34.113  28.633  1.00  0.00     0.274 C 
ENDROOT
BRANCH   1   2
ATOM      2  O   UNL A   1      33.848  34.055  30.071  1.00  0.00    -0.462 OA
BRANCH   2   3
ATOM      3  C   UNL A   1      33.368  35.188  30.649  1.00  0.00     0.314 C 
ATOM      4  O   UNL A   1      33.193  36.248  30.055  1.00  0.00    -0.252 OA
BRANCH   3   5
ATOM      5  C   UNL A   1      33.127  35.065  32.140  1.00  0.00     0.154 C 
ATOM      6  C   UNL A   1      31.788  35.760  32.407  1.00  0.00     0.026 C 
BRANCH   5   7
ATOM      7  C   UNL A   1      34.258  35.568  33.075  1.00  0.00     0.193 C 
ATOM      8  C   UNL A   1      33.982  36.975  33.623  1.00  0.00     0.076 C 
BRANCH   7   9
ATOM      9  N   UNL A   1      35.513  35.571  32.297  1.00  0.00    -0.336 N 
ATOM     10  H   UNL A   1      35.312  35.217  31.362  1.00  0.00     0.346 HD
ATOM     11  H   UNL A   1      35.853  36.533  32.286  1.00  0.00     0.346 HD
BRANCH   9  12
ATOM     12  C   UNL A   1      36.581  34.747  32.884  1.00  0.00     0.362 C 
BRANCH  12  13
ATOM     13  C   UNL A   1      37.376  34.051  31.774  1.00  0.00     0.275 C 
ATOM     14  N   UNL A   1      37.261  32.700  31.601  1.00  0.00    -0.351 N 
ATOM     15  H   UNL A   1      37.855  32.304  30.922  1.00  0.00     0.163 HD
ATOM     16  O   UNL A   1      38.146  34.675  31.043  1.00  0.00    -0.269 OA
BRANCH  14  17
ATOM     17  C   UNL A   1      36.382  31.773  32.284  1.00  0.00     0.112 C 
ATOM     18  C   UNL A   1      37.165  30.883  33.231  1.00  0.00     0.027 C 
ENDBRANCH  14  17
ENDBRANCH  12  13
ENDBRANCH   9  12
ENDBRANCH   7   9
ENDBRANCH   5   7
ENDBRANCH   3   5
ENDBRANCH   2   3
ENDBRANCH   1   2
BRANCH   1  19
ATOM     19  C   UNL A   1      33.794  32.721  28.019  1.00  0.00     0.275 C 
BRANCH  19  20
ATOM     20  O   UNL A   1      34.484  31.750  28.824  1.00  0.00    -0.458 OA
BRANCH  20  21
ATOM     21  C   UNL A   1      34.625  30.525  28.266  1.00  0.00     0.338 C 
ATOM     22  O   UNL A   1      33.768  29.887  27.680  1.00  0.00    -0.246 OA
BRANCH  21  23
ATOM     23  C   UNL A   1      35.997  30.021  28.485  1.00  0.00     0.060 A 
ATOM     24  C   UNL A   1      36.399  29.492  29.715  1.00  0.00     0.016 A 
ATOM     25  C   UNL A   1      36.922  30.167  27.451  1.00  0.00     0.016 A 
ATOM     26  C   UNL A   1      37.737  29.155  29.930  1.00  0.00     0.010 A 
ATOM     27  C   UNL A   1      38.246  29.773  27.647  1.00  0.00     0.010 A 
ATOM     28  C   UNL A   1      38.673  29.289  28.895  1.00  0.00    -0.014 A 
BRANCH  28  29
ATOM     29  C   UNL A   1      40.107  28.958  29.095  1.00  0.00     0.031 A 
ATOM     30  C   UNL A   1      41.062  30.030  29.551  1.00  0.00     0.074 A 
ATOM     31  C   UNL A   1      40.566  27.725  28.812  1.00  0.00     0.049 A 
ATOM     32  N   UNL A   1      42.369  30.021  29.570  1.00  0.00    -0.248 NA
ATOM     33  C   UNL A   1      40.460  31.282  30.036  1.00  0.00     0.031 C 
ATOM     34  C   UNL A   1      39.744  26.591  28.391  1.00  0.00     0.029 A 
ATOM     35  N   UNL A   1      41.846  27.228  28.810  1.00  0.00    -0.354 N 
ATOM     36  C   UNL A   1      42.749  31.278  30.028  1.00  0.00     0.074 A 
ATOM     37  C   UNL A   1      41.533  32.023  30.272  1.00  0.00     0.031 C 
ATOM     38  C   UNL A   1      40.539  25.532  28.166  1.00  0.00     0.029 A 
ATOM     39  C   UNL A   1      41.928  25.930  28.366  1.00  0.00     0.049 A 
ATOM     40  H   UNL A   1      42.629  27.751  29.100  1.00  0.00     0.167 HD
ATOM     41  C   UNL A   1      44.000  31.764  30.220  1.00  0.00     0.037 A 
ATOM     42  C   UNL A   1      43.003  25.161  28.106  1.00  0.00     0.037 A 
ATOM     43  C   UNL A   1      45.204  31.006  30.003  1.00  0.00     0.049 A 
ATOM     44  C   UNL A   1      44.381  25.727  28.302  1.00  0.00     0.074 A 
ATOM     45  C   UNL A   1      46.518  31.403  30.185  1.00  0.00     0.029 A 
ATOM     46  N   UNL A   1      45.242  29.691  29.562  1.00  0.00    -0.354 N 
ATOM     47  N   UNL A   1      44.728  26.927  28.701  1.00  0.00    -0.248 NA
ATOM     48  C   UNL A   1      45.513  24.840  27.999  1.00  0.00     0.031 C 
ATOM     49  C   UNL A   1      47.351  30.335  29.829  1.00  0.00     0.029 A 
ATOM     50  C   UNL A   1      46.554  29.264  29.456  1.00  0.00     0.049 A 
ATOM     51  H   UNL A   1      44.450  29.143  29.354  1.00  0.00     0.167 HD
ATOM     52  C   UNL A   1      46.118  26.938  28.707  1.00  0.00     0.074 A 
ATOM     53  C   UNL A   1      46.548  25.620  28.283  1.00  0.00     0.031 C 
ATOM     54  C   UNL A   1      46.962  27.947  29.031  1.00  0.00     0.037 A 
BRANCH  41  55
ATOM     55  C   UNL A   1      44.123  33.196  30.659  1.00  0.00     0.058 A 
ATOM     56  C   UNL A   1      44.027  34.260  29.749  1.00  0.00     0.135 A 
ATOM     57  C   UNL A   1      44.327  33.506  32.013  1.00  0.00     0.135 A 
ATOM     58  F   UNL A   1      43.849  34.017  28.441  1.00  0.00    -0.206 F 
ATOM     59  C   UNL A   1      44.159  35.583  30.163  1.00  0.00     0.059 A 
ATOM     60  C   UNL A   1      44.440  34.823  32.452  1.00  0.00     0.059 A 
ATOM     61  F   UNL A   1      44.426  32.526  32.924  1.00  0.00    -0.206 F 
ATOM     62  C   UNL A   1      44.373  35.854  31.516  1.00  0.00     0.060 A 
BRANCH  62  63
ATOM     63  S   UNL A   1      44.556  37.572  32.042  1.00  0.00     0.124 S 
ATOM     64  O   UNL A   1      44.588  38.266  30.758  1.00  0.00    -0.237 OA
ATOM     65  O   UNL A   1      43.359  37.786  32.847  1.00  0.00    -0.237 OA
ATOM     66  O   UNL A   1      45.813  37.566  32.784  1.00  0.00    -0.744 OA
ENDBRANCH  62  63
ENDBRANCH  41  55
BRANCH  42  67
ATOM     67  C   UNL A   1      42.808  23.778  27.601  1.00  0.00     0.058 A 
ATOM     68  C   UNL A   1      42.747  22.691  28.484  1.00  0.00     0.135 A 
ATOM     69  C   UNL A   1      42.632  23.522  26.232  1.00  0.00     0.135 A 
ATOM     70  F   UNL A   1      42.920  22.887  29.801  1.00  0.00    -0.206 F 
ATOM     71  C   UNL A   1      42.517  21.397  28.030  1.00  0.00     0.059 A 
ATOM     72  C   UNL A   1      42.380  22.239  25.756  1.00  0.00     0.059 A 
ATOM     73  F   UNL A   1      42.670  24.532  25.349  1.00  0.00    -0.206 F 
ATOM     74  C   UNL A   1      42.327  21.182  26.663  1.00  0.00     0.060 A 
BRANCH  74  75
ATOM     75  S   UNL A   1      41.945  19.513  26.088  1.00  0.00     0.124 S 
ATOM     76  O   UNL A   1      40.497  19.581  25.933  1.00  0.00    -0.237 OA
ATOM     77  O   UNL A   1      42.717  19.425  24.853  1.00  0.00    -0.237 OA
ATOM     78  O   UNL A   1      42.427  18.668  27.178  1.00  0.00    -0.744 OA
ENDBRANCH  74  75
ENDBRANCH  42  67
BRANCH  54  79
ATOM     79  C   UNL A   1      48.433  27.659  28.964  1.00  0.00     0.058 A 
ATOM     80  C   UNL A   1      49.205  28.050  27.860  1.00  0.00     0.135 A 
ATOM     81  C   UNL A   1      49.084  27.020  30.030  1.00  0.00     0.135 A 
ATOM     82  F   UNL A   1      48.628  28.658  26.812  1.00  0.00    -0.206 F 
ATOM     83  C   UNL A   1      50.573  27.801  27.807  1.00  0.00     0.059 A 
ATOM     84  C   UNL A   1      50.453  26.777  30.007  1.00  0.00     0.059 A 
ATOM     85  F   UNL A   1      48.388  26.633  31.111  1.00  0.00    -0.206 F 
ATOM     86  C   UNL A   1      51.188  27.160  28.886  1.00  0.00     0.060 A 
BRANCH  86  87
ATOM     87  S   UNL A   1      52.968  26.866  28.824  1.00  0.00     0.124 S 
ATOM     88  O   UNL A   1      53.259  26.537  30.216  1.00  0.00    -0.237 OA
ATOM     89  O   UNL A   1      53.074  25.762  27.876  1.00  0.00    -0.237 OA
ATOM     90  O   UNL A   1      53.505  28.140  28.354  1.00  0.00    -0.744 OA
ENDBRANCH  86  87
ENDBRANCH  54  79
ENDBRANCH  28  29
ENDBRANCH  21  23
ENDBRANCH  20  21
ENDBRANCH  19  20
ENDBRANCH   1  19
TORSDOF 19
ENDMDL
MODEL 3
REMARK VINA RESULT:      -9.7      7.142     12.852
REMARK SMILES CCNC(=O)C[NH2+][C@@H](C)[C@@H](C)C(=O)OCCOC(=O)c1ccc(-c2c3nc(c(-c4c(F)cc(S(=O)(=O)[O-])cc4F)c4ccc([nH]4)c(-c4c(F)cc(S(=O)(=O)[O-])cc4F)c4nc(c(-c5c(F)cc(S(=O)(=O)[O-])cc5F)c5ccc2[nH]5)C=C4)C=C3)cc1
REMARK SMILES IDX 15 1 14 2 12 3 13 4 10 5 11 6 8 7 9 8 7 9 6 12 4 13 3 14
REMARK SMILES IDX 5 16 2 17 1 18 16 19 17 20 18 21 19 22 20 23 21 24 85 25
REMARK SMILES IDX 22 26 84 27 23 28 24 29 25 30 78 31 26 32 83 33 77 34 79 35
REMARK SMILES IDX 27 36 82 37 76 38 75 39 28 41 62 42 41 43 61 44 42 45 45 46
REMARK SMILES IDX 60 47 80 48 43 49 44 50 59 52 81 53 46 54 29 55 30 56 39 57
REMARK SMILES IDX 31 58 32 59 38 60 40 61 33 62 34 63 35 64 36 65 37 66 63 67
REMARK SMILES IDX 64 68 73 69 65 70 66 71 72 72 74 73 67 74 68 75 69 76 70 77
REMARK SMILES IDX 71 78 47 79 48 80 57 81 49 82 50 83 56 84 58 85 51 86 52 87
REMARK SMILES IDX 53 88 54 89 55 90
REMARK H PARENT 7 10 7 11 3 15 79 40 45 51
REMARK Flexibility Score: inf
ROOT
ATOM      1  C   UNL A   1      37.071  33.366  29.905  1.00  0.00     0.274 C 
ENDROOT
BRANCH   1   2
ATOM      2  O   UNL A   1      35.989  34.292  29.675  1.00  0.00    -0.462 OA
BRANCH   2   3
ATOM      3  C   UNL A   1      35.135  33.922  28.686  1.00  0.00     0.314 C 
ATOM      4  O   UNL A   1      35.485  33.456  27.606  1.00  0.00    -0.252 OA
BRANCH   3   5
ATOM      5  C   UNL A   1      33.677  34.203  28.993  1.00  0.00     0.154 C 
ATOM      6  C   UNL A   1      32.888  33.697  27.780  1.00  0.00     0.026 C 
BRANCH   5   7
ATOM      7  C   UNL A   1      33.312  35.661  29.377  1.00  0.00     0.193 C 
ATOM      8  C   UNL A   1      33.778  36.677  28.326  1.00  0.00     0.076 C 
BRANCH   7   9
ATOM      9  N   UNL A   1      33.950  35.954  30.676  1.00  0.00    -0.336 N 
ATOM     10  H   UNL A   1      33.868  35.128  31.268  1.00  0.00     0.346 HD
ATOM     11  H   UNL A   1      34.921  36.200  30.480  1.00  0.00     0.346 HD
BRANCH   9  12
ATOM     12  C   UNL A   1      33.356  37.096  31.388  1.00  0.00     0.362 C 
BRANCH  12  13
ATOM     13  C   UNL A   1      32.662  36.611  32.667  1.00  0.00     0.275 C 
ATOM     14  N   UNL A   1      33.365  35.886  33.588  1.00  0.00    -0.351 N 
ATOM     15  H   UNL A   1      32.842  35.541  34.348  1.00  0.00     0.163 HD
ATOM     16  O   UNL A   1      31.468  36.833  32.876  1.00  0.00    -0.269 OA
BRANCH  14  17
ATOM     17  C   UNL A   1      34.775  35.559  33.594  1.00  0.00     0.112 C 
ATOM     18  C   UNL A   1      34.992  34.106  33.977  1.00  0.00     0.027 C 
ENDBRANCH  14  17
ENDBRANCH  12  13
ENDBRANCH   9  12
ENDBRANCH   7   9
ENDBRANCH   5   7
ENDBRANCH   3   5
ENDBRANCH   2   3
ENDBRANCH   1   2
BRANCH   1  19
ATOM     19  C   UNL A   1      36.758  32.442  31.082  1.00  0.00     0.275 C 
BRANCH  19  20
ATOM     20  O   UNL A   1      36.324  31.158  30.600  1.00  0.00    -0.458 OA
BRANCH  20  21
ATOM     21  C   UNL A   1      37.009  30.094  31.079  1.00  0.00     0.338 C 
ATOM     22  O   UNL A   1      36.656  29.339  31.969  1.00  0.00    -0.246 OA
BRANCH  21  23
ATOM     23  C   UNL A   1      38.305  29.966  30.381  1.00  0.00     0.060 A 
ATOM     24  C   UNL A   1      38.391  29.971  28.985  1.00  0.00     0.016 A 
ATOM     25  C   UNL A   1      39.447  29.746  31.151  1.00  0.00     0.016 A 
ATOM     26  C   UNL A   1      39.612  29.708  28.358  1.00  0.00     0.010 A 
ATOM     27  C   UNL A   1      40.676  29.544  30.524  1.00  0.00     0.010 A 
ATOM     28  C   UNL A   1      40.767  29.495  29.123  1.00  0.00    -0.014 A 
BRANCH  28  29
ATOM     29  C   UNL A   1      42.075  29.193  28.488  1.00  0.00     0.031 A 
ATOM     30  C   UNL A   1      42.373  27.792  28.027  1.00  0.00     0.074 A 
ATOM     31  C   UNL A   1      43.015  30.150  28.381  1.00  0.00     0.049 A 
ATOM     32  N   UNL A   1      43.513  27.264  27.662  1.00  0.00    -0.248 NA
ATOM     33  C   UNL A   1      41.236  26.859  27.985  1.00  0.00     0.031 C 
ATOM     34  C   UNL A   1      42.844  31.553  28.761  1.00  0.00     0.029 A 
ATOM     35  N   UNL A   1      44.314  30.080  27.943  1.00  0.00    -0.354 N 
ATOM     36  C   UNL A   1      43.241  25.928  27.389  1.00  0.00     0.074 A 
ATOM     37  C   UNL A   1      41.829  25.727  27.633  1.00  0.00     0.031 C 
ATOM     38  C   UNL A   1      43.996  32.209  28.546  1.00  0.00     0.029 A 
ATOM     39  C   UNL A   1      45.001  31.263  28.073  1.00  0.00     0.049 A 
ATOM     40  H   UNL A   1      44.715  29.260  27.571  1.00  0.00     0.167 HD
ATOM     41  C   UNL A   1      44.095  24.960  26.978  1.00  0.00     0.037 A 
ATOM     42  C   UNL A   1      46.304  31.546  27.878  1.00  0.00     0.037 A 
ATOM     43  C   UNL A   1      45.493  25.174  26.710  1.00  0.00     0.049 A 
ATOM     44  C   UNL A   1      47.239  30.452  27.446  1.00  0.00     0.074 A 
ATOM     45  C   UNL A   1      46.439  24.262  26.274  1.00  0.00     0.029 A 
ATOM     46  N   UNL A   1      46.146  26.391  26.846  1.00  0.00    -0.354 N 
ATOM     47  N   UNL A   1      46.978  29.186  27.225  1.00  0.00    -0.248 NA
ATOM     48  C   UNL A   1      48.648  30.821  27.252  1.00  0.00     0.031 C 
ATOM     49  C   UNL A   1      47.669  24.922  26.170  1.00  0.00     0.029 A 
ATOM     50  C   UNL A   1      47.482  26.253  26.512  1.00  0.00     0.049 A 
ATOM     51  H   UNL A   1      45.720  27.230  27.138  1.00  0.00     0.167 HD
ATOM     52  C   UNL A   1      48.187  28.608  26.856  1.00  0.00     0.074 A 
ATOM     53  C   UNL A   1      49.178  29.665  26.871  1.00  0.00     0.031 C 
ATOM     54  C   UNL A   1      48.453  27.318  26.534  1.00  0.00     0.037 A 
BRANCH  41  55
ATOM     55  C   UNL A   1      43.541  23.571  26.826  1.00  0.00     0.058 A 
ATOM     56  C   UNL A   1      43.269  22.756  27.936  1.00  0.00     0.135 A 
ATOM     57  C   UNL A   1      43.267  23.054  25.549  1.00  0.00     0.135 A 
ATOM     58  F   UNL A   1      43.530  23.197  29.177  1.00  0.00    -0.206 F 
ATOM     59  C   UNL A   1      42.771  21.465  27.784  1.00  0.00     0.059 A 
ATOM     60  C   UNL A   1      42.749  21.773  25.375  1.00  0.00     0.059 A 
ATOM     61  F   UNL A   1      43.509  23.791  24.455  1.00  0.00    -0.206 F 
ATOM     62  C   UNL A   1      42.522  20.980  26.499  1.00  0.00     0.060 A 
BRANCH  62  63
ATOM     63  S   UNL A   1      41.890  19.298  26.311  1.00  0.00     0.124 S 
ATOM     64  O   UNL A   1      42.265  18.703  27.590  1.00  0.00    -0.237 OA
ATOM     65  O   UNL A   1      40.461  19.518  26.110  1.00  0.00    -0.237 OA
ATOM     66  O   UNL A   1      42.611  18.793  25.147  1.00  0.00    -0.744 OA
ENDBRANCH  62  63
ENDBRANCH  41  55
BRANCH  42  67
ATOM     67  C   UNL A   1      46.798  32.925  28.121  1.00  0.00     0.058 A 
ATOM     68  C   UNL A   1      46.804  33.879  27.095  1.00  0.00     0.135 A 
ATOM     69  C   UNL A   1      47.230  33.328  29.394  1.00  0.00     0.135 A 
ATOM     70  F   UNL A   1      46.409  33.535  25.858  1.00  0.00    -0.206 F 
ATOM     71  C   UNL A   1      47.219  35.187  27.320  1.00  0.00     0.059 A 
ATOM     72  C   UNL A   1      47.630  34.636  29.649  1.00  0.00     0.059 A 
ATOM     73  F   UNL A   1      47.231  32.453  30.413  1.00  0.00    -0.206 F 
ATOM     74  C   UNL A   1      47.624  35.558  28.604  1.00  0.00     0.060 A 
BRANCH  74  75
ATOM     75  S   UNL A   1      48.082  37.278  28.910  1.00  0.00     0.124 S 
ATOM     76  O   UNL A   1      46.810  37.961  28.700  1.00  0.00    -0.237 OA
ATOM     77  O   UNL A   1      48.562  37.231  30.287  1.00  0.00    -0.237 OA
ATOM     78  O   UNL A   1      49.111  37.532  27.905  1.00  0.00    -0.744 OA
ENDBRANCH  74  75
ENDBRANCH  42  67
BRANCH  54  79
ATOM     79  C   UNL A   1      49.866  26.985  26.151  1.00  0.00     0.058 A 
ATOM     80  C   UNL A   1      50.793  26.530  27.100  1.00  0.00     0.135 A 
ATOM     81  C   UNL A   1      50.284  27.086  24.815  1.00  0.00     0.135 A 
ATOM     82  F   UNL A   1      50.443  26.425  28.391  1.00  0.00    -0.206 F 
ATOM     83  C   UNL A   1      52.097  26.201  26.740  1.00  0.00     0.059 A 
ATOM     84  C   UNL A   1      51.577  26.745  24.430  1.00  0.00     0.059 A 
ATOM     85  F   UNL A   1      49.430  27.510  23.870  1.00  0.00    -0.206 F 
ATOM     86  C   UNL A   1      52.480  26.315  25.401  1.00  0.00     0.060 A 
BRANCH  86  87
ATOM     87  S   UNL A   1      54.163  25.860  24.936  1.00  0.00     0.124 S 
ATOM     88  O   UNL A   1      54.952  26.693  25.839  1.00  0.00    -0.237 OA
ATOM     89  O   UNL A   1      54.191  24.427  25.209  1.00  0.00    -0.237 OA
ATOM     90  O   UNL A   1      54.233  26.223  23.524  1.00  0.00    -0.744 OA
ENDBRANCH  86  87
ENDBRANCH  54  79
ENDBRANCH  28  29
ENDBRANCH  21  23
ENDBRANCH  20  21
ENDBRANCH  19  20
ENDBRANCH   1  19
TORSDOF 19
ENDMDL
