MODEL 1
REMARK VINA RESULT:     -10.2      0.000      0.000
REMARK SMILES C[C@@H]1[C@@H](C(=O)OCCOC(=O)c2ccc(-c3c4nc(c(-c5c(F)cc(S(=O)(=O)[O-])cc5F)c5ccc([nH]5)c(-c5c(F)cc(S(=O)(=O)[O-])cc5F)c5nc(c(-c6c(F)cc(S(=O)(=O)[O-])cc6F)c6ccc3[nH]6)C=C5)C=C4)cc2)CCN1C(=O)[C@]1([NH3+])CCOC1
REMARK SMILES IDX 7 1 6 2 4 3 5 4 3 5 1 6 2 7 80 8 78 9 79 10 81 11 82 12
REMARK SMILES IDX 83 13 85 14 88 15 86 16 87 17 84 18 8 22 9 23 10 24 11 25
REMARK SMILES IDX 12 26 13 27 77 28 14 29 76 30 15 31 16 32 17 33 70 34 18 35
REMARK SMILES IDX 75 36 69 37 71 38 19 39 74 40 68 41 67 42 20 44 54 45 33 46
REMARK SMILES IDX 53 47 34 48 37 49 52 50 72 51 35 52 36 53 51 55 73 56 38 57
REMARK SMILES IDX 21 58 22 59 31 60 23 61 24 62 30 63 32 64 25 65 26 66 27 67
REMARK SMILES IDX 28 68 29 69 55 70 56 71 65 72 57 73 58 74 64 75 66 76 59 77
REMARK SMILES IDX 60 78 61 79 62 80 63 81 39 82 40 83 49 84 41 85 42 86 48 87
REMARK SMILES IDX 50 88 43 89 44 90 45 91 46 92 47 93
REMARK H PARENT 84 19 84 20 84 21 71 43 37 54
REMARK Flexibility Score: inf
ROOT
ATOM      1  C   UNL A   1      35.037  33.632  27.921  1.00  0.00     0.274 C 
ENDROOT
BRANCH   1   2
ATOM      2  O   UNL A   1      35.652  34.100  29.137  1.00  0.00    -0.462 OA
BRANCH   2   3
ATOM      3  C   UNL A   1      36.890  33.595  29.408  1.00  0.00     0.311 C 
ATOM      4  O   UNL A   1      37.872  33.764  28.703  1.00  0.00    -0.252 OA
BRANCH   3   5
ATOM      5  C   UNL A   1      36.874  32.831  30.721  1.00  0.00     0.123 C 
ATOM      6  C   UNL A   1      35.282  31.873  32.428  1.00  0.00     0.032 C 
ATOM      7  C   UNL A   1      35.555  33.050  31.483  1.00  0.00     0.096 C 
ATOM      8  N   UNL A   1      35.781  34.285  32.235  1.00  0.00    -0.334 N 
ATOM      9  C   UNL A   1      37.919  33.369  31.695  1.00  0.00     0.039 C 
ATOM     10  C   UNL A   1      37.210  34.529  32.383  1.00  0.00     0.121 C 
BRANCH   8  11
ATOM     11  C   UNL A   1      34.909  35.258  32.681  1.00  0.00     0.286 C 
ATOM     12  O   UNL A   1      35.289  35.987  33.617  1.00  0.00    -0.267 OA
BRANCH  11  13
ATOM     13  C   UNL A   1      33.450  35.480  32.118  1.00  0.00     0.199 C 
ATOM     14  C   UNL A   1      33.353  35.215  30.623  1.00  0.00     0.110 C 
ATOM     15  C   UNL A   1      32.889  36.886  32.288  1.00  0.00     0.239 C 
ATOM     16  C   UNL A   1      33.034  36.554  29.990  1.00  0.00     0.167 C 
ATOM     17  O   UNL A   1      32.968  37.540  31.016  1.00  0.00    -0.374 OA
BRANCH  13  18
ATOM     18  N   UNL A   1      32.567  34.541  32.870  1.00  0.00    -0.343 N 
ATOM     19  H   UNL A   1      32.196  35.011  33.696  1.00  0.00     0.345 HD
ATOM     20  H   UNL A   1      33.106  33.724  33.158  1.00  0.00     0.345 HD
ATOM     21  H   UNL A   1      31.796  34.245  32.272  1.00  0.00     0.345 HD
ENDBRANCH  13  18
ENDBRANCH  11  13
ENDBRANCH   8  11
ENDBRANCH   3   5
ENDBRANCH   2   3
ENDBRANCH   1   2
BRANCH   1  22
ATOM     22  C   UNL A   1      34.096  32.449  28.169  1.00  0.00     0.275 C 
BRANCH  22  23
ATOM     23  O   UNL A   1      34.331  31.363  27.252  1.00  0.00    -0.458 OA
BRANCH  23  24
ATOM     24  C   UNL A   1      34.448  30.142  27.824  1.00  0.00     0.338 C 
ATOM     25  O   UNL A   1      33.567  29.295  27.918  1.00  0.00    -0.246 OA
BRANCH  24  26
ATOM     26  C   UNL A   1      35.855  29.869  28.174  1.00  0.00     0.060 A 
ATOM     27  C   UNL A   1      36.803  30.065  27.169  1.00  0.00     0.016 A 
ATOM     28  C   UNL A   1      36.252  29.410  29.434  1.00  0.00     0.016 A 
ATOM     29  C   UNL A   1      38.152  29.843  27.424  1.00  0.00     0.010 A 
ATOM     30  C   UNL A   1      37.611  29.164  29.683  1.00  0.00     0.010 A 
ATOM     31  C   UNL A   1      38.569  29.390  28.680  1.00  0.00    -0.014 A 
BRANCH  31  32
ATOM     32  C   UNL A   1      40.007  29.096  28.884  1.00  0.00     0.031 A 
ATOM     33  C   UNL A   1      40.876  30.116  29.558  1.00  0.00     0.074 A 
ATOM     34  C   UNL A   1      40.505  27.885  28.567  1.00  0.00     0.049 A 
ATOM     35  N   UNL A   1      42.150  30.058  29.843  1.00  0.00    -0.248 NA
ATOM     36  C   UNL A   1      40.215  31.359  29.984  1.00  0.00     0.031 C 
ATOM     37  C   UNL A   1      39.733  26.780  28.001  1.00  0.00     0.029 A 
ATOM     38  N   UNL A   1      41.773  27.375  28.699  1.00  0.00    -0.354 N 
ATOM     39  C   UNL A   1      42.449  31.257  30.477  1.00  0.00     0.074 A 
ATOM     40  C   UNL A   1      41.223  32.025  30.532  1.00  0.00     0.031 C 
ATOM     41  C   UNL A   1      40.539  25.715  27.850  1.00  0.00     0.029 A 
ATOM     42  C   UNL A   1      41.892  26.074  28.265  1.00  0.00     0.049 A 
ATOM     43  H   UNL A   1      42.525  27.891  29.069  1.00  0.00     0.167 HD
ATOM     44  C   UNL A   1      43.642  31.681  30.959  1.00  0.00     0.037 A 
ATOM     45  C   UNL A   1      42.977  25.275  28.198  1.00  0.00     0.037 A 
ATOM     46  C   UNL A   1      44.863  30.924  30.879  1.00  0.00     0.049 A 
ATOM     47  C   UNL A   1      44.312  25.812  28.648  1.00  0.00     0.074 A 
ATOM     48  C   UNL A   1      46.135  31.295  31.279  1.00  0.00     0.029 A 
ATOM     49  N   UNL A   1      44.966  29.642  30.359  1.00  0.00    -0.354 N 
ATOM     50  N   UNL A   1      44.594  26.968  29.203  1.00  0.00    -0.248 NA
ATOM     51  C   UNL A   1      45.482  24.944  28.447  1.00  0.00     0.031 C 
ATOM     52  C   UNL A   1      47.014  30.252  30.964  1.00  0.00     0.029 A 
ATOM     53  C   UNL A   1      46.283  29.214  30.413  1.00  0.00     0.049 A 
ATOM     54  H   UNL A   1      44.214  29.114  30.005  1.00  0.00     0.167 HD
ATOM     55  C   UNL A   1      45.967  26.957  29.430  1.00  0.00     0.074 A 
ATOM     56  C   UNL A   1      46.456  25.675  28.972  1.00  0.00     0.031 C 
ATOM     57  C   UNL A   1      46.752  27.927  29.961  1.00  0.00     0.037 A 
BRANCH  44  58
ATOM     58  C   UNL A   1      43.687  33.054  31.565  1.00  0.00     0.058 A 
ATOM     59  C   UNL A   1      43.767  34.209  30.773  1.00  0.00     0.135 A 
ATOM     60  C   UNL A   1      43.645  33.213  32.959  1.00  0.00     0.135 A 
ATOM     61  F   UNL A   1      43.835  34.110  29.436  1.00  0.00    -0.206 F 
ATOM     62  C   UNL A   1      43.826  35.477  31.345  1.00  0.00     0.059 A 
ATOM     63  C   UNL A   1      43.680  34.472  33.551  1.00  0.00     0.059 A 
ATOM     64  F   UNL A   1      43.574  32.139  33.761  1.00  0.00    -0.206 F 
ATOM     65  C   UNL A   1      43.786  35.596  32.735  1.00  0.00     0.060 A 
BRANCH  65  66
ATOM     66  S   UNL A   1      43.877  37.246  33.464  1.00  0.00     0.124 S 
ATOM     67  O   UNL A   1      44.927  37.064  34.462  1.00  0.00    -0.237 OA
ATOM     68  O   UNL A   1      44.232  38.076  32.317  1.00  0.00    -0.237 OA
ATOM     69  O   UNL A   1      42.536  37.458  33.996  1.00  0.00    -0.744 OA
ENDBRANCH  65  66
ENDBRANCH  44  58
BRANCH  45  70
ATOM     70  C   UNL A   1      42.868  23.896  27.648  1.00  0.00     0.058 A 
ATOM     71  C   UNL A   1      42.904  23.659  26.265  1.00  0.00     0.135 A 
ATOM     72  C   UNL A   1      42.681  22.789  28.492  1.00  0.00     0.135 A 
ATOM     73  F   UNL A   1      43.069  24.684  25.414  1.00  0.00    -0.206 F 
ATOM     74  C   UNL A   1      42.733  22.383  25.737  1.00  0.00     0.059 A 
ATOM     75  C   UNL A   1      42.536  21.500  27.990  1.00  0.00     0.059 A 
ATOM     76  F   UNL A   1      42.640  22.956  29.823  1.00  0.00    -0.206 F 
ATOM     77  C   UNL A   1      42.546  21.309  26.609  1.00  0.00     0.060 A 
BRANCH  77  78
ATOM     78  S   UNL A   1      42.335  19.653  25.919  1.00  0.00     0.124 S 
ATOM     79  O   UNL A   1      42.591  18.816  27.085  1.00  0.00    -0.237 OA
ATOM     80  O   UNL A   1      40.953  19.687  25.450  1.00  0.00    -0.237 OA
ATOM     81  O   UNL A   1      43.345  19.598  24.866  1.00  0.00    -0.744 OA
ENDBRANCH  77  78
ENDBRANCH  45  70
BRANCH  57  82
ATOM     82  C   UNL A   1      48.220  27.632  30.104  1.00  0.00     0.058 A 
ATOM     83  C   UNL A   1      48.705  26.782  31.109  1.00  0.00     0.135 A 
ATOM     84  C   UNL A   1      49.143  28.154  29.183  1.00  0.00     0.135 A 
ATOM     85  F   UNL A   1      47.865  26.261  32.018  1.00  0.00    -0.206 F 
ATOM     86  C   UNL A   1      50.059  26.473  31.208  1.00  0.00     0.059 A 
ATOM     87  C   UNL A   1      50.497  27.838  29.248  1.00  0.00     0.059 A 
ATOM     88  F   UNL A   1      48.729  28.964  28.196  1.00  0.00    -0.206 F 
ATOM     89  C   UNL A   1      50.947  27.003  30.270  1.00  0.00     0.060 A 
BRANCH  89  90
ATOM     90  S   UNL A   1      52.693  26.557  30.380  1.00  0.00     0.124 S 
ATOM     91  O   UNL A   1      52.680  25.579  31.461  1.00  0.00    -0.237 OA
ATOM     92  O   UNL A   1      52.966  26.026  29.048  1.00  0.00    -0.237 OA
ATOM     93  O   UNL A   1      53.348  27.825  30.688  1.00  0.00    -0.744 OA
ENDBRANCH  89  90
ENDBRANCH  57  82
ENDBRANCH  31  32
ENDBRANCH  24  26
ENDBRANCH  23  24
ENDBRANCH  22  23
ENDBRANCH   1  22
TORSDOF 17
ENDMDL
MODEL 2
REMARK VINA RESULT:     -10.2      5.963     12.080
REMARK SMILES C[C@@H]1[C@@H](C(=O)OCCOC(=O)c2ccc(-c3c4nc(c(-c5c(F)cc(S(=O)(=O)[O-])cc5F)c5ccc([nH]5)c(-c5c(F)cc(S(=O)(=O)[O-])cc5F)c5nc(c(-c6c(F)cc(S(=O)(=O)[O-])cc6F)c6ccc3[nH]6)C=C5)C=C4)cc2)CCN1C(=O)[C@]1([NH3+])CCOC1
REMARK SMILES IDX 7 1 6 2 4 3 5 4 3 5 1 6 2 7 80 8 78 9 79 10 81 11 82 12
REMARK SMILES IDX 83 13 85 14 88 15 86 16 87 17 84 18 8 22 9 23 10 24 11 25
REMARK SMILES IDX 12 26 13 27 77 28 14 29 76 30 15 31 16 32 17 33 70 34 18 35
REMARK SMILES IDX 75 36 69 37 71 38 19 39 74 40 68 41 67 42 20 44 54 45 33 46
REMARK SMILES IDX 53 47 34 48 37 49 52 50 72 51 35 52 36 53 51 55 73 56 38 57
REMARK SMILES IDX 21 58 22 59 31 60 23 61 24 62 30 63 32 64 25 65 26 66 27 67
REMARK SMILES IDX 28 68 29 69 55 70 56 71 65 72 57 73 58 74 64 75 66 76 59 77
REMARK SMILES IDX 60 78 61 79 62 80 63 81 39 82 40 83 49 84 41 85 42 86 48 87
REMARK SMILES IDX 50 88 43 89 44 90 45 91 46 92 47 93
REMARK H PARENT 84 19 84 20 84 21 71 43 37 54
REMARK Flexibility Score: inf
ROOT
ATOM      1  C   UNL A   1      39.047  21.854  25.993  1.00  0.00     0.274 C 
ENDROOT
BRANCH   1   2
ATOM      2  O   UNL A   1      37.785  22.532  25.834  1.00  0.00    -0.462 OA
BRANCH   2   3
ATOM      3  C   UNL A   1      36.703  21.727  25.628  1.00  0.00     0.311 C 
ATOM      4  O   UNL A   1      36.762  20.597  25.169  1.00  0.00    -0.252 OA
BRANCH   3   5
ATOM      5  C   UNL A   1      35.432  22.422  26.085  1.00  0.00     0.123 C 
ATOM      6  C   UNL A   1      33.273  21.980  27.314  1.00  0.00     0.032 C 
ATOM      7  C   UNL A   1      34.292  21.414  26.317  1.00  0.00     0.096 C 
ATOM      8  N   UNL A   1      33.692  21.247  24.992  1.00  0.00    -0.334 N 
ATOM      9  C   UNL A   1      34.865  23.327  24.995  1.00  0.00     0.039 C 
ATOM     10  C   UNL A   1      34.021  22.385  24.144  1.00  0.00     0.121 C 
BRANCH   8  11
ATOM     11  C   UNL A   1      33.020  20.186  24.419  1.00  0.00     0.286 C 
ATOM     12  O   UNL A   1      32.187  20.445  23.529  1.00  0.00    -0.267 OA
BRANCH  11  13
ATOM     13  C   UNL A   1      33.199  18.676  24.845  1.00  0.00     0.199 C 
ATOM     14  C   UNL A   1      34.584  18.137  24.520  1.00  0.00     0.110 C 
ATOM     15  C   UNL A   1      32.246  17.691  24.181  1.00  0.00     0.239 C 
ATOM     16  C   UNL A   1      34.371  17.073  23.462  1.00  0.00     0.167 C 
ATOM     17  O   UNL A   1      32.980  16.997  23.164  1.00  0.00    -0.374 OA
BRANCH  13  18
ATOM     18  N   UNL A   1      32.956  18.627  26.316  1.00  0.00    -0.343 N 
ATOM     19  H   UNL A   1      32.674  19.551  26.645  1.00  0.00     0.345 HD
ATOM     20  H   UNL A   1      33.811  18.344  26.794  1.00  0.00     0.345 HD
ATOM     21  H   UNL A   1      32.216  17.955  26.517  1.00  0.00     0.345 HD
ENDBRANCH  13  18
ENDBRANCH  11  13
ENDBRANCH   8  11
ENDBRANCH   3   5
ENDBRANCH   2   3
ENDBRANCH   1   2
BRANCH   1  22
ATOM     22  C   UNL A   1      40.162  22.808  26.437  1.00  0.00     0.275 C 
BRANCH  22  23
ATOM     23  O   UNL A   1      39.651  24.093  26.840  1.00  0.00    -0.458 OA
BRANCH  23  24
ATOM     24  C   UNL A   1      40.412  25.153  26.480  1.00  0.00     0.338 C 
ATOM     25  O   UNL A   1      40.837  25.395  25.356  1.00  0.00    -0.246 OA
BRANCH  24  26
ATOM     26  C   UNL A   1      40.524  26.111  27.596  1.00  0.00     0.060 A 
ATOM     27  C   UNL A   1      39.565  26.016  28.606  1.00  0.00     0.016 A 
ATOM     28  C   UNL A   1      41.514  27.096  27.659  1.00  0.00     0.016 A 
ATOM     29  C   UNL A   1      39.610  26.874  29.699  1.00  0.00     0.010 A 
ATOM     30  C   UNL A   1      41.545  27.976  28.751  1.00  0.00     0.010 A 
ATOM     31  C   UNL A   1      40.597  27.861  29.782  1.00  0.00    -0.014 A 
BRANCH  31  32
ATOM     32  C   UNL A   1      40.563  28.800  30.928  1.00  0.00     0.031 A 
ATOM     33  C   UNL A   1      39.553  29.911  30.937  1.00  0.00     0.074 A 
ATOM     34  C   UNL A   1      41.353  28.596  31.999  1.00  0.00     0.049 A 
ATOM     35  N   UNL A   1      39.345  30.832  31.840  1.00  0.00    -0.248 NA
ATOM     36  C   UNL A   1      38.646  29.979  29.781  1.00  0.00     0.031 C 
ATOM     37  C   UNL A   1      42.300  27.492  32.147  1.00  0.00     0.029 A 
ATOM     38  N   UNL A   1      41.467  29.295  33.176  1.00  0.00    -0.354 N 
ATOM     39  C   UNL A   1      38.287  31.595  31.362  1.00  0.00     0.074 A 
ATOM     40  C   UNL A   1      37.899  31.031  30.088  1.00  0.00     0.031 C 
ATOM     41  C   UNL A   1      42.887  27.577  33.354  1.00  0.00     0.029 A 
ATOM     42  C   UNL A   1      42.392  28.764  34.045  1.00  0.00     0.049 A 
ATOM     43  H   UNL A   1      40.937  30.099  33.378  1.00  0.00     0.167 HD
ATOM     44  C   UNL A   1      37.702  32.675  31.934  1.00  0.00     0.037 A 
ATOM     45  C   UNL A   1      42.801  29.201  35.254  1.00  0.00     0.037 A 
ATOM     46  C   UNL A   1      38.109  33.247  33.189  1.00  0.00     0.049 A 
ATOM     47  C   UNL A   1      42.203  30.464  35.818  1.00  0.00     0.074 A 
ATOM     48  C   UNL A   1      37.622  34.379  33.819  1.00  0.00     0.029 A 
ATOM     49  N   UNL A   1      39.105  32.733  34.007  1.00  0.00    -0.354 N 
ATOM     50  N   UNL A   1      41.234  31.207  35.336  1.00  0.00    -0.248 NA
ATOM     51  C   UNL A   1      42.764  30.961  37.084  1.00  0.00     0.031 C 
ATOM     52  C   UNL A   1      38.351  34.571  34.998  1.00  0.00     0.029 A 
ATOM     53  C   UNL A   1      39.259  33.534  35.127  1.00  0.00     0.049 A 
ATOM     54  H   UNL A   1      39.625  31.918  33.820  1.00  0.00     0.167 HD
ATOM     55  C   UNL A   1      41.062  32.247  36.244  1.00  0.00     0.074 A 
ATOM     56  C   UNL A   1      42.010  32.027  37.315  1.00  0.00     0.031 C 
ATOM     57  C   UNL A   1      40.202  33.295  36.191  1.00  0.00     0.037 A 
BRANCH  44  58
ATOM     58  C   UNL A   1      36.594  33.339  31.169  1.00  0.00     0.058 A 
ATOM     59  C   UNL A   1      36.843  34.097  30.015  1.00  0.00     0.135 A 
ATOM     60  C   UNL A   1      35.263  33.208  31.595  1.00  0.00     0.135 A 
ATOM     61  F   UNL A   1      38.101  34.272  29.579  1.00  0.00    -0.206 F 
ATOM     62  C   UNL A   1      35.811  34.723  29.321  1.00  0.00     0.059 A 
ATOM     63  C   UNL A   1      34.213  33.806  30.905  1.00  0.00     0.059 A 
ATOM     64  F   UNL A   1      34.972  32.498  32.697  1.00  0.00    -0.206 F 
ATOM     65  C   UNL A   1      34.500  34.574  29.778  1.00  0.00     0.060 A 
BRANCH  65  66
ATOM     66  S   UNL A   1      33.172  35.403  28.878  1.00  0.00     0.124 S 
ATOM     67  O   UNL A   1      32.580  34.290  28.143  1.00  0.00    -0.237 OA
ATOM     68  O   UNL A   1      32.358  35.953  29.958  1.00  0.00    -0.237 OA
ATOM     69  O   UNL A   1      33.876  36.388  28.065  1.00  0.00    -0.744 OA
ENDBRANCH  65  66
ENDBRANCH  44  58
BRANCH  45  70
ATOM     70  C   UNL A   1      43.859  28.470  36.005  1.00  0.00     0.058 A 
ATOM     71  C   UNL A   1      43.535  27.433  36.894  1.00  0.00     0.135 A 
ATOM     72  C   UNL A   1      45.214  28.821  35.882  1.00  0.00     0.135 A 
ATOM     73  F   UNL A   1      42.254  27.067  37.058  1.00  0.00    -0.206 F 
ATOM     74  C   UNL A   1      44.508  26.791  37.653  1.00  0.00     0.059 A 
ATOM     75  C   UNL A   1      46.208  28.174  36.609  1.00  0.00     0.059 A 
ATOM     76  F   UNL A   1      45.581  29.803  35.044  1.00  0.00    -0.206 F 
ATOM     77  C   UNL A   1      45.843  27.171  37.506  1.00  0.00     0.060 A 
BRANCH  77  78
ATOM     78  S   UNL A   1      47.104  26.327  38.486  1.00  0.00     0.124 S 
ATOM     79  O   UNL A   1      47.780  25.531  37.469  1.00  0.00    -0.237 OA
ATOM     80  O   UNL A   1      47.868  27.443  39.035  1.00  0.00    -0.237 OA
ATOM     81  O   UNL A   1      46.320  25.574  39.461  1.00  0.00    -0.744 OA
ENDBRANCH  77  78
ENDBRANCH  45  70
BRANCH  57  82
ATOM     82  C   UNL A   1      40.224  34.270  37.335  1.00  0.00     0.058 A 
ATOM     83  C   UNL A   1      41.061  35.396  37.326  1.00  0.00     0.135 A 
ATOM     84  C   UNL A   1      39.350  34.111  38.424  1.00  0.00     0.135 A 
ATOM     85  F   UNL A   1      41.919  35.592  36.312  1.00  0.00    -0.206 F 
ATOM     86  C   UNL A   1      41.044  36.323  38.364  1.00  0.00     0.059 A 
ATOM     87  C   UNL A   1      39.298  35.038  39.460  1.00  0.00     0.059 A 
ATOM     88  F   UNL A   1      38.521  33.056  38.476  1.00  0.00    -0.206 F 
ATOM     89  C   UNL A   1      40.156  36.137  39.426  1.00  0.00     0.060 A 
BRANCH  89  90
ATOM     90  S   UNL A   1      40.109  37.371  40.744  1.00  0.00     0.124 S 
ATOM     91  O   UNL A   1      38.741  37.865  40.636  1.00  0.00    -0.237 OA
ATOM     92  O   UNL A   1      40.405  36.574  41.930  1.00  0.00    -0.237 OA
ATOM     93  O   UNL A   1      41.151  38.318  40.358  1.00  0.00    -0.744 OA
ENDBRANCH  89  90
ENDBRANCH  57  82
ENDBRANCH  31  32
ENDBRANCH  24  26
ENDBRANCH  23  24
ENDBRANCH  22  23
ENDBRANCH   1  22
TORSDOF 17
ENDMDL
MODEL 3
REMARK VINA RESULT:     -10.2      0.566      8.404
REMARK SMILES C[C@@H]1[C@@H](C(=O)OCCOC(=O)c2ccc(-c3c4nc(c(-c5c(F)cc(S(=O)(=O)[O-])cc5F)c5ccc([nH]5)c(-c5c(F)cc(S(=O)(=O)[O-])cc5F)c5nc(c(-c6c(F)cc(S(=O)(=O)[O-])cc6F)c6ccc3[nH]6)C=C5)C=C4)cc2)CCN1C(=O)[C@]1([NH3+])CCOC1
REMARK SMILES IDX 7 1 6 2 4 3 5 4 3 5 1 6 2 7 80 8 78 9 79 10 81 11 82 12
REMARK SMILES IDX 83 13 85 14 88 15 86 16 87 17 84 18 8 22 9 23 10 24 11 25
REMARK SMILES IDX 12 26 13 27 77 28 14 29 76 30 15 31 16 32 17 33 70 34 18 35
REMARK SMILES IDX 75 36 69 37 71 38 19 39 74 40 68 41 67 42 20 44 54 45 33 46
REMARK SMILES IDX 53 47 34 48 37 49 52 50 72 51 35 52 36 53 51 55 73 56 38 57
REMARK SMILES IDX 21 58 22 59 31 60 23 61 24 62 30 63 32 64 25 65 26 66 27 67
REMARK SMILES IDX 28 68 29 69 55 70 56 71 65 72 57 73 58 74 64 75 66 76 59 77
REMARK SMILES IDX 60 78 61 79 62 80 63 81 39 82 40 83 49 84 41 85 42 86 48 87
REMARK SMILES IDX 50 88 43 89 44 90 45 91 46 92 47 93
REMARK H PARENT 84 19 84 20 84 21 71 43 37 54
REMARK Flexibility Score: inf
ROOT
ATOM      1  C   UNL A   1      35.240  33.361  27.926  1.00  0.00     0.274 C 
ENDROOT
BRANCH   1   2
ATOM      2  O   UNL A   1      35.770  34.000  29.105  1.00  0.00    -0.462 OA
BRANCH   2   3
ATOM      3  C   UNL A   1      37.033  33.629  29.462  1.00  0.00     0.311 C 
ATOM      4  O   UNL A   1      38.039  33.915  28.833  1.00  0.00    -0.252 OA
BRANCH   3   5
ATOM      5  C   UNL A   1      37.006  32.848  30.765  1.00  0.00     0.123 C 
ATOM      6  C   UNL A   1      35.400  31.835  32.427  1.00  0.00     0.032 C 
ATOM      7  C   UNL A   1      35.667  33.029  31.503  1.00  0.00     0.096 C 
ATOM      8  N   UNL A   1      35.852  34.259  32.274  1.00  0.00    -0.334 N 
ATOM      9  C   UNL A   1      38.019  33.395  31.767  1.00  0.00     0.039 C 
ATOM     10  C   UNL A   1      37.272  34.531  32.455  1.00  0.00     0.121 C 
BRANCH   8  11
ATOM     11  C   UNL A   1      34.950  35.208  32.714  1.00  0.00     0.286 C 
ATOM     12  O   UNL A   1      35.304  35.948  33.651  1.00  0.00    -0.267 OA
BRANCH  11  13
ATOM     13  C   UNL A   1      33.488  35.388  32.142  1.00  0.00     0.199 C 
ATOM     14  C   UNL A   1      33.404  35.101  30.651  1.00  0.00     0.110 C 
ATOM     15  C   UNL A   1      32.893  36.781  32.293  1.00  0.00     0.239 C 
ATOM     16  C   UNL A   1      33.056  36.425  29.999  1.00  0.00     0.167 C 
ATOM     17  O   UNL A   1      32.962  37.421  31.013  1.00  0.00    -0.374 OA
BRANCH  13  18
ATOM     18  N   UNL A   1      32.625  34.437  32.903  1.00  0.00    -0.343 N 
ATOM     19  H   UNL A   1      32.127  33.832  32.250  1.00  0.00     0.345 HD
ATOM     20  H   UNL A   1      31.952  34.961  33.462  1.00  0.00     0.345 HD
ATOM     21  H   UNL A   1      33.206  33.867  33.519  1.00  0.00     0.345 HD
ENDBRANCH  13  18
ENDBRANCH  11  13
ENDBRANCH   8  11
ENDBRANCH   3   5
ENDBRANCH   2   3
ENDBRANCH   1   2
BRANCH   1  22
ATOM     22  C   UNL A   1      34.353  32.160  28.270  1.00  0.00     0.275 C 
BRANCH  22  23
ATOM     23  O   UNL A   1      34.447  31.113  27.286  1.00  0.00    -0.458 OA
BRANCH  23  24
ATOM     24  C   UNL A   1      34.627  29.868  27.787  1.00  0.00     0.338 C 
ATOM     25  O   UNL A   1      33.814  28.951  27.763  1.00  0.00    -0.246 OA
BRANCH  24  26
ATOM     26  C   UNL A   1      36.024  29.682  28.218  1.00  0.00     0.060 A 
ATOM     27  C   UNL A   1      37.010  29.820  27.238  1.00  0.00     0.016 A 
ATOM     28  C   UNL A   1      36.381  29.357  29.531  1.00  0.00     0.016 A 
ATOM     29  C   UNL A   1      38.352  29.673  27.568  1.00  0.00     0.010 A 
ATOM     30  C   UNL A   1      37.735  29.186  29.857  1.00  0.00     0.010 A 
ATOM     31  C   UNL A   1      38.728  29.355  28.878  1.00  0.00    -0.014 A 
BRANCH  31  32
ATOM     32  C   UNL A   1      40.165  29.135  29.167  1.00  0.00     0.031 A 
ATOM     33  C   UNL A   1      40.791  27.818  28.816  1.00  0.00     0.074 A 
ATOM     34  C   UNL A   1      40.925  30.142  29.638  1.00  0.00     0.049 A 
ATOM     35  N   UNL A   1      42.027  27.422  28.973  1.00  0.00    -0.248 NA
ATOM     36  C   UNL A   1      39.910  26.821  28.188  1.00  0.00     0.031 C 
ATOM     37  C   UNL A   1      40.448  31.495  29.919  1.00  0.00     0.029 A 
ATOM     38  N   UNL A   1      42.264  30.190  29.939  1.00  0.00    -0.354 N 
ATOM     39  C   UNL A   1      42.074  26.128  28.469  1.00  0.00     0.074 A 
ATOM     40  C   UNL A   1      40.742  25.805  28.004  1.00  0.00     0.031 C 
ATOM     41  C   UNL A   1      41.483  32.247  30.336  1.00  0.00     0.029 A 
ATOM     42  C   UNL A   1      42.684  31.418  30.394  1.00  0.00     0.049 A 
ATOM     43  H   UNL A   1      42.866  29.418  29.838  1.00  0.00     0.167 HD
ATOM     44  C   UNL A   1      43.133  25.285  28.410  1.00  0.00     0.037 A 
ATOM     45  C   UNL A   1      43.898  31.819  30.823  1.00  0.00     0.037 A 
ATOM     46  C   UNL A   1      44.449  25.603  28.897  1.00  0.00     0.049 A 
ATOM     47  C   UNL A   1      45.033  30.827  30.842  1.00  0.00     0.074 A 
ATOM     48  C   UNL A   1      45.570  24.792  28.942  1.00  0.00     0.029 A 
ATOM     49  N   UNL A   1      44.822  26.829  29.429  1.00  0.00    -0.354 N 
ATOM     50  N   UNL A   1      45.057  29.589  30.406  1.00  0.00    -0.248 NA
ATOM     51  C   UNL A   1      46.306  31.279  31.425  1.00  0.00     0.031 C 
ATOM     52  C   UNL A   1      46.609  25.517  29.537  1.00  0.00     0.029 A 
ATOM     53  C   UNL A   1      46.150  26.792  29.819  1.00  0.00     0.049 A 
ATOM     54  H   UNL A   1      44.229  27.611  29.514  1.00  0.00     0.167 HD
ATOM     55  C   UNL A   1      46.344  29.122  30.651  1.00  0.00     0.074 A 
ATOM     56  C   UNL A   1      47.078  30.215  31.252  1.00  0.00     0.031 C 
ATOM     57  C   UNL A   1      46.870  27.895  30.407  1.00  0.00     0.037 A 
BRANCH  44  58
ATOM     58  C   UNL A   1      42.888  23.915  27.848  1.00  0.00     0.058 A 
ATOM     59  C   UNL A   1      42.897  23.670  26.466  1.00  0.00     0.135 A 
ATOM     60  C   UNL A   1      42.645  22.831  28.706  1.00  0.00     0.135 A 
ATOM     61  F   UNL A   1      43.101  24.677  25.602  1.00  0.00    -0.206 F 
ATOM     62  C   UNL A   1      42.652  22.399  25.953  1.00  0.00     0.059 A 
ATOM     63  C   UNL A   1      42.420  21.548  28.217  1.00  0.00     0.059 A 
ATOM     64  F   UNL A   1      42.619  23.014  30.036  1.00  0.00    -0.206 F 
ATOM     65  C   UNL A   1      42.410  21.346  26.838  1.00  0.00     0.060 A 
BRANCH  65  66
ATOM     66  S   UNL A   1      42.079  19.706  26.160  1.00  0.00     0.124 S 
ATOM     67  O   UNL A   1      40.642  19.776  25.919  1.00  0.00    -0.237 OA
ATOM     68  O   UNL A   1      42.921  19.685  24.967  1.00  0.00    -0.237 OA
ATOM     69  O   UNL A   1      42.493  18.805  27.230  1.00  0.00    -0.744 OA
ENDBRANCH  65  66
ENDBRANCH  44  58
BRANCH  45  70
ATOM     70  C   UNL A   1      44.108  33.210  31.312  1.00  0.00     0.058 A 
ATOM     71  C   UNL A   1      43.920  33.542  32.663  1.00  0.00     0.135 A 
ATOM     72  C   UNL A   1      44.457  34.246  30.430  1.00  0.00     0.135 A 
ATOM     73  F   UNL A   1      43.573  32.591  33.544  1.00  0.00    -0.206 F 
ATOM     74  C   UNL A   1      44.045  34.851  33.117  1.00  0.00     0.059 A 
ATOM     75  C   UNL A   1      44.616  35.558  30.866  1.00  0.00     0.059 A 
ATOM     76  F   UNL A   1      44.652  33.985  29.128  1.00  0.00    -0.206 F 
ATOM     77  C   UNL A   1      44.390  35.854  32.209  1.00  0.00     0.060 A 
BRANCH  77  78
ATOM     78  S   UNL A   1      44.560  37.550  32.806  1.00  0.00     0.124 S 
ATOM     79  O   UNL A   1      43.301  37.737  33.518  1.00  0.00    -0.237 OA
ATOM     80  O   UNL A   1      45.757  37.466  33.638  1.00  0.00    -0.237 OA
ATOM     81  O   UNL A   1      44.713  38.323  31.577  1.00  0.00    -0.744 OA
ENDBRANCH  77  78
ENDBRANCH  45  70
BRANCH  57  82
ATOM     82  C   UNL A   1      48.314  27.674  30.764  1.00  0.00     0.058 A 
ATOM     83  C   UNL A   1      48.691  27.121  31.997  1.00  0.00     0.135 A 
ATOM     84  C   UNL A   1      49.328  27.959  29.834  1.00  0.00     0.135 A 
ATOM     85  F   UNL A   1      47.761  26.836  32.922  1.00  0.00    -0.206 F 
ATOM     86  C   UNL A   1      50.025  26.873  32.304  1.00  0.00     0.059 A 
ATOM     87  C   UNL A   1      50.666  27.696  30.110  1.00  0.00     0.059 A 
ATOM     88  F   UNL A   1      49.019  28.480  28.636  1.00  0.00    -0.206 F 
ATOM     89  C   UNL A   1      51.006  27.161  31.353  1.00  0.00     0.060 A 
BRANCH  89  90
ATOM     90  S   UNL A   1      52.730  26.791  31.744  1.00  0.00     0.124 S 
ATOM     91  O   UNL A   1      52.685  25.345  31.932  1.00  0.00    -0.237 OA
ATOM     92  O   UNL A   1      53.429  27.255  30.551  1.00  0.00    -0.237 OA
ATOM     93  O   UNL A   1      52.978  27.573  32.952  1.00  0.00    -0.744 OA
ENDBRANCH  89  90
ENDBRANCH  57  82
ENDBRANCH  31  32
ENDBRANCH  24  26
ENDBRANCH  23  24
ENDBRANCH  22  23
ENDBRANCH   1  22
TORSDOF 17
ENDMDL
