MODEL 1
REMARK VINA RESULT:     -13.5      0.000      0.000
REMARK SMILES Cc1c(C(=O)NC(=S)Nc2ccccc2C(=O)OCCOC(=O)c2ccc(-c3c4nc(c(-c5c(F)cc(S(=O)(=O)[O-])cc5F)c5ccc([nH]5)c(-c5c(F)cc(S(=O)(=O)[O-])cc5F)c5nc(c(-c6c(F)cc(S(=O)(=O)[O-])cc6F)c6ccc3[nH]6)C=C5)C=C4)cc2)cccc1[N+](=O)[O-]
REMARK SMILES IDX 19 1 18 2 16 3 17 4 15 5 10 6 11 7 12 8 14 9 13 10 9 11 7 13
REMARK SMILES IDX 8 14 6 15 4 16 5 17 3 19 1 20 2 21 93 22 90 23 92 24 91 25
REMARK SMILES IDX 94 26 95 27 96 28 20 29 21 30 22 31 23 32 24 33 25 34 89 35
REMARK SMILES IDX 26 36 88 37 27 38 28 39 29 40 82 41 30 42 87 43 81 44 83 45
REMARK SMILES IDX 31 46 86 47 80 48 79 49 32 51 66 52 45 53 65 54 46 55 49 56
REMARK SMILES IDX 64 57 84 58 47 59 48 60 63 62 85 63 50 64 33 65 34 66 43 67
REMARK SMILES IDX 35 68 36 69 42 70 44 71 37 72 38 73 39 74 40 75 41 76 67 77
REMARK SMILES IDX 68 78 77 79 69 80 70 81 76 82 78 83 71 84 72 85 73 86 74 87
REMARK SMILES IDX 75 88 51 89 52 90 61 91 53 92 54 93 60 94 62 95 55 96 56 97
REMARK SMILES IDX 57 98 58 99 59 100
REMARK H PARENT 9 12 6 18 83 50 49 61
REMARK Flexibility Score: inf
ROOT
ATOM      1  C   UNL A   1      31.863  29.923  25.419  1.00  0.00     0.275 C 
ENDROOT
BRANCH   1   2
ATOM      2  O   UNL A   1      32.950  29.391  24.553  1.00  0.00    -0.458 OA
BRANCH   2   3
ATOM      3  C   UNL A   1      32.505  28.806  23.391  1.00  0.00     0.340 C 
ATOM      4  O   UNL A   1      33.000  29.241  22.356  1.00  0.00    -0.246 OA
BRANCH   3   5
ATOM      5  C   UNL A   1      31.130  28.123  23.238  1.00  0.00     0.083 A 
ATOM      6  C   UNL A   1      30.074  26.871  23.997  1.00  0.00     0.055 A 
ATOM      7  C   UNL A   1      28.237  26.865  23.829  1.00  0.00     0.027 A 
ATOM      8  C   UNL A   1      27.520  28.455  23.125  1.00  0.00     0.002 A 
ATOM      9  C   UNL A   1      30.563  29.349  22.360  1.00  0.00     0.018 A 
ATOM     10  C   UNL A   1      28.964  29.656  22.344  1.00  0.00     0.001 A 
BRANCH   6  11
ATOM     11  N   UNL A   1      30.353  26.559  25.353  1.00  0.00    -0.332 N 
ATOM     12  H   UNL A   1      29.969  27.152  26.039  1.00  0.00     0.169 HD
BRANCH  11  13
ATOM     13  C   UNL A   1      31.124  25.482  25.800  1.00  0.00     0.177 C 
ATOM     14  S   UNL A   1      32.771  25.842  26.095  1.00  0.00    -0.040 S 
BRANCH  13  15
ATOM     15  N   UNL A   1      30.635  24.097  25.788  1.00  0.00    -0.299 N 
ATOM     16  C   UNL A   1      31.012  22.555  25.752  1.00  0.00     0.257 C 
ATOM     17  O   UNL A   1      30.165  21.708  26.019  1.00  0.00    -0.269 OA
ATOM     18  H   UNL A   1      29.652  24.145  25.812  1.00  0.00     0.172 HD
BRANCH  16  19
ATOM     19  C   UNL A   1      32.473  22.094  25.363  1.00  0.00     0.049 A 
ATOM     20  C   UNL A   1      31.907  22.116  23.234  1.00  0.00     0.053 C 
ATOM     21  C   UNL A   1      32.030  20.766  24.629  1.00  0.00     0.039 A 
ATOM     22  C   UNL A   1      33.090  19.011  24.418  1.00  0.00     0.273 A 
ATOM     23  C   UNL A   1      34.209  22.246  25.519  1.00  0.00     0.014 A 
ATOM     24  C   UNL A   1      34.904  19.247  24.662  1.00  0.00     0.086 A 
ATOM     25  C   UNL A   1      35.415  20.919  25.147  1.00  0.00     0.008 A 
BRANCH  22  26
ATOM     26  N   UNL A   1      32.968  17.731  23.484  1.00  0.00     0.063 N 
ATOM     27  O   UNL A   1      32.648  17.956  22.302  1.00  0.00    -0.258 OA
ATOM     28  O   UNL A   1      33.156  16.597  23.938  1.00  0.00    -0.258 OA
ENDBRANCH  22  26
ENDBRANCH  16  19
ENDBRANCH  13  15
ENDBRANCH  11  13
ENDBRANCH   6  11
ENDBRANCH   3   5
ENDBRANCH   2   3
ENDBRANCH   1   2
BRANCH   1  29
ATOM     29  C   UNL A   1      32.169  30.075  26.941  1.00  0.00     0.275 C 
BRANCH  29  30
ATOM     30  O   UNL A   1      33.529  29.944  27.381  1.00  0.00    -0.458 OA
BRANCH  30  31
ATOM     31  C   UNL A   1      34.105  31.149  27.638  1.00  0.00     0.338 C 
ATOM     32  O   UNL A   1      33.439  32.121  27.956  1.00  0.00    -0.246 OA
BRANCH  31  33
ATOM     33  C   UNL A   1      35.542  30.840  27.983  1.00  0.00     0.060 A 
ATOM     34  C   UNL A   1      36.497  31.868  27.987  1.00  0.00     0.016 A 
ATOM     35  C   UNL A   1      35.756  29.709  28.762  1.00  0.00     0.016 A 
ATOM     36  C   UNL A   1      37.618  31.827  28.804  1.00  0.00     0.010 A 
ATOM     37  C   UNL A   1      36.641  29.808  29.798  1.00  0.00     0.010 A 
ATOM     38  C   UNL A   1      37.638  30.804  29.734  1.00  0.00    -0.014 A 
BRANCH  38  39
ATOM     39  C   UNL A   1      38.862  30.358  30.366  1.00  0.00     0.031 A 
ATOM     40  C   UNL A   1      39.352  28.996  29.891  1.00  0.00     0.074 A 
ATOM     41  C   UNL A   1      39.263  31.533  30.968  1.00  0.00     0.049 A 
ATOM     42  N   UNL A   1      40.151  28.178  30.485  1.00  0.00    -0.248 NA
ATOM     43  C   UNL A   1      38.856  28.243  28.713  1.00  0.00     0.031 C 
ATOM     44  C   UNL A   1      40.489  32.214  31.344  1.00  0.00     0.029 A 
ATOM     45  N   UNL A   1      38.317  32.488  31.471  1.00  0.00    -0.354 N 
ATOM     46  C   UNL A   1      40.762  27.455  29.447  1.00  0.00     0.074 A 
ATOM     47  C   UNL A   1      39.751  27.279  28.473  1.00  0.00     0.031 C 
ATOM     48  C   UNL A   1      40.232  33.091  32.345  1.00  0.00     0.029 A 
ATOM     49  C   UNL A   1      38.806  33.060  32.633  1.00  0.00     0.049 A 
ATOM     50  H   UNL A   1      37.451  32.703  31.053  1.00  0.00     0.167 HD
ATOM     51  C   UNL A   1      42.121  27.508  29.325  1.00  0.00     0.037 A 
ATOM     52  C   UNL A   1      38.178  32.620  33.760  1.00  0.00     0.037 A 
ATOM     53  C   UNL A   1      42.570  28.468  30.328  1.00  0.00     0.049 A 
ATOM     54  C   UNL A   1      39.006  31.468  34.273  1.00  0.00     0.074 A 
ATOM     55  C   UNL A   1      42.907  29.806  30.257  1.00  0.00     0.029 A 
ATOM     56  N   UNL A   1      42.219  28.224  31.646  1.00  0.00    -0.354 N 
ATOM     57  N   UNL A   1      39.621  30.573  33.533  1.00  0.00    -0.248 NA
ATOM     58  C   UNL A   1      39.496  31.526  35.640  1.00  0.00     0.031 C 
ATOM     59  C   UNL A   1      42.763  30.337  31.576  1.00  0.00     0.029 A 
ATOM     60  C   UNL A   1      42.155  29.386  32.386  1.00  0.00     0.049 A 
ATOM     61  H   UNL A   1      42.038  27.329  32.011  1.00  0.00     0.167 HD
ATOM     62  C   UNL A   1      40.695  30.083  34.241  1.00  0.00     0.074 A 
ATOM     63  C   UNL A   1      40.564  30.724  35.545  1.00  0.00     0.031 C 
ATOM     64  C   UNL A   1      41.722  29.297  33.777  1.00  0.00     0.037 A 
BRANCH  51  65
ATOM     65  C   UNL A   1      43.038  26.996  28.224  1.00  0.00     0.058 A 
ATOM     66  C   UNL A   1      43.941  25.954  28.544  1.00  0.00     0.135 A 
ATOM     67  C   UNL A   1      43.059  27.385  26.866  1.00  0.00     0.135 A 
ATOM     68  F   UNL A   1      44.012  25.442  29.782  1.00  0.00    -0.206 F 
ATOM     69  C   UNL A   1      44.801  25.360  27.623  1.00  0.00     0.059 A 
ATOM     70  C   UNL A   1      43.921  26.796  25.913  1.00  0.00     0.059 A 
ATOM     71  F   UNL A   1      42.230  28.327  26.394  1.00  0.00    -0.206 F 
ATOM     72  C   UNL A   1      44.786  25.779  26.305  1.00  0.00     0.060 A 
BRANCH  72  73
ATOM     73  S   UNL A   1      45.886  24.929  25.151  1.00  0.00     0.124 S 
ATOM     74  O   UNL A   1      44.949  24.127  24.370  1.00  0.00    -0.237 OA
ATOM     75  O   UNL A   1      46.505  26.045  24.440  1.00  0.00    -0.237 OA
ATOM     76  O   UNL A   1      46.780  24.172  26.022  1.00  0.00    -0.744 OA
ENDBRANCH  72  73
ENDBRANCH  51  65
BRANCH  52  77
ATOM     77  C   UNL A   1      36.690  32.853  33.655  1.00  0.00     0.058 A 
ATOM     78  C   UNL A   1      36.272  34.140  34.077  1.00  0.00     0.135 A 
ATOM     79  C   UNL A   1      35.787  32.157  32.843  1.00  0.00     0.135 A 
ATOM     80  F   UNL A   1      37.042  34.853  34.914  1.00  0.00    -0.206 F 
ATOM     81  C   UNL A   1      35.177  34.797  33.534  1.00  0.00     0.059 A 
ATOM     82  C   UNL A   1      34.629  32.788  32.329  1.00  0.00     0.059 A 
ATOM     83  F   UNL A   1      36.073  30.916  32.417  1.00  0.00    -0.206 F 
ATOM     84  C   UNL A   1      34.392  34.143  32.609  1.00  0.00     0.060 A 
BRANCH  84  85
ATOM     85  S   UNL A   1      33.310  35.223  31.626  1.00  0.00     0.124 S 
ATOM     86  O   UNL A   1      33.983  36.509  31.706  1.00  0.00    -0.237 OA
ATOM     87  O   UNL A   1      33.313  34.571  30.317  1.00  0.00    -0.237 OA
ATOM     88  O   UNL A   1      32.050  35.118  32.326  1.00  0.00    -0.744 OA
ENDBRANCH  84  85
ENDBRANCH  52  77
BRANCH  64  89
ATOM     89  C   UNL A   1      42.466  28.329  34.686  1.00  0.00     0.058 A 
ATOM     90  C   UNL A   1      42.001  27.039  34.983  1.00  0.00     0.135 A 
ATOM     91  C   UNL A   1      43.765  28.616  35.191  1.00  0.00     0.135 A 
ATOM     92  F   UNL A   1      40.927  26.503  34.391  1.00  0.00    -0.206 F 
ATOM     93  C   UNL A   1      42.651  26.198  35.870  1.00  0.00     0.059 A 
ATOM     94  C   UNL A   1      44.502  27.724  35.950  1.00  0.00     0.059 A 
ATOM     95  F   UNL A   1      44.411  29.766  34.966  1.00  0.00    -0.206 F 
ATOM     96  C   UNL A   1      43.902  26.549  36.347  1.00  0.00     0.060 A 
BRANCH  96  97
ATOM     97  S   UNL A   1      44.734  25.434  37.466  1.00  0.00     0.124 S 
ATOM     98  O   UNL A   1      46.132  25.710  37.151  1.00  0.00    -0.237 OA
ATOM     99  O   UNL A   1      44.270  25.905  38.766  1.00  0.00    -0.237 OA
ATOM    100  O   UNL A   1      44.243  24.119  37.066  1.00  0.00    -0.744 OA
ENDBRANCH  96  97
ENDBRANCH  64  89
ENDBRANCH  38  39
ENDBRANCH  31  33
ENDBRANCH  30  31
ENDBRANCH  29  30
ENDBRANCH   1  29
TORSDOF 19
ENDMDL
MODEL 2
REMARK VINA RESULT:     -12.9      1.736      2.412
REMARK SMILES Cc1c(C(=O)NC(=S)Nc2ccccc2C(=O)OCCOC(=O)c2ccc(-c3c4nc(c(-c5c(F)cc(S(=O)(=O)[O-])cc5F)c5ccc([nH]5)c(-c5c(F)cc(S(=O)(=O)[O-])cc5F)c5nc(c(-c6c(F)cc(S(=O)(=O)[O-])cc6F)c6ccc3[nH]6)C=C5)C=C4)cc2)cccc1[N+](=O)[O-]
REMARK SMILES IDX 19 1 18 2 16 3 17 4 15 5 10 6 11 7 12 8 14 9 13 10 9 11 7 13
REMARK SMILES IDX 8 14 6 15 4 16 5 17 3 19 1 20 2 21 93 22 90 23 92 24 91 25
REMARK SMILES IDX 94 26 95 27 96 28 20 29 21 30 22 31 23 32 24 33 25 34 89 35
REMARK SMILES IDX 26 36 88 37 27 38 28 39 29 40 82 41 30 42 87 43 81 44 83 45
REMARK SMILES IDX 31 46 86 47 80 48 79 49 32 51 66 52 45 53 65 54 46 55 49 56
REMARK SMILES IDX 64 57 84 58 47 59 48 60 63 62 85 63 50 64 33 65 34 66 43 67
REMARK SMILES IDX 35 68 36 69 42 70 44 71 37 72 38 73 39 74 40 75 41 76 67 77
REMARK SMILES IDX 68 78 77 79 69 80 70 81 76 82 78 83 71 84 72 85 73 86 74 87
REMARK SMILES IDX 75 88 51 89 52 90 61 91 53 92 54 93 60 94 62 95 55 96 56 97
REMARK SMILES IDX 57 98 58 99 59 100
REMARK H PARENT 9 12 6 18 83 50 49 61
REMARK Flexibility Score: inf
ROOT
ATOM      1  C   UNL A   1      32.138  30.252  26.418  1.00  0.00     0.275 C 
ENDROOT
BRANCH   1   2
ATOM      2  O   UNL A   1      31.693  29.067  27.200  1.00  0.00    -0.458 OA
BRANCH   2   3
ATOM      3  C   UNL A   1      31.419  27.960  26.433  1.00  0.00     0.340 C 
ATOM      4  O   UNL A   1      31.027  26.973  27.048  1.00  0.00    -0.246 OA
BRANCH   3   5
ATOM      5  C   UNL A   1      32.067  27.677  25.061  1.00  0.00     0.083 A 
ATOM      6  C   UNL A   1      33.475  26.842  24.301  1.00  0.00     0.055 A 
ATOM      7  C   UNL A   1      33.467  26.235  22.559  1.00  0.00     0.027 A 
ATOM      8  C   UNL A   1      31.767  26.216  21.755  1.00  0.00     0.002 A 
ATOM      9  C   UNL A   1      30.678  27.953  24.293  1.00  0.00     0.018 A 
ATOM     10  C   UNL A   1      30.398  27.241  22.855  1.00  0.00     0.001 A 
BRANCH   6  11
ATOM     11  N   UNL A   1      34.091  25.825  25.076  1.00  0.00    -0.332 N 
ATOM     12  H   UNL A   1      34.839  26.094  25.657  1.00  0.00     0.169 HD
BRANCH  11  13
ATOM     13  C   UNL A   1      33.727  24.476  25.086  1.00  0.00     0.177 C 
ATOM     14  S   UNL A   1      32.057  24.175  25.303  1.00  0.00    -0.040 S 
BRANCH  13  15
ATOM     15  N   UNL A   1      34.713  23.389  25.152  1.00  0.00    -0.299 N 
ATOM     16  C   UNL A   1      35.081  21.901  24.738  1.00  0.00     0.257 C 
ATOM     17  O   UNL A   1      36.234  21.497  24.854  1.00  0.00    -0.269 OA
ATOM     18  H   UNL A   1      35.471  23.729  25.681  1.00  0.00     0.172 HD
BRANCH  16  19
ATOM     19  C   UNL A   1      33.970  20.925  24.182  1.00  0.00     0.049 A 
ATOM     20  C   UNL A   1      33.322  20.498  26.245  1.00  0.00     0.053 C 
ATOM     21  C   UNL A   1      34.490  19.642  24.946  1.00  0.00     0.039 A 
ATOM     22  C   UNL A   1      34.310  17.666  24.390  1.00  0.00     0.273 A 
ATOM     23  C   UNL A   1      32.667  20.578  23.067  1.00  0.00     0.014 A 
ATOM     24  C   UNL A   1      32.957  17.397  23.162  1.00  0.00     0.086 A 
ATOM     25  C   UNL A   1      32.117  18.899  22.586  1.00  0.00     0.008 A 
BRANCH  22  26
ATOM     26  N   UNL A   1      34.466  16.271  25.135  1.00  0.00     0.063 N 
ATOM     27  O   UNL A   1      33.603  16.021  25.996  1.00  0.00    -0.258 OA
ATOM     28  O   UNL A   1      35.411  15.517  24.875  1.00  0.00    -0.258 OA
ENDBRANCH  22  26
ENDBRANCH  16  19
ENDBRANCH  13  15
ENDBRANCH  11  13
ENDBRANCH   6  11
ENDBRANCH   3   5
ENDBRANCH   2   3
ENDBRANCH   1   2
BRANCH   1  29
ATOM     29  C   UNL A   1      32.680  31.476  27.219  1.00  0.00     0.275 C 
BRANCH  29  30
ATOM     30  O   UNL A   1      33.958  31.360  27.863  1.00  0.00    -0.458 OA
BRANCH  30  31
ATOM     31  C   UNL A   1      34.691  32.501  27.762  1.00  0.00     0.338 C 
ATOM     32  O   UNL A   1      34.170  33.603  27.828  1.00  0.00    -0.246 OA
BRANCH  31  33
ATOM     33  C   UNL A   1      36.101  32.103  28.129  1.00  0.00     0.060 A 
ATOM     34  C   UNL A   1      37.081  33.091  28.309  1.00  0.00     0.016 A 
ATOM     35  C   UNL A   1      36.247  30.876  28.764  1.00  0.00     0.016 A 
ATOM     36  C   UNL A   1      38.160  32.909  29.163  1.00  0.00     0.010 A 
ATOM     37  C   UNL A   1      37.083  30.812  29.843  1.00  0.00     0.010 A 
ATOM     38  C   UNL A   1      38.107  31.775  29.953  1.00  0.00    -0.014 A 
BRANCH  38  39
ATOM     39  C   UNL A   1      39.287  31.212  30.576  1.00  0.00     0.031 A 
ATOM     40  C   UNL A   1      39.898  30.042  29.818  1.00  0.00     0.074 A 
ATOM     41  C   UNL A   1      39.560  32.197  31.505  1.00  0.00     0.049 A 
ATOM     42  N   UNL A   1      40.680  29.118  30.261  1.00  0.00    -0.248 NA
ATOM     43  C   UNL A   1      39.563  29.615  28.437  1.00  0.00     0.031 C 
ATOM     44  C   UNL A   1      40.703  32.787  32.177  1.00  0.00     0.029 A 
ATOM     45  N   UNL A   1      38.517  32.955  32.134  1.00  0.00    -0.354 N 
ATOM     46  C   UNL A   1      41.430  28.715  29.143  1.00  0.00     0.074 A 
ATOM     47  C   UNL A   1      40.530  28.775  28.053  1.00  0.00     0.031 C 
ATOM     48  C   UNL A   1      40.300  33.358  33.339  1.00  0.00     0.029 A 
ATOM     49  C   UNL A   1      38.857  33.211  33.451  1.00  0.00     0.049 A 
ATOM     50  H   UNL A   1      37.685  33.249  31.695  1.00  0.00     0.167 HD
ATOM     51  C   UNL A   1      42.788  28.838  29.188  1.00  0.00     0.037 A 
ATOM     52  C   UNL A   1      38.147  32.469  34.348  1.00  0.00     0.037 A 
ATOM     53  C   UNL A   1      43.082  29.509  30.451  1.00  0.00     0.049 A 
ATOM     54  C   UNL A   1      38.985  31.246  34.628  1.00  0.00     0.074 A 
ATOM     55  C   UNL A   1      43.349  30.826  30.770  1.00  0.00     0.029 A 
ATOM     56  N   UNL A   1      42.619  28.913  31.612  1.00  0.00    -0.354 N 
ATOM     57  N   UNL A   1      39.720  30.599  33.752  1.00  0.00    -0.248 NA
ATOM     58  C   UNL A   1      39.335  30.952  36.008  1.00  0.00     0.031 C 
ATOM     59  C   UNL A   1      43.046  30.983  32.157  1.00  0.00     0.029 A 
ATOM     60  C   UNL A   1      42.417  29.834  32.619  1.00  0.00     0.049 A 
ATOM     61  H   UNL A   1      42.454  27.947  31.708  1.00  0.00     0.167 HD
ATOM     62  C   UNL A   1      40.745  29.969  34.421  1.00  0.00     0.074 A 
ATOM     63  C   UNL A   1      40.450  30.236  35.825  1.00  0.00     0.031 C 
ATOM     64  C   UNL A   1      41.855  29.365  33.882  1.00  0.00     0.037 A 
BRANCH  51  65
ATOM     65  C   UNL A   1      43.836  28.664  28.099  1.00  0.00     0.058 A 
ATOM     66  C   UNL A   1      44.389  27.374  27.909  1.00  0.00     0.135 A 
ATOM     67  C   UNL A   1      44.293  29.632  27.177  1.00  0.00     0.135 A 
ATOM     68  F   UNL A   1      44.025  26.335  28.676  1.00  0.00    -0.206 F 
ATOM     69  C   UNL A   1      45.319  27.065  26.920  1.00  0.00     0.059 A 
ATOM     70  C   UNL A   1      45.235  29.341  26.163  1.00  0.00     0.059 A 
ATOM     71  F   UNL A   1      43.830  30.890  27.194  1.00  0.00    -0.206 F 
ATOM     72  C   UNL A   1      45.737  28.049  26.043  1.00  0.00     0.060 A 
BRANCH  72  73
ATOM     73  S   UNL A   1      46.902  27.568  24.749  1.00  0.00     0.124 S 
ATOM     74  O   UNL A   1      46.420  26.239  24.382  1.00  0.00    -0.237 OA
ATOM     75  O   UNL A   1      46.697  28.611  23.748  1.00  0.00    -0.237 OA
ATOM     76  O   UNL A   1      48.197  27.598  25.423  1.00  0.00    -0.744 OA
ENDBRANCH  72  73
ENDBRANCH  51  65
BRANCH  52  77
ATOM     77  C   UNL A   1      36.666  32.678  34.145  1.00  0.00     0.058 A 
ATOM     78  C   UNL A   1      36.171  33.891  34.688  1.00  0.00     0.135 A 
ATOM     79  C   UNL A   1      35.857  32.071  33.178  1.00  0.00     0.135 A 
ATOM     80  F   UNL A   1      36.845  34.509  35.671  1.00  0.00    -0.206 F 
ATOM     81  C   UNL A   1      35.103  34.586  34.140  1.00  0.00     0.059 A 
ATOM     82  C   UNL A   1      34.724  32.736  32.650  1.00  0.00     0.059 A 
ATOM     83  F   UNL A   1      36.219  30.902  32.626  1.00  0.00    -0.206 F 
ATOM     84  C   UNL A   1      34.419  34.038  33.076  1.00  0.00     0.060 A 
BRANCH  84  85
ATOM     85  S   UNL A   1      33.385  35.209  32.147  1.00  0.00     0.124 S 
ATOM     86  O   UNL A   1      33.479  34.708  30.784  1.00  0.00    -0.237 OA
ATOM     87  O   UNL A   1      32.084  35.072  32.798  1.00  0.00    -0.237 OA
ATOM     88  O   UNL A   1      34.038  36.471  32.408  1.00  0.00    -0.744 OA
ENDBRANCH  84  85
ENDBRANCH  52  77
BRANCH  64  89
ATOM     89  C   UNL A   1      42.561  28.212  34.582  1.00  0.00     0.058 A 
ATOM     90  C   UNL A   1      43.806  28.342  35.215  1.00  0.00     0.135 A 
ATOM     91  C   UNL A   1      41.938  26.946  34.765  1.00  0.00     0.135 A 
ATOM     92  F   UNL A   1      44.422  29.520  35.368  1.00  0.00    -0.206 F 
ATOM     93  C   UNL A   1      44.469  27.267  35.782  1.00  0.00     0.059 A 
ATOM     94  C   UNL A   1      42.518  25.905  35.469  1.00  0.00     0.059 A 
ATOM     95  F   UNL A   1      40.722  26.643  34.293  1.00  0.00    -0.206 F 
ATOM     96  C   UNL A   1      43.816  26.053  35.906  1.00  0.00     0.060 A 
BRANCH  96  97
ATOM     97  S   UNL A   1      44.681  24.690  36.669  1.00  0.00     0.124 S 
ATOM     98  O   UNL A   1      46.068  25.044  36.385  1.00  0.00    -0.237 OA
ATOM     99  O   UNL A   1      44.268  24.809  38.063  1.00  0.00    -0.237 OA
ATOM    100  O   UNL A   1      44.169  23.521  35.963  1.00  0.00    -0.744 OA
ENDBRANCH  96  97
ENDBRANCH  64  89
ENDBRANCH  38  39
ENDBRANCH  31  33
ENDBRANCH  30  31
ENDBRANCH  29  30
ENDBRANCH   1  29
TORSDOF 19
ENDMDL
MODEL 3
REMARK VINA RESULT:     -12.8      1.503      1.959
REMARK SMILES Cc1c(C(=O)NC(=S)Nc2ccccc2C(=O)OCCOC(=O)c2ccc(-c3c4nc(c(-c5c(F)cc(S(=O)(=O)[O-])cc5F)c5ccc([nH]5)c(-c5c(F)cc(S(=O)(=O)[O-])cc5F)c5nc(c(-c6c(F)cc(S(=O)(=O)[O-])cc6F)c6ccc3[nH]6)C=C5)C=C4)cc2)cccc1[N+](=O)[O-]
REMARK SMILES IDX 19 1 18 2 16 3 17 4 15 5 10 6 11 7 12 8 14 9 13 10 9 11 7 13
REMARK SMILES IDX 8 14 6 15 4 16 5 17 3 19 1 20 2 21 93 22 90 23 92 24 91 25
REMARK SMILES IDX 94 26 95 27 96 28 20 29 21 30 22 31 23 32 24 33 25 34 89 35
REMARK SMILES IDX 26 36 88 37 27 38 28 39 29 40 82 41 30 42 87 43 81 44 83 45
REMARK SMILES IDX 31 46 86 47 80 48 79 49 32 51 66 52 45 53 65 54 46 55 49 56
REMARK SMILES IDX 64 57 84 58 47 59 48 60 63 62 85 63 50 64 33 65 34 66 43 67
REMARK SMILES IDX 35 68 36 69 42 70 44 71 37 72 38 73 39 74 40 75 41 76 67 77
REMARK SMILES IDX 68 78 77 79 69 80 70 81 76 82 78 83 71 84 72 85 73 86 74 87
REMARK SMILES IDX 75 88 51 89 52 90 61 91 53 92 54 93 60 94 62 95 55 96 56 97
REMARK SMILES IDX 57 98 58 99 59 100
REMARK H PARENT 9 12 6 18 83 50 49 61
REMARK Flexibility Score: inf
ROOT
ATOM      1  C   UNL A   1      33.878  29.900  26.899  1.00  0.00     0.275 C 
ENDROOT
BRANCH   1   2
ATOM      2  O   UNL A   1      33.124  28.714  27.388  1.00  0.00    -0.458 OA
BRANCH   2   3
ATOM      3  C   UNL A   1      31.891  28.554  26.802  1.00  0.00     0.340 C 
ATOM      4  O   UNL A   1      31.043  27.999  27.494  1.00  0.00    -0.246 OA
BRANCH   3   5
ATOM      5  C   UNL A   1      31.660  28.478  25.278  1.00  0.00     0.083 A 
ATOM      6  C   UNL A   1      31.455  27.295  23.930  1.00  0.00     0.055 A 
ATOM      7  C   UNL A   1      30.556  27.693  22.369  1.00  0.00     0.027 A 
ATOM      8  C   UNL A   1      29.556  29.285  22.436  1.00  0.00     0.002 A 
ATOM      9  C   UNL A   1      31.068  29.976  25.243  1.00  0.00     0.018 A 
ATOM     10  C   UNL A   1      30.017  30.400  24.073  1.00  0.00     0.001 A 
BRANCH   6  11
ATOM     11  N   UNL A   1      31.049  25.988  24.304  1.00  0.00    -0.332 N 
ATOM     12  H   UNL A   1      30.113  25.872  24.588  1.00  0.00     0.169 HD
BRANCH  11  13
ATOM     13  C   UNL A   1      31.861  24.851  24.303  1.00  0.00     0.177 C 
ATOM     14  S   UNL A   1      33.322  25.003  23.425  1.00  0.00    -0.040 S 
BRANCH  13  15
ATOM     15  N   UNL A   1      31.402  23.548  24.803  1.00  0.00    -0.299 N 
ATOM     16  C   UNL A   1      31.809  22.088  25.276  1.00  0.00     0.257 C 
ATOM     17  O   UNL A   1      31.000  21.387  25.876  1.00  0.00    -0.269 OA
ATOM     18  H   UNL A   1      30.422  23.603  24.875  1.00  0.00     0.172 HD
BRANCH  16  19
ATOM     19  C   UNL A   1      33.252  21.519  24.973  1.00  0.00     0.049 A 
ATOM     20  C   UNL A   1      32.743  21.383  22.833  1.00  0.00     0.053 C 
ATOM     21  C   UNL A   1      32.755  20.156  24.343  1.00  0.00     0.039 A 
ATOM     22  C   UNL A   1      33.722  18.336  24.316  1.00  0.00     0.273 A 
ATOM     23  C   UNL A   1      34.990  21.592  25.167  1.00  0.00     0.014 A 
ATOM     24  C   UNL A   1      35.540  18.496  24.593  1.00  0.00     0.086 A 
ATOM     25  C   UNL A   1      36.130  20.176  24.948  1.00  0.00     0.008 A 
BRANCH  22  26
ATOM     26  N   UNL A   1      33.554  16.988  23.492  1.00  0.00     0.063 N 
ATOM     27  O   UNL A   1      32.892  17.077  22.442  1.00  0.00    -0.258 OA
ATOM     28  O   UNL A   1      34.036  15.928  23.909  1.00  0.00    -0.258 OA
ENDBRANCH  22  26
ENDBRANCH  16  19
ENDBRANCH  13  15
ENDBRANCH  11  13
ENDBRANCH   6  11
ENDBRANCH   3   5
ENDBRANCH   2   3
ENDBRANCH   1   2
BRANCH   1  29
ATOM     29  C   UNL A   1      33.464  31.294  27.464  1.00  0.00     0.275 C 
BRANCH  29  30
ATOM     30  O   UNL A   1      34.301  31.904  28.458  1.00  0.00    -0.458 OA
BRANCH  30  31
ATOM     31  C   UNL A   1      35.120  32.852  27.930  1.00  0.00     0.338 C 
ATOM     32  O   UNL A   1      34.718  33.978  27.682  1.00  0.00    -0.246 OA
BRANCH  31  33
ATOM     33  C   UNL A   1      36.521  32.409  28.278  1.00  0.00     0.060 A 
ATOM     34  C   UNL A   1      37.506  33.366  28.563  1.00  0.00     0.016 A 
ATOM     35  C   UNL A   1      36.647  31.126  28.799  1.00  0.00     0.016 A 
ATOM     36  C   UNL A   1      38.571  33.095  29.413  1.00  0.00     0.010 A 
ATOM     37  C   UNL A   1      37.466  30.955  29.880  1.00  0.00     0.010 A 
ATOM     38  C   UNL A   1      38.496  31.893  30.093  1.00  0.00    -0.014 A 
BRANCH  38  39
ATOM     39  C   UNL A   1      39.661  31.264  30.679  1.00  0.00     0.031 A 
ATOM     40  C   UNL A   1      40.246  30.131  29.846  1.00  0.00     0.074 A 
ATOM     41  C   UNL A   1      39.956  32.179  31.669  1.00  0.00     0.049 A 
ATOM     42  N   UNL A   1      41.006  29.162  30.228  1.00  0.00    -0.248 NA
ATOM     43  C   UNL A   1      39.903  29.803  28.440  1.00  0.00     0.031 C 
ATOM     44  C   UNL A   1      41.111  32.698  32.379  1.00  0.00     0.029 A 
ATOM     45  N   UNL A   1      38.930  32.920  32.346  1.00  0.00    -0.354 N 
ATOM     46  C   UNL A   1      41.748  28.816  29.087  1.00  0.00     0.074 A 
ATOM     47  C   UNL A   1      40.851  28.968  28.002  1.00  0.00     0.031 C 
ATOM     48  C   UNL A   1      40.720  33.202  33.575  1.00  0.00     0.029 A 
ATOM     49  C   UNL A   1      39.273  33.082  33.677  1.00  0.00     0.049 A 
ATOM     50  H   UNL A   1      38.106  33.261  31.927  1.00  0.00     0.167 HD
ATOM     51  C   UNL A   1      43.109  28.903  29.140  1.00  0.00     0.037 A 
ATOM     52  C   UNL A   1      38.545  32.299  34.524  1.00  0.00     0.037 A 
ATOM     53  C   UNL A   1      43.416  29.484  30.444  1.00  0.00     0.049 A 
ATOM     54  C   UNL A   1      39.354  31.042  34.725  1.00  0.00     0.074 A 
ATOM     55  C   UNL A   1      43.713  30.771  30.847  1.00  0.00     0.029 A 
ATOM     56  N   UNL A   1      42.937  28.825  31.564  1.00  0.00    -0.354 N 
ATOM     57  N   UNL A   1      40.074  30.436  33.808  1.00  0.00    -0.248 NA
ATOM     58  C   UNL A   1      39.694  30.651  36.082  1.00  0.00     0.031 C 
ATOM     59  C   UNL A   1      43.411  30.845  32.242  1.00  0.00     0.029 A 
ATOM     60  C   UNL A   1      42.755  29.683  32.628  1.00  0.00     0.049 A 
ATOM     61  H   UNL A   1      42.749  27.859  31.596  1.00  0.00     0.167 HD
ATOM     62  C   UNL A   1      41.083  29.740  34.435  1.00  0.00     0.074 A 
ATOM     63  C   UNL A   1      40.793  29.922  35.853  1.00  0.00     0.031 C 
ATOM     64  C   UNL A   1      42.180  29.146  33.858  1.00  0.00     0.037 A 
BRANCH  51  65
ATOM     65  C   UNL A   1      44.154  28.776  28.042  1.00  0.00     0.058 A 
ATOM     66  C   UNL A   1      44.603  27.477  27.699  1.00  0.00     0.135 A 
ATOM     67  C   UNL A   1      44.701  29.807  27.245  1.00  0.00     0.135 A 
ATOM     68  F   UNL A   1      44.144  26.387  28.332  1.00  0.00    -0.206 F 
ATOM     69  C   UNL A   1      45.518  27.214  26.683  1.00  0.00     0.059 A 
ATOM     70  C   UNL A   1      45.630  29.563  26.208  1.00  0.00     0.059 A 
ATOM     71  F   UNL A   1      44.342  31.088  27.414  1.00  0.00    -0.206 F 
ATOM     72  C   UNL A   1      46.027  28.258  25.934  1.00  0.00     0.060 A 
BRANCH  72  73
ATOM     73  S   UNL A   1      47.167  27.842  24.595  1.00  0.00     0.124 S 
ATOM     74  O   UNL A   1      46.824  28.836  23.582  1.00  0.00    -0.237 OA
ATOM     75  O   UNL A   1      48.468  28.018  25.235  1.00  0.00    -0.237 OA
ATOM     76  O   UNL A   1      46.818  26.464  24.262  1.00  0.00    -0.744 OA
ENDBRANCH  72  73
ENDBRANCH  51  65
BRANCH  52  77
ATOM     77  C   UNL A   1      37.070  32.556  34.335  1.00  0.00     0.058 A 
ATOM     78  C   UNL A   1      36.623  33.796  34.861  1.00  0.00     0.135 A 
ATOM     79  C   UNL A   1      36.228  31.959  33.389  1.00  0.00     0.135 A 
ATOM     80  F   UNL A   1      37.331  34.408  35.823  1.00  0.00    -0.206 F 
ATOM     81  C   UNL A   1      35.573  34.517  34.312  1.00  0.00     0.059 A 
ATOM     82  C   UNL A   1      35.112  32.653  32.862  1.00  0.00     0.059 A 
ATOM     83  F   UNL A   1      36.543  30.769  32.855  1.00  0.00    -0.206 F 
ATOM     84  C   UNL A   1      34.857  33.972  33.267  1.00  0.00     0.060 A 
BRANCH  84  85
ATOM     85  S   UNL A   1      33.853  35.161  32.328  1.00  0.00     0.124 S 
ATOM     86  O   UNL A   1      32.497  34.689  32.562  1.00  0.00    -0.237 OA
ATOM     87  O   UNL A   1      34.210  36.438  32.945  1.00  0.00    -0.237 OA
ATOM     88  O   UNL A   1      34.360  35.001  30.985  1.00  0.00    -0.744 OA
ENDBRANCH  84  85
ENDBRANCH  52  77
BRANCH  64  89
ATOM     89  C   UNL A   1      42.857  27.934  34.481  1.00  0.00     0.058 A 
ATOM     90  C   UNL A   1      42.190  26.726  34.737  1.00  0.00     0.135 A 
ATOM     91  C   UNL A   1      44.259  27.893  34.722  1.00  0.00     0.135 A 
ATOM     92  F   UNL A   1      40.934  26.494  34.337  1.00  0.00    -0.206 F 
ATOM     93  C   UNL A   1      42.800  25.658  35.372  1.00  0.00     0.059 A 
ATOM     94  C   UNL A   1      44.917  26.777  35.210  1.00  0.00     0.059 A 
ATOM     95  F   UNL A   1      45.082  28.921  34.484  1.00  0.00    -0.206 F 
ATOM     96  C   UNL A   1      44.165  25.693  35.603  1.00  0.00     0.060 A 
BRANCH  96  97
ATOM     97  S   UNL A   1      44.934  24.290  36.397  1.00  0.00     0.124 S 
ATOM     98  O   UNL A   1      44.202  23.185  35.785  1.00  0.00    -0.237 OA
ATOM     99  O   UNL A   1      46.326  24.433  35.986  1.00  0.00    -0.237 OA
ATOM    100  O   UNL A   1      44.673  24.514  37.814  1.00  0.00    -0.744 OA
ENDBRANCH  96  97
ENDBRANCH  64  89
ENDBRANCH  38  39
ENDBRANCH  31  33
ENDBRANCH  30  31
ENDBRANCH  29  30
ENDBRANCH   1  29
TORSDOF 19
ENDMDL
