MODEL 1
REMARK VINA RESULT:     -10.8      0.000      0.000
REMARK SMILES Cc1nc(-c2ccco2)nc(S)c1C(=O)OCCOC(=O)c1ccc(-c2c3nc(c(-c4c(F)cc(S(=O)(=O)[O-])cc4F)c4ccc([nH]4)c(-c4c(F)cc(S(=O)(=O)[O-])cc4F)c4nc(c(-c5c(F)cc(S(=O)(=O)[O-])cc5F)c5ccc2[nH]5)C=C4)C=C3)cc1
REMARK SMILES IDX 18 1 17 2 16 3 14 4 15 5 13 6 1 7 2 8 3 9 4 10 11 11 10 12
REMARK SMILES IDX 5 13 6 14 9 15 7 16 8 17 12 18 19 20 20 21 21 22 22 23 23 24
REMARK SMILES IDX 87 25 24 26 86 27 25 28 26 29 27 30 80 31 28 32 85 33 79 34
REMARK SMILES IDX 81 35 29 36 84 37 78 38 77 39 30 41 64 42 43 43 63 44 44 45
REMARK SMILES IDX 47 46 62 47 82 48 45 49 46 50 61 52 83 53 48 54 31 55 32 56
REMARK SMILES IDX 41 57 33 58 34 59 40 60 42 61 35 62 36 63 37 64 38 65 39 66
REMARK SMILES IDX 65 67 66 68 75 69 67 70 68 71 74 72 76 73 69 74 70 75 71 76
REMARK SMILES IDX 72 77 73 78 49 79 50 80 59 81 51 82 52 83 58 84 60 85 53 86
REMARK SMILES IDX 54 87 55 88 56 89 57 90
REMARK H PARENT 12 19 81 40 47 51
REMARK Flexibility Score: inf
ROOT
ATOM      1  C   UNL A   1      39.801  22.580  26.764  1.00  0.00     0.275 C 
ENDROOT
BRANCH   1   2
ATOM      2  C   UNL A   1      38.866  21.839  25.806  1.00  0.00     0.275 C 
BRANCH   2   3
ATOM      3  O   UNL A   1      37.498  22.212  26.070  1.00  0.00    -0.458 OA
BRANCH   3   4
ATOM      4  C   UNL A   1      36.527  21.541  25.405  1.00  0.00     0.342 C 
ATOM      5  O   UNL A   1      36.457  20.328  25.307  1.00  0.00    -0.246 OA
BRANCH   4   6
ATOM      6  C   UNL A   1      35.500  22.470  24.876  1.00  0.00     0.113 A 
ATOM      7  C   UNL A   1      36.728  22.877  22.670  1.00  0.00     0.068 C 
ATOM      8  C   UNL A   1      35.607  23.113  23.642  1.00  0.00     0.057 A 
ATOM      9  N   UNL A   1      34.687  24.011  23.203  1.00  0.00    -0.230 NA
ATOM     10  C   UNL A   1      33.641  24.245  24.006  1.00  0.00     0.196 A 
ATOM     11  C   UNL A   1      34.339  22.749  25.595  1.00  0.00     0.112 A 
ATOM     12  N   UNL A   1      33.424  23.656  25.184  1.00  0.00    -0.218 NA
BRANCH  10  13
ATOM     13  C   UNL A   1      32.681  25.245  23.594  1.00  0.00     0.171 A 
ATOM     14  C   UNL A   1      31.695  25.282  22.627  1.00  0.00     0.054 A 
ATOM     15  O   UNL A   1      32.750  26.453  24.231  1.00  0.00    -0.461 OA
ATOM     16  C   UNL A   1      31.143  26.585  22.664  1.00  0.00     0.043 A 
ATOM     17  C   UNL A   1      31.826  27.261  23.649  1.00  0.00     0.196 A 
ENDBRANCH  10  13
BRANCH  11  18
ATOM     18  S   UNL A   1      33.854  22.005  27.146  1.00  0.00    -0.123 SA
ATOM     19  H   UNL A   1      33.380  22.966  27.982  1.00  0.00     0.110 HD
ENDBRANCH  11  18
ENDBRANCH   4   6
ENDBRANCH   3   4
ENDBRANCH   2   3
ENDBRANCH   1   2
BRANCH   1  20
ATOM     20  O   UNL A   1      39.567  23.998  26.704  1.00  0.00    -0.458 OA
BRANCH  20  21
ATOM     21  C   UNL A   1      40.677  24.776  26.666  1.00  0.00     0.338 C 
ATOM     22  O   UNL A   1      41.550  24.760  25.813  1.00  0.00    -0.246 OA
BRANCH  21  23
ATOM     23  C   UNL A   1      40.581  25.805  27.723  1.00  0.00     0.060 A 
ATOM     24  C   UNL A   1      41.556  26.794  27.889  1.00  0.00     0.016 A 
ATOM     25  C   UNL A   1      39.489  25.741  28.594  1.00  0.00     0.016 A 
ATOM     26  C   UNL A   1      41.452  27.693  28.954  1.00  0.00     0.010 A 
ATOM     27  C   UNL A   1      39.401  26.621  29.672  1.00  0.00     0.010 A 
ATOM     28  C   UNL A   1      40.387  27.595  29.864  1.00  0.00    -0.014 A 
BRANCH  28  29
ATOM     29  C   UNL A   1      40.262  28.559  30.979  1.00  0.00     0.031 A 
ATOM     30  C   UNL A   1      41.110  28.432  32.209  1.00  0.00     0.074 A 
ATOM     31  C   UNL A   1      39.351  29.543  30.879  1.00  0.00     0.049 A 
ATOM     32  N   UNL A   1      41.197  29.242  33.231  1.00  0.00    -0.248 NA
ATOM     33  C   UNL A   1      41.967  27.241  32.306  1.00  0.00     0.031 C 
ATOM     34  C   UNL A   1      38.443  29.732  29.745  1.00  0.00     0.029 A 
ATOM     35  N   UNL A   1      39.035  30.562  31.738  1.00  0.00    -0.354 N 
ATOM     36  C   UNL A   1      42.141  28.681  34.082  1.00  0.00     0.074 A 
ATOM     37  C   UNL A   1      42.560  27.433  33.478  1.00  0.00     0.031 C 
ATOM     38  C   UNL A   1      37.674  30.807  29.978  1.00  0.00     0.029 A 
ATOM     39  C   UNL A   1      38.034  31.379  31.274  1.00  0.00     0.049 A 
ATOM     40  H   UNL A   1      39.482  30.695  32.604  1.00  0.00     0.167 HD
ATOM     41  C   UNL A   1      42.624  29.177  35.247  1.00  0.00     0.037 A 
ATOM     42  C   UNL A   1      37.478  32.474  31.825  1.00  0.00     0.037 A 
ATOM     43  C   UNL A   1      42.171  30.405  35.853  1.00  0.00     0.049 A 
ATOM     44  C   UNL A   1      38.002  32.984  33.137  1.00  0.00     0.074 A 
ATOM     45  C   UNL A   1      42.633  31.019  37.004  1.00  0.00     0.029 A 
ATOM     46  N   UNL A   1      41.137  31.195  35.369  1.00  0.00    -0.354 N 
ATOM     47  N   UNL A   1      38.969  32.501  33.880  1.00  0.00    -0.248 NA
ATOM     48  C   UNL A   1      37.372  34.194  33.680  1.00  0.00     0.031 C 
ATOM     49  C   UNL A   1      41.850  32.154  37.242  1.00  0.00     0.029 A 
ATOM     50  C   UNL A   1      40.928  32.273  36.215  1.00  0.00     0.049 A 
ATOM     51  H   UNL A   1      40.627  31.016  34.547  1.00  0.00     0.167 HD
ATOM     52  C   UNL A   1      39.078  33.359  34.968  1.00  0.00     0.074 A 
ATOM     53  C   UNL A   1      38.084  34.398  34.780  1.00  0.00     0.031 C 
ATOM     54  C   UNL A   1      39.927  33.294  36.023  1.00  0.00     0.037 A 
BRANCH  41  55
ATOM     55  C   UNL A   1      43.715  28.409  35.940  1.00  0.00     0.058 A 
ATOM     56  C   UNL A   1      45.066  28.748  35.761  1.00  0.00     0.135 A 
ATOM     57  C   UNL A   1      43.413  27.385  36.852  1.00  0.00     0.135 A 
ATOM     58  F   UNL A   1      45.412  29.714  34.894  1.00  0.00    -0.206 F 
ATOM     59  C   UNL A   1      46.079  28.093  36.452  1.00  0.00     0.059 A 
ATOM     60  C   UNL A   1      44.411  26.729  37.570  1.00  0.00     0.059 A 
ATOM     61  F   UNL A   1      42.138  27.023  37.064  1.00  0.00    -0.206 F 
ATOM     62  C   UNL A   1      45.742  27.087  37.359  1.00  0.00     0.060 A 
BRANCH  62  63
ATOM     63  S   UNL A   1      47.071  26.273  38.272  1.00  0.00     0.124 S 
ATOM     64  O   UNL A   1      46.717  24.866  38.112  1.00  0.00    -0.237 OA
ATOM     65  O   UNL A   1      48.259  26.713  37.549  1.00  0.00    -0.237 OA
ATOM     66  O   UNL A   1      46.932  26.804  39.625  1.00  0.00    -0.744 OA
ENDBRANCH  62  63
ENDBRANCH  41  55
BRANCH  42  67
ATOM     67  C   UNL A   1      36.401  33.187  31.096  1.00  0.00     0.058 A 
ATOM     68  C   UNL A   1      35.082  33.168  31.570  1.00  0.00     0.135 A 
ATOM     69  C   UNL A   1      36.676  33.943  29.946  1.00  0.00     0.135 A 
ATOM     70  F   UNL A   1      34.774  32.455  32.665  1.00  0.00    -0.206 F 
ATOM     71  C   UNL A   1      34.069  33.873  30.931  1.00  0.00     0.059 A 
ATOM     72  C   UNL A   1      35.683  34.673  29.300  1.00  0.00     0.059 A 
ATOM     73  F   UNL A   1      37.927  34.006  29.466  1.00  0.00    -0.206 F 
ATOM     74  C   UNL A   1      34.382  34.630  29.799  1.00  0.00     0.060 A 
BRANCH  74  75
ATOM     75  S   UNL A   1      33.071  35.598  29.021  1.00  0.00     0.124 S 
ATOM     76  O   UNL A   1      32.305  36.040  30.180  1.00  0.00    -0.237 OA
ATOM     77  O   UNL A   1      33.829  36.632  28.323  1.00  0.00    -0.237 OA
ATOM     78  O   UNL A   1      32.406  34.628  28.157  1.00  0.00    -0.744 OA
ENDBRANCH  74  75
ENDBRANCH  42  67
BRANCH  54  79
ATOM     79  C   UNL A   1      39.825  34.379  37.060  1.00  0.00     0.058 A 
ATOM     80  C   UNL A   1      40.418  35.635  36.867  1.00  0.00     0.135 A 
ATOM     81  C   UNL A   1      39.079  34.178  38.234  1.00  0.00     0.135 A 
ATOM     82  F   UNL A   1      41.149  35.875  35.766  1.00  0.00    -0.206 F 
ATOM     83  C   UNL A   1      40.289  36.652  37.807  1.00  0.00     0.059 A 
ATOM     84  C   UNL A   1      38.917  35.189  39.177  1.00  0.00     0.059 A 
ATOM     85  F   UNL A   1      38.485  32.996  38.465  1.00  0.00    -0.206 F 
ATOM     86  C   UNL A   1      39.533  36.420  38.958  1.00  0.00     0.060 A 
BRANCH  86  87
ATOM     87  S   UNL A   1      39.342  37.762  40.151  1.00  0.00     0.124 S 
ATOM     88  O   UNL A   1      39.021  37.029  41.370  1.00  0.00    -0.237 OA
ATOM     89  O   UNL A   1      40.656  38.397  40.120  1.00  0.00    -0.237 OA
ATOM     90  O   UNL A   1      38.255  38.561  39.594  1.00  0.00    -0.744 OA
ENDBRANCH  86  87
ENDBRANCH  54  79
ENDBRANCH  28  29
ENDBRANCH  21  23
ENDBRANCH  20  21
ENDBRANCH   1  20
TORSDOF 16
ENDMDL
MODEL 2
REMARK VINA RESULT:     -10.8      1.717      2.665
REMARK SMILES Cc1nc(-c2ccco2)nc(S)c1C(=O)OCCOC(=O)c1ccc(-c2c3nc(c(-c4c(F)cc(S(=O)(=O)[O-])cc4F)c4ccc([nH]4)c(-c4c(F)cc(S(=O)(=O)[O-])cc4F)c4nc(c(-c5c(F)cc(S(=O)(=O)[O-])cc5F)c5ccc2[nH]5)C=C4)C=C3)cc1
REMARK SMILES IDX 18 1 17 2 16 3 14 4 15 5 13 6 1 7 2 8 3 9 4 10 11 11 10 12
REMARK SMILES IDX 5 13 6 14 9 15 7 16 8 17 12 18 19 20 20 21 21 22 22 23 23 24
REMARK SMILES IDX 87 25 24 26 86 27 25 28 26 29 27 30 80 31 28 32 85 33 79 34
REMARK SMILES IDX 81 35 29 36 84 37 78 38 77 39 30 41 64 42 43 43 63 44 44 45
REMARK SMILES IDX 47 46 62 47 82 48 45 49 46 50 61 52 83 53 48 54 31 55 32 56
REMARK SMILES IDX 41 57 33 58 34 59 40 60 42 61 35 62 36 63 37 64 38 65 39 66
REMARK SMILES IDX 65 67 66 68 75 69 67 70 68 71 74 72 76 73 69 74 70 75 71 76
REMARK SMILES IDX 72 77 73 78 49 79 50 80 59 81 51 82 52 83 58 84 60 85 53 86
REMARK SMILES IDX 54 87 55 88 56 89 57 90
REMARK H PARENT 12 19 81 40 47 51
REMARK Flexibility Score: inf
ROOT
ATOM      1  C   UNL A   1      43.302  23.368  25.486  1.00  0.00     0.275 C 
ENDROOT
BRANCH   1   2
ATOM      2  C   UNL A   1      42.560  22.312  26.309  1.00  0.00     0.275 C 
BRANCH   2   3
ATOM      3  O   UNL A   1      41.230  22.127  25.782  1.00  0.00    -0.458 OA
BRANCH   3   4
ATOM      4  C   UNL A   1      40.283  21.653  26.626  1.00  0.00     0.342 C 
ATOM      5  O   UNL A   1      40.495  21.238  27.752  1.00  0.00    -0.246 OA
BRANCH   4   6
ATOM      6  C   UNL A   1      38.928  21.780  26.037  1.00  0.00     0.113 A 
ATOM      7  C   UNL A   1      38.777  19.317  25.369  1.00  0.00     0.068 C 
ATOM      8  C   UNL A   1      38.251  20.724  25.427  1.00  0.00     0.057 A 
ATOM      9  N   UNL A   1      37.038  20.876  24.836  1.00  0.00    -0.230 NA
ATOM     10  C   UNL A   1      36.494  22.099  24.879  1.00  0.00     0.196 A 
ATOM     11  C   UNL A   1      38.236  22.990  26.073  1.00  0.00     0.112 A 
ATOM     12  N   UNL A   1      37.038  23.165  25.470  1.00  0.00    -0.218 NA
BRANCH  10  13
ATOM     13  C   UNL A   1      35.234  22.305  24.201  1.00  0.00     0.171 A 
ATOM     14  C   UNL A   1      34.760  23.277  23.341  1.00  0.00     0.054 A 
ATOM     15  O   UNL A   1      34.244  21.401  24.469  1.00  0.00    -0.461 OA
ATOM     16  C   UNL A   1      33.404  22.958  23.082  1.00  0.00     0.043 A 
ATOM     17  C   UNL A   1      33.137  21.815  23.800  1.00  0.00     0.196 A 
ENDBRANCH  10  13
BRANCH  11  18
ATOM     18  S   UNL A   1      38.776  24.492  26.877  1.00  0.00    -0.123 SA
ATOM     19  H   UNL A   1      39.220  24.202  28.129  1.00  0.00     0.110 HD
ENDBRANCH  11  18
ENDBRANCH   4   6
ENDBRANCH   3   4
ENDBRANCH   2   3
ENDBRANCH   1   2
BRANCH   1  20
ATOM     20  O   UNL A   1      43.603  24.519  26.294  1.00  0.00    -0.458 OA
BRANCH  20  21
ATOM     21  C   UNL A   1      42.935  25.654  25.970  1.00  0.00     0.338 C 
ATOM     22  O   UNL A   1      42.529  25.971  24.863  1.00  0.00    -0.246 OA
BRANCH  21  23
ATOM     23  C   UNL A   1      42.591  26.381  27.210  1.00  0.00     0.060 A 
ATOM     24  C   UNL A   1      41.705  25.858  28.158  1.00  0.00     0.016 A 
ATOM     25  C   UNL A   1      43.153  27.648  27.398  1.00  0.00     0.016 A 
ATOM     26  C   UNL A   1      41.357  26.625  29.273  1.00  0.00     0.010 A 
ATOM     27  C   UNL A   1      42.784  28.422  28.497  1.00  0.00     0.010 A 
ATOM     28  C   UNL A   1      41.876  27.918  29.436  1.00  0.00    -0.014 A 
BRANCH  28  29
ATOM     29  C   UNL A   1      41.528  28.723  30.627  1.00  0.00     0.031 A 
ATOM     30  C   UNL A   1      42.300  28.586  31.904  1.00  0.00     0.074 A 
ATOM     31  C   UNL A   1      40.484  29.568  30.549  1.00  0.00     0.049 A 
ATOM     32  N   UNL A   1      42.191  29.281  33.007  1.00  0.00    -0.248 NA
ATOM     33  C   UNL A   1      43.323  27.530  31.954  1.00  0.00     0.031 C 
ATOM     34  C   UNL A   1      39.637  29.746  29.369  1.00  0.00     0.029 A 
ATOM     35  N   UNL A   1      39.957  30.427  31.477  1.00  0.00    -0.354 N 
ATOM     36  C   UNL A   1      43.151  28.774  33.873  1.00  0.00     0.074 A 
ATOM     37  C   UNL A   1      43.799  27.676  33.184  1.00  0.00     0.031 C 
ATOM     38  C   UNL A   1      38.697  30.664  29.643  1.00  0.00     0.029 A 
ATOM     39  C   UNL A   1      38.875  31.135  31.014  1.00  0.00     0.049 A 
ATOM     40  H   UNL A   1      40.318  30.527  32.386  1.00  0.00     0.167 HD
ATOM     41  C   UNL A   1      43.471  29.202  35.118  1.00  0.00     0.037 A 
ATOM     42  C   UNL A   1      38.121  32.068  31.623  1.00  0.00     0.037 A 
ATOM     43  C   UNL A   1      42.794  30.275  35.803  1.00  0.00     0.049 A 
ATOM     44  C   UNL A   1      38.469  32.500  33.019  1.00  0.00     0.074 A 
ATOM     45  C   UNL A   1      43.077  30.818  37.045  1.00  0.00     0.029 A 
ATOM     46  N   UNL A   1      41.685  30.953  35.316  1.00  0.00    -0.354 N 
ATOM     47  N   UNL A   1      39.447  32.084  33.789  1.00  0.00    -0.248 NA
ATOM     48  C   UNL A   1      37.624  33.536  33.626  1.00  0.00     0.031 C 
ATOM     49  C   UNL A   1      42.113  31.792  37.328  1.00  0.00     0.029 A 
ATOM     50  C   UNL A   1      41.255  31.889  36.245  1.00  0.00     0.049 A 
ATOM     51  H   UNL A   1      41.265  30.794  34.440  1.00  0.00     0.167 HD
ATOM     52  C   UNL A   1      39.347  32.823  34.962  1.00  0.00     0.074 A 
ATOM     53  C   UNL A   1      38.220  33.719  34.796  1.00  0.00     0.031 C 
ATOM     54  C   UNL A   1      40.123  32.766  36.073  1.00  0.00     0.037 A 
BRANCH  41  55
ATOM     55  C   UNL A   1      44.619  28.531  35.819  1.00  0.00     0.058 A 
ATOM     56  C   UNL A   1      44.404  27.452  36.692  1.00  0.00     0.135 A 
ATOM     57  C   UNL A   1      45.947  28.906  35.558  1.00  0.00     0.135 A 
ATOM     58  F   UNL A   1      43.154  27.057  36.983  1.00  0.00    -0.206 F 
ATOM     59  C   UNL A   1      45.463  26.776  37.289  1.00  0.00     0.059 A 
ATOM     60  C   UNL A   1      47.023  28.230  36.130  1.00  0.00     0.059 A 
ATOM     61  F   UNL A   1      46.210  29.928  34.730  1.00  0.00    -0.206 F 
ATOM     62  C   UNL A   1      46.770  27.169  36.999  1.00  0.00     0.060 A 
BRANCH  62  63
ATOM     63  S   UNL A   1      48.130  26.256  37.759  1.00  0.00     0.124 S 
ATOM     64  O   UNL A   1      47.600  24.896  37.769  1.00  0.00    -0.237 OA
ATOM     65  O   UNL A   1      49.226  26.501  36.829  1.00  0.00    -0.237 OA
ATOM     66  O   UNL A   1      48.272  26.882  39.070  1.00  0.00    -0.744 OA
ENDBRANCH  62  63
ENDBRANCH  41  55
BRANCH  42  67
ATOM     67  C   UNL A   1      36.997  32.692  30.882  1.00  0.00     0.058 A 
ATOM     68  C   UNL A   1      35.672  32.317  31.142  1.00  0.00     0.135 A 
ATOM     69  C   UNL A   1      37.221  33.709  29.941  1.00  0.00     0.135 A 
ATOM     70  F   UNL A   1      35.413  31.346  32.032  1.00  0.00    -0.206 F 
ATOM     71  C   UNL A   1      34.604  32.927  30.495  1.00  0.00     0.059 A 
ATOM     72  C   UNL A   1      36.167  34.349  29.296  1.00  0.00     0.059 A 
ATOM     73  F   UNL A   1      38.471  34.114  29.673  1.00  0.00    -0.206 F 
ATOM     74  C   UNL A   1      34.862  33.948  29.578  1.00  0.00     0.060 A 
BRANCH  74  75
ATOM     75  S   UNL A   1      33.461  34.781  28.800  1.00  0.00     0.124 S 
ATOM     76  O   UNL A   1      34.088  35.993  28.287  1.00  0.00    -0.237 OA
ATOM     77  O   UNL A   1      33.044  33.804  27.799  1.00  0.00    -0.237 OA
ATOM     78  O   UNL A   1      32.527  34.971  29.906  1.00  0.00    -0.744 OA
ENDBRANCH  74  75
ENDBRANCH  42  67
BRANCH  54  79
ATOM     79  C   UNL A   1      39.785  33.702  37.201  1.00  0.00     0.058 A 
ATOM     80  C   UNL A   1      38.881  33.335  38.209  1.00  0.00     0.135 A 
ATOM     81  C   UNL A   1      40.413  34.954  37.305  1.00  0.00     0.135 A 
ATOM     82  F   UNL A   1      38.247  32.154  38.152  1.00  0.00    -0.206 F 
ATOM     83  C   UNL A   1      38.599  34.183  39.275  1.00  0.00     0.059 A 
ATOM     84  C   UNL A   1      40.164  35.808  38.375  1.00  0.00     0.059 A 
ATOM     85  F   UNL A   1      41.291  35.350  36.370  1.00  0.00    -0.206 F 
ATOM     86  C   UNL A   1      39.249  35.417  39.351  1.00  0.00     0.060 A 
BRANCH  86  87
ATOM     87  S   UNL A   1      38.903  36.491  40.762  1.00  0.00     0.124 S 
ATOM     88  O   UNL A   1      37.918  35.704  41.496  1.00  0.00    -0.237 OA
ATOM     89  O   UNL A   1      40.214  36.611  41.392  1.00  0.00    -0.237 OA
ATOM     90  O   UNL A   1      38.397  37.711  40.143  1.00  0.00    -0.744 OA
ENDBRANCH  86  87
ENDBRANCH  54  79
ENDBRANCH  28  29
ENDBRANCH  21  23
ENDBRANCH  20  21
ENDBRANCH   1  20
TORSDOF 16
ENDMDL
MODEL 3
REMARK VINA RESULT:     -10.7      5.669     10.429
REMARK SMILES Cc1nc(-c2ccco2)nc(S)c1C(=O)OCCOC(=O)c1ccc(-c2c3nc(c(-c4c(F)cc(S(=O)(=O)[O-])cc4F)c4ccc([nH]4)c(-c4c(F)cc(S(=O)(=O)[O-])cc4F)c4nc(c(-c5c(F)cc(S(=O)(=O)[O-])cc5F)c5ccc2[nH]5)C=C4)C=C3)cc1
REMARK SMILES IDX 18 1 17 2 16 3 14 4 15 5 13 6 1 7 2 8 3 9 4 10 11 11 10 12
REMARK SMILES IDX 5 13 6 14 9 15 7 16 8 17 12 18 19 20 20 21 21 22 22 23 23 24
REMARK SMILES IDX 87 25 24 26 86 27 25 28 26 29 27 30 80 31 28 32 85 33 79 34
REMARK SMILES IDX 81 35 29 36 84 37 78 38 77 39 30 41 64 42 43 43 63 44 44 45
REMARK SMILES IDX 47 46 62 47 82 48 45 49 46 50 61 52 83 53 48 54 31 55 32 56
REMARK SMILES IDX 41 57 33 58 34 59 40 60 42 61 35 62 36 63 37 64 38 65 39 66
REMARK SMILES IDX 65 67 66 68 75 69 67 70 68 71 74 72 76 73 69 74 70 75 71 76
REMARK SMILES IDX 72 77 73 78 49 79 50 80 59 81 51 82 52 83 58 84 60 85 53 86
REMARK SMILES IDX 54 87 55 88 56 89 57 90
REMARK H PARENT 12 19 81 40 47 51
REMARK Flexibility Score: inf
ROOT
ATOM      1  C   UNL A   1      34.126  28.641  26.438  1.00  0.00     0.275 C 
ENDROOT
BRANCH   1   2
ATOM      2  C   UNL A   1      33.430  27.283  26.317  1.00  0.00     0.275 C 
BRANCH   2   3
ATOM      3  O   UNL A   1      34.039  26.513  25.261  1.00  0.00    -0.458 OA
BRANCH   3   4
ATOM      4  C   UNL A   1      33.221  25.980  24.322  1.00  0.00     0.342 C 
ATOM      5  O   UNL A   1      33.230  24.814  23.967  1.00  0.00    -0.246 OA
BRANCH   4   6
ATOM      6  C   UNL A   1      32.242  26.982  23.834  1.00  0.00     0.113 A 
ATOM      7  C   UNL A   1      33.921  28.161  22.308  1.00  0.00     0.068 C 
ATOM      8  C   UNL A   1      32.568  28.005  22.942  1.00  0.00     0.057 A 
ATOM      9  N   UNL A   1      31.674  28.952  22.557  1.00  0.00    -0.230 NA
ATOM     10  C   UNL A   1      30.437  28.854  23.059  1.00  0.00     0.196 A 
ATOM     11  C   UNL A   1      30.909  26.949  24.241  1.00  0.00     0.112 A 
ATOM     12  N   UNL A   1      30.012  27.895  23.886  1.00  0.00    -0.218 NA
BRANCH  10  13
ATOM     13  C   UNL A   1      29.483  29.886  22.718  1.00  0.00     0.171 A 
ATOM     14  C   UNL A   1      28.925  30.939  23.416  1.00  0.00     0.054 A 
ATOM     15  O   UNL A   1      28.948  29.828  21.461  1.00  0.00    -0.461 OA
ATOM     16  C   UNL A   1      27.988  31.547  22.546  1.00  0.00     0.043 A 
ATOM     17  C   UNL A   1      28.032  30.828  21.374  1.00  0.00     0.196 A 
ENDBRANCH  10  13
BRANCH  11  18
ATOM     18  S   UNL A   1      30.155  25.707  25.282  1.00  0.00    -0.123 SA
ATOM     19  H   UNL A   1      29.742  24.662  24.515  1.00  0.00     0.110 HD
ENDBRANCH  11  18
ENDBRANCH   4   6
ENDBRANCH   3   4
ENDBRANCH   2   3
ENDBRANCH   1   2
BRANCH   1  20
ATOM     20  O   UNL A   1      34.141  29.081  27.807  1.00  0.00    -0.458 OA
BRANCH  20  21
ATOM     21  C   UNL A   1      34.880  30.190  28.060  1.00  0.00     0.338 C 
ATOM     22  O   UNL A   1      34.460  31.325  28.220  1.00  0.00    -0.246 OA
BRANCH  21  23
ATOM     23  C   UNL A   1      36.280  29.789  28.312  1.00  0.00     0.060 A 
ATOM     24  C   UNL A   1      36.711  29.339  29.564  1.00  0.00     0.016 A 
ATOM     25  C   UNL A   1      37.190  29.910  27.257  1.00  0.00     0.016 A 
ATOM     26  C   UNL A   1      38.064  29.049  29.764  1.00  0.00     0.010 A 
ATOM     27  C   UNL A   1      38.543  29.645  27.465  1.00  0.00     0.010 A 
ATOM     28  C   UNL A   1      38.989  29.223  28.723  1.00  0.00    -0.014 A 
BRANCH  28  29
ATOM     29  C   UNL A   1      40.417  28.894  28.924  1.00  0.00     0.031 A 
ATOM     30  C   UNL A   1      40.945  27.525  28.616  1.00  0.00     0.074 A 
ATOM     31  C   UNL A   1      41.233  29.844  29.415  1.00  0.00     0.049 A 
ATOM     32  N   UNL A   1      42.180  27.098  28.642  1.00  0.00    -0.248 NA
ATOM     33  C   UNL A   1      39.960  26.502  28.234  1.00  0.00     0.031 C 
ATOM     34  C   UNL A   1      40.813  31.195  29.791  1.00  0.00     0.029 A 
ATOM     35  N   UNL A   1      42.575  29.819  29.685  1.00  0.00    -0.354 N 
ATOM     36  C   UNL A   1      42.132  25.767  28.248  1.00  0.00     0.074 A 
ATOM     37  C   UNL A   1      40.735  25.442  28.039  1.00  0.00     0.031 C 
ATOM     38  C   UNL A   1      41.881  31.873  30.239  1.00  0.00     0.029 A 
ATOM     39  C   UNL A   1      43.055  31.005  30.182  1.00  0.00     0.049 A 
ATOM     40  H   UNL A   1      43.141  29.028  29.536  1.00  0.00     0.167 HD
ATOM     41  C   UNL A   1      43.162  24.907  28.061  1.00  0.00     0.037 A 
ATOM     42  C   UNL A   1      44.304  31.357  30.541  1.00  0.00     0.037 A 
ATOM     43  C   UNL A   1      44.545  25.235  28.306  1.00  0.00     0.049 A 
ATOM     44  C   UNL A   1      45.425  30.374  30.362  1.00  0.00     0.074 A 
ATOM     45  C   UNL A   1      45.666  24.451  28.098  1.00  0.00     0.029 A 
ATOM     46  N   UNL A   1      44.993  26.437  28.836  1.00  0.00    -0.354 N 
ATOM     47  N   UNL A   1      45.379  29.151  29.889  1.00  0.00    -0.248 NA
ATOM     48  C   UNL A   1      46.770  30.820  30.751  1.00  0.00     0.031 C 
ATOM     49  C   UNL A   1      46.787  25.160  28.543  1.00  0.00     0.029 A 
ATOM     50  C   UNL A   1      46.371  26.404  28.987  1.00  0.00     0.049 A 
ATOM     51  H   UNL A   1      44.419  27.201  29.069  1.00  0.00     0.167 HD
ATOM     52  C   UNL A   1      46.690  28.688  29.903  1.00  0.00     0.074 A 
ATOM     53  C   UNL A   1      47.507  29.768  30.422  1.00  0.00     0.031 C 
ATOM     54  C   UNL A   1      47.172  27.481  29.517  1.00  0.00     0.037 A 
BRANCH  41  55
ATOM     55  C   UNL A   1      42.845  23.531  27.544  1.00  0.00     0.058 A 
ATOM     56  C   UNL A   1      43.011  23.210  26.187  1.00  0.00     0.135 A 
ATOM     57  C   UNL A   1      42.453  22.502  28.416  1.00  0.00     0.135 A 
ATOM     58  F   UNL A   1      43.376  24.158  25.308  1.00  0.00    -0.206 F 
ATOM     59  C   UNL A   1      42.791  21.922  25.711  1.00  0.00     0.059 A 
ATOM     60  C   UNL A   1      42.247  21.201  27.964  1.00  0.00     0.059 A 
ATOM     61  F   UNL A   1      42.282  22.753  29.724  1.00  0.00    -0.206 F 
ATOM     62  C   UNL A   1      42.413  20.922  26.608  1.00  0.00     0.060 A 
BRANCH  62  63
ATOM     63  S   UNL A   1      42.166  19.249  25.974  1.00  0.00     0.124 S 
ATOM     64  O   UNL A   1      42.655  18.439  27.085  1.00  0.00    -0.237 OA
ATOM     65  O   UNL A   1      40.725  19.211  25.750  1.00  0.00    -0.237 OA
ATOM     66  O   UNL A   1      42.985  19.216  24.766  1.00  0.00    -0.744 OA
ENDBRANCH  62  63
ENDBRANCH  41  55
BRANCH  42  67
ATOM     67  C   UNL A   1      44.555  32.728  31.049  1.00  0.00     0.058 A 
ATOM     68  C   UNL A   1      44.510  33.000  32.424  1.00  0.00     0.135 A 
ATOM     69  C   UNL A   1      44.897  33.776  30.181  1.00  0.00     0.135 A 
ATOM     70  F   UNL A   1      44.184  32.028  33.290  1.00  0.00    -0.206 F 
ATOM     71  C   UNL A   1      44.793  34.266  32.923  1.00  0.00     0.059 A 
ATOM     72  C   UNL A   1      45.205  35.046  30.658  1.00  0.00     0.059 A 
ATOM     73  F   UNL A   1      44.970  33.557  28.860  1.00  0.00    -0.206 F 
ATOM     74  C   UNL A   1      45.148  35.281  32.032  1.00  0.00     0.060 A 
BRANCH  74  75
ATOM     75  S   UNL A   1      45.584  36.901  32.701  1.00  0.00     0.124 S 
ATOM     76  O   UNL A   1      44.305  37.598  32.642  1.00  0.00    -0.237 OA
ATOM     77  O   UNL A   1      46.066  36.560  34.036  1.00  0.00    -0.237 OA
ATOM     78  O   UNL A   1      46.608  37.380  31.777  1.00  0.00    -0.744 OA
ENDBRANCH  74  75
ENDBRANCH  42  67
BRANCH  54  79
ATOM     79  C   UNL A   1      48.655  27.258  29.636  1.00  0.00     0.058 A 
ATOM     80  C   UNL A   1      49.548  27.744  28.669  1.00  0.00     0.135 A 
ATOM     81  C   UNL A   1      49.192  26.602  30.756  1.00  0.00     0.135 A 
ATOM     82  F   UNL A   1      49.085  28.370  27.575  1.00  0.00    -0.206 F 
ATOM     83  C   UNL A   1      50.922  27.574  28.799  1.00  0.00     0.059 A 
ATOM     84  C   UNL A   1      50.565  26.442  30.918  1.00  0.00     0.059 A 
ATOM     85  F   UNL A   1      48.381  26.124  31.713  1.00  0.00    -0.206 F 
ATOM     86  C   UNL A   1      51.421  26.925  29.930  1.00  0.00     0.060 A 
BRANCH  86  87
ATOM     87  S   UNL A   1      53.210  26.747  30.105  1.00  0.00     0.124 S 
ATOM     88  O   UNL A   1      53.634  28.137  30.225  1.00  0.00    -0.237 OA
ATOM     89  O   UNL A   1      53.327  25.942  31.317  1.00  0.00    -0.237 OA
ATOM     90  O   UNL A   1      53.607  26.074  28.872  1.00  0.00    -0.744 OA
ENDBRANCH  86  87
ENDBRANCH  54  79
ENDBRANCH  28  29
ENDBRANCH  21  23
ENDBRANCH  20  21
ENDBRANCH   1  20
TORSDOF 16
ENDMDL
