MODEL 1
REMARK VINA RESULT:     -10.5      0.000      0.000
REMARK SMILES CC[NH+](CC)[C@](C)(C(=O)OCCOC(=O)c1ccc(-c2c3nc(c(-c4c(F)cc(S(=O)(=O)[O-])cc4F)c4ccc([nH]4)c(-c4c(F)cc(S(=O)(=O)[O-])cc4F)c4nc(c(-c5c(F)cc(S(=O)(=O)[O-])cc5F)c5ccc2[nH]5)C=C4)C=C3)cc1)c1cc(F)c(C)cc1F
REMARK SMILES IDX 12 1 11 2 10 3 8 4 9 5 6 6 7 7 3 8 2 10 1 11 4 12 5 13 82 14
REMARK SMILES IDX 83 15 89 16 84 17 88 18 90 19 85 20 86 21 87 22 13 23 14 24
REMARK SMILES IDX 15 25 16 26 17 27 81 28 18 29 80 30 19 31 20 32 21 33 74 34
REMARK SMILES IDX 22 35 79 36 73 37 75 38 23 39 78 40 72 41 71 42 24 44 58 45
REMARK SMILES IDX 37 46 57 47 38 48 41 49 56 50 76 51 39 52 40 53 55 55 77 56
REMARK SMILES IDX 42 57 25 58 26 59 35 60 27 61 28 62 34 63 36 64 29 65 30 66
REMARK SMILES IDX 31 67 32 68 33 69 59 70 60 71 69 72 61 73 62 74 68 75 70 76
REMARK SMILES IDX 63 77 64 78 65 79 66 80 67 81 43 82 44 83 53 84 45 85 46 86
REMARK SMILES IDX 52 87 54 88 47 89 48 90 49 91 50 92 51 93
REMARK H PARENT 3 9 75 43 41 54
REMARK Flexibility Score: inf
ROOT
ATOM      1  C   UNL A   1      38.146  21.608  25.465  1.00  0.00     0.275 C 
ENDROOT
BRANCH   1   2
ATOM      2  C   UNL A   1      36.654  21.596  25.759  1.00  0.00     0.274 C 
BRANCH   2   3
ATOM      3  O   UNL A   1      36.154  22.947  25.879  1.00  0.00    -0.457 OA
BRANCH   3   4
ATOM      4  C   UNL A   1      34.825  23.087  26.172  1.00  0.00     0.373 C 
ATOM      5  O   UNL A   1      34.332  22.763  27.250  1.00  0.00    -0.244 OA
BRANCH   4   6
ATOM      6  C   UNL A   1      33.990  23.633  24.946  1.00  0.00     0.221 C 
ATOM      7  C   UNL A   1      34.857  23.752  23.667  1.00  0.00     0.098 C 
BRANCH   6   8
ATOM      8  N   UNL A   1      32.833  22.664  24.671  1.00  0.00    -0.318 N 
ATOM      9  H   UNL A   1      32.197  22.915  25.429  1.00  0.00     0.349 HD
BRANCH   8  10
ATOM     10  C   UNL A   1      33.104  21.210  24.814  1.00  0.00     0.259 C 
ATOM     11  C   UNL A   1      32.596  20.224  23.772  1.00  0.00     0.071 C 
ENDBRANCH   8  10
BRANCH   8  12
ATOM     12  C   UNL A   1      32.215  22.873  23.332  1.00  0.00     0.259 C 
ATOM     13  C   UNL A   1      30.833  23.522  23.439  1.00  0.00     0.071 C 
ENDBRANCH   8  12
ENDBRANCH   6   8
BRANCH   6  14
ATOM     14  C   UNL A   1      33.482  25.038  25.418  1.00  0.00     0.062 A 
ATOM     15  C   UNL A   1      34.075  26.233  24.954  1.00  0.00     0.053 A 
ATOM     16  C   UNL A   1      32.375  25.192  26.272  1.00  0.00     0.133 A 
ATOM     17  C   UNL A   1      33.646  27.486  25.406  1.00  0.00     0.126 A 
ATOM     18  C   UNL A   1      31.936  26.446  26.714  1.00  0.00     0.046 A 
ATOM     19  F   UNL A   1      31.660  24.130  26.661  1.00  0.00    -0.206 F 
ATOM     20  F   UNL A   1      34.296  28.577  24.982  1.00  0.00    -0.207 F 
ATOM     21  C   UNL A   1      32.571  27.613  26.283  1.00  0.00    -0.012 A 
ATOM     22  C   UNL A   1      32.113  28.958  26.767  1.00  0.00     0.047 C 
ENDBRANCH   6  14
ENDBRANCH   4   6
ENDBRANCH   3   4
ENDBRANCH   2   3
ENDBRANCH   1   2
BRANCH   1  23
ATOM     23  O   UNL A   1      38.602  22.959  25.606  1.00  0.00    -0.458 OA
BRANCH  23  24
ATOM     24  C   UNL A   1      39.821  23.126  26.158  1.00  0.00     0.338 C 
ATOM     25  O   UNL A   1      40.785  22.380  26.052  1.00  0.00    -0.246 OA
BRANCH  24  26
ATOM     26  C   UNL A   1      39.829  24.390  26.918  1.00  0.00     0.060 A 
ATOM     27  C   UNL A   1      40.619  25.461  26.498  1.00  0.00     0.016 A 
ATOM     28  C   UNL A   1      39.109  24.482  28.109  1.00  0.00     0.016 A 
ATOM     29  C   UNL A   1      40.761  26.582  27.313  1.00  0.00     0.010 A 
ATOM     30  C   UNL A   1      39.191  25.646  28.881  1.00  0.00     0.010 A 
ATOM     31  C   UNL A   1      40.060  26.692  28.521  1.00  0.00    -0.014 A 
BRANCH  31  32
ATOM     32  C   UNL A   1      40.301  27.839  29.445  1.00  0.00     0.031 A 
ATOM     33  C   UNL A   1      41.557  27.875  30.285  1.00  0.00     0.074 A 
ATOM     34  C   UNL A   1      39.441  28.876  29.523  1.00  0.00     0.049 A 
ATOM     35  N   UNL A   1      41.845  28.631  31.314  1.00  0.00    -0.248 NA
ATOM     36  C   UNL A   1      42.622  26.923  29.927  1.00  0.00     0.031 C 
ATOM     37  C   UNL A   1      38.221  29.035  28.730  1.00  0.00     0.029 A 
ATOM     38  N   UNL A   1      39.476  30.008  30.302  1.00  0.00    -0.354 N 
ATOM     39  C   UNL A   1      43.075  28.182  31.783  1.00  0.00     0.074 A 
ATOM     40  C   UNL A   1      43.493  27.108  30.910  1.00  0.00     0.031 C 
ATOM     41  C   UNL A   1      37.661  30.221  29.015  1.00  0.00     0.029 A 
ATOM     42  C   UNL A   1      38.414  30.857  30.088  1.00  0.00     0.049 A 
ATOM     43  H   UNL A   1      40.192  30.194  30.951  1.00  0.00     0.167 HD
ATOM     44  C   UNL A   1      43.782  28.620  32.853  1.00  0.00     0.037 A 
ATOM     45  C   UNL A   1      38.054  31.994  30.717  1.00  0.00     0.037 A 
ATOM     46  C   UNL A   1      43.407  29.749  33.665  1.00  0.00     0.049 A 
ATOM     47  C   UNL A   1      38.859  32.474  31.890  1.00  0.00     0.074 A 
ATOM     48  C   UNL A   1      44.052  30.266  34.776  1.00  0.00     0.029 A 
ATOM     49  N   UNL A   1      42.308  30.561  33.431  1.00  0.00    -0.354 N 
ATOM     50  N   UNL A   1      39.943  31.954  32.414  1.00  0.00    -0.248 NA
ATOM     51  C   UNL A   1      38.372  33.676  32.579  1.00  0.00     0.031 C 
ATOM     52  C   UNL A   1      43.334  31.382  35.222  1.00  0.00     0.029 A 
ATOM     53  C   UNL A   1      42.261  31.577  34.369  1.00  0.00     0.049 A 
ATOM     54  H   UNL A   1      41.656  30.432  32.704  1.00  0.00     0.167 HD
ATOM     55  C   UNL A   1      40.258  32.756  33.503  1.00  0.00     0.074 A 
ATOM     56  C   UNL A   1      39.273  33.817  33.542  1.00  0.00     0.031 C 
ATOM     57  C   UNL A   1      41.265  32.619  34.401  1.00  0.00     0.037 A 
BRANCH  44  58
ATOM     58  C   UNL A   1      45.013  27.847  33.238  1.00  0.00     0.058 A 
ATOM     59  C   UNL A   1      46.299  28.234  32.833  1.00  0.00     0.135 A 
ATOM     60  C   UNL A   1      44.899  26.713  34.060  1.00  0.00     0.135 A 
ATOM     61  F   UNL A   1      46.463  29.297  32.029  1.00  0.00    -0.206 F 
ATOM     62  C   UNL A   1      47.427  27.511  33.212  1.00  0.00     0.059 A 
ATOM     63  C   UNL A   1      46.014  25.989  34.470  1.00  0.00     0.059 A 
ATOM     64  F   UNL A   1      43.691  26.298  34.474  1.00  0.00    -0.206 F 
ATOM     65  C   UNL A   1      47.274  26.389  34.029  1.00  0.00     0.060 A 
BRANCH  65  66
ATOM     66  S   UNL A   1      48.744  25.464  34.524  1.00  0.00     0.124 S 
ATOM     67  O   UNL A   1      49.173  26.210  35.702  1.00  0.00    -0.237 OA
ATOM     68  O   UNL A   1      48.206  24.131  34.780  1.00  0.00    -0.237 OA
ATOM     69  O   UNL A   1      49.618  25.569  33.360  1.00  0.00    -0.744 OA
ENDBRANCH  65  66
ENDBRANCH  44  58
BRANCH  45  70
ATOM     70  C   UNL A   1      36.834  32.722  30.278  1.00  0.00     0.058 A 
ATOM     71  C   UNL A   1      35.615  32.555  30.951  1.00  0.00     0.135 A 
ATOM     72  C   UNL A   1      36.871  33.623  29.203  1.00  0.00     0.135 A 
ATOM     73  F   UNL A   1      35.525  31.689  31.972  1.00  0.00    -0.206 F 
ATOM     74  C   UNL A   1      34.476  33.263  30.580  1.00  0.00     0.059 A 
ATOM     75  C   UNL A   1      35.755  34.363  28.830  1.00  0.00     0.059 A 
ATOM     76  F   UNL A   1      38.016  33.822  28.532  1.00  0.00    -0.206 F 
ATOM     77  C   UNL A   1      34.559  34.172  29.522  1.00  0.00     0.060 A 
BRANCH  77  78
ATOM     78  S   UNL A   1      33.107  35.159  29.096  1.00  0.00     0.124 S 
ATOM     79  O   UNL A   1      32.455  34.308  28.108  1.00  0.00    -0.237 OA
ATOM     80  O   UNL A   1      32.424  35.283  30.380  1.00  0.00    -0.237 OA
ATOM     81  O   UNL A   1      33.688  36.396  28.584  1.00  0.00    -0.744 OA
ENDBRANCH  77  78
ENDBRANCH  45  70
BRANCH  57  82
ATOM     82  C   UNL A   1      41.348  33.646  35.492  1.00  0.00     0.058 A 
ATOM     83  C   UNL A   1      40.696  33.460  36.721  1.00  0.00     0.135 A 
ATOM     84  C   UNL A   1      42.090  34.824  35.309  1.00  0.00     0.135 A 
ATOM     85  F   UNL A   1      39.970  32.353  36.940  1.00  0.00    -0.206 F 
ATOM     86  C   UNL A   1      40.749  34.424  37.722  1.00  0.00     0.059 A 
ATOM     87  C   UNL A   1      42.171  35.793  36.305  1.00  0.00     0.059 A 
ATOM     88  F   UNL A   1      42.738  35.043  34.155  1.00  0.00    -0.206 F 
ATOM     89  C   UNL A   1      41.483  35.592  37.501  1.00  0.00     0.060 A 
BRANCH  89  90
ATOM     90  S   UNL A   1      41.541  36.842  38.802  1.00  0.00     0.124 S 
ATOM     91  O   UNL A   1      42.667  37.662  38.371  1.00  0.00    -0.237 OA
ATOM     92  O   UNL A   1      40.225  37.467  38.701  1.00  0.00    -0.237 OA
ATOM     93  O   UNL A   1      41.761  36.057  40.014  1.00  0.00    -0.744 OA
ENDBRANCH  89  90
ENDBRANCH  57  82
ENDBRANCH  31  32
ENDBRANCH  24  26
ENDBRANCH  23  24
ENDBRANCH   1  23
TORSDOF 18
ENDMDL
MODEL 2
REMARK VINA RESULT:     -10.5      1.715      3.226
REMARK SMILES CC[NH+](CC)[C@](C)(C(=O)OCCOC(=O)c1ccc(-c2c3nc(c(-c4c(F)cc(S(=O)(=O)[O-])cc4F)c4ccc([nH]4)c(-c4c(F)cc(S(=O)(=O)[O-])cc4F)c4nc(c(-c5c(F)cc(S(=O)(=O)[O-])cc5F)c5ccc2[nH]5)C=C4)C=C3)cc1)c1cc(F)c(C)cc1F
REMARK SMILES IDX 12 1 11 2 10 3 8 4 9 5 6 6 7 7 3 8 2 10 1 11 4 12 5 13 82 14
REMARK SMILES IDX 83 15 89 16 84 17 88 18 90 19 85 20 86 21 87 22 13 23 14 24
REMARK SMILES IDX 15 25 16 26 17 27 81 28 18 29 80 30 19 31 20 32 21 33 74 34
REMARK SMILES IDX 22 35 79 36 73 37 75 38 23 39 78 40 72 41 71 42 24 44 58 45
REMARK SMILES IDX 37 46 57 47 38 48 41 49 56 50 76 51 39 52 40 53 55 55 77 56
REMARK SMILES IDX 42 57 25 58 26 59 35 60 27 61 28 62 34 63 36 64 29 65 30 66
REMARK SMILES IDX 31 67 32 68 33 69 59 70 60 71 69 72 61 73 62 74 68 75 70 76
REMARK SMILES IDX 63 77 64 78 65 79 66 80 67 81 43 82 44 83 53 84 45 85 46 86
REMARK SMILES IDX 52 87 54 88 47 89 48 90 49 91 50 92 51 93
REMARK H PARENT 3 9 75 43 41 54
REMARK Flexibility Score: inf
ROOT
ATOM      1  C   UNL A   1      38.828  22.199  25.937  1.00  0.00     0.275 C 
ENDROOT
BRANCH   1   2
ATOM      2  C   UNL A   1      37.405  21.943  25.467  1.00  0.00     0.274 C 
BRANCH   2   3
ATOM      3  O   UNL A   1      36.563  23.079  25.770  1.00  0.00    -0.457 OA
BRANCH   3   4
ATOM      4  C   UNL A   1      35.437  23.230  25.007  1.00  0.00     0.373 C 
ATOM      5  O   UNL A   1      35.441  23.734  23.887  1.00  0.00    -0.244 OA
BRANCH   4   6
ATOM      6  C   UNL A   1      34.130  22.760  25.761  1.00  0.00     0.221 C 
ATOM      7  C   UNL A   1      34.426  22.353  27.227  1.00  0.00     0.098 C 
BRANCH   6   8
ATOM      8  N   UNL A   1      33.121  23.916  25.762  1.00  0.00    -0.318 N 
ATOM      9  H   UNL A   1      32.717  23.809  24.831  1.00  0.00     0.349 HD
BRANCH   8  10
ATOM     10  C   UNL A   1      33.660  25.299  25.830  1.00  0.00     0.259 C 
ATOM     11  C   UNL A   1      33.295  26.324  24.766  1.00  0.00     0.071 C 
ENDBRANCH   8  10
BRANCH   8  12
ATOM     12  C   UNL A   1      32.097  23.784  26.835  1.00  0.00     0.259 C 
ATOM     13  C   UNL A   1      30.756  23.297  26.283  1.00  0.00     0.071 C 
ENDBRANCH   8  12
ENDBRANCH   6   8
BRANCH   6  14
ATOM     14  C   UNL A   1      33.620  21.535  24.926  1.00  0.00     0.062 A 
ATOM     15  C   UNL A   1      33.891  20.207  25.321  1.00  0.00     0.053 A 
ATOM     16  C   UNL A   1      32.816  21.684  23.783  1.00  0.00     0.133 A 
ATOM     17  C   UNL A   1      33.470  19.115  24.554  1.00  0.00     0.126 A 
ATOM     18  C   UNL A   1      32.381  20.592  23.022  1.00  0.00     0.046 A 
ATOM     19  F   UNL A   1      32.389  22.895  23.401  1.00  0.00    -0.206 F 
ATOM     20  F   UNL A   1      33.820  17.883  24.946  1.00  0.00    -0.207 F 
ATOM     21  C   UNL A   1      32.705  19.288  23.402  1.00  0.00    -0.012 A 
ATOM     22  C   UNL A   1      32.255  18.116  22.581  1.00  0.00     0.047 C 
ENDBRANCH   6  14
ENDBRANCH   4   6
ENDBRANCH   3   4
ENDBRANCH   2   3
ENDBRANCH   1   2
BRANCH   1  23
ATOM     23  O   UNL A   1      38.882  23.541  26.435  1.00  0.00    -0.458 OA
BRANCH  23  24
ATOM     24  C   UNL A   1      40.103  24.009  26.765  1.00  0.00     0.338 C 
ATOM     25  O   UNL A   1      41.184  23.537  26.443  1.00  0.00    -0.246 OA
BRANCH  24  26
ATOM     26  C   UNL A   1      39.939  25.226  27.583  1.00  0.00     0.060 A 
ATOM     27  C   UNL A   1      40.687  26.370  27.305  1.00  0.00     0.016 A 
ATOM     28  C   UNL A   1      39.094  25.201  28.693  1.00  0.00     0.016 A 
ATOM     29  C   UNL A   1      40.662  27.450  28.184  1.00  0.00     0.010 A 
ATOM     30  C   UNL A   1      39.009  26.322  29.526  1.00  0.00     0.010 A 
ATOM     31  C   UNL A   1      39.832  27.443  29.314  1.00  0.00    -0.014 A 
BRANCH  31  32
ATOM     32  C   UNL A   1      39.890  28.549  30.314  1.00  0.00     0.031 A 
ATOM     33  C   UNL A   1      40.967  28.546  31.374  1.00  0.00     0.074 A 
ATOM     34  C   UNL A   1      39.026  29.585  30.274  1.00  0.00     0.049 A 
ATOM     35  N   UNL A   1      41.055  29.257  32.470  1.00  0.00    -0.248 NA
ATOM     36  C   UNL A   1      42.085  27.607  31.182  1.00  0.00     0.031 C 
ATOM     37  C   UNL A   1      37.974  29.781  29.275  1.00  0.00     0.029 A 
ATOM     38  N   UNL A   1      38.909  30.683  31.093  1.00  0.00    -0.354 N 
ATOM     39  C   UNL A   1      42.178  28.785  33.141  1.00  0.00     0.074 A 
ATOM     40  C   UNL A   1      42.757  27.747  32.317  1.00  0.00     0.031 C 
ATOM     41  C   UNL A   1      37.366  30.955  29.499  1.00  0.00     0.029 A 
ATOM     42  C   UNL A   1      37.902  31.543  30.721  1.00  0.00     0.049 A 
ATOM     43  H   UNL A   1      39.491  30.839  31.871  1.00  0.00     0.167 HD
ATOM     44  C   UNL A   1      42.671  29.174  34.342  1.00  0.00     0.037 A 
ATOM     45  C   UNL A   1      37.425  32.653  31.318  1.00  0.00     0.037 A 
ATOM     46  C   UNL A   1      42.145  30.270  35.116  1.00  0.00     0.049 A 
ATOM     47  C   UNL A   1      37.995  33.081  32.640  1.00  0.00     0.074 A 
ATOM     48  C   UNL A   1      42.568  30.737  36.349  1.00  0.00     0.029 A 
ATOM     49  N   UNL A   1      41.104  31.094  34.716  1.00  0.00    -0.354 N 
ATOM     50  N   UNL A   1      38.964  32.536  33.334  1.00  0.00    -0.248 NA
ATOM     51  C   UNL A   1      37.382  34.254  33.275  1.00  0.00     0.031 C 
ATOM     52  C   UNL A   1      41.775  31.836  36.700  1.00  0.00     0.029 A 
ATOM     53  C   UNL A   1      40.878  32.070  35.671  1.00  0.00     0.049 A 
ATOM     54  H   UNL A   1      40.601  30.998  33.875  1.00  0.00     0.167 HD
ATOM     55  C   UNL A   1      39.067  33.291  34.497  1.00  0.00     0.074 A 
ATOM     56  C   UNL A   1      38.086  34.352  34.395  1.00  0.00     0.031 C 
ATOM     57  C   UNL A   1      39.889  33.112  35.560  1.00  0.00     0.037 A 
BRANCH  44  58
ATOM     58  C   UNL A   1      43.812  28.382  34.917  1.00  0.00     0.058 A 
ATOM     59  C   UNL A   1      45.152  28.744  34.717  1.00  0.00     0.135 A 
ATOM     60  C   UNL A   1      43.549  27.255  35.714  1.00  0.00     0.135 A 
ATOM     61  F   UNL A   1      45.459  29.800  33.946  1.00  0.00    -0.206 F 
ATOM     62  C   UNL A   1      46.194  28.004  35.271  1.00  0.00     0.059 A 
ATOM     63  C   UNL A   1      44.573  26.514  36.296  1.00  0.00     0.059 A 
ATOM     64  F   UNL A   1      42.284  26.864  35.935  1.00  0.00    -0.206 F 
ATOM     65  C   UNL A   1      45.894  26.889  36.057  1.00  0.00     0.060 A 
BRANCH  65  66
ATOM     66  S   UNL A   1      47.251  25.941  36.778  1.00  0.00     0.124 S 
ATOM     67  O   UNL A   1      47.389  26.579  38.083  1.00  0.00    -0.237 OA
ATOM     68  O   UNL A   1      46.716  24.583  36.790  1.00  0.00    -0.237 OA
ATOM     69  O   UNL A   1      48.354  26.167  35.849  1.00  0.00    -0.744 OA
ENDBRANCH  65  66
ENDBRANCH  44  58
BRANCH  45  70
ATOM     70  C   UNL A   1      36.305  33.403  30.690  1.00  0.00     0.058 A 
ATOM     71  C   UNL A   1      35.006  33.329  31.214  1.00  0.00     0.135 A 
ATOM     72  C   UNL A   1      36.517  34.234  29.579  1.00  0.00     0.135 A 
ATOM     73  F   UNL A   1      34.751  32.532  32.263  1.00  0.00    -0.206 F 
ATOM     74  C   UNL A   1      33.958  34.060  30.664  1.00  0.00     0.059 A 
ATOM     75  C   UNL A   1      35.492  34.995  29.029  1.00  0.00     0.059 A 
ATOM     76  F   UNL A   1      37.744  34.343  29.046  1.00  0.00    -0.206 F 
ATOM     77  C   UNL A   1      34.213  34.896  29.576  1.00  0.00     0.060 A 
BRANCH  77  78
ATOM     78  S   UNL A   1      32.874  35.915  28.917  1.00  0.00     0.124 S 
ATOM     79  O   UNL A   1      32.202  34.974  28.028  1.00  0.00    -0.237 OA
ATOM     80  O   UNL A   1      32.141  36.288  30.123  1.00  0.00    -0.237 OA
ATOM     81  O   UNL A   1      33.583  37.010  28.263  1.00  0.00    -0.744 OA
ENDBRANCH  77  78
ENDBRANCH  45  70
BRANCH  57  82
ATOM     82  C   UNL A   1      39.762  34.092  36.689  1.00  0.00     0.058 A 
ATOM     83  C   UNL A   1      40.408  35.338  36.651  1.00  0.00     0.135 A 
ATOM     84  C   UNL A   1      38.982  33.787  37.816  1.00  0.00     0.135 A 
ATOM     85  F   UNL A   1      41.169  35.672  35.598  1.00  0.00    -0.206 F 
ATOM     86  C   UNL A   1      40.315  36.235  37.709  1.00  0.00     0.059 A 
ATOM     87  C   UNL A   1      38.859  34.679  38.877  1.00  0.00     0.059 A 
ATOM     88  F   UNL A   1      38.337  32.613  37.894  1.00  0.00    -0.206 F 
ATOM     89  C   UNL A   1      39.543  35.893  38.822  1.00  0.00     0.060 A 
BRANCH  89  90
ATOM     90  S   UNL A   1      39.432  37.060  40.195  1.00  0.00     0.124 S 
ATOM     91  O   UNL A   1      38.771  38.195  39.562  1.00  0.00    -0.237 OA
ATOM     92  O   UNL A   1      38.634  36.325  41.172  1.00  0.00    -0.237 OA
ATOM     93  O   UNL A   1      40.827  37.273  40.570  1.00  0.00    -0.744 OA
ENDBRANCH  89  90
ENDBRANCH  57  82
ENDBRANCH  31  32
ENDBRANCH  24  26
ENDBRANCH  23  24
ENDBRANCH   1  23
TORSDOF 18
ENDMDL
MODEL 3
REMARK VINA RESULT:     -10.4      4.447     10.100
REMARK SMILES CC[NH+](CC)[C@](C)(C(=O)OCCOC(=O)c1ccc(-c2c3nc(c(-c4c(F)cc(S(=O)(=O)[O-])cc4F)c4ccc([nH]4)c(-c4c(F)cc(S(=O)(=O)[O-])cc4F)c4nc(c(-c5c(F)cc(S(=O)(=O)[O-])cc5F)c5ccc2[nH]5)C=C4)C=C3)cc1)c1cc(F)c(C)cc1F
REMARK SMILES IDX 12 1 11 2 10 3 8 4 9 5 6 6 7 7 3 8 2 10 1 11 4 12 5 13 82 14
REMARK SMILES IDX 83 15 89 16 84 17 88 18 90 19 85 20 86 21 87 22 13 23 14 24
REMARK SMILES IDX 15 25 16 26 17 27 81 28 18 29 80 30 19 31 20 32 21 33 74 34
REMARK SMILES IDX 22 35 79 36 73 37 75 38 23 39 78 40 72 41 71 42 24 44 58 45
REMARK SMILES IDX 37 46 57 47 38 48 41 49 56 50 76 51 39 52 40 53 55 55 77 56
REMARK SMILES IDX 42 57 25 58 26 59 35 60 27 61 28 62 34 63 36 64 29 65 30 66
REMARK SMILES IDX 31 67 32 68 33 69 59 70 60 71 69 72 61 73 62 74 68 75 70 76
REMARK SMILES IDX 63 77 64 78 65 79 66 80 67 81 43 82 44 83 53 84 45 85 46 86
REMARK SMILES IDX 52 87 54 88 47 89 48 90 49 91 50 92 51 93
REMARK H PARENT 3 9 75 43 41 54
REMARK Flexibility Score: inf
ROOT
ATOM      1  C   UNL A   1      33.166  30.259  26.359  1.00  0.00     0.275 C 
ENDROOT
BRANCH   1   2
ATOM      2  C   UNL A   1      32.276  29.142  25.837  1.00  0.00     0.274 C 
BRANCH   2   3
ATOM      3  O   UNL A   1      33.070  27.980  25.504  1.00  0.00    -0.457 OA
BRANCH   3   4
ATOM      4  C   UNL A   1      33.493  27.875  24.207  1.00  0.00     0.373 C 
ATOM      5  O   UNL A   1      34.367  28.588  23.721  1.00  0.00    -0.244 OA
BRANCH   4   6
ATOM      6  C   UNL A   1      32.677  26.795  23.391  1.00  0.00     0.221 C 
ATOM      7  C   UNL A   1      33.288  26.551  21.988  1.00  0.00     0.098 C 
BRANCH   6   8
ATOM      8  N   UNL A   1      32.693  25.475  24.174  1.00  0.00    -0.318 N 
ATOM      9  H   UNL A   1      32.021  25.689  24.911  1.00  0.00     0.349 HD
BRANCH   8  10
ATOM     10  C   UNL A   1      33.957  25.095  24.855  1.00  0.00     0.259 C 
ATOM     11  C   UNL A   1      33.930  24.241  26.115  1.00  0.00     0.071 C 
ENDBRANCH   8  10
BRANCH   8  12
ATOM     12  C   UNL A   1      32.265  24.312  23.348  1.00  0.00     0.259 C 
ATOM     13  C   UNL A   1      31.108  23.550  23.997  1.00  0.00     0.071 C 
ENDBRANCH   8  12
ENDBRANCH   6   8
BRANCH   6  14
ATOM     14  C   UNL A   1      31.234  27.398  23.284  1.00  0.00     0.062 A 
ATOM     15  C   UNL A   1      30.122  26.762  23.876  1.00  0.00     0.053 A 
ATOM     16  C   UNL A   1      30.976  28.628  22.655  1.00  0.00     0.133 A 
ATOM     17  C   UNL A   1      28.828  27.279  23.747  1.00  0.00     0.126 A 
ATOM     18  C   UNL A   1      29.684  29.154  22.536  1.00  0.00     0.046 A 
ATOM     19  F   UNL A   1      31.979  29.376  22.179  1.00  0.00    -0.206 F 
ATOM     20  F   UNL A   1      27.806  26.591  24.272  1.00  0.00    -0.207 F 
ATOM     21  C   UNL A   1      28.590  28.482  23.085  1.00  0.00    -0.012 A 
ATOM     22  C   UNL A   1      27.202  29.035  22.946  1.00  0.00     0.047 C 
ENDBRANCH   6  14
ENDBRANCH   4   6
ENDBRANCH   3   4
ENDBRANCH   2   3
ENDBRANCH   1   2
BRANCH   1  23
ATOM     23  O   UNL A   1      33.614  29.879  27.665  1.00  0.00    -0.458 OA
BRANCH  23  24
ATOM     24  C   UNL A   1      34.455  30.732  28.282  1.00  0.00     0.338 C 
ATOM     25  O   UNL A   1      34.184  31.836  28.732  1.00  0.00    -0.246 OA
BRANCH  24  26
ATOM     26  C   UNL A   1      35.792  30.110  28.355  1.00  0.00     0.060 A 
ATOM     27  C   UNL A   1      36.278  29.622  29.569  1.00  0.00     0.016 A 
ATOM     28  C   UNL A   1      36.605  30.092  27.222  1.00  0.00     0.016 A 
ATOM     29  C   UNL A   1      37.602  29.203  29.670  1.00  0.00     0.010 A 
ATOM     30  C   UNL A   1      37.908  29.591  27.312  1.00  0.00     0.010 A 
ATOM     31  C   UNL A   1      38.444  29.188  28.549  1.00  0.00    -0.014 A 
BRANCH  31  32
ATOM     32  C   UNL A   1      39.891  28.848  28.682  1.00  0.00     0.031 A 
ATOM     33  C   UNL A   1      40.858  29.880  29.215  1.00  0.00     0.074 A 
ATOM     34  C   UNL A   1      40.360  27.621  28.376  1.00  0.00     0.049 A 
ATOM     35  N   UNL A   1      42.166  29.885  29.181  1.00  0.00    -0.248 NA
ATOM     36  C   UNL A   1      40.273  31.069  29.856  1.00  0.00     0.031 C 
ATOM     37  C   UNL A   1      39.552  26.487  27.919  1.00  0.00     0.029 A 
ATOM     38  N   UNL A   1      41.637  27.115  28.422  1.00  0.00    -0.354 N 
ATOM     39  C   UNL A   1      42.556  31.114  29.705  1.00  0.00     0.074 A 
ATOM     40  C   UNL A   1      41.347  31.816  30.077  1.00  0.00     0.031 C 
ATOM     41  C   UNL A   1      40.339  25.409  27.791  1.00  0.00     0.029 A 
ATOM     42  C   UNL A   1      41.722  25.795  28.044  1.00  0.00     0.049 A 
ATOM     43  H   UNL A   1      42.417  27.647  28.699  1.00  0.00     0.167 HD
ATOM     44  C   UNL A   1      43.807  31.613  29.850  1.00  0.00     0.037 A 
ATOM     45  C   UNL A   1      42.791  24.994  27.868  1.00  0.00     0.037 A 
ATOM     46  C   UNL A   1      45.011  30.875  29.565  1.00  0.00     0.049 A 
ATOM     47  C   UNL A   1      44.171  25.559  28.050  1.00  0.00     0.074 A 
ATOM     48  C   UNL A   1      46.326  31.295  29.670  1.00  0.00     0.029 A 
ATOM     49  N   UNL A   1      45.049  29.551  29.154  1.00  0.00    -0.354 N 
ATOM     50  N   UNL A   1      44.525  26.770  28.407  1.00  0.00    -0.248 NA
ATOM     51  C   UNL A   1      45.297  24.658  27.771  1.00  0.00     0.031 C 
ATOM     52  C   UNL A   1      47.159  30.229  29.310  1.00  0.00     0.029 A 
ATOM     53  C   UNL A   1      46.362  29.137  29.010  1.00  0.00     0.049 A 
ATOM     54  H   UNL A   1      44.257  28.989  28.989  1.00  0.00     0.167 HD
ATOM     55  C   UNL A   1      45.915  26.781  28.380  1.00  0.00     0.074 A 
ATOM     56  C   UNL A   1      46.337  25.446  28.008  1.00  0.00     0.031 C 
ATOM     57  C   UNL A   1      46.765  27.808  28.627  1.00  0.00     0.037 A 
BRANCH  44  58
ATOM     58  C   UNL A   1      43.940  33.042  30.297  1.00  0.00     0.058 A 
ATOM     59  C   UNL A   1      43.956  34.113  29.391  1.00  0.00     0.135 A 
ATOM     60  C   UNL A   1      44.020  33.343  31.667  1.00  0.00     0.135 A 
ATOM     61  F   UNL A   1      43.904  33.880  28.069  1.00  0.00    -0.206 F 
ATOM     62  C   UNL A   1      44.068  35.431  29.826  1.00  0.00     0.059 A 
ATOM     63  C   UNL A   1      44.109  34.653  32.126  1.00  0.00     0.059 A 
ATOM     64  F   UNL A   1      44.012  32.355  32.577  1.00  0.00    -0.206 F 
ATOM     65  C   UNL A   1      44.145  35.691  31.197  1.00  0.00     0.060 A 
BRANCH  65  66
ATOM     66  S   UNL A   1      44.280  37.404  31.752  1.00  0.00     0.124 S 
ATOM     67  O   UNL A   1      43.784  38.126  30.586  1.00  0.00    -0.237 OA
ATOM     68  O   UNL A   1      43.410  37.423  32.925  1.00  0.00    -0.237 OA
ATOM     69  O   UNL A   1      45.703  37.559  32.031  1.00  0.00    -0.744 OA
ENDBRANCH  65  66
ENDBRANCH  44  58
BRANCH  45  70
ATOM     70  C   UNL A   1      42.594  23.584  27.441  1.00  0.00     0.058 A 
ATOM     71  C   UNL A   1      42.504  23.249  26.083  1.00  0.00     0.135 A 
ATOM     72  C   UNL A   1      42.526  22.542  28.379  1.00  0.00     0.135 A 
ATOM     73  F   UNL A   1      42.544  24.213  25.150  1.00  0.00    -0.206 F 
ATOM     74  C   UNL A   1      42.364  21.928  25.667  1.00  0.00     0.059 A 
ATOM     75  C   UNL A   1      42.414  21.213  27.988  1.00  0.00     0.059 A 
ATOM     76  F   UNL A   1      42.613  22.812  29.691  1.00  0.00    -0.206 F 
ATOM     77  C   UNL A   1      42.327  20.916  26.629  1.00  0.00     0.060 A 
BRANCH  77  78
ATOM     78  S   UNL A   1      42.237  19.195  26.089  1.00  0.00     0.124 S 
ATOM     79  O   UNL A   1      40.827  19.073  25.735  1.00  0.00    -0.237 OA
ATOM     80  O   UNL A   1      43.178  19.165  24.974  1.00  0.00    -0.237 OA
ATOM     81  O   UNL A   1      42.660  18.454  27.273  1.00  0.00    -0.744 OA
ENDBRANCH  77  78
ENDBRANCH  45  70
BRANCH  57  82
ATOM     82  C   UNL A   1      48.233  27.518  28.507  1.00  0.00     0.058 A 
ATOM     83  C   UNL A   1      48.955  26.956  29.570  1.00  0.00     0.135 A 
ATOM     84  C   UNL A   1      48.921  27.800  27.317  1.00  0.00     0.135 A 
ATOM     85  F   UNL A   1      48.341  26.675  30.730  1.00  0.00    -0.206 F 
ATOM     86  C   UNL A   1      50.321  26.713  29.471  1.00  0.00     0.059 A 
ATOM     87  C   UNL A   1      50.284  27.547  27.189  1.00  0.00     0.059 A 
ATOM     88  F   UNL A   1      48.272  28.329  26.268  1.00  0.00    -0.206 F 
ATOM     89  C   UNL A   1      50.979  27.020  28.277  1.00  0.00     0.060 A 
BRANCH  89  90
ATOM     90  S   UNL A   1      52.753  26.710  28.157  1.00  0.00     0.124 S 
ATOM     91  O   UNL A   1      53.242  27.991  27.661  1.00  0.00    -0.237 OA
ATOM     92  O   UNL A   1      53.112  26.383  29.534  1.00  0.00    -0.237 OA
ATOM     93  O   UNL A   1      52.836  25.596  27.216  1.00  0.00    -0.744 OA
ENDBRANCH  89  90
ENDBRANCH  57  82
ENDBRANCH  31  32
ENDBRANCH  24  26
ENDBRANCH  23  24
ENDBRANCH   1  23
TORSDOF 18
ENDMDL
