MODEL 1
REMARK VINA RESULT:     -11.3      0.000      0.000
REMARK SMILES C[C@H]1OCC[C@@H]1C(=O)Nc1sc2c(c1C(=O)OCCOC(=O)c1ccc(-c3c4nc(c(-c5c(F)cc(S(=O)(=O)[O-])cc5F)c5ccc([nH]5)c(-c5c(F)cc(S(=O)(=O)[O-])cc5F)c5nc(c(-c6c(F)cc(S(=O)(=O)[O-])cc6F)c6ccc3[nH]6)C=C5)C=C4)cc1)CCC2
REMARK SMILES IDX 19 1 18 2 17 3 15 4 16 5 14 6 10 7 11 8 12 9 13 10 91 11
REMARK SMILES IDX 89 12 90 13 9 14 7 15 8 16 6 18 1 19 2 20 3 21 4 22 5 23
REMARK SMILES IDX 20 24 21 25 22 26 23 27 24 28 88 29 25 30 87 31 26 32 27 33
REMARK SMILES IDX 28 34 81 35 29 36 86 37 80 38 82 39 30 40 85 41 79 42 78 43
REMARK SMILES IDX 31 45 65 46 44 47 64 48 45 49 48 50 63 51 83 52 46 53 47 54
REMARK SMILES IDX 62 56 84 57 49 58 32 59 33 60 42 61 34 62 35 63 41 64 43 65
REMARK SMILES IDX 36 66 37 67 38 68 39 69 40 70 66 71 67 72 76 73 68 74 69 75
REMARK SMILES IDX 75 76 77 77 70 78 71 79 72 80 73 81 74 82 50 83 51 84 60 85
REMARK SMILES IDX 52 86 53 87 59 88 61 89 54 90 55 91 56 92 57 93 58 94
REMARK H PARENT 9 17 82 44 48 55
REMARK Flexibility Score: inf
ROOT
ATOM      1  C   UNL A   1      35.278  29.737  27.594  1.00  0.00     0.275 C 
ENDROOT
BRANCH   1   2
ATOM      2  C   UNL A   1      33.779  29.476  27.620  1.00  0.00     0.275 C 
BRANCH   2   3
ATOM      3  O   UNL A   1      33.456  28.258  26.921  1.00  0.00    -0.458 OA
BRANCH   3   4
ATOM      4  C   UNL A   1      32.162  27.829  27.048  1.00  0.00     0.341 C 
ATOM      5  O   UNL A   1      31.587  27.696  28.110  1.00  0.00    -0.246 OA
BRANCH   4   6
ATOM      6  C   UNL A   1      31.536  27.549  25.756  1.00  0.00     0.098 A 
ATOM      7  C   UNL A   1      31.047  26.292  25.418  1.00  0.00     0.110 A 
ATOM      8  S   UNL A   1      30.623  26.123  23.766  1.00  0.00    -0.122 S 
ATOM      9  C   UNL A   1      30.610  27.784  23.630  1.00  0.00     0.011 A 
ATOM     10  C   UNL A   1      31.093  28.442  24.734  1.00  0.00    -0.017 A 
ATOM     11  C   UNL A   1      30.012  28.662  22.602  1.00  0.00     0.047 C 
ATOM     12  C   UNL A   1      30.862  29.906  24.597  1.00  0.00     0.038 C 
ATOM     13  C   UNL A   1      29.801  29.953  23.443  1.00  0.00     0.010 C 
BRANCH   7  14
ATOM     14  N   UNL A   1      30.754  25.191  26.187  1.00  0.00    -0.317 N 
ATOM     15  C   UNL A   1      31.737  24.280  26.500  1.00  0.00     0.230 C 
ATOM     16  O   UNL A   1      31.736  23.860  27.664  1.00  0.00    -0.274 OA
ATOM     17  H   UNL A   1      29.835  25.053  26.513  1.00  0.00     0.170 HD
BRANCH  15  18
ATOM     18  C   UNL A   1      32.718  23.673  25.487  1.00  0.00     0.110 C 
ATOM     19  C   UNL A   1      32.145  21.270  24.896  1.00  0.00     0.039 C 
ATOM     20  C   UNL A   1      33.030  22.192  25.727  1.00  0.00     0.127 C 
ATOM     21  O   UNL A   1      34.397  21.983  25.285  1.00  0.00    -0.378 OA
ATOM     22  C   UNL A   1      34.759  23.110  24.480  1.00  0.00     0.161 C 
ATOM     23  C   UNL A   1      34.078  24.247  25.191  1.00  0.00     0.044 C 
ENDBRANCH  15  18
ENDBRANCH   7  14
ENDBRANCH   4   6
ENDBRANCH   3   4
ENDBRANCH   2   3
ENDBRANCH   1   2
BRANCH   1  24
ATOM     24  O   UNL A   1      35.881  29.531  28.881  1.00  0.00    -0.458 OA
BRANCH  24  25
ATOM     25  C   UNL A   1      37.186  29.880  28.830  1.00  0.00     0.338 C 
ATOM     26  O   UNL A   1      37.696  30.806  29.451  1.00  0.00    -0.246 OA
BRANCH  25  27
ATOM     27  C   UNL A   1      38.023  29.011  27.994  1.00  0.00     0.060 A 
ATOM     28  C   UNL A   1      38.415  27.774  28.506  1.00  0.00     0.016 A 
ATOM     29  C   UNL A   1      38.829  29.707  27.093  1.00  0.00     0.016 A 
ATOM     30  C   UNL A   1      39.753  27.405  28.390  1.00  0.00     0.010 A 
ATOM     31  C   UNL A   1      40.139  29.309  26.936  1.00  0.00     0.010 A 
ATOM     32  C   UNL A   1      40.635  28.241  27.698  1.00  0.00    -0.014 A 
BRANCH  32  33
ATOM     33  C   UNL A   1      42.079  27.946  27.649  1.00  0.00     0.031 A 
ATOM     34  C   UNL A   1      42.864  28.448  28.820  1.00  0.00     0.074 A 
ATOM     35  C   UNL A   1      42.529  27.025  26.762  1.00  0.00     0.049 A 
ATOM     36  N   UNL A   1      44.118  28.769  28.900  1.00  0.00    -0.248 NA
ATOM     37  C   UNL A   1      42.117  28.674  30.078  1.00  0.00     0.031 C 
ATOM     38  C   UNL A   1      41.723  26.376  25.712  1.00  0.00     0.029 A 
ATOM     39  N   UNL A   1      43.698  26.306  26.728  1.00  0.00    -0.354 N 
ATOM     40  C   UNL A   1      44.349  29.009  30.255  1.00  0.00     0.074 A 
ATOM     41  C   UNL A   1      43.071  29.094  30.901  1.00  0.00     0.031 C 
ATOM     42  C   UNL A   1      42.298  25.206  25.372  1.00  0.00     0.029 A 
ATOM     43  C   UNL A   1      43.532  25.055  26.121  1.00  0.00     0.049 A 
ATOM     44  H   UNL A   1      44.554  26.632  27.090  1.00  0.00     0.167 HD
ATOM     45  C   UNL A   1      45.562  28.815  30.833  1.00  0.00     0.037 A 
ATOM     46  C   UNL A   1      44.255  23.922  26.323  1.00  0.00     0.037 A 
ATOM     47  C   UNL A   1      46.647  28.973  29.912  1.00  0.00     0.049 A 
ATOM     48  C   UNL A   1      45.526  24.298  26.985  1.00  0.00     0.074 A 
ATOM     49  C   UNL A   1      47.096  30.002  29.110  1.00  0.00     0.029 A 
ATOM     50  N   UNL A   1      47.315  27.848  29.505  1.00  0.00    -0.354 N 
ATOM     51  N   UNL A   1      46.495  24.963  26.425  1.00  0.00    -0.248 NA
ATOM     52  C   UNL A   1      45.602  24.189  28.436  1.00  0.00     0.031 C 
ATOM     53  C   UNL A   1      47.719  29.377  27.996  1.00  0.00     0.029 A 
ATOM     54  C   UNL A   1      47.623  27.997  28.178  1.00  0.00     0.049 A 
ATOM     55  H   UNL A   1      47.535  27.070  30.066  1.00  0.00     0.167 HD
ATOM     56  C   UNL A   1      47.062  25.693  27.457  1.00  0.00     0.074 A 
ATOM     57  C   UNL A   1      46.577  25.067  28.678  1.00  0.00     0.031 C 
ATOM     58  C   UNL A   1      47.632  26.910  27.223  1.00  0.00     0.037 A 
BRANCH  45  59
ATOM     59  C   UNL A   1      45.698  28.087  32.151  1.00  0.00     0.058 A 
ATOM     60  C   UNL A   1      45.202  26.778  32.286  1.00  0.00     0.135 A 
ATOM     61  C   UNL A   1      46.039  28.744  33.359  1.00  0.00     0.135 A 
ATOM     62  F   UNL A   1      44.827  26.077  31.205  1.00  0.00    -0.206 F 
ATOM     63  C   UNL A   1      44.999  26.188  33.536  1.00  0.00     0.059 A 
ATOM     64  C   UNL A   1      45.902  28.155  34.607  1.00  0.00     0.059 A 
ATOM     65  F   UNL A   1      46.422  30.027  33.390  1.00  0.00    -0.206 F 
ATOM     66  C   UNL A   1      45.333  26.896  34.689  1.00  0.00     0.060 A 
BRANCH  66  67
ATOM     67  S   UNL A   1      44.938  26.210  36.307  1.00  0.00     0.124 S 
ATOM     68  O   UNL A   1      45.628  27.145  37.187  1.00  0.00    -0.237 OA
ATOM     69  O   UNL A   1      43.480  26.272  36.319  1.00  0.00    -0.237 OA
ATOM     70  O   UNL A   1      45.500  24.864  36.244  1.00  0.00    -0.744 OA
ENDBRANCH  66  67
ENDBRANCH  45  59
BRANCH  46  71
ATOM     71  C   UNL A   1      43.795  22.502  26.254  1.00  0.00     0.058 A 
ATOM     72  C   UNL A   1      44.457  21.561  25.441  1.00  0.00     0.135 A 
ATOM     73  C   UNL A   1      42.852  21.969  27.158  1.00  0.00     0.135 A 
ATOM     74  F   UNL A   1      45.400  21.963  24.575  1.00  0.00    -0.206 F 
ATOM     75  C   UNL A   1      44.217  20.184  25.536  1.00  0.00     0.059 A 
ATOM     76  C   UNL A   1      42.574  20.606  27.250  1.00  0.00     0.059 A 
ATOM     77  F   UNL A   1      42.226  22.747  28.053  1.00  0.00    -0.206 F 
ATOM     78  C   UNL A   1      43.279  19.715  26.453  1.00  0.00     0.060 A 
BRANCH  78  79
ATOM     79  S   UNL A   1      43.068  17.934  26.688  1.00  0.00     0.124 S 
ATOM     80  O   UNL A   1      44.401  17.427  26.378  1.00  0.00    -0.237 OA
ATOM     81  O   UNL A   1      42.664  17.853  28.087  1.00  0.00    -0.237 OA
ATOM     82  O   UNL A   1      42.030  17.585  25.722  1.00  0.00    -0.744 OA
ENDBRANCH  78  79
ENDBRANCH  46  71
BRANCH  58  83
ATOM     83  C   UNL A   1      48.039  27.245  25.815  1.00  0.00     0.058 A 
ATOM     84  C   UNL A   1      49.302  26.966  25.270  1.00  0.00     0.135 A 
ATOM     85  C   UNL A   1      47.054  27.736  24.944  1.00  0.00     0.135 A 
ATOM     86  F   UNL A   1      50.265  26.397  26.010  1.00  0.00    -0.206 F 
ATOM     87  C   UNL A   1      49.587  27.204  23.924  1.00  0.00     0.059 A 
ATOM     88  C   UNL A   1      47.306  27.949  23.591  1.00  0.00     0.059 A 
ATOM     89  F   UNL A   1      45.809  27.962  25.394  1.00  0.00    -0.206 F 
ATOM     90  C   UNL A   1      48.581  27.692  23.091  1.00  0.00     0.060 A 
BRANCH  90  91
ATOM     91  S   UNL A   1      48.920  27.904  21.331  1.00  0.00     0.124 S 
ATOM     92  O   UNL A   1      49.320  29.306  21.261  1.00  0.00    -0.237 OA
ATOM     93  O   UNL A   1      49.980  26.929  21.088  1.00  0.00    -0.237 OA
ATOM     94  O   UNL A   1      47.642  27.588  20.697  1.00  0.00    -0.744 OA
ENDBRANCH  90  91
ENDBRANCH  58  83
ENDBRANCH  32  33
ENDBRANCH  25  27
ENDBRANCH  24  25
ENDBRANCH   1  24
TORSDOF 16
ENDMDL
MODEL 2
REMARK VINA RESULT:     -11.1      6.742     11.981
REMARK SMILES C[C@H]1OCC[C@@H]1C(=O)Nc1sc2c(c1C(=O)OCCOC(=O)c1ccc(-c3c4nc(c(-c5c(F)cc(S(=O)(=O)[O-])cc5F)c5ccc([nH]5)c(-c5c(F)cc(S(=O)(=O)[O-])cc5F)c5nc(c(-c6c(F)cc(S(=O)(=O)[O-])cc6F)c6ccc3[nH]6)C=C5)C=C4)cc1)CCC2
REMARK SMILES IDX 19 1 18 2 17 3 15 4 16 5 14 6 10 7 11 8 12 9 13 10 91 11
REMARK SMILES IDX 89 12 90 13 9 14 7 15 8 16 6 18 1 19 2 20 3 21 4 22 5 23
REMARK SMILES IDX 20 24 21 25 22 26 23 27 24 28 88 29 25 30 87 31 26 32 27 33
REMARK SMILES IDX 28 34 81 35 29 36 86 37 80 38 82 39 30 40 85 41 79 42 78 43
REMARK SMILES IDX 31 45 65 46 44 47 64 48 45 49 48 50 63 51 83 52 46 53 47 54
REMARK SMILES IDX 62 56 84 57 49 58 32 59 33 60 42 61 34 62 35 63 41 64 43 65
REMARK SMILES IDX 36 66 37 67 38 68 39 69 40 70 66 71 67 72 76 73 68 74 69 75
REMARK SMILES IDX 75 76 77 77 70 78 71 79 72 80 73 81 74 82 50 83 51 84 60 85
REMARK SMILES IDX 52 86 53 87 59 88 61 89 54 90 55 91 56 92 57 93 58 94
REMARK H PARENT 9 17 82 44 48 55
REMARK Flexibility Score: inf
ROOT
ATOM      1  C   UNL A   1      33.154  35.690  29.133  1.00  0.00     0.275 C 
ENDROOT
BRANCH   1   2
ATOM      2  C   UNL A   1      34.173  34.943  28.286  1.00  0.00     0.275 C 
BRANCH   2   3
ATOM      3  O   UNL A   1      34.312  33.579  28.731  1.00  0.00    -0.458 OA
BRANCH   3   4
ATOM      4  C   UNL A   1      33.692  32.638  27.956  1.00  0.00     0.341 C 
ATOM      5  O   UNL A   1      32.623  32.806  27.401  1.00  0.00    -0.246 OA
BRANCH   4   6
ATOM      6  C   UNL A   1      34.458  31.397  27.858  1.00  0.00     0.098 A 
ATOM      7  C   UNL A   1      34.160  30.402  26.934  1.00  0.00     0.110 A 
ATOM      8  S   UNL A   1      34.997  28.929  27.189  1.00  0.00    -0.122 S 
ATOM      9  C   UNL A   1      36.074  29.745  28.166  1.00  0.00     0.011 A 
ATOM     10  C   UNL A   1      35.710  31.038  28.445  1.00  0.00    -0.017 A 
ATOM     11  C   UNL A   1      37.425  29.370  28.634  1.00  0.00     0.047 C 
ATOM     12  C   UNL A   1      36.816  31.738  29.154  1.00  0.00     0.038 C 
ATOM     13  C   UNL A   1      38.028  30.784  28.870  1.00  0.00     0.010 C 
BRANCH   7  14
ATOM     14  N   UNL A   1      33.388  30.417  25.797  1.00  0.00    -0.317 N 
ATOM     15  C   UNL A   1      32.330  29.547  25.664  1.00  0.00     0.230 C 
ATOM     16  O   UNL A   1      31.295  30.021  25.179  1.00  0.00    -0.274 OA
ATOM     17  H   UNL A   1      33.594  31.052  25.073  1.00  0.00     0.170 HD
BRANCH  15  18
ATOM     18  C   UNL A   1      32.399  28.040  25.947  1.00  0.00     0.110 C 
ATOM     19  C   UNL A   1      33.761  26.783  24.210  1.00  0.00     0.039 C 
ATOM     20  C   UNL A   1      32.365  27.163  24.691  1.00  0.00     0.127 C 
ATOM     21  O   UNL A   1      31.694  25.931  25.066  1.00  0.00    -0.378 OA
ATOM     22  C   UNL A   1      31.678  25.878  26.497  1.00  0.00     0.161 C 
ATOM     23  C   UNL A   1      31.456  27.317  26.872  1.00  0.00     0.044 C 
ENDBRANCH  15  18
ENDBRANCH   7  14
ENDBRANCH   4   6
ENDBRANCH   3   4
ENDBRANCH   2   3
ENDBRANCH   1   2
BRANCH   1  24
ATOM     24  O   UNL A   1      32.862  34.998  30.357  1.00  0.00    -0.458 OA
BRANCH  24  25
ATOM     25  C   UNL A   1      33.370  35.690  31.400  1.00  0.00     0.338 C 
ATOM     26  O   UNL A   1      33.277  36.903  31.559  1.00  0.00    -0.246 OA
BRANCH  25  27
ATOM     27  C   UNL A   1      34.024  34.867  32.425  1.00  0.00     0.060 A 
ATOM     28  C   UNL A   1      34.825  35.500  33.374  1.00  0.00     0.016 A 
ATOM     29  C   UNL A   1      34.292  33.563  32.008  1.00  0.00     0.016 A 
ATOM     30  C   UNL A   1      36.082  34.963  33.642  1.00  0.00     0.010 A 
ATOM     31  C   UNL A   1      35.516  33.009  32.320  1.00  0.00     0.010 A 
ATOM     32  C   UNL A   1      36.463  33.772  33.017  1.00  0.00    -0.014 A 
BRANCH  32  33
ATOM     33  C   UNL A   1      37.825  33.230  33.183  1.00  0.00     0.031 A 
ATOM     34  C   UNL A   1      38.723  33.411  32.001  1.00  0.00     0.074 A 
ATOM     35  C   UNL A   1      38.252  32.904  34.428  1.00  0.00     0.049 A 
ATOM     36  N   UNL A   1      39.749  32.712  31.624  1.00  0.00    -0.248 NA
ATOM     37  C   UNL A   1      38.389  34.513  31.070  1.00  0.00     0.031 C 
ATOM     38  C   UNL A   1      37.424  32.897  35.647  1.00  0.00     0.029 A 
ATOM     39  N   UNL A   1      39.519  32.732  34.927  1.00  0.00    -0.354 N 
ATOM     40  C   UNL A   1      40.305  33.421  30.559  1.00  0.00     0.074 A 
ATOM     41  C   UNL A   1      39.353  34.417  30.161  1.00  0.00     0.031 C 
ATOM     42  C   UNL A   1      38.221  33.031  36.725  1.00  0.00     0.029 A 
ATOM     43  C   UNL A   1      39.603  33.066  36.284  1.00  0.00     0.049 A 
ATOM     44  H   UNL A   1      40.281  32.410  34.392  1.00  0.00     0.167 HD
ATOM     45  C   UNL A   1      41.629  33.369  30.261  1.00  0.00     0.037 A 
ATOM     46  C   UNL A   1      40.693  33.490  36.977  1.00  0.00     0.037 A 
ATOM     47  C   UNL A   1      42.239  32.137  30.662  1.00  0.00     0.049 A 
ATOM     48  C   UNL A   1      41.900  33.160  36.186  1.00  0.00     0.074 A 
ATOM     49  C   UNL A   1      42.029  30.808  30.357  1.00  0.00     0.029 A 
ATOM     50  N   UNL A   1      43.082  32.157  31.742  1.00  0.00    -0.354 N 
ATOM     51  N   UNL A   1      42.352  31.957  35.973  1.00  0.00    -0.248 NA
ATOM     52  C   UNL A   1      42.470  34.198  35.337  1.00  0.00     0.031 C 
ATOM     53  C   UNL A   1      42.436  30.081  31.510  1.00  0.00     0.029 A 
ATOM     54  C   UNL A   1      42.879  31.006  32.457  1.00  0.00     0.049 A 
ATOM     55  H   UNL A   1      43.721  32.871  31.964  1.00  0.00     0.167 HD
ATOM     56  C   UNL A   1      42.935  32.018  34.719  1.00  0.00     0.074 A 
ATOM     57  C   UNL A   1      43.111  33.437  34.448  1.00  0.00     0.031 C 
ATOM     58  C   UNL A   1      42.951  30.927  33.900  1.00  0.00     0.037 A 
BRANCH  45  59
ATOM     59  C   UNL A   1      42.418  34.624  29.969  1.00  0.00     0.058 A 
ATOM     60  C   UNL A   1      43.110  34.753  28.752  1.00  0.00     0.135 A 
ATOM     61  C   UNL A   1      42.747  35.573  30.968  1.00  0.00     0.135 A 
ATOM     62  F   UNL A   1      42.890  33.890  27.748  1.00  0.00    -0.206 F 
ATOM     63  C   UNL A   1      44.105  35.716  28.564  1.00  0.00     0.059 A 
ATOM     64  C   UNL A   1      43.689  36.575  30.781  1.00  0.00     0.059 A 
ATOM     65  F   UNL A   1      42.247  35.507  32.208  1.00  0.00    -0.206 F 
ATOM     66  C   UNL A   1      44.399  36.607  29.594  1.00  0.00     0.060 A 
BRANCH  66  67
ATOM     67  S   UNL A   1      45.778  37.753  29.421  1.00  0.00     0.124 S 
ATOM     68  O   UNL A   1      46.838  36.855  28.979  1.00  0.00    -0.237 OA
ATOM     69  O   UNL A   1      45.274  38.692  28.424  1.00  0.00    -0.237 OA
ATOM     70  O   UNL A   1      45.927  38.298  30.767  1.00  0.00    -0.744 OA
ENDBRANCH  66  67
ENDBRANCH  45  59
BRANCH  46  71
ATOM     71  C   UNL A   1      40.747  34.429  38.138  1.00  0.00     0.058 A 
ATOM     72  C   UNL A   1      40.415  35.789  37.992  1.00  0.00     0.135 A 
ATOM     73  C   UNL A   1      40.890  33.976  39.468  1.00  0.00     0.135 A 
ATOM     74  F   UNL A   1      40.218  36.308  36.771  1.00  0.00    -0.206 F 
ATOM     75  C   UNL A   1      40.213  36.637  39.090  1.00  0.00     0.059 A 
ATOM     76  C   UNL A   1      40.725  34.808  40.575  1.00  0.00     0.059 A 
ATOM     77  F   UNL A   1      41.108  32.682  39.745  1.00  0.00    -0.206 F 
ATOM     78  C   UNL A   1      40.361  36.133  40.380  1.00  0.00     0.060 A 
BRANCH  78  79
ATOM     79  S   UNL A   1      39.961  37.177  41.802  1.00  0.00     0.124 S 
ATOM     80  O   UNL A   1      41.285  37.505  42.319  1.00  0.00    -0.237 OA
ATOM     81  O   UNL A   1      39.228  38.274  41.182  1.00  0.00    -0.237 OA
ATOM     82  O   UNL A   1      39.161  36.299  42.652  1.00  0.00    -0.744 OA
ENDBRANCH  78  79
ENDBRANCH  46  71
BRANCH  58  83
ATOM     83  C   UNL A   1      42.745  29.572  34.518  1.00  0.00     0.058 A 
ATOM     84  C   UNL A   1      43.769  28.803  35.095  1.00  0.00     0.135 A 
ATOM     85  C   UNL A   1      41.430  29.104  34.659  1.00  0.00     0.135 A 
ATOM     86  F   UNL A   1      45.039  29.232  35.096  1.00  0.00    -0.206 F 
ATOM     87  C   UNL A   1      43.500  27.599  35.749  1.00  0.00     0.059 A 
ATOM     88  C   UNL A   1      41.135  27.924  35.336  1.00  0.00     0.059 A 
ATOM     89  F   UNL A   1      40.403  29.828  34.182  1.00  0.00    -0.206 F 
ATOM     90  C   UNL A   1      42.178  27.169  35.867  1.00  0.00     0.060 A 
BRANCH  90  91
ATOM     91  S   UNL A   1      41.822  25.665  36.799  1.00  0.00     0.124 S 
ATOM     92  O   UNL A   1      43.053  25.476  37.560  1.00  0.00    -0.237 OA
ATOM     93  O   UNL A   1      40.646  26.041  37.580  1.00  0.00    -0.237 OA
ATOM     94  O   UNL A   1      41.572  24.671  35.758  1.00  0.00    -0.744 OA
ENDBRANCH  90  91
ENDBRANCH  58  83
ENDBRANCH  32  33
ENDBRANCH  25  27
ENDBRANCH  24  25
ENDBRANCH   1  24
TORSDOF 16
ENDMDL
MODEL 3
REMARK VINA RESULT:     -11.0      3.154      7.481
REMARK SMILES C[C@H]1OCC[C@@H]1C(=O)Nc1sc2c(c1C(=O)OCCOC(=O)c1ccc(-c3c4nc(c(-c5c(F)cc(S(=O)(=O)[O-])cc5F)c5ccc([nH]5)c(-c5c(F)cc(S(=O)(=O)[O-])cc5F)c5nc(c(-c6c(F)cc(S(=O)(=O)[O-])cc6F)c6ccc3[nH]6)C=C5)C=C4)cc1)CCC2
REMARK SMILES IDX 19 1 18 2 17 3 15 4 16 5 14 6 10 7 11 8 12 9 13 10 91 11
REMARK SMILES IDX 89 12 90 13 9 14 7 15 8 16 6 18 1 19 2 20 3 21 4 22 5 23
REMARK SMILES IDX 20 24 21 25 22 26 23 27 24 28 88 29 25 30 87 31 26 32 27 33
REMARK SMILES IDX 28 34 81 35 29 36 86 37 80 38 82 39 30 40 85 41 79 42 78 43
REMARK SMILES IDX 31 45 65 46 44 47 64 48 45 49 48 50 63 51 83 52 46 53 47 54
REMARK SMILES IDX 62 56 84 57 49 58 32 59 33 60 42 61 34 62 35 63 41 64 43 65
REMARK SMILES IDX 36 66 37 67 38 68 39 69 40 70 66 71 67 72 76 73 68 74 69 75
REMARK SMILES IDX 75 76 77 77 70 78 71 79 72 80 73 81 74 82 50 83 51 84 60 85
REMARK SMILES IDX 52 86 53 87 59 88 61 89 54 90 55 91 56 92 57 93 58 94
REMARK H PARENT 9 17 82 44 48 55
REMARK Flexibility Score: inf
ROOT
ATOM      1  C   UNL A   1      38.495  21.668  25.445  1.00  0.00     0.275 C 
ENDROOT
BRANCH   1   2
ATOM      2  C   UNL A   1      37.159  21.490  24.740  1.00  0.00     0.275 C 
BRANCH   2   3
ATOM      3  O   UNL A   1      36.306  20.588  25.473  1.00  0.00    -0.458 OA
BRANCH   3   4
ATOM      4  C   UNL A   1      35.038  21.042  25.717  1.00  0.00     0.341 C 
ATOM      5  O   UNL A   1      34.739  21.770  26.644  1.00  0.00    -0.246 OA
BRANCH   4   6
ATOM      6  C   UNL A   1      34.070  20.559  24.733  1.00  0.00     0.098 A 
ATOM      7  C   UNL A   1      33.407  21.408  23.855  1.00  0.00     0.110 A 
ATOM      8  S   UNL A   1      32.120  20.670  22.998  1.00  0.00    -0.122 S 
ATOM      9  C   UNL A   1      32.747  19.179  23.401  1.00  0.00     0.011 A 
ATOM     10  C   UNL A   1      33.777  19.228  24.305  1.00  0.00    -0.017 A 
ATOM     11  C   UNL A   1      32.497  17.841  22.822  1.00  0.00     0.047 C 
ATOM     12  C   UNL A   1      34.393  17.881  24.452  1.00  0.00     0.038 C 
ATOM     13  C   UNL A   1      33.837  17.139  23.188  1.00  0.00     0.010 C 
BRANCH   7  14
ATOM     14  N   UNL A   1      33.658  22.707  23.478  1.00  0.00    -0.317 N 
ATOM     15  C   UNL A   1      33.405  23.744  24.347  1.00  0.00     0.230 C 
ATOM     16  O   UNL A   1      34.260  24.637  24.391  1.00  0.00    -0.274 OA
ATOM     17  H   UNL A   1      34.019  22.895  22.582  1.00  0.00     0.170 HD
BRANCH  15  18
ATOM     18  C   UNL A   1      32.102  23.919  25.140  1.00  0.00     0.110 C 
ATOM     19  C   UNL A   1      31.913  26.214  26.211  1.00  0.00     0.039 C 
ATOM     20  C   UNL A   1      32.254  24.743  26.423  1.00  0.00     0.127 C 
ATOM     21  O   UNL A   1      31.288  24.215  27.369  1.00  0.00    -0.378 OA
ATOM     22  C   UNL A   1      30.356  23.423  26.625  1.00  0.00     0.161 C 
ATOM     23  C   UNL A   1      31.236  22.773  25.592  1.00  0.00     0.044 C 
ENDBRANCH  15  18
ENDBRANCH   7  14
ENDBRANCH   4   6
ENDBRANCH   3   4
ENDBRANCH   2   3
ENDBRANCH   1   2
BRANCH   1  24
ATOM     24  O   UNL A   1      38.719  20.653  26.436  1.00  0.00    -0.458 OA
BRANCH  24  25
ATOM     25  C   UNL A   1      39.831  19.952  26.122  1.00  0.00     0.338 C 
ATOM     26  O   UNL A   1      39.868  18.980  25.375  1.00  0.00    -0.246 OA
BRANCH  25  27
ATOM     27  C   UNL A   1      41.074  20.476  26.701  1.00  0.00     0.060 A 
ATOM     28  C   UNL A   1      41.099  20.772  28.063  1.00  0.00     0.016 A 
ATOM     29  C   UNL A   1      41.858  21.187  25.793  1.00  0.00     0.016 A 
ATOM     30  C   UNL A   1      41.634  21.993  28.464  1.00  0.00     0.010 A 
ATOM     31  C   UNL A   1      42.435  22.370  26.205  1.00  0.00     0.010 A 
ATOM     32  C   UNL A   1      42.199  22.839  27.505  1.00  0.00    -0.014 A 
BRANCH  32  33
ATOM     33  C   UNL A   1      42.673  24.188  27.868  1.00  0.00     0.031 A 
ATOM     34  C   UNL A   1      41.706  25.294  27.585  1.00  0.00     0.074 A 
ATOM     35  C   UNL A   1      43.758  24.305  28.674  1.00  0.00     0.049 A 
ATOM     36  N   UNL A   1      41.928  26.549  27.349  1.00  0.00    -0.248 NA
ATOM     37  C   UNL A   1      40.275  24.924  27.505  1.00  0.00     0.031 C 
ATOM     38  C   UNL A   1      44.623  23.198  29.118  1.00  0.00     0.029 A 
ATOM     39  N   UNL A   1      44.197  25.354  29.443  1.00  0.00    -0.354 N 
ATOM     40  C   UNL A   1      40.667  27.146  27.321  1.00  0.00     0.074 A 
ATOM     41  C   UNL A   1      39.694  26.093  27.261  1.00  0.00     0.031 C 
ATOM     42  C   UNL A   1      45.251  23.555  30.255  1.00  0.00     0.029 A 
ATOM     43  C   UNL A   1      44.889  24.922  30.581  1.00  0.00     0.049 A 
ATOM     44  H   UNL A   1      44.042  26.301  29.220  1.00  0.00     0.167 HD
ATOM     45  C   UNL A   1      40.468  28.445  27.663  1.00  0.00     0.037 A 
ATOM     46  C   UNL A   1      45.033  25.567  31.769  1.00  0.00     0.037 A 
ATOM     47  C   UNL A   1      41.621  29.261  27.432  1.00  0.00     0.049 A 
ATOM     48  C   UNL A   1      44.698  26.994  31.564  1.00  0.00     0.074 A 
ATOM     49  C   UNL A   1      42.378  29.578  26.323  1.00  0.00     0.029 A 
ATOM     50  N   UNL A   1      42.332  29.695  28.520  1.00  0.00    -0.354 N 
ATOM     51  N   UNL A   1      45.411  27.842  30.878  1.00  0.00    -0.248 NA
ATOM     52  C   UNL A   1      43.348  27.436  31.887  1.00  0.00     0.031 C 
ATOM     53  C   UNL A   1      43.689  29.830  26.813  1.00  0.00     0.029 A 
ATOM     54  C   UNL A   1      43.663  29.659  28.197  1.00  0.00     0.049 A 
ATOM     55  H   UNL A   1      41.953  29.982  29.382  1.00  0.00     0.167 HD
ATOM     56  C   UNL A   1      44.489  28.721  30.338  1.00  0.00     0.074 A 
ATOM     57  C   UNL A   1      43.270  28.516  31.107  1.00  0.00     0.031 C 
ATOM     58  C   UNL A   1      44.713  29.320  29.133  1.00  0.00     0.037 A 
BRANCH  45  59
ATOM     59  C   UNL A   1      39.339  28.851  28.582  1.00  0.00     0.058 A 
ATOM     60  C   UNL A   1      38.369  29.769  28.142  1.00  0.00     0.135 A 
ATOM     61  C   UNL A   1      39.350  28.587  29.974  1.00  0.00     0.135 A 
ATOM     62  F   UNL A   1      38.289  30.107  26.846  1.00  0.00    -0.206 F 
ATOM     63  C   UNL A   1      37.513  30.425  29.030  1.00  0.00     0.059 A 
ATOM     64  C   UNL A   1      38.470  29.183  30.865  1.00  0.00     0.059 A 
ATOM     65  F   UNL A   1      40.285  27.818  30.547  1.00  0.00    -0.206 F 
ATOM     66  C   UNL A   1      37.589  30.139  30.391  1.00  0.00     0.060 A 
BRANCH  66  67
ATOM     67  S   UNL A   1      36.600  31.085  31.562  1.00  0.00     0.124 S 
ATOM     68  O   UNL A   1      37.545  32.122  31.958  1.00  0.00    -0.237 OA
ATOM     69  O   UNL A   1      35.478  31.519  30.736  1.00  0.00    -0.237 OA
ATOM     70  O   UNL A   1      36.269  30.101  32.589  1.00  0.00    -0.744 OA
ENDBRANCH  66  67
ENDBRANCH  45  59
BRANCH  46  71
ATOM     71  C   UNL A   1      45.154  24.977  33.137  1.00  0.00     0.058 A 
ATOM     72  C   UNL A   1      44.412  23.838  33.507  1.00  0.00     0.135 A 
ATOM     73  C   UNL A   1      46.171  25.361  34.037  1.00  0.00     0.135 A 
ATOM     74  F   UNL A   1      43.448  23.369  32.701  1.00  0.00    -0.206 F 
ATOM     75  C   UNL A   1      44.678  23.115  34.678  1.00  0.00     0.059 A 
ATOM     76  C   UNL A   1      46.434  24.675  35.222  1.00  0.00     0.059 A 
ATOM     77  F   UNL A   1      47.011  26.367  33.753  1.00  0.00    -0.206 F 
ATOM     78  C   UNL A   1      45.700  23.537  35.525  1.00  0.00     0.060 A 
BRANCH  78  79
ATOM     79  S   UNL A   1      46.148  22.531  36.960  1.00  0.00     0.124 S 
ATOM     80  O   UNL A   1      45.529  21.250  36.637  1.00  0.00    -0.237 OA
ATOM     81  O   UNL A   1      47.605  22.564  36.918  1.00  0.00    -0.237 OA
ATOM     82  O   UNL A   1      45.545  23.249  38.080  1.00  0.00    -0.744 OA
ENDBRANCH  78  79
ENDBRANCH  46  71
BRANCH  58  83
ATOM     83  C   UNL A   1      46.125  29.375  28.619  1.00  0.00     0.058 A 
ATOM     84  C   UNL A   1      46.749  28.335  27.910  1.00  0.00     0.135 A 
ATOM     85  C   UNL A   1      46.818  30.591  28.725  1.00  0.00     0.135 A 
ATOM     86  F   UNL A   1      46.112  27.180  27.674  1.00  0.00    -0.206 F 
ATOM     87  C   UNL A   1      48.026  28.486  27.366  1.00  0.00     0.059 A 
ATOM     88  C   UNL A   1      48.077  30.773  28.161  1.00  0.00     0.059 A 
ATOM     89  F   UNL A   1      46.245  31.641  29.338  1.00  0.00    -0.206 F 
ATOM     90  C   UNL A   1      48.681  29.710  27.494  1.00  0.00     0.060 A 
BRANCH  90  91
ATOM     91  S   UNL A   1      50.288  29.936  26.703  1.00  0.00     0.124 S 
ATOM     92  O   UNL A   1      50.283  31.362  26.396  1.00  0.00    -0.237 OA
ATOM     93  O   UNL A   1      51.221  29.515  27.745  1.00  0.00    -0.237 OA
ATOM     94  O   UNL A   1      50.225  29.047  25.545  1.00  0.00    -0.744 OA
ENDBRANCH  90  91
ENDBRANCH  58  83
ENDBRANCH  32  33
ENDBRANCH  25  27
ENDBRANCH  24  25
ENDBRANCH   1  24
TORSDOF 16
ENDMDL
