MODEL 1
REMARK VINA RESULT:      -9.6      0.000      0.000
REMARK SMILES CCC(CC)N(CCOC)C(=O)N1CC[C@H](C(=O)OCCOC(=O)c2ccc(-c3c4nc(c(-c5c(F)cc(S(=O)(=O)[O-])cc5F)c5ccc([nH]5)c(-c5c(F)cc(S(=O)(=O)[O-])cc5F)c5nc(c(-c6c(F)cc(S(=O)(=O)[O-])cc6F)c6ccc3[nH]6)C=C5)C=C4)cc2)[C@@H]1C
REMARK SMILES IDX 20 1 19 2 17 3 18 4 16 5 13 6 14 7 91 8 15 9 92 10 11 11
REMARK SMILES IDX 12 12 6 13 3 14 2 15 1 16 4 17 5 18 7 19 8 20 9 21 10 22
REMARK SMILES IDX 21 23 22 24 23 25 24 26 25 27 26 28 90 29 27 30 89 31 28 32
REMARK SMILES IDX 29 33 30 34 83 35 31 36 88 37 82 38 84 39 32 40 87 41 81 42
REMARK SMILES IDX 80 43 33 45 67 46 46 47 66 48 47 49 50 50 65 51 85 52 48 53
REMARK SMILES IDX 49 54 64 56 86 57 51 58 34 59 35 60 44 61 36 62 37 63 43 64
REMARK SMILES IDX 45 65 38 66 39 67 40 68 41 69 42 70 68 71 69 72 78 73 70 74
REMARK SMILES IDX 71 75 77 76 79 77 72 78 73 79 74 80 75 81 76 82 52 83 53 84
REMARK SMILES IDX 62 85 54 86 55 87 61 88 63 89 56 90 57 91 58 92 59 93 60 94
REMARK H PARENT 84 44 50 55
REMARK Flexibility Score: inf
ROOT
ATOM      1  C   UNL A   1      32.115  29.509  25.404  1.00  0.00     0.274 C 
ENDROOT
BRANCH   1   2
ATOM      2  O   UNL A   1      31.163  28.453  25.134  1.00  0.00    -0.462 OA
BRANCH   2   3
ATOM      3  C   UNL A   1      31.620  27.432  24.349  1.00  0.00     0.311 C 
ATOM      4  O   UNL A   1      32.140  27.582  23.253  1.00  0.00    -0.252 OA
BRANCH   3   5
ATOM      5  C   UNL A   1      31.337  26.081  24.999  1.00  0.00     0.123 C 
ATOM      6  N   UNL A   1      32.727  24.264  24.197  1.00  0.00    -0.321 N 
ATOM      7  C   UNL A   1      31.677  24.542  23.219  1.00  0.00     0.122 C 
ATOM      8  C   UNL A   1      32.558  25.187  25.346  1.00  0.00     0.098 C 
ATOM      9  C   UNL A   1      30.565  25.201  24.020  1.00  0.00     0.039 C 
ATOM     10  C   UNL A   1      33.793  25.989  25.713  1.00  0.00     0.032 C 
BRANCH   6  11
ATOM     11  C   UNL A   1      33.586  23.237  23.846  1.00  0.00     0.320 C 
ATOM     12  O   UNL A   1      33.694  23.002  22.636  1.00  0.00    -0.248 OA
BRANCH  11  13
ATOM     13  N   UNL A   1      34.232  22.419  24.758  1.00  0.00    -0.319 N 
BRANCH  13  14
ATOM     14  C   UNL A   1      35.691  22.085  24.520  1.00  0.00     0.086 C 
BRANCH  14  15
ATOM     15  C   UNL A   1      36.630  23.320  24.478  1.00  0.00     0.022 C 
ATOM     16  C   UNL A   1      37.047  23.812  25.864  1.00  0.00     0.006 C 
ENDBRANCH  14  15
BRANCH  14  17
ATOM     17  C   UNL A   1      36.243  20.889  25.329  1.00  0.00     0.022 C 
ATOM     18  C   UNL A   1      37.496  20.220  24.805  1.00  0.00     0.006 C 
ENDBRANCH  14  17
ENDBRANCH  13  14
BRANCH  13  19
ATOM     19  C   UNL A   1      33.618  21.629  25.835  1.00  0.00     0.150 C 
BRANCH  19  20
ATOM     20  C   UNL A   1      32.705  20.471  25.386  1.00  0.00     0.181 C 
BRANCH  20  21
ATOM     21  O   UNL A   1      33.054  19.952  24.102  1.00  0.00    -0.383 OA
ATOM     22  C   UNL A   1      33.420  18.578  24.146  1.00  0.00     0.194 C 
ENDBRANCH  20  21
ENDBRANCH  19  20
ENDBRANCH  13  19
ENDBRANCH  11  13
ENDBRANCH   6  11
ENDBRANCH   3   5
ENDBRANCH   2   3
ENDBRANCH   1   2
BRANCH   1  23
ATOM     23  C   UNL A   1      32.221  29.779  26.903  1.00  0.00     0.275 C 
BRANCH  23  24
ATOM     24  O   UNL A   1      33.541  29.442  27.349  1.00  0.00    -0.458 OA
BRANCH  24  25
ATOM     25  C   UNL A   1      34.241  30.457  27.907  1.00  0.00     0.338 C 
ATOM     26  O   UNL A   1      33.788  31.557  28.204  1.00  0.00    -0.246 OA
BRANCH  25  27
ATOM     27  C   UNL A   1      35.644  30.039  28.163  1.00  0.00     0.060 A 
ATOM     28  C   UNL A   1      36.066  29.625  29.429  1.00  0.00     0.016 A 
ATOM     29  C   UNL A   1      36.583  30.126  27.130  1.00  0.00     0.016 A 
ATOM     30  C   UNL A   1      37.418  29.392  29.682  1.00  0.00     0.010 A 
ATOM     31  C   UNL A   1      37.923  29.779  27.362  1.00  0.00     0.010 A 
ATOM     32  C   UNL A   1      38.368  29.431  28.649  1.00  0.00    -0.014 A 
BRANCH  32  33
ATOM     33  C   UNL A   1      39.804  29.104  28.912  1.00  0.00     0.031 A 
ATOM     34  C   UNL A   1      40.726  30.106  29.571  1.00  0.00     0.074 A 
ATOM     35  C   UNL A   1      40.296  27.887  28.591  1.00  0.00     0.049 A 
ATOM     36  N   UNL A   1      42.018  30.033  29.781  1.00  0.00    -0.248 NA
ATOM     37  C   UNL A   1      40.119  31.351  30.066  1.00  0.00     0.031 C 
ATOM     38  C   UNL A   1      39.527  26.786  28.008  1.00  0.00     0.029 A 
ATOM     39  N   UNL A   1      41.556  27.357  28.742  1.00  0.00    -0.354 N 
ATOM     40  C   UNL A   1      42.380  31.229  30.392  1.00  0.00     0.074 A 
ATOM     41  C   UNL A   1      41.171  32.008  30.535  1.00  0.00     0.031 C 
ATOM     42  C   UNL A   1      40.305  25.699  27.918  1.00  0.00     0.029 A 
ATOM     43  C   UNL A   1      41.660  26.050  28.325  1.00  0.00     0.049 A 
ATOM     44  H   UNL A   1      42.314  27.866  29.112  1.00  0.00     0.167 HD
ATOM     45  C   UNL A   1      43.607  31.649  30.781  1.00  0.00     0.037 A 
ATOM     46  C   UNL A   1      42.725  25.231  28.229  1.00  0.00     0.037 A 
ATOM     47  C   UNL A   1      44.816  30.877  30.649  1.00  0.00     0.049 A 
ATOM     48  C   UNL A   1      44.086  25.745  28.595  1.00  0.00     0.074 A 
ATOM     49  C   UNL A   1      46.108  31.234  30.998  1.00  0.00     0.029 A 
ATOM     50  N   UNL A   1      44.886  29.594  30.129  1.00  0.00    -0.354 N 
ATOM     51  N   UNL A   1      44.419  26.908  29.100  1.00  0.00    -0.248 NA
ATOM     52  C   UNL A   1      45.224  24.849  28.340  1.00  0.00     0.031 C 
ATOM     53  C   UNL A   1      46.965  30.185  30.647  1.00  0.00     0.029 A 
ATOM     54  C   UNL A   1      46.201  29.156  30.122  1.00  0.00     0.049 A 
ATOM     55  H   UNL A   1      44.115  29.071  29.810  1.00  0.00     0.167 HD
ATOM     56  C   UNL A   1      45.804  26.889  29.211  1.00  0.00     0.074 A 
ATOM     57  C   UNL A   1      46.245  25.588  28.752  1.00  0.00     0.031 C 
ATOM     58  C   UNL A   1      46.636  27.869  29.643  1.00  0.00     0.037 A 
BRANCH  45  59
ATOM     59  C   UNL A   1      43.725  33.041  31.339  1.00  0.00     0.058 A 
ATOM     60  C   UNL A   1      43.766  34.174  30.512  1.00  0.00     0.135 A 
ATOM     61  C   UNL A   1      43.743  33.243  32.729  1.00  0.00     0.135 A 
ATOM     62  F   UNL A   1      43.772  34.037  29.177  1.00  0.00    -0.206 F 
ATOM     63  C   UNL A   1      43.831  35.459  31.045  1.00  0.00     0.059 A 
ATOM     64  C   UNL A   1      43.787  34.518  33.283  1.00  0.00     0.059 A 
ATOM     65  F   UNL A   1      43.710  32.191  33.564  1.00  0.00    -0.206 F 
ATOM     66  C   UNL A   1      43.840  35.620  32.433  1.00  0.00     0.060 A 
BRANCH  66  67
ATOM     67  S   UNL A   1      43.908  37.292  33.110  1.00  0.00     0.124 S 
ATOM     68  O   UNL A   1      45.181  37.266  33.825  1.00  0.00    -0.237 OA
ATOM     69  O   UNL A   1      43.874  38.119  31.908  1.00  0.00    -0.237 OA
ATOM     70  O   UNL A   1      42.717  37.367  33.952  1.00  0.00    -0.744 OA
ENDBRANCH  66  67
ENDBRANCH  45  59
BRANCH  46  71
ATOM     71  C   UNL A   1      42.548  23.858  27.682  1.00  0.00     0.058 A 
ATOM     72  C   UNL A   1      42.494  23.624  26.301  1.00  0.00     0.135 A 
ATOM     73  C   UNL A   1      42.462  22.747  28.538  1.00  0.00     0.135 A 
ATOM     74  F   UNL A   1      42.548  24.654  25.443  1.00  0.00    -0.206 F 
ATOM     75  C   UNL A   1      42.374  22.336  25.786  1.00  0.00     0.059 A 
ATOM     76  C   UNL A   1      42.371  21.450  28.046  1.00  0.00     0.059 A 
ATOM     77  F   UNL A   1      42.508  22.916  29.868  1.00  0.00    -0.206 F 
ATOM     78  C   UNL A   1      42.321  21.255  26.667  1.00  0.00     0.060 A 
BRANCH  78  79
ATOM     79  S   UNL A   1      42.249  19.578  25.999  1.00  0.00     0.124 S 
ATOM     80  O   UNL A   1      42.680  18.787  27.145  1.00  0.00    -0.237 OA
ATOM     81  O   UNL A   1      40.844  19.448  25.626  1.00  0.00    -0.237 OA
ATOM     82  O   UNL A   1      43.183  19.627  24.877  1.00  0.00    -0.744 OA
ENDBRANCH  78  79
ENDBRANCH  46  71
BRANCH  58  83
ATOM     83  C   UNL A   1      48.108  27.574  29.634  1.00  0.00     0.058 A 
ATOM     84  C   UNL A   1      48.725  26.914  30.708  1.00  0.00     0.135 A 
ATOM     85  C   UNL A   1      48.903  27.927  28.534  1.00  0.00     0.135 A 
ATOM     86  F   UNL A   1      48.009  26.561  31.787  1.00  0.00    -0.206 F 
ATOM     87  C   UNL A   1      50.089  26.637  30.702  1.00  0.00     0.059 A 
ATOM     88  C   UNL A   1      50.265  27.640  28.498  1.00  0.00     0.059 A 
ATOM     89  F   UNL A   1      48.359  28.550  27.477  1.00  0.00    -0.206 F 
ATOM     90  C   UNL A   1      50.851  27.007  29.593  1.00  0.00     0.060 A 
BRANCH  90  91
ATOM     91  S   UNL A   1      52.617  26.630  29.589  1.00  0.00     0.124 S 
ATOM     92  O   UNL A   1      52.727  25.728  30.732  1.00  0.00    -0.237 OA
ATOM     93  O   UNL A   1      52.805  26.017  28.278  1.00  0.00    -0.237 OA
ATOM     94  O   UNL A   1      53.243  27.938  29.757  1.00  0.00    -0.744 OA
ENDBRANCH  90  91
ENDBRANCH  58  83
ENDBRANCH  32  33
ENDBRANCH  25  27
ENDBRANCH  24  25
ENDBRANCH  23  24
ENDBRANCH   1  23
TORSDOF 22
ENDMDL
MODEL 2
REMARK VINA RESULT:      -9.1      2.786      7.493
REMARK SMILES CCC(CC)N(CCOC)C(=O)N1CC[C@H](C(=O)OCCOC(=O)c2ccc(-c3c4nc(c(-c5c(F)cc(S(=O)(=O)[O-])cc5F)c5ccc([nH]5)c(-c5c(F)cc(S(=O)(=O)[O-])cc5F)c5nc(c(-c6c(F)cc(S(=O)(=O)[O-])cc6F)c6ccc3[nH]6)C=C5)C=C4)cc2)[C@@H]1C
REMARK SMILES IDX 20 1 19 2 17 3 18 4 16 5 13 6 14 7 91 8 15 9 92 10 11 11
REMARK SMILES IDX 12 12 6 13 3 14 2 15 1 16 4 17 5 18 7 19 8 20 9 21 10 22
REMARK SMILES IDX 21 23 22 24 23 25 24 26 25 27 26 28 90 29 27 30 89 31 28 32
REMARK SMILES IDX 29 33 30 34 83 35 31 36 88 37 82 38 84 39 32 40 87 41 81 42
REMARK SMILES IDX 80 43 33 45 67 46 46 47 66 48 47 49 50 50 65 51 85 52 48 53
REMARK SMILES IDX 49 54 64 56 86 57 51 58 34 59 35 60 44 61 36 62 37 63 43 64
REMARK SMILES IDX 45 65 38 66 39 67 40 68 41 69 42 70 68 71 69 72 78 73 70 74
REMARK SMILES IDX 71 75 77 76 79 77 72 78 73 79 74 80 75 81 76 82 52 83 53 84
REMARK SMILES IDX 62 85 54 86 55 87 61 88 63 89 56 90 57 91 58 92 59 93 60 94
REMARK H PARENT 84 44 50 55
REMARK Flexibility Score: inf
ROOT
ATOM      1  C   UNL A   1      35.631  21.025  25.247  1.00  0.00     0.274 C 
ENDROOT
BRANCH   1   2
ATOM      2  O   UNL A   1      35.287  21.764  26.443  1.00  0.00    -0.462 OA
BRANCH   2   3
ATOM      3  C   UNL A   1      33.952  21.973  26.646  1.00  0.00     0.311 C 
ATOM      4  O   UNL A   1      33.363  21.722  27.688  1.00  0.00    -0.252 OA
BRANCH   3   5
ATOM      5  C   UNL A   1      33.289  22.503  25.378  1.00  0.00     0.123 C 
ATOM      6  N   UNL A   1      32.147  24.625  25.648  1.00  0.00    -0.321 N 
ATOM      7  C   UNL A   1      31.319  23.553  26.196  1.00  0.00     0.122 C 
ATOM      8  C   UNL A   1      33.392  24.028  25.104  1.00  0.00     0.098 C 
ATOM      9  C   UNL A   1      31.780  22.297  25.474  1.00  0.00     0.039 C 
ATOM     10  C   UNL A   1      34.678  24.637  25.628  1.00  0.00     0.032 C 
BRANCH   6  11
ATOM     11  C   UNL A   1      31.594  25.889  25.744  1.00  0.00     0.320 C 
ATOM     12  O   UNL A   1      31.050  26.169  26.820  1.00  0.00    -0.248 OA
BRANCH  11  13
ATOM     13  N   UNL A   1      31.531  26.791  24.695  1.00  0.00    -0.319 N 
BRANCH  13  14
ATOM     14  C   UNL A   1      30.641  26.462  23.513  1.00  0.00     0.086 C 
BRANCH  14  15
ATOM     15  C   UNL A   1      29.235  27.117  23.572  1.00  0.00     0.022 C 
ATOM     16  C   UNL A   1      29.196  28.526  22.979  1.00  0.00     0.006 C 
ENDBRANCH  14  15
BRANCH  14  17
ATOM     17  C   UNL A   1      31.320  26.529  22.127  1.00  0.00     0.022 C 
ATOM     18  C   UNL A   1      32.384  25.494  21.828  1.00  0.00     0.006 C 
ENDBRANCH  14  17
ENDBRANCH  13  14
BRANCH  13  19
ATOM     19  C   UNL A   1      32.405  27.950  24.465  1.00  0.00     0.150 C 
BRANCH  19  20
ATOM     20  C   UNL A   1      32.125  29.191  25.336  1.00  0.00     0.181 C 
BRANCH  20  21
ATOM     21  O   UNL A   1      33.293  29.688  25.989  1.00  0.00    -0.383 OA
ATOM     22  C   UNL A   1      33.690  28.883  27.093  1.00  0.00     0.194 C 
ENDBRANCH  20  21
ENDBRANCH  19  20
ENDBRANCH  13  19
ENDBRANCH  11  13
ENDBRANCH   6  11
ENDBRANCH   3   5
ENDBRANCH   2   3
ENDBRANCH   1   2
BRANCH   1  23
ATOM     23  C   UNL A   1      37.064  21.326  24.813  1.00  0.00     0.275 C 
BRANCH  23  24
ATOM     24  O   UNL A   1      37.635  22.287  25.709  1.00  0.00    -0.458 OA
BRANCH  24  25
ATOM     25  C   UNL A   1      38.871  21.985  26.172  1.00  0.00     0.338 C 
ATOM     26  O   UNL A   1      39.393  20.877  26.140  1.00  0.00    -0.246 OA
BRANCH  25  27
ATOM     27  C   UNL A   1      39.543  23.207  26.687  1.00  0.00     0.060 A 
ATOM     28  C   UNL A   1      39.281  24.469  26.151  1.00  0.00     0.016 A 
ATOM     29  C   UNL A   1      40.514  23.084  27.687  1.00  0.00     0.016 A 
ATOM     30  C   UNL A   1      40.039  25.574  26.539  1.00  0.00     0.010 A 
ATOM     31  C   UNL A   1      41.193  24.218  28.155  1.00  0.00     0.010 A 
ATOM     32  C   UNL A   1      40.986  25.479  27.571  1.00  0.00    -0.014 A 
BRANCH  32  33
ATOM     33  C   UNL A   1      41.741  26.684  28.037  1.00  0.00     0.031 A 
ATOM     34  C   UNL A   1      41.047  27.799  28.787  1.00  0.00     0.074 A 
ATOM     35  C   UNL A   1      43.071  26.780  27.820  1.00  0.00     0.049 A 
ATOM     36  N   UNL A   1      41.520  28.959  29.173  1.00  0.00    -0.248 NA
ATOM     37  C   UNL A   1      39.641  27.584  29.159  1.00  0.00     0.031 C 
ATOM     38  C   UNL A   1      43.902  25.765  27.169  1.00  0.00     0.029 A 
ATOM     39  N   UNL A   1      43.969  27.767  28.156  1.00  0.00    -0.354 N 
ATOM     40  C   UNL A   1      40.466  29.621  29.794  1.00  0.00     0.074 A 
ATOM     41  C   UNL A   1      39.329  28.730  29.749  1.00  0.00     0.031 C 
ATOM     42  C   UNL A   1      45.186  26.146  27.217  1.00  0.00     0.029 A 
ATOM     43  C   UNL A   1      45.265  27.482  27.794  1.00  0.00     0.049 A 
ATOM     44  H   UNL A   1      43.707  28.600  28.612  1.00  0.00     0.167 HD
ATOM     45  C   UNL A   1      40.440  30.862  30.335  1.00  0.00     0.037 A 
ATOM     46  C   UNL A   1      46.390  28.219  27.867  1.00  0.00     0.037 A 
ATOM     47  C   UNL A   1      41.569  31.754  30.390  1.00  0.00     0.049 A 
ATOM     48  C   UNL A   1      46.321  29.620  28.401  1.00  0.00     0.074 A 
ATOM     49  C   UNL A   1      41.626  33.040  30.902  1.00  0.00     0.029 A 
ATOM     50  N   UNL A   1      42.839  31.458  29.920  1.00  0.00    -0.354 N 
ATOM     51  N   UNL A   1      45.295  30.256  28.914  1.00  0.00    -0.248 NA
ATOM     52  C   UNL A   1      47.552  30.419  28.329  1.00  0.00     0.031 C 
ATOM     53  C   UNL A   1      42.918  33.538  30.701  1.00  0.00     0.029 A 
ATOM     54  C   UNL A   1      43.678  32.545  30.106  1.00  0.00     0.049 A 
ATOM     55  H   UNL A   1      43.105  30.601  29.515  1.00  0.00     0.167 HD
ATOM     56  C   UNL A   1      45.754  31.533  29.213  1.00  0.00     0.074 A 
ATOM     57  C   UNL A   1      47.156  31.570  28.855  1.00  0.00     0.031 C 
ATOM     58  C   UNL A   1      45.068  32.583  29.726  1.00  0.00     0.037 A 
BRANCH  45  59
ATOM     59  C   UNL A   1      39.125  31.367  30.864  1.00  0.00     0.058 A 
ATOM     60  C   UNL A   1      38.751  31.205  32.207  1.00  0.00     0.135 A 
ATOM     61  C   UNL A   1      38.251  32.072  30.020  1.00  0.00     0.135 A 
ATOM     62  F   UNL A   1      39.540  30.523  33.051  1.00  0.00    -0.206 F 
ATOM     63  C   UNL A   1      37.550  31.716  32.692  1.00  0.00     0.059 A 
ATOM     64  C   UNL A   1      37.055  32.608  30.487  1.00  0.00     0.059 A 
ATOM     65  F   UNL A   1      38.560  32.250  28.725  1.00  0.00    -0.206 F 
ATOM     66  C   UNL A   1      36.709  32.417  31.823  1.00  0.00     0.060 A 
BRANCH  66  67
ATOM     67  S   UNL A   1      35.162  33.089  32.469  1.00  0.00     0.124 S 
ATOM     68  O   UNL A   1      35.277  32.771  33.889  1.00  0.00    -0.237 OA
ATOM     69  O   UNL A   1      35.267  34.504  32.127  1.00  0.00    -0.237 OA
ATOM     70  O   UNL A   1      34.138  32.346  31.741  1.00  0.00    -0.744 OA
ENDBRANCH  66  67
ENDBRANCH  45  59
BRANCH  46  71
ATOM     71  C   UNL A   1      47.667  27.665  27.341  1.00  0.00     0.058 A 
ATOM     72  C   UNL A   1      48.009  27.782  25.986  1.00  0.00     0.135 A 
ATOM     73  C   UNL A   1      48.587  27.034  28.195  1.00  0.00     0.135 A 
ATOM     74  F   UNL A   1      47.154  28.354  25.124  1.00  0.00    -0.206 F 
ATOM     75  C   UNL A   1      49.222  27.304  25.499  1.00  0.00     0.059 A 
ATOM     76  C   UNL A   1      49.816  26.576  27.737  1.00  0.00     0.059 A 
ATOM     77  F   UNL A   1      48.308  26.896  29.500  1.00  0.00    -0.206 F 
ATOM     78  C   UNL A   1      50.123  26.710  26.384  1.00  0.00     0.060 A 
BRANCH  78  79
ATOM     79  S   UNL A   1      51.732  26.165  25.770  1.00  0.00     0.124 S 
ATOM     80  O   UNL A   1      51.613  26.449  24.345  1.00  0.00    -0.237 OA
ATOM     81  O   UNL A   1      52.657  27.013  26.515  1.00  0.00    -0.237 OA
ATOM     82  O   UNL A   1      51.764  24.750  26.132  1.00  0.00    -0.744 OA
ENDBRANCH  78  79
ENDBRANCH  46  71
BRANCH  58  83
ATOM     83  C   UNL A   1      45.823  33.865  29.927  1.00  0.00     0.058 A 
ATOM     84  C   UNL A   1      45.860  34.852  28.929  1.00  0.00     0.135 A 
ATOM     85  C   UNL A   1      46.491  34.124  31.133  1.00  0.00     0.135 A 
ATOM     86  F   UNL A   1      45.243  34.651  27.755  1.00  0.00    -0.206 F 
ATOM     87  C   UNL A   1      46.558  36.043  29.112  1.00  0.00     0.059 A 
ATOM     88  C   UNL A   1      47.176  35.317  31.345  1.00  0.00     0.059 A 
ATOM     89  F   UNL A   1      46.477  33.217  32.122  1.00  0.00    -0.206 F 
ATOM     90  C   UNL A   1      47.215  36.264  30.323  1.00  0.00     0.060 A 
BRANCH  90  91
ATOM     91  S   UNL A   1      48.104  37.819  30.556  1.00  0.00     0.124 S 
ATOM     92  O   UNL A   1      47.228  38.520  31.490  1.00  0.00    -0.237 OA
ATOM     93  O   UNL A   1      49.382  37.372  31.100  1.00  0.00    -0.237 OA
ATOM     94  O   UNL A   1      48.165  38.380  29.209  1.00  0.00    -0.744 OA
ENDBRANCH  90  91
ENDBRANCH  58  83
ENDBRANCH  32  33
ENDBRANCH  25  27
ENDBRANCH  24  25
ENDBRANCH  23  24
ENDBRANCH   1  23
TORSDOF 22
ENDMDL
MODEL 3
REMARK VINA RESULT:      -8.9      1.132      8.344
REMARK SMILES CCC(CC)N(CCOC)C(=O)N1CC[C@H](C(=O)OCCOC(=O)c2ccc(-c3c4nc(c(-c5c(F)cc(S(=O)(=O)[O-])cc5F)c5ccc([nH]5)c(-c5c(F)cc(S(=O)(=O)[O-])cc5F)c5nc(c(-c6c(F)cc(S(=O)(=O)[O-])cc6F)c6ccc3[nH]6)C=C5)C=C4)cc2)[C@@H]1C
REMARK SMILES IDX 20 1 19 2 17 3 18 4 16 5 13 6 14 7 91 8 15 9 92 10 11 11
REMARK SMILES IDX 12 12 6 13 3 14 2 15 1 16 4 17 5 18 7 19 8 20 9 21 10 22
REMARK SMILES IDX 21 23 22 24 23 25 24 26 25 27 26 28 90 29 27 30 89 31 28 32
REMARK SMILES IDX 29 33 30 34 83 35 31 36 88 37 82 38 84 39 32 40 87 41 81 42
REMARK SMILES IDX 80 43 33 45 67 46 46 47 66 48 47 49 50 50 65 51 85 52 48 53
REMARK SMILES IDX 49 54 64 56 86 57 51 58 34 59 35 60 44 61 36 62 37 63 43 64
REMARK SMILES IDX 45 65 38 66 39 67 40 68 41 69 42 70 68 71 69 72 78 73 70 74
REMARK SMILES IDX 71 75 77 76 79 77 72 78 73 79 74 80 75 81 76 82 52 83 53 84
REMARK SMILES IDX 62 85 54 86 55 87 61 88 63 89 56 90 57 91 58 92 59 93 60 94
REMARK H PARENT 84 44 50 55
REMARK Flexibility Score: inf
ROOT
ATOM      1  C   UNL A   1      31.905  28.169  26.347  1.00  0.00     0.274 C 
ENDROOT
BRANCH   1   2
ATOM      2  O   UNL A   1      31.484  27.686  25.050  1.00  0.00    -0.462 OA
BRANCH   2   3
ATOM      3  C   UNL A   1      31.474  26.328  24.898  1.00  0.00     0.311 C 
ATOM      4  O   UNL A   1      31.097  25.540  25.754  1.00  0.00    -0.252 OA
BRANCH   3   5
ATOM      5  C   UNL A   1      32.054  25.930  23.544  1.00  0.00     0.123 C 
ATOM      6  N   UNL A   1      33.674  24.128  23.631  1.00  0.00    -0.321 N 
ATOM      7  C   UNL A   1      34.306  25.372  24.063  1.00  0.00     0.122 C 
ATOM      8  C   UNL A   1      32.262  24.415  23.275  1.00  0.00     0.098 C 
ATOM      9  C   UNL A   1      33.475  26.474  23.424  1.00  0.00     0.039 C 
ATOM     10  C   UNL A   1      31.234  23.545  23.974  1.00  0.00     0.032 C 
BRANCH   6  11
ATOM     11  C   UNL A   1      34.507  23.024  23.636  1.00  0.00     0.320 C 
ATOM     12  O   UNL A   1      35.283  22.918  22.678  1.00  0.00    -0.248 OA
BRANCH  11  13
ATOM     13  N   UNL A   1      34.447  22.011  24.579  1.00  0.00    -0.319 N 
BRANCH  13  14
ATOM     14  C   UNL A   1      35.251  22.163  25.855  1.00  0.00     0.086 C 
BRANCH  14  15
ATOM     15  C   UNL A   1      36.762  22.432  25.628  1.00  0.00     0.022 C 
ATOM     16  C   UNL A   1      37.186  23.856  25.992  1.00  0.00     0.006 C 
ENDBRANCH  14  15
BRANCH  14  17
ATOM     17  C   UNL A   1      34.603  23.038  26.952  1.00  0.00     0.022 C 
ATOM     18  C   UNL A   1      33.091  23.036  27.033  1.00  0.00     0.006 C 
ENDBRANCH  14  17
ENDBRANCH  13  14
BRANCH  13  19
ATOM     19  C   UNL A   1      33.871  20.669  24.407  1.00  0.00     0.150 C 
BRANCH  19  20
ATOM     20  C   UNL A   1      32.353  20.551  24.647  1.00  0.00     0.181 C 
BRANCH  20  21
ATOM     21  O   UNL A   1      31.999  19.402  25.416  1.00  0.00    -0.383 OA
ATOM     22  C   UNL A   1      32.815  18.273  25.123  1.00  0.00     0.194 C 
ENDBRANCH  20  21
ENDBRANCH  19  20
ENDBRANCH  13  19
ENDBRANCH  11  13
ENDBRANCH   6  11
ENDBRANCH   3   5
ENDBRANCH   2   3
ENDBRANCH   1   2
BRANCH   1  23
ATOM     23  C   UNL A   1      33.359  28.637  26.310  1.00  0.00     0.275 C 
BRANCH  23  24
ATOM     24  O   UNL A   1      33.837  28.793  27.652  1.00  0.00    -0.458 OA
BRANCH  24  25
ATOM     25  C   UNL A   1      34.407  29.989  27.928  1.00  0.00     0.338 C 
ATOM     26  O   UNL A   1      33.818  31.061  27.998  1.00  0.00    -0.246 OA
BRANCH  25  27
ATOM     27  C   UNL A   1      35.861  29.821  28.189  1.00  0.00     0.060 A 
ATOM     28  C   UNL A   1      36.816  30.059  27.198  1.00  0.00     0.016 A 
ATOM     29  C   UNL A   1      36.281  29.347  29.436  1.00  0.00     0.016 A 
ATOM     30  C   UNL A   1      38.157  29.741  27.418  1.00  0.00     0.010 A 
ATOM     31  C   UNL A   1      37.645  29.138  29.689  1.00  0.00     0.010 A 
ATOM     32  C   UNL A   1      38.604  29.307  28.676  1.00  0.00    -0.014 A 
BRANCH  32  33
ATOM     33  C   UNL A   1      40.055  29.042  28.927  1.00  0.00     0.031 A 
ATOM     34  C   UNL A   1      40.687  27.724  28.539  1.00  0.00     0.074 A 
ATOM     35  C   UNL A   1      40.836  29.996  29.480  1.00  0.00     0.049 A 
ATOM     36  N   UNL A   1      41.900  27.284  28.774  1.00  0.00    -0.248 NA
ATOM     37  C   UNL A   1      39.854  26.777  27.783  1.00  0.00     0.031 C 
ATOM     38  C   UNL A   1      40.398  31.342  29.854  1.00  0.00     0.029 A 
ATOM     39  N   UNL A   1      42.176  29.993  29.793  1.00  0.00    -0.354 N 
ATOM     40  C   UNL A   1      41.960  26.004  28.233  1.00  0.00     0.074 A 
ATOM     41  C   UNL A   1      40.667  25.739  27.642  1.00  0.00     0.031 C 
ATOM     42  C   UNL A   1      41.454  32.051  30.275  1.00  0.00     0.029 A 
ATOM     43  C   UNL A   1      42.624  31.184  30.315  1.00  0.00     0.049 A 
ATOM     44  H   UNL A   1      42.758  29.210  29.658  1.00  0.00     0.167 HD
ATOM     45  C   UNL A   1      42.988  25.122  28.242  1.00  0.00     0.037 A 
ATOM     46  C   UNL A   1      43.824  31.538  30.817  1.00  0.00     0.037 A 
ATOM     47  C   UNL A   1      44.281  25.380  28.822  1.00  0.00     0.049 A 
ATOM     48  C   UNL A   1      44.924  30.520  30.885  1.00  0.00     0.074 A 
ATOM     49  C   UNL A   1      45.375  24.534  28.895  1.00  0.00     0.029 A 
ATOM     50  N   UNL A   1      44.657  26.568  29.428  1.00  0.00    -0.354 N 
ATOM     51  N   UNL A   1      44.936  29.288  30.436  1.00  0.00    -0.248 NA
ATOM     52  C   UNL A   1      46.162  30.927  31.566  1.00  0.00     0.031 C 
ATOM     53  C   UNL A   1      46.398  25.195  29.584  1.00  0.00     0.029 A 
ATOM     54  C   UNL A   1      45.956  26.469  29.900  1.00  0.00     0.049 A 
ATOM     55  H   UNL A   1      44.085  27.366  29.510  1.00  0.00     0.167 HD
ATOM     56  C   UNL A   1      46.175  28.769  30.791  1.00  0.00     0.074 A 
ATOM     57  C   UNL A   1      46.898  29.828  31.462  1.00  0.00     0.031 C 
ATOM     58  C   UNL A   1      46.662  27.520  30.588  1.00  0.00     0.037 A 
BRANCH  45  59
ATOM     59  C   UNL A   1      42.745  23.759  27.655  1.00  0.00     0.058 A 
ATOM     60  C   UNL A   1      42.871  23.505  26.281  1.00  0.00     0.135 A 
ATOM     61  C   UNL A   1      42.433  22.677  28.496  1.00  0.00     0.135 A 
ATOM     62  F   UNL A   1      43.148  24.507  25.432  1.00  0.00    -0.206 F 
ATOM     63  C   UNL A   1      42.686  22.228  25.759  1.00  0.00     0.059 A 
ATOM     64  C   UNL A   1      42.263  21.389  27.999  1.00  0.00     0.059 A 
ATOM     65  F   UNL A   1      42.296  22.867  29.818  1.00  0.00    -0.206 F 
ATOM     66  C   UNL A   1      42.383  21.176  26.627  1.00  0.00     0.060 A 
BRANCH  66  67
ATOM     67  S   UNL A   1      42.162  19.521  25.938  1.00  0.00     0.124 S 
ATOM     68  O   UNL A   1      42.645  18.684  27.032  1.00  0.00    -0.237 OA
ATOM     69  O   UNL A   1      40.724  19.474  25.693  1.00  0.00    -0.237 OA
ATOM     70  O   UNL A   1      42.998  19.536  24.742  1.00  0.00    -0.744 OA
ENDBRANCH  66  67
ENDBRANCH  45  59
BRANCH  46  71
ATOM     71  C   UNL A   1      44.013  32.906  31.372  1.00  0.00     0.058 A 
ATOM     72  C   UNL A   1      43.754  33.188  32.721  1.00  0.00     0.135 A 
ATOM     73  C   UNL A   1      44.489  33.952  30.565  1.00  0.00     0.135 A 
ATOM     74  F   UNL A   1      43.274  32.229  33.527  1.00  0.00    -0.206 F 
ATOM     75  C   UNL A   1      43.972  34.455  33.253  1.00  0.00     0.059 A 
ATOM     76  C   UNL A   1      44.742  35.218  31.081  1.00  0.00     0.059 A 
ATOM     77  F   UNL A   1      44.752  33.736  29.267  1.00  0.00    -0.206 F 
ATOM     78  C   UNL A   1      44.474  35.461  32.427  1.00  0.00     0.060 A 
BRANCH  78  79
ATOM     79  S   UNL A   1      44.837  37.083  33.135  1.00  0.00     0.124 S 
ATOM     80  O   UNL A   1      43.710  37.872  32.652  1.00  0.00    -0.237 OA
ATOM     81  O   UNL A   1      44.852  36.804  34.568  1.00  0.00    -0.237 OA
ATOM     82  O   UNL A   1      46.137  37.415  32.557  1.00  0.00    -0.744 OA
ENDBRANCH  78  79
ENDBRANCH  46  71
BRANCH  58  83
ATOM     83  C   UNL A   1      48.041  27.229  31.105  1.00  0.00     0.058 A 
ATOM     84  C   UNL A   1      48.240  26.672  32.378  1.00  0.00     0.135 A 
ATOM     85  C   UNL A   1      49.172  27.479  30.313  1.00  0.00     0.135 A 
ATOM     86  F   UNL A   1      47.191  26.419  33.177  1.00  0.00    -0.206 F 
ATOM     87  C   UNL A   1      49.517  26.399  32.859  1.00  0.00     0.059 A 
ATOM     88  C   UNL A   1      50.456  27.193  30.766  1.00  0.00     0.059 A 
ATOM     89  F   UNL A   1      49.035  28.001  29.084  1.00  0.00    -0.206 F 
ATOM     90  C   UNL A   1      50.619  26.665  32.046  1.00  0.00     0.060 A 
BRANCH  90  91
ATOM     91  S   UNL A   1      52.271  26.292  32.674  1.00  0.00     0.124 S 
ATOM     92  O   UNL A   1      52.646  25.147  31.850  1.00  0.00    -0.237 OA
ATOM     93  O   UNL A   1      52.996  27.530  32.407  1.00  0.00    -0.237 OA
ATOM     94  O   UNL A   1      52.039  26.002  34.086  1.00  0.00    -0.744 OA
ENDBRANCH  90  91
ENDBRANCH  58  83
ENDBRANCH  32  33
ENDBRANCH  25  27
ENDBRANCH  24  25
ENDBRANCH  23  24
ENDBRANCH   1  23
TORSDOF 22
ENDMDL
