MODEL 1
REMARK VINA RESULT:      -9.3      0.000      0.000
REMARK SMILES C[C@@H](C(=O)OCCOC(=O)c1ccc(-c2c3nc(c(-c4c(F)cc(S(=O)(=O)[O-])cc4F)c4ccc([nH]4)c(-c4c(F)cc(S(=O)(=O)[O-])cc4F)c4nc(c(-c5c(F)cc(S(=O)(=O)[O-])cc5F)c5ccc2[nH]5)C=C4)C=C3)cc1)c1cccc(C(=O)c2ccccc2)c1
REMARK SMILES IDX 6 1 5 2 3 3 4 4 2 5 1 6 77 7 78 8 90 9 79 10 81 11 80 12
REMARK SMILES IDX 82 13 83 14 84 15 85 16 89 17 86 18 88 19 87 20 7 21 8 22
REMARK SMILES IDX 9 23 10 24 11 25 12 26 76 27 13 28 75 29 14 30 15 31 16 32
REMARK SMILES IDX 69 33 17 34 74 35 68 36 70 37 18 38 73 39 67 40 66 41 19 43
REMARK SMILES IDX 53 44 32 45 52 46 33 47 36 48 51 49 71 50 34 51 35 52 50 54
REMARK SMILES IDX 72 55 37 56 20 57 21 58 30 59 22 60 23 61 29 62 31 63 24 64
REMARK SMILES IDX 25 65 26 66 27 67 28 68 54 69 55 70 64 71 56 72 57 73 63 74
REMARK SMILES IDX 65 75 58 76 59 77 60 78 61 79 62 80 38 81 39 82 48 83 40 84
REMARK SMILES IDX 41 85 47 86 49 87 42 88 43 89 44 90 45 91 46 92
REMARK H PARENT 70 42 36 53
REMARK Flexibility Score: inf
ROOT
ATOM      1  C   UNL A   1      33.561  33.093  28.085  1.00  0.00     0.274 C 
ENDROOT
BRANCH   1   2
ATOM      2  O   UNL A   1      34.870  32.969  28.679  1.00  0.00    -0.462 OA
BRANCH   2   3
ATOM      3  C   UNL A   1      34.977  33.315  29.994  1.00  0.00     0.313 C 
ATOM      4  O   UNL A   1      34.010  33.480  30.731  1.00  0.00    -0.252 OA
BRANCH   3   5
ATOM      5  C   UNL A   1      36.437  33.541  30.432  1.00  0.00     0.126 C 
ATOM      6  C   UNL A   1      37.445  33.127  29.353  1.00  0.00     0.025 C 
BRANCH   5   7
ATOM      7  C   UNL A   1      36.716  32.929  31.810  1.00  0.00    -0.033 A 
ATOM      8  C   UNL A   1      36.577  33.639  33.014  1.00  0.00     0.004 A 
ATOM      9  C   UNL A   1      37.166  31.594  31.882  1.00  0.00     0.016 A 
ATOM     10  C   UNL A   1      36.878  33.039  34.241  1.00  0.00     0.001 A 
ATOM     11  C   UNL A   1      37.539  31.011  33.102  1.00  0.00     0.023 A 
ATOM     12  C   UNL A   1      37.360  31.732  34.286  1.00  0.00     0.012 A 
BRANCH  11  13
ATOM     13  C   UNL A   1      38.113  29.639  33.188  1.00  0.00     0.193 C 
ATOM     14  O   UNL A   1      37.351  28.684  33.317  1.00  0.00    -0.289 OA
BRANCH  13  15
ATOM     15  C   UNL A   1      39.572  29.378  33.081  1.00  0.00     0.022 A 
ATOM     16  C   UNL A   1      40.445  30.329  33.622  1.00  0.00     0.012 A 
ATOM     17  C   UNL A   1      40.091  28.238  32.455  1.00  0.00     0.012 A 
ATOM     18  C   UNL A   1      41.823  30.114  33.593  1.00  0.00     0.001 A 
ATOM     19  C   UNL A   1      41.472  28.022  32.434  1.00  0.00     0.001 A 
ATOM     20  C   UNL A   1      42.335  28.955  33.012  1.00  0.00     0.000 A 
ENDBRANCH  13  15
ENDBRANCH  11  13
ENDBRANCH   5   7
ENDBRANCH   3   5
ENDBRANCH   2   3
ENDBRANCH   1   2
BRANCH   1  21
ATOM     21  C   UNL A   1      33.065  31.726  27.625  1.00  0.00     0.275 C 
BRANCH  21  22
ATOM     22  O   UNL A   1      34.170  30.980  27.085  1.00  0.00    -0.458 OA
BRANCH  22  23
ATOM     23  C   UNL A   1      34.442  29.800  27.678  1.00  0.00     0.338 C 
ATOM     24  O   UNL A   1      33.655  28.899  27.929  1.00  0.00    -0.246 OA
BRANCH  23  25
ATOM     25  C   UNL A   1      35.877  29.735  28.004  1.00  0.00     0.060 A 
ATOM     26  C   UNL A   1      36.826  30.055  27.034  1.00  0.00     0.016 A 
ATOM     27  C   UNL A   1      36.292  29.261  29.252  1.00  0.00     0.016 A 
ATOM     28  C   UNL A   1      38.177  29.824  27.286  1.00  0.00     0.010 A 
ATOM     29  C   UNL A   1      37.657  29.111  29.523  1.00  0.00     0.010 A 
ATOM     30  C   UNL A   1      38.621  29.348  28.528  1.00  0.00    -0.014 A 
BRANCH  30  31
ATOM     31  C   UNL A   1      40.067  29.035  28.744  1.00  0.00     0.031 A 
ATOM     32  C   UNL A   1      40.973  30.044  29.411  1.00  0.00     0.074 A 
ATOM     33  C   UNL A   1      40.582  27.834  28.402  1.00  0.00     0.049 A 
ATOM     34  N   UNL A   1      42.278  30.043  29.519  1.00  0.00    -0.248 NA
ATOM     35  C   UNL A   1      40.328  31.216  30.028  1.00  0.00     0.031 C 
ATOM     36  C   UNL A   1      39.832  26.723  27.815  1.00  0.00     0.029 A 
ATOM     37  N   UNL A   1      41.856  27.335  28.531  1.00  0.00    -0.354 N 
ATOM     38  C   UNL A   1      42.614  31.244  30.135  1.00  0.00     0.074 A 
ATOM     39  C   UNL A   1      41.374  31.941  30.399  1.00  0.00     0.031 C 
ATOM     40  C   UNL A   1      40.635  25.653  27.713  1.00  0.00     0.029 A 
ATOM     41  C   UNL A   1      41.984  26.028  28.122  1.00  0.00     0.049 A 
ATOM     42  H   UNL A   1      42.608  27.864  28.884  1.00  0.00     0.167 HD
ATOM     43  C   UNL A   1      43.843  31.725  30.438  1.00  0.00     0.037 A 
ATOM     44  C   UNL A   1      43.065  25.226  28.043  1.00  0.00     0.037 A 
ATOM     45  C   UNL A   1      45.071  30.993  30.265  1.00  0.00     0.049 A 
ATOM     46  C   UNL A   1      44.419  25.772  28.401  1.00  0.00     0.074 A 
ATOM     47  C   UNL A   1      46.364  31.401  30.544  1.00  0.00     0.029 A 
ATOM     48  N   UNL A   1      45.157  29.689  29.801  1.00  0.00    -0.354 N 
ATOM     49  N   UNL A   1      44.733  26.962  28.854  1.00  0.00    -0.248 NA
ATOM     50  C   UNL A   1      45.569  24.881  28.197  1.00  0.00     0.031 C 
ATOM     51  C   UNL A   1      47.235  30.352  30.231  1.00  0.00     0.029 A 
ATOM     52  C   UNL A   1      46.481  29.279  29.785  1.00  0.00     0.049 A 
ATOM     53  H   UNL A   1      44.391  29.137  29.525  1.00  0.00     0.167 HD
ATOM     54  C   UNL A   1      46.117  26.965  28.979  1.00  0.00     0.074 A 
ATOM     55  C   UNL A   1      46.579  25.652  28.581  1.00  0.00     0.031 C 
ATOM     56  C   UNL A   1      46.932  27.974  29.376  1.00  0.00     0.037 A 
BRANCH  43  57
ATOM     57  C   UNL A   1      43.935  33.135  30.949  1.00  0.00     0.058 A 
ATOM     58  C   UNL A   1      43.896  34.248  30.096  1.00  0.00     0.135 A 
ATOM     59  C   UNL A   1      44.014  33.371  32.333  1.00  0.00     0.135 A 
ATOM     60  F   UNL A   1      43.842  34.078  28.766  1.00  0.00    -0.206 F 
ATOM     61  C   UNL A   1      43.945  35.546  30.597  1.00  0.00     0.059 A 
ATOM     62  C   UNL A   1      44.043  34.659  32.855  1.00  0.00     0.059 A 
ATOM     63  F   UNL A   1      44.057  32.339  33.191  1.00  0.00    -0.206 F 
ATOM     64  C   UNL A   1      44.019  35.741  31.978  1.00  0.00     0.060 A 
BRANCH  64  65
ATOM     65  S   UNL A   1      44.066  37.429  32.618  1.00  0.00     0.124 S 
ATOM     66  O   UNL A   1      42.985  37.398  33.599  1.00  0.00    -0.237 OA
ATOM     67  O   UNL A   1      45.416  37.522  33.167  1.00  0.00    -0.237 OA
ATOM     68  O   UNL A   1      43.818  38.249  31.436  1.00  0.00    -0.744 OA
ENDBRANCH  64  65
ENDBRANCH  43  57
BRANCH  44  69
ATOM     69  C   UNL A   1      42.909  23.829  27.559  1.00  0.00     0.058 A 
ATOM     70  C   UNL A   1      42.665  22.778  28.454  1.00  0.00     0.135 A 
ATOM     71  C   UNL A   1      42.959  23.523  26.189  1.00  0.00     0.135 A 
ATOM     72  F   UNL A   1      42.636  23.015  29.775  1.00  0.00    -0.206 F 
ATOM     73  C   UNL A   1      42.458  21.475  28.010  1.00  0.00     0.059 A 
ATOM     74  C   UNL A   1      42.734  22.235  25.719  1.00  0.00     0.059 A 
ATOM     75  F   UNL A   1      43.188  24.494  25.292  1.00  0.00    -0.206 F 
ATOM     76  C   UNL A   1      42.486  21.215  26.638  1.00  0.00     0.060 A 
BRANCH  76  77
ATOM     77  S   UNL A   1      42.128  19.543  26.053  1.00  0.00     0.124 S 
ATOM     78  O   UNL A   1      40.695  19.621  25.799  1.00  0.00    -0.237 OA
ATOM     79  O   UNL A   1      42.981  19.431  24.874  1.00  0.00    -0.237 OA
ATOM     80  O   UNL A   1      42.525  18.705  27.181  1.00  0.00    -0.744 OA
ENDBRANCH  76  77
ENDBRANCH  44  69
BRANCH  56  81
ATOM     81  C   UNL A   1      48.408  27.702  29.397  1.00  0.00     0.058 A 
ATOM     82  C   UNL A   1      49.035  27.179  30.538  1.00  0.00     0.135 A 
ATOM     83  C   UNL A   1      49.193  27.918  28.254  1.00  0.00     0.135 A 
ATOM     84  F   UNL A   1      48.327  26.958  31.656  1.00  0.00    -0.206 F 
ATOM     85  C   UNL A   1      50.397  26.894  30.551  1.00  0.00     0.059 A 
ATOM     86  C   UNL A   1      50.554  27.624  28.239  1.00  0.00     0.059 A 
ATOM     87  F   UNL A   1      48.638  28.408  27.135  1.00  0.00    -0.206 F 
ATOM     88  C   UNL A   1      51.148  27.121  29.397  1.00  0.00     0.060 A 
BRANCH  88  89
ATOM     89  S   UNL A   1      52.909  26.717  29.413  1.00  0.00     0.124 S 
ATOM     90  O   UNL A   1      53.016  25.924  30.633  1.00  0.00    -0.237 OA
ATOM     91  O   UNL A   1      53.075  25.981  28.164  1.00  0.00    -0.237 OA
ATOM     92  O   UNL A   1      53.556  28.024  29.453  1.00  0.00    -0.744 OA
ENDBRANCH  88  89
ENDBRANCH  56  81
ENDBRANCH  30  31
ENDBRANCH  23  25
ENDBRANCH  22  23
ENDBRANCH  21  22
ENDBRANCH   1  21
TORSDOF 17
ENDMDL
MODEL 2
REMARK VINA RESULT:      -9.3      5.002     11.511
REMARK SMILES C[C@@H](C(=O)OCCOC(=O)c1ccc(-c2c3nc(c(-c4c(F)cc(S(=O)(=O)[O-])cc4F)c4ccc([nH]4)c(-c4c(F)cc(S(=O)(=O)[O-])cc4F)c4nc(c(-c5c(F)cc(S(=O)(=O)[O-])cc5F)c5ccc2[nH]5)C=C4)C=C3)cc1)c1cccc(C(=O)c2ccccc2)c1
REMARK SMILES IDX 6 1 5 2 3 3 4 4 2 5 1 6 77 7 78 8 90 9 79 10 81 11 80 12
REMARK SMILES IDX 82 13 83 14 84 15 85 16 89 17 86 18 88 19 87 20 7 21 8 22
REMARK SMILES IDX 9 23 10 24 11 25 12 26 76 27 13 28 75 29 14 30 15 31 16 32
REMARK SMILES IDX 69 33 17 34 74 35 68 36 70 37 18 38 73 39 67 40 66 41 19 43
REMARK SMILES IDX 53 44 32 45 52 46 33 47 36 48 51 49 71 50 34 51 35 52 50 54
REMARK SMILES IDX 72 55 37 56 20 57 21 58 30 59 22 60 23 61 29 62 31 63 24 64
REMARK SMILES IDX 25 65 26 66 27 67 28 68 54 69 55 70 64 71 56 72 57 73 63 74
REMARK SMILES IDX 65 75 58 76 59 77 60 78 61 79 62 80 38 81 39 82 48 83 40 84
REMARK SMILES IDX 41 85 47 86 49 87 42 88 43 89 44 90 45 91 46 92
REMARK H PARENT 70 42 36 53
REMARK Flexibility Score: inf
ROOT
ATOM      1  C   UNL A   1      37.579  23.459  26.192  1.00  0.00     0.274 C 
ENDROOT
BRANCH   1   2
ATOM      2  O   UNL A   1      37.214  23.944  24.883  1.00  0.00    -0.462 OA
BRANCH   2   3
ATOM      3  C   UNL A   1      36.346  23.172  24.169  1.00  0.00     0.313 C 
ATOM      4  O   UNL A   1      36.649  22.596  23.129  1.00  0.00    -0.252 OA
BRANCH   3   5
ATOM      5  C   UNL A   1      34.928  23.157  24.774  1.00  0.00     0.126 C 
ATOM      6  C   UNL A   1      34.153  21.882  24.421  1.00  0.00     0.025 C 
BRANCH   5   7
ATOM      7  C   UNL A   1      34.168  24.452  24.468  1.00  0.00    -0.033 A 
ATOM      8  C   UNL A   1      34.011  24.970  23.172  1.00  0.00     0.004 A 
ATOM      9  C   UNL A   1      33.617  25.187  25.540  1.00  0.00     0.016 A 
ATOM     10  C   UNL A   1      33.336  26.175  22.955  1.00  0.00     0.001 A 
ATOM     11  C   UNL A   1      33.003  26.431  25.337  1.00  0.00     0.023 A 
ATOM     12  C   UNL A   1      32.836  26.904  24.033  1.00  0.00     0.012 A 
BRANCH  11  13
ATOM     13  C   UNL A   1      32.508  27.269  26.464  1.00  0.00     0.193 C 
ATOM     14  O   UNL A   1      31.573  26.855  27.145  1.00  0.00    -0.289 OA
BRANCH  13  15
ATOM     15  C   UNL A   1      33.130  28.570  26.822  1.00  0.00     0.022 A 
ATOM     16  C   UNL A   1      32.290  29.684  26.932  1.00  0.00     0.012 A 
ATOM     17  C   UNL A   1      34.506  28.716  27.035  1.00  0.00     0.012 A 
ATOM     18  C   UNL A   1      32.811  30.921  27.311  1.00  0.00     0.001 A 
ATOM     19  C   UNL A   1      35.024  29.955  27.422  1.00  0.00     0.001 A 
ATOM     20  C   UNL A   1      34.175  31.053  27.570  1.00  0.00     0.000 A 
ENDBRANCH  13  15
ENDBRANCH  11  13
ENDBRANCH   5   7
ENDBRANCH   3   5
ENDBRANCH   2   3
ENDBRANCH   1   2
BRANCH   1  21
ATOM     21  C   UNL A   1      38.897  22.697  26.118  1.00  0.00     0.275 C 
BRANCH  21  22
ATOM     22  O   UNL A   1      39.737  23.098  27.215  1.00  0.00    -0.458 OA
BRANCH  22  23
ATOM     23  C   UNL A   1      40.695  24.005  26.934  1.00  0.00     0.338 C 
ATOM     24  O   UNL A   1      41.609  23.892  26.130  1.00  0.00    -0.246 OA
BRANCH  23  25
ATOM     25  C   UNL A   1      40.491  25.206  27.764  1.00  0.00     0.060 A 
ATOM     26  C   UNL A   1      41.404  26.258  27.702  1.00  0.00     0.016 A 
ATOM     27  C   UNL A   1      39.439  25.252  28.682  1.00  0.00     0.016 A 
ATOM     28  C   UNL A   1      41.309  27.310  28.611  1.00  0.00     0.010 A 
ATOM     29  C   UNL A   1      39.306  26.354  29.536  1.00  0.00     0.010 A 
ATOM     30  C   UNL A   1      40.265  27.381  29.543  1.00  0.00    -0.014 A 
BRANCH  30  31
ATOM     31  C   UNL A   1      40.232  28.480  30.558  1.00  0.00     0.031 A 
ATOM     32  C   UNL A   1      41.280  28.544  31.644  1.00  0.00     0.074 A 
ATOM     33  C   UNL A   1      39.308  29.462  30.496  1.00  0.00     0.049 A 
ATOM     34  N   UNL A   1      41.318  29.295  32.716  1.00  0.00    -0.248 NA
ATOM     35  C   UNL A   1      42.433  27.635  31.517  1.00  0.00     0.031 C 
ATOM     36  C   UNL A   1      38.270  29.590  29.471  1.00  0.00     0.029 A 
ATOM     37  N   UNL A   1      39.112  30.562  31.297  1.00  0.00    -0.354 N 
ATOM     38  C   UNL A   1      42.443  28.892  33.429  1.00  0.00     0.074 A 
ATOM     39  C   UNL A   1      43.076  27.845  32.657  1.00  0.00     0.031 C 
ATOM     40  C   UNL A   1      37.606  30.741  29.657  1.00  0.00     0.029 A 
ATOM     41  C   UNL A   1      38.091  31.382  30.874  1.00  0.00     0.049 A 
ATOM     42  H   UNL A   1      39.653  30.746  32.100  1.00  0.00     0.167 HD
ATOM     43  C   UNL A   1      42.897  29.345  34.622  1.00  0.00     0.037 A 
ATOM     44  C   UNL A   1      37.572  32.501  31.417  1.00  0.00     0.037 A 
ATOM     45  C   UNL A   1      42.325  30.451  35.345  1.00  0.00     0.049 A 
ATOM     46  C   UNL A   1      38.100  32.999  32.734  1.00  0.00     0.074 A 
ATOM     47  C   UNL A   1      42.718  30.979  36.563  1.00  0.00     0.029 A 
ATOM     48  N   UNL A   1      41.260  31.222  34.902  1.00  0.00    -0.354 N 
ATOM     49  N   UNL A   1      39.080  32.520  33.461  1.00  0.00    -0.248 NA
ATOM     50  C   UNL A   1      37.425  34.163  33.323  1.00  0.00     0.031 C 
ATOM     51  C   UNL A   1      41.880  32.058  36.867  1.00  0.00     0.029 A 
ATOM     52  C   UNL A   1      40.984  32.220  35.823  1.00  0.00     0.049 A 
ATOM     53  H   UNL A   1      40.775  31.082  34.058  1.00  0.00     0.167 HD
ATOM     54  C   UNL A   1      39.132  33.318  34.598  1.00  0.00     0.074 A 
ATOM     55  C   UNL A   1      38.104  34.327  34.451  1.00  0.00     0.031 C 
ATOM     56  C   UNL A   1      39.951  33.213  35.674  1.00  0.00     0.037 A 
BRANCH  43  57
ATOM     57  C   UNL A   1      44.047  28.615  35.255  1.00  0.00     0.058 A 
ATOM     58  C   UNL A   1      43.863  27.526  36.120  1.00  0.00     0.135 A 
ATOM     59  C   UNL A   1      45.366  28.989  34.942  1.00  0.00     0.135 A 
ATOM     60  F   UNL A   1      42.625  27.142  36.467  1.00  0.00    -0.206 F 
ATOM     61  C   UNL A   1      44.947  26.842  36.664  1.00  0.00     0.059 A 
ATOM     62  C   UNL A   1      46.462  28.307  35.458  1.00  0.00     0.059 A 
ATOM     63  F   UNL A   1      45.596  30.026  34.121  1.00  0.00    -0.206 F 
ATOM     64  C   UNL A   1      46.242  27.241  36.328  1.00  0.00     0.060 A 
BRANCH  64  65
ATOM     65  S   UNL A   1      47.641  26.337  37.026  1.00  0.00     0.124 S 
ATOM     66  O   UNL A   1      48.616  27.407  37.209  1.00  0.00    -0.237 OA
ATOM     67  O   UNL A   1      47.077  25.778  38.251  1.00  0.00    -0.237 OA
ATOM     68  O   UNL A   1      47.967  25.361  35.990  1.00  0.00    -0.744 OA
ENDBRANCH  64  65
ENDBRANCH  43  57
BRANCH  44  69
ATOM     69  C   UNL A   1      36.454  33.200  30.731  1.00  0.00     0.058 A 
ATOM     70  C   UNL A   1      35.139  33.100  31.208  1.00  0.00     0.135 A 
ATOM     71  C   UNL A   1      36.683  34.016  29.611  1.00  0.00     0.135 A 
ATOM     72  F   UNL A   1      34.864  32.311  32.258  1.00  0.00    -0.206 F 
ATOM     73  C   UNL A   1      34.092  33.796  30.610  1.00  0.00     0.059 A 
ATOM     74  C   UNL A   1      35.659  34.739  29.011  1.00  0.00     0.059 A 
ATOM     75  F   UNL A   1      37.924  34.145  29.118  1.00  0.00    -0.206 F 
ATOM     76  C   UNL A   1      34.364  34.621  29.516  1.00  0.00     0.060 A 
BRANCH  76  77
ATOM     77  S   UNL A   1      33.024  35.596  28.796  1.00  0.00     0.124 S 
ATOM     78  O   UNL A   1      33.764  36.619  28.067  1.00  0.00    -0.237 OA
ATOM     79  O   UNL A   1      32.321  34.613  27.979  1.00  0.00    -0.237 OA
ATOM     80  O   UNL A   1      32.287  36.063  29.967  1.00  0.00    -0.744 OA
ENDBRANCH  76  77
ENDBRANCH  44  69
BRANCH  56  81
ATOM     81  C   UNL A   1      39.770  34.210  36.780  1.00  0.00     0.058 A 
ATOM     82  C   UNL A   1      39.040  33.891  37.935  1.00  0.00     0.135 A 
ATOM     83  C   UNL A   1      40.371  35.476  36.710  1.00  0.00     0.135 A 
ATOM     84  F   UNL A   1      38.444  32.694  38.048  1.00  0.00    -0.206 F 
ATOM     85  C   UNL A   1      38.898  34.801  38.978  1.00  0.00     0.059 A 
ATOM     86  C   UNL A   1      40.256  36.396  37.748  1.00  0.00     0.059 A 
ATOM     87  F   UNL A   1      41.087  35.826  35.629  1.00  0.00    -0.206 F 
ATOM     88  C   UNL A   1      39.509  36.051  38.875  1.00  0.00     0.060 A 
BRANCH  88  89
ATOM     89  S   UNL A   1      39.346  37.214  40.248  1.00  0.00     0.124 S 
ATOM     90  O   UNL A   1      40.743  37.474  40.579  1.00  0.00    -0.237 OA
ATOM     91  O   UNL A   1      38.623  38.325  39.638  1.00  0.00    -0.237 OA
ATOM     92  O   UNL A   1      38.595  36.458  41.245  1.00  0.00    -0.744 OA
ENDBRANCH  88  89
ENDBRANCH  56  81
ENDBRANCH  30  31
ENDBRANCH  23  25
ENDBRANCH  22  23
ENDBRANCH  21  22
ENDBRANCH   1  21
TORSDOF 17
ENDMDL
MODEL 3
REMARK VINA RESULT:      -9.2      2.440      5.072
REMARK SMILES C[C@@H](C(=O)OCCOC(=O)c1ccc(-c2c3nc(c(-c4c(F)cc(S(=O)(=O)[O-])cc4F)c4ccc([nH]4)c(-c4c(F)cc(S(=O)(=O)[O-])cc4F)c4nc(c(-c5c(F)cc(S(=O)(=O)[O-])cc5F)c5ccc2[nH]5)C=C4)C=C3)cc1)c1cccc(C(=O)c2ccccc2)c1
REMARK SMILES IDX 6 1 5 2 3 3 4 4 2 5 1 6 77 7 78 8 90 9 79 10 81 11 80 12
REMARK SMILES IDX 82 13 83 14 84 15 85 16 89 17 86 18 88 19 87 20 7 21 8 22
REMARK SMILES IDX 9 23 10 24 11 25 12 26 76 27 13 28 75 29 14 30 15 31 16 32
REMARK SMILES IDX 69 33 17 34 74 35 68 36 70 37 18 38 73 39 67 40 66 41 19 43
REMARK SMILES IDX 53 44 32 45 52 46 33 47 36 48 51 49 71 50 34 51 35 52 50 54
REMARK SMILES IDX 72 55 37 56 20 57 21 58 30 59 22 60 23 61 29 62 31 63 24 64
REMARK SMILES IDX 25 65 26 66 27 67 28 68 54 69 55 70 64 71 56 72 57 73 63 74
REMARK SMILES IDX 65 75 58 76 59 77 60 78 61 79 62 80 38 81 39 82 48 83 40 84
REMARK SMILES IDX 41 85 47 86 49 87 42 88 43 89 44 90 45 91 46 92
REMARK H PARENT 70 42 36 53
REMARK Flexibility Score: inf
ROOT
ATOM      1  C   UNL A   1      32.057  30.477  25.719  1.00  0.00     0.274 C 
ENDROOT
BRANCH   1   2
ATOM      2  O   UNL A   1      31.312  29.307  25.321  1.00  0.00    -0.462 OA
BRANCH   2   3
ATOM      3  C   UNL A   1      31.756  28.653  24.210  1.00  0.00     0.313 C 
ATOM      4  O   UNL A   1      31.057  28.440  23.225  1.00  0.00    -0.252 OA
BRANCH   3   5
ATOM      5  C   UNL A   1      33.206  28.153  24.355  1.00  0.00     0.126 C 
ATOM      6  C   UNL A   1      34.050  28.428  23.105  1.00  0.00     0.025 C 
BRANCH   5   7
ATOM      7  C   UNL A   1      33.259  26.697  24.832  1.00  0.00    -0.033 A 
ATOM      8  C   UNL A   1      32.529  26.216  25.931  1.00  0.00     0.004 A 
ATOM      9  C   UNL A   1      34.106  25.792  24.159  1.00  0.00     0.016 A 
ATOM     10  C   UNL A   1      32.642  24.885  26.343  1.00  0.00     0.001 A 
ATOM     11  C   UNL A   1      34.280  24.476  24.611  1.00  0.00     0.023 A 
ATOM     12  C   UNL A   1      33.516  24.018  25.688  1.00  0.00     0.012 A 
BRANCH  11  13
ATOM     13  C   UNL A   1      35.244  23.535  23.976  1.00  0.00     0.193 C 
ATOM     14  O   UNL A   1      35.064  23.197  22.809  1.00  0.00    -0.289 OA
BRANCH  13  15
ATOM     15  C   UNL A   1      36.443  23.023  24.690  1.00  0.00     0.022 A 
ATOM     16  C   UNL A   1      36.810  21.690  24.471  1.00  0.00     0.012 A 
ATOM     17  C   UNL A   1      37.194  23.813  25.569  1.00  0.00     0.012 A 
ATOM     18  C   UNL A   1      37.953  21.168  25.077  1.00  0.00     0.001 A 
ATOM     19  C   UNL A   1      38.343  23.289  26.168  1.00  0.00     0.001 A 
ATOM     20  C   UNL A   1      38.726  21.971  25.914  1.00  0.00     0.000 A 
ENDBRANCH  13  15
ENDBRANCH  11  13
ENDBRANCH   5   7
ENDBRANCH   3   5
ENDBRANCH   2   3
ENDBRANCH   1   2
BRANCH   1  21
ATOM     21  C   UNL A   1      32.307  30.450  27.224  1.00  0.00     0.275 C 
BRANCH  21  22
ATOM     22  O   UNL A   1      33.650  29.998  27.470  1.00  0.00    -0.458 OA
BRANCH  22  23
ATOM     23  C   UNL A   1      34.434  30.820  28.197  1.00  0.00     0.338 C 
ATOM     24  O   UNL A   1      34.125  31.896  28.688  1.00  0.00    -0.246 OA
BRANCH  23  25
ATOM     25  C   UNL A   1      35.777  30.227  28.327  1.00  0.00     0.060 A 
ATOM     26  C   UNL A   1      36.208  29.746  29.562  1.00  0.00     0.016 A 
ATOM     27  C   UNL A   1      36.654  30.235  27.239  1.00  0.00     0.016 A 
ATOM     28  C   UNL A   1      37.534  29.350  29.725  1.00  0.00     0.010 A 
ATOM     29  C   UNL A   1      37.961  29.757  27.394  1.00  0.00     0.010 A 
ATOM     30  C   UNL A   1      38.436  29.348  28.652  1.00  0.00    -0.014 A 
BRANCH  30  31
ATOM     31  C   UNL A   1      39.873  28.994  28.872  1.00  0.00     0.031 A 
ATOM     32  C   UNL A   1      40.799  29.966  29.564  1.00  0.00     0.074 A 
ATOM     33  C   UNL A   1      40.358  27.787  28.511  1.00  0.00     0.049 A 
ATOM     34  N   UNL A   1      42.103  29.929  29.681  1.00  0.00    -0.248 NA
ATOM     35  C   UNL A   1      40.180  31.143  30.198  1.00  0.00     0.031 C 
ATOM     36  C   UNL A   1      39.584  26.706  27.899  1.00  0.00     0.029 A 
ATOM     37  N   UNL A   1      41.619  27.252  28.640  1.00  0.00    -0.354 N 
ATOM     38  C   UNL A   1      42.465  31.110  30.320  1.00  0.00     0.074 A 
ATOM     39  C   UNL A   1      41.242  31.834  30.589  1.00  0.00     0.031 C 
ATOM     40  C   UNL A   1      40.361  25.617  27.782  1.00  0.00     0.029 A 
ATOM     41  C   UNL A   1      41.716  25.950  28.207  1.00  0.00     0.049 A 
ATOM     42  H   UNL A   1      42.382  27.755  29.008  1.00  0.00     0.167 HD
ATOM     43  C   UNL A   1      43.704  31.554  30.641  1.00  0.00     0.037 A 
ATOM     44  C   UNL A   1      42.776  25.122  28.121  1.00  0.00     0.037 A 
ATOM     45  C   UNL A   1      44.914  30.793  30.462  1.00  0.00     0.049 A 
ATOM     46  C   UNL A   1      44.141  25.626  28.498  1.00  0.00     0.074 A 
ATOM     47  C   UNL A   1      46.215  31.163  30.758  1.00  0.00     0.029 A 
ATOM     48  N   UNL A   1      44.970  29.496  29.975  1.00  0.00    -0.354 N 
ATOM     49  N   UNL A   1      44.483  26.799  28.975  1.00  0.00    -0.248 NA
ATOM     50  C   UNL A   1      45.270  24.709  28.286  1.00  0.00     0.031 C 
ATOM     51  C   UNL A   1      47.061  30.098  30.431  1.00  0.00     0.029 A 
ATOM     52  C   UNL A   1      46.283  29.053  29.961  1.00  0.00     0.049 A 
ATOM     53  H   UNL A   1      44.192  28.969  29.683  1.00  0.00     0.167 HD
ATOM     54  C   UNL A   1      45.865  26.764  29.110  1.00  0.00     0.074 A 
ATOM     55  C   UNL A   1      46.296  25.447  28.691  1.00  0.00     0.031 C 
ATOM     56  C   UNL A   1      46.703  27.744  29.531  1.00  0.00     0.037 A 
BRANCH  43  57
ATOM     57  C   UNL A   1      43.829  32.952  31.178  1.00  0.00     0.058 A 
ATOM     58  C   UNL A   1      44.040  34.061  30.346  1.00  0.00     0.135 A 
ATOM     59  C   UNL A   1      43.681  33.184  32.557  1.00  0.00     0.135 A 
ATOM     60  F   UNL A   1      44.208  33.892  29.026  1.00  0.00    -0.206 F 
ATOM     61  C   UNL A   1      44.114  35.351  30.864  1.00  0.00     0.059 A 
ATOM     62  C   UNL A   1      43.731  34.465  33.093  1.00  0.00     0.059 A 
ATOM     63  F   UNL A   1      43.479  32.155  33.396  1.00  0.00    -0.206 F 
ATOM     64  C   UNL A   1      43.959  35.543  32.239  1.00  0.00     0.060 A 
BRANCH  64  65
ATOM     65  S   UNL A   1      44.041  37.222  32.899  1.00  0.00     0.124 S 
ATOM     66  O   UNL A   1      43.772  38.017  31.706  1.00  0.00    -0.237 OA
ATOM     67  O   UNL A   1      42.986  37.217  33.908  1.00  0.00    -0.237 OA
ATOM     68  O   UNL A   1      45.401  37.315  33.422  1.00  0.00    -0.744 OA
ENDBRANCH  64  65
ENDBRANCH  43  57
BRANCH  44  69
ATOM     69  C   UNL A   1      42.588  23.738  27.611  1.00  0.00     0.058 A 
ATOM     70  C   UNL A   1      42.593  23.469  26.235  1.00  0.00     0.135 A 
ATOM     71  C   UNL A   1      42.445  22.651  28.489  1.00  0.00     0.135 A 
ATOM     72  F   UNL A   1      42.700  24.477  25.355  1.00  0.00    -0.206 F 
ATOM     73  C   UNL A   1      42.478  22.171  25.745  1.00  0.00     0.059 A 
ATOM     74  C   UNL A   1      42.351  21.345  28.026  1.00  0.00     0.059 A 
ATOM     75  F   UNL A   1      42.436  22.857  29.815  1.00  0.00    -0.206 F 
ATOM     76  C   UNL A   1      42.366  21.113  26.651  1.00  0.00     0.060 A 
BRANCH  76  77
ATOM     77  S   UNL A   1      42.308  19.421  26.021  1.00  0.00     0.124 S 
ATOM     78  O   UNL A   1      43.217  19.500  24.883  1.00  0.00    -0.237 OA
ATOM     79  O   UNL A   1      42.779  18.642  27.161  1.00  0.00    -0.237 OA
ATOM     80  O   UNL A   1      40.897  19.237  25.691  1.00  0.00    -0.744 OA
ENDBRANCH  76  77
ENDBRANCH  44  69
BRANCH  56  81
ATOM     81  C   UNL A   1      48.171  27.434  29.557  1.00  0.00     0.058 A 
ATOM     82  C   UNL A   1      48.954  27.519  28.396  1.00  0.00     0.135 A 
ATOM     83  C   UNL A   1      48.811  27.098  30.760  1.00  0.00     0.135 A 
ATOM     84  F   UNL A   1      48.386  27.834  27.221  1.00  0.00    -0.206 F 
ATOM     85  C   UNL A   1      50.322  27.266  28.422  1.00  0.00     0.059 A 
ATOM     86  C   UNL A   1      50.181  26.857  30.813  1.00  0.00     0.059 A 
ATOM     87  F   UNL A   1      48.108  27.013  31.900  1.00  0.00    -0.206 F 
ATOM     88  C   UNL A   1      50.926  26.934  29.636  1.00  0.00     0.060 A 
BRANCH  88  89
ATOM     89  S   UNL A   1      52.708  26.638  29.666  1.00  0.00     0.124 S 
ATOM     90  O   UNL A   1      52.815  25.601  30.687  1.00  0.00    -0.237 OA
ATOM     91  O   UNL A   1      52.981  26.210  28.298  1.00  0.00    -0.237 OA
ATOM     92  O   UNL A   1      53.261  27.938  30.030  1.00  0.00    -0.744 OA
ENDBRANCH  88  89
ENDBRANCH  56  81
ENDBRANCH  30  31
ENDBRANCH  23  25
ENDBRANCH  22  23
ENDBRANCH  21  22
ENDBRANCH   1  21
TORSDOF 17
ENDMDL
