MODEL 1
REMARK VINA RESULT:     -11.9      0.000      0.000
REMARK SMILES Cc1ccc(S(=O)(=O)Nc2cc3c(cc2C(=O)OCCOC(=O)c2ccc(-c4c5nc(c(-c6c(F)cc(S(=O)(=O)[O-])cc6F)c6ccc([nH]6)c(-c6c(F)cc(S(=O)(=O)[O-])cc6F)c6nc(c(-c7c(F)cc(S(=O)(=O)[O-])cc7F)c7ccc4[nH]7)C=C6)C=C5)cc2)OCCO3)s1
REMARK SMILES IDX 19 1 18 2 16 3 17 4 15 5 10 6 11 7 12 8 14 9 13 10 93 11
REMARK SMILES IDX 90 12 92 13 91 14 9 15 6 17 7 18 8 19 5 20 1 21 2 22 3 23
REMARK SMILES IDX 94 24 4 25 20 26 21 27 22 28 23 29 24 30 25 31 89 32 26 33
REMARK SMILES IDX 88 34 27 35 28 36 29 37 82 38 30 39 87 40 81 41 83 42 31 43
REMARK SMILES IDX 86 44 80 45 79 46 32 48 66 49 45 50 65 51 46 52 49 53 64 54
REMARK SMILES IDX 84 55 47 56 48 57 63 59 85 60 50 61 33 62 34 63 43 64 35 65
REMARK SMILES IDX 36 66 42 67 44 68 37 69 38 70 39 71 40 72 41 73 67 74 68 75
REMARK SMILES IDX 77 76 69 77 70 78 76 79 78 80 71 81 72 82 73 83 74 84 75 85
REMARK SMILES IDX 51 86 52 87 61 88 53 89 54 90 60 91 62 92 55 93 56 94 57 95
REMARK SMILES IDX 58 96 59 97
REMARK H PARENT 9 16 83 47 49 58
REMARK Flexibility Score: inf
ROOT
ATOM      1  C   UNL A   1      33.149  29.470  27.251  1.00  0.00     0.275 C 
ENDROOT
BRANCH   1   2
ATOM      2  O   UNL A   1      33.137  28.919  25.913  1.00  0.00    -0.458 OA
BRANCH   2   3
ATOM      3  C   UNL A   1      32.255  27.907  25.719  1.00  0.00     0.340 C 
ATOM      4  O   UNL A   1      32.294  26.803  26.240  1.00  0.00    -0.246 OA
BRANCH   3   5
ATOM      5  C   UNL A   1      31.296  28.202  24.640  1.00  0.00     0.088 A 
ATOM      6  C   UNL A   1      31.293  27.481  23.432  1.00  0.00     0.067 A 
ATOM      7  C   UNL A   1      30.714  28.041  22.293  1.00  0.00     0.078 A 
ATOM      8  C   UNL A   1      30.003  29.228  22.394  1.00  0.00     0.163 A 
ATOM      9  C   UNL A   1      30.561  29.390  24.744  1.00  0.00     0.068 A 
ATOM     10  C   UNL A   1      29.863  29.859  23.635  1.00  0.00     0.162 A 
ATOM     11  O   UNL A   1      29.420  29.680  21.241  1.00  0.00    -0.486 OA
ATOM     12  O   UNL A   1      29.050  30.950  23.817  1.00  0.00    -0.486 OA
ATOM     13  C   UNL A   1      28.837  30.975  21.408  1.00  0.00     0.271 C 
ATOM     14  C   UNL A   1      28.107  31.050  22.739  1.00  0.00     0.271 C 
BRANCH   6  15
ATOM     15  N   UNL A   1      31.724  26.116  23.359  1.00  0.00    -0.278 N 
ATOM     16  H   UNL A   1      31.166  25.373  23.684  1.00  0.00     0.180 HD
BRANCH  15  17
ATOM     17  S   UNL A   1      33.286  25.853  22.665  1.00  0.00     0.271 S 
ATOM     18  O   UNL A   1      33.941  27.146  22.641  1.00  0.00    -0.200 OA
ATOM     19  O   UNL A   1      33.112  25.089  21.454  1.00  0.00    -0.200 OA
BRANCH  17  20
ATOM     20  C   UNL A   1      34.207  24.781  23.742  1.00  0.00     0.140 A 
ATOM     21  C   UNL A   1      36.657  21.822  24.330  1.00  0.00     0.056 C 
ATOM     22  C   UNL A   1      35.706  22.960  24.423  1.00  0.00     0.003 A 
ATOM     23  C   UNL A   1      35.619  23.938  25.390  1.00  0.00     0.016 A 
ATOM     24  S   UNL A   1      34.529  23.192  23.201  1.00  0.00    -0.127 S 
ATOM     25  C   UNL A   1      34.707  24.965  25.019  1.00  0.00     0.034 A 
ENDBRANCH  17  20
ENDBRANCH  15  17
ENDBRANCH   6  15
ENDBRANCH   3   5
ENDBRANCH   2   3
ENDBRANCH   1   2
BRANCH   1  26
ATOM     26  C   UNL A   1      34.338  30.397  27.504  1.00  0.00     0.275 C 
BRANCH  26  27
ATOM     27  O   UNL A   1      35.039  30.016  28.702  1.00  0.00    -0.458 OA
BRANCH  27  28
ATOM     28  C   UNL A   1      36.142  30.762  28.932  1.00  0.00     0.338 C 
ATOM     29  O   UNL A   1      36.146  31.936  29.259  1.00  0.00    -0.246 OA
BRANCH  28  30
ATOM     30  C   UNL A   1      37.398  30.014  28.806  1.00  0.00     0.060 A 
ATOM     31  C   UNL A   1      38.193  29.843  29.931  1.00  0.00     0.016 A 
ATOM     32  C   UNL A   1      37.922  29.775  27.531  1.00  0.00     0.016 A 
ATOM     33  C   UNL A   1      39.551  29.584  29.770  1.00  0.00     0.010 A 
ATOM     34  C   UNL A   1      39.258  29.379  27.386  1.00  0.00     0.010 A 
ATOM     35  C   UNL A   1      40.102  29.316  28.504  1.00  0.00    -0.014 A 
BRANCH  35  36
ATOM     36  C   UNL A   1      41.536  28.918  28.392  1.00  0.00     0.031 A 
ATOM     37  C   UNL A   1      42.668  29.901  28.576  1.00  0.00     0.074 A 
ATOM     38  C   UNL A   1      41.820  27.622  28.144  1.00  0.00     0.049 A 
ATOM     39  N   UNL A   1      43.950  29.723  28.371  1.00  0.00    -0.248 NA
ATOM     40  C   UNL A   1      42.328  31.250  29.055  1.00  0.00     0.031 C 
ATOM     41  C   UNL A   1      40.822  26.558  27.979  1.00  0.00     0.029 A 
ATOM     42  N   UNL A   1      43.017  26.968  28.003  1.00  0.00    -0.354 N 
ATOM     43  C   UNL A   1      44.565  30.939  28.659  1.00  0.00     0.074 A 
ATOM     44  C   UNL A   1      43.515  31.848  29.067  1.00  0.00     0.031 C 
ATOM     45  C   UNL A   1      41.444  25.384  27.831  1.00  0.00     0.029 A 
ATOM     46  C   UNL A   1      42.875  25.629  27.729  1.00  0.00     0.049 A 
ATOM     47  H   UNL A   1      43.892  27.413  28.088  1.00  0.00     0.167 HD
ATOM     48  C   UNL A   1      45.880  31.261  28.575  1.00  0.00     0.037 A 
ATOM     49  C   UNL A   1      43.770  24.699  27.347  1.00  0.00     0.037 A 
ATOM     50  C   UNL A   1      46.918  30.334  28.184  1.00  0.00     0.049 A 
ATOM     51  C   UNL A   1      45.196  25.103  27.165  1.00  0.00     0.074 A 
ATOM     52  C   UNL A   1      48.282  30.560  28.085  1.00  0.00     0.029 A 
ATOM     53  N   UNL A   1      46.711  29.011  27.824  1.00  0.00    -0.354 N 
ATOM     54  N   UNL A   1      45.749  26.271  27.378  1.00  0.00    -0.248 NA
ATOM     55  C   UNL A   1      46.113  24.076  26.659  1.00  0.00     0.031 C 
ATOM     56  C   UNL A   1      48.890  29.392  27.614  1.00  0.00     0.029 A 
ATOM     57  C   UNL A   1      47.914  28.420  27.469  1.00  0.00     0.049 A 
ATOM     58  H   UNL A   1      45.837  28.558  27.820  1.00  0.00     0.167 HD
ATOM     59  C   UNL A   1      47.082  26.126  27.021  1.00  0.00     0.074 A 
ATOM     60  C   UNL A   1      47.255  24.748  26.607  1.00  0.00     0.031 C 
ATOM     61  C   UNL A   1      48.069  27.055  27.029  1.00  0.00     0.037 A 
BRANCH  48  62
ATOM     62  C   UNL A   1      46.295  32.683  28.863  1.00  0.00     0.058 A 
ATOM     63  C   UNL A   1      46.732  33.096  30.130  1.00  0.00     0.135 A 
ATOM     64  C   UNL A   1      46.355  33.621  27.816  1.00  0.00     0.135 A 
ATOM     65  F   UNL A   1      46.693  32.246  31.168  1.00  0.00    -0.206 F 
ATOM     66  C   UNL A   1      47.211  34.387  30.351  1.00  0.00     0.059 A 
ATOM     67  C   UNL A   1      46.850  34.909  28.009  1.00  0.00     0.059 A 
ATOM     68  F   UNL A   1      45.956  33.280  26.581  1.00  0.00    -0.206 F 
ATOM     69  C   UNL A   1      47.271  35.285  29.283  1.00  0.00     0.060 A 
BRANCH  69  70
ATOM     70  S   UNL A   1      47.937  36.941  29.572  1.00  0.00     0.124 S 
ATOM     71  O   UNL A   1      46.872  37.553  30.360  1.00  0.00    -0.237 OA
ATOM     72  O   UNL A   1      49.175  36.661  30.291  1.00  0.00    -0.237 OA
ATOM     73  O   UNL A   1      48.108  37.480  28.226  1.00  0.00    -0.744 OA
ENDBRANCH  69  70
ENDBRANCH  48  62
BRANCH  49  74
ATOM     74  C   UNL A   1      43.288  23.336  27.010  1.00  0.00     0.058 A 
ATOM     75  C   UNL A   1      43.175  22.911  25.681  1.00  0.00     0.135 A 
ATOM     76  C   UNL A   1      43.028  22.398  28.025  1.00  0.00     0.135 A 
ATOM     77  F   UNL A   1      43.400  23.775  24.679  1.00  0.00    -0.206 F 
ATOM     78  C   UNL A   1      42.841  21.598  25.367  1.00  0.00     0.059 A 
ATOM     79  C   UNL A   1      42.729  21.072  27.736  1.00  0.00     0.059 A 
ATOM     80  F   UNL A   1      43.140  22.753  29.314  1.00  0.00    -0.206 F 
ATOM     81  C   UNL A   1      42.636  20.682  26.402  1.00  0.00     0.060 A 
BRANCH  81  82
ATOM     82  S   UNL A   1      42.320  18.952  25.991  1.00  0.00     0.124 S 
ATOM     83  O   UNL A   1      42.660  18.289  27.243  1.00  0.00    -0.237 OA
ATOM     84  O   UNL A   1      40.903  18.972  25.640  1.00  0.00    -0.237 OA
ATOM     85  O   UNL A   1      43.228  18.704  24.875  1.00  0.00    -0.744 OA
ENDBRANCH  81  82
ENDBRANCH  49  74
BRANCH  61  86
ATOM     86  C   UNL A   1      49.425  26.597  26.578  1.00  0.00     0.058 A 
ATOM     87  C   UNL A   1      49.911  26.902  25.298  1.00  0.00     0.135 A 
ATOM     88  C   UNL A   1      50.243  25.839  27.431  1.00  0.00     0.135 A 
ATOM     89  F   UNL A   1      49.160  27.611  24.440  1.00  0.00    -0.206 F 
ATOM     90  C   UNL A   1      51.151  26.445  24.866  1.00  0.00     0.059 A 
ATOM     91  C   UNL A   1      51.496  25.392  27.029  1.00  0.00     0.059 A 
ATOM     92  F   UNL A   1      49.824  25.524  28.667  1.00  0.00    -0.206 F 
ATOM     93  C   UNL A   1      51.935  25.686  25.737  1.00  0.00     0.060 A 
BRANCH  93  94
ATOM     94  S   UNL A   1      53.541  25.095  25.165  1.00  0.00     0.124 S 
ATOM     95  O   UNL A   1      53.409  23.655  25.358  1.00  0.00    -0.237 OA
ATOM     96  O   UNL A   1      53.568  25.550  23.778  1.00  0.00    -0.237 OA
ATOM     97  O   UNL A   1      54.486  25.763  26.056  1.00  0.00    -0.744 OA
ENDBRANCH  93  94
ENDBRANCH  61  86
ENDBRANCH  35  36
ENDBRANCH  28  30
ENDBRANCH  27  28
ENDBRANCH  26  27
ENDBRANCH   1  26
TORSDOF 17
ENDMDL
MODEL 2
REMARK VINA RESULT:     -11.7      1.672      3.143
REMARK SMILES Cc1ccc(S(=O)(=O)Nc2cc3c(cc2C(=O)OCCOC(=O)c2ccc(-c4c5nc(c(-c6c(F)cc(S(=O)(=O)[O-])cc6F)c6ccc([nH]6)c(-c6c(F)cc(S(=O)(=O)[O-])cc6F)c6nc(c(-c7c(F)cc(S(=O)(=O)[O-])cc7F)c7ccc4[nH]7)C=C6)C=C5)cc2)OCCO3)s1
REMARK SMILES IDX 19 1 18 2 16 3 17 4 15 5 10 6 11 7 12 8 14 9 13 10 93 11
REMARK SMILES IDX 90 12 92 13 91 14 9 15 6 17 7 18 8 19 5 20 1 21 2 22 3 23
REMARK SMILES IDX 94 24 4 25 20 26 21 27 22 28 23 29 24 30 25 31 89 32 26 33
REMARK SMILES IDX 88 34 27 35 28 36 29 37 82 38 30 39 87 40 81 41 83 42 31 43
REMARK SMILES IDX 86 44 80 45 79 46 32 48 66 49 45 50 65 51 46 52 49 53 64 54
REMARK SMILES IDX 84 55 47 56 48 57 63 59 85 60 50 61 33 62 34 63 43 64 35 65
REMARK SMILES IDX 36 66 42 67 44 68 37 69 38 70 39 71 40 72 41 73 67 74 68 75
REMARK SMILES IDX 77 76 69 77 70 78 76 79 78 80 71 81 72 82 73 83 74 84 75 85
REMARK SMILES IDX 51 86 52 87 61 88 53 89 54 90 60 91 62 92 55 93 56 94 57 95
REMARK SMILES IDX 58 96 59 97
REMARK H PARENT 9 16 83 47 49 58
REMARK Flexibility Score: inf
ROOT
ATOM      1  C   UNL A   1      33.391  30.049  26.531  1.00  0.00     0.275 C 
ENDROOT
BRANCH   1   2
ATOM      2  O   UNL A   1      33.318  28.613  26.700  1.00  0.00    -0.458 OA
BRANCH   2   3
ATOM      3  C   UNL A   1      33.617  27.891  25.592  1.00  0.00     0.340 C 
ATOM      4  O   UNL A   1      34.012  28.333  24.524  1.00  0.00    -0.246 OA
BRANCH   3   5
ATOM      5  C   UNL A   1      33.238  26.473  25.732  1.00  0.00     0.088 A 
ATOM      6  C   UNL A   1      31.915  26.083  26.007  1.00  0.00     0.067 A 
ATOM      7  C   UNL A   1      31.666  24.828  26.565  1.00  0.00     0.078 A 
ATOM      8  C   UNL A   1      32.701  23.913  26.693  1.00  0.00     0.163 A 
ATOM      9  C   UNL A   1      34.278  25.541  25.843  1.00  0.00     0.068 A 
ATOM     10  C   UNL A   1      33.989  24.245  26.259  1.00  0.00     0.162 A 
ATOM     11  O   UNL A   1      32.360  22.687  27.198  1.00  0.00    -0.486 OA
ATOM     12  O   UNL A   1      35.011  23.331  26.225  1.00  0.00    -0.486 OA
ATOM     13  C   UNL A   1      33.508  21.867  27.429  1.00  0.00     0.271 C 
ATOM     14  C   UNL A   1      34.483  21.995  26.270  1.00  0.00     0.271 C 
BRANCH   6  15
ATOM     15  N   UNL A   1      30.787  26.863  25.590  1.00  0.00    -0.278 N 
ATOM     16  H   UNL A   1      30.359  27.522  26.183  1.00  0.00     0.180 HD
BRANCH  15  17
ATOM     17  S   UNL A   1      30.223  26.577  23.981  1.00  0.00     0.271 S 
ATOM     18  O   UNL A   1      30.719  27.678  23.177  1.00  0.00    -0.200 OA
ATOM     19  O   UNL A   1      28.812  26.288  24.048  1.00  0.00    -0.200 OA
BRANCH  17  20
ATOM     20  C   UNL A   1      30.961  25.075  23.385  1.00  0.00     0.140 A 
ATOM     21  C   UNL A   1      34.068  22.950  22.416  1.00  0.00     0.056 C 
ATOM     22  C   UNL A   1      32.717  23.509  22.685  1.00  0.00     0.003 A 
ATOM     23  C   UNL A   1      31.569  22.850  23.071  1.00  0.00     0.016 A 
ATOM     24  S   UNL A   1      32.447  25.194  22.548  1.00  0.00    -0.127 S 
ATOM     25  C   UNL A   1      30.533  23.760  23.422  1.00  0.00     0.034 A 
ENDBRANCH  17  20
ENDBRANCH  15  17
ENDBRANCH   6  15
ENDBRANCH   3   5
ENDBRANCH   2   3
ENDBRANCH   1   2
BRANCH   1  26
ATOM     26  C   UNL A   1      34.227  30.735  27.612  1.00  0.00     0.275 C 
BRANCH  26  27
ATOM     27  O   UNL A   1      35.356  29.920  27.980  1.00  0.00    -0.458 OA
BRANCH  27  28
ATOM     28  C   UNL A   1      36.066  30.432  29.010  1.00  0.00     0.338 C 
ATOM     29  O   UNL A   1      35.595  30.867  30.046  1.00  0.00    -0.246 OA
BRANCH  28  30
ATOM     30  C   UNL A   1      37.519  30.379  28.810  1.00  0.00     0.060 A 
ATOM     31  C   UNL A   1      38.013  29.880  27.612  1.00  0.00     0.016 A 
ATOM     32  C   UNL A   1      38.362  30.519  29.916  1.00  0.00     0.016 A 
ATOM     33  C   UNL A   1      39.311  29.379  27.570  1.00  0.00     0.010 A 
ATOM     34  C   UNL A   1      39.708  30.139  29.823  1.00  0.00     0.010 A 
ATOM     35  C   UNL A   1      40.190  29.526  28.658  1.00  0.00    -0.014 A 
BRANCH  35  36
ATOM     36  C   UNL A   1      41.611  29.087  28.523  1.00  0.00     0.031 A 
ATOM     37  C   UNL A   1      42.772  30.038  28.690  1.00  0.00     0.074 A 
ATOM     38  C   UNL A   1      41.853  27.784  28.272  1.00  0.00     0.049 A 
ATOM     39  N   UNL A   1      44.045  29.824  28.464  1.00  0.00    -0.248 NA
ATOM     40  C   UNL A   1      42.479  31.396  29.173  1.00  0.00     0.031 C 
ATOM     41  C   UNL A   1      40.824  26.748  28.124  1.00  0.00     0.029 A 
ATOM     42  N   UNL A   1      43.030  27.096  28.112  1.00  0.00    -0.354 N 
ATOM     43  C   UNL A   1      44.699  31.022  28.742  1.00  0.00     0.074 A 
ATOM     44  C   UNL A   1      43.681  31.960  29.166  1.00  0.00     0.031 C 
ATOM     45  C   UNL A   1      41.410  25.557  27.966  1.00  0.00     0.029 A 
ATOM     46  C   UNL A   1      42.845  25.761  27.841  1.00  0.00     0.049 A 
ATOM     47  H   UNL A   1      43.918  27.516  28.183  1.00  0.00     0.167 HD
ATOM     48  C   UNL A   1      46.021  31.306  28.637  1.00  0.00     0.037 A 
ATOM     49  C   UNL A   1      43.708  24.807  27.446  1.00  0.00     0.037 A 
ATOM     50  C   UNL A   1      47.026  30.351  28.230  1.00  0.00     0.049 A 
ATOM     51  C   UNL A   1      45.142  25.170  27.242  1.00  0.00     0.074 A 
ATOM     52  C   UNL A   1      48.394  30.539  28.110  1.00  0.00     0.029 A 
ATOM     53  N   UNL A   1      46.776  29.035  27.875  1.00  0.00    -0.354 N 
ATOM     54  N   UNL A   1      45.731  26.322  27.445  1.00  0.00    -0.248 NA
ATOM     55  C   UNL A   1      46.021  24.117  26.722  1.00  0.00     0.031 C 
ATOM     56  C   UNL A   1      48.962  29.353  27.630  1.00  0.00     0.029 A 
ATOM     57  C   UNL A   1      47.957  28.409  27.501  1.00  0.00     0.049 A 
ATOM     58  H   UNL A   1      45.890  28.606  27.885  1.00  0.00     0.167 HD
ATOM     59  C   UNL A   1      47.054  26.140  27.067  1.00  0.00     0.074 A 
ATOM     60  C   UNL A   1      47.181  24.757  26.651  1.00  0.00     0.031 C 
ATOM     61  C   UNL A   1      48.066  27.041  27.059  1.00  0.00     0.037 A 
BRANCH  48  62
ATOM     62  C   UNL A   1      46.480  32.716  28.917  1.00  0.00     0.058 A 
ATOM     63  C   UNL A   1      46.959  33.114  30.174  1.00  0.00     0.135 A 
ATOM     64  C   UNL A   1      46.539  33.655  27.872  1.00  0.00     0.135 A 
ATOM     65  F   UNL A   1      46.924  32.263  31.211  1.00  0.00    -0.206 F 
ATOM     66  C   UNL A   1      47.478  34.392  30.386  1.00  0.00     0.059 A 
ATOM     67  C   UNL A   1      47.072  34.929  28.055  1.00  0.00     0.059 A 
ATOM     68  F   UNL A   1      46.101  33.328  26.646  1.00  0.00    -0.206 F 
ATOM     69  C   UNL A   1      47.535  35.290  29.319  1.00  0.00     0.060 A 
BRANCH  69  70
ATOM     70  S   UNL A   1      48.251  36.928  29.595  1.00  0.00     0.124 S 
ATOM     71  O   UNL A   1      47.951  37.147  31.006  1.00  0.00    -0.237 OA
ATOM     72  O   UNL A   1      49.658  36.714  29.273  1.00  0.00    -0.237 OA
ATOM     73  O   UNL A   1      47.522  37.781  28.660  1.00  0.00    -0.744 OA
ENDBRANCH  69  70
ENDBRANCH  48  62
BRANCH  49  74
ATOM     74  C   UNL A   1      43.182  23.457  27.118  1.00  0.00     0.058 A 
ATOM     75  C   UNL A   1      43.007  23.047  25.790  1.00  0.00     0.135 A 
ATOM     76  C   UNL A   1      42.942  22.516  28.135  1.00  0.00     0.135 A 
ATOM     77  F   UNL A   1      43.212  23.915  24.788  1.00  0.00    -0.206 F 
ATOM     78  C   UNL A   1      42.632  21.744  25.479  1.00  0.00     0.059 A 
ATOM     79  C   UNL A   1      42.602  21.201  27.847  1.00  0.00     0.059 A 
ATOM     80  F   UNL A   1      43.112  22.857  29.421  1.00  0.00    -0.206 F 
ATOM     81  C   UNL A   1      42.448  20.825  26.515  1.00  0.00     0.060 A 
BRANCH  81  82
ATOM     82  S   UNL A   1      42.076  19.106  26.102  1.00  0.00     0.124 S 
ATOM     83  O   UNL A   1      40.658  19.186  25.772  1.00  0.00    -0.237 OA
ATOM     84  O   UNL A   1      42.981  18.853  24.985  1.00  0.00    -0.237 OA
ATOM     85  O   UNL A   1      42.400  18.391  27.333  1.00  0.00    -0.744 OA
ENDBRANCH  81  82
ENDBRANCH  49  74
BRANCH  61  86
ATOM     86  C   UNL A   1      49.401  26.544  26.587  1.00  0.00     0.058 A 
ATOM     87  C   UNL A   1      50.301  25.921  27.465  1.00  0.00     0.135 A 
ATOM     88  C   UNL A   1      49.787  26.699  25.247  1.00  0.00     0.135 A 
ATOM     89  F   UNL A   1      49.984  25.764  28.760  1.00  0.00    -0.206 F 
ATOM     90  C   UNL A   1      51.554  25.496  27.037  1.00  0.00     0.059 A 
ATOM     91  C   UNL A   1      51.025  26.259  24.791  1.00  0.00     0.059 A 
ATOM     92  F   UNL A   1      48.960  27.285  24.367  1.00  0.00    -0.206 F 
ATOM     93  C   UNL A   1      51.909  25.673  25.698  1.00  0.00     0.060 A 
BRANCH  93  94
ATOM     94  S   UNL A   1      53.538  25.120  25.154  1.00  0.00     0.124 S 
ATOM     95  O   UNL A   1      53.387  23.669  25.206  1.00  0.00    -0.237 OA
ATOM     96  O   UNL A   1      53.637  25.699  23.817  1.00  0.00    -0.237 OA
ATOM     97  O   UNL A   1      54.441  25.693  26.147  1.00  0.00    -0.744 OA
ENDBRANCH  93  94
ENDBRANCH  61  86
ENDBRANCH  35  36
ENDBRANCH  28  30
ENDBRANCH  27  28
ENDBRANCH  26  27
ENDBRANCH   1  26
TORSDOF 17
ENDMDL
MODEL 3
REMARK VINA RESULT:     -11.6      5.499      9.977
REMARK SMILES Cc1ccc(S(=O)(=O)Nc2cc3c(cc2C(=O)OCCOC(=O)c2ccc(-c4c5nc(c(-c6c(F)cc(S(=O)(=O)[O-])cc6F)c6ccc([nH]6)c(-c6c(F)cc(S(=O)(=O)[O-])cc6F)c6nc(c(-c7c(F)cc(S(=O)(=O)[O-])cc7F)c7ccc4[nH]7)C=C6)C=C5)cc2)OCCO3)s1
REMARK SMILES IDX 19 1 18 2 16 3 17 4 15 5 10 6 11 7 12 8 14 9 13 10 93 11
REMARK SMILES IDX 90 12 92 13 91 14 9 15 6 17 7 18 8 19 5 20 1 21 2 22 3 23
REMARK SMILES IDX 94 24 4 25 20 26 21 27 22 28 23 29 24 30 25 31 89 32 26 33
REMARK SMILES IDX 88 34 27 35 28 36 29 37 82 38 30 39 87 40 81 41 83 42 31 43
REMARK SMILES IDX 86 44 80 45 79 46 32 48 66 49 45 50 65 51 46 52 49 53 64 54
REMARK SMILES IDX 84 55 47 56 48 57 63 59 85 60 50 61 33 62 34 63 43 64 35 65
REMARK SMILES IDX 36 66 42 67 44 68 37 69 38 70 39 71 40 72 41 73 67 74 68 75
REMARK SMILES IDX 77 76 69 77 70 78 76 79 78 80 71 81 72 82 73 83 74 84 75 85
REMARK SMILES IDX 51 86 52 87 61 88 53 89 54 90 60 91 62 92 55 93 56 94 57 95
REMARK SMILES IDX 58 96 59 97
REMARK H PARENT 9 16 83 47 49 58
REMARK Flexibility Score: inf
ROOT
ATOM      1  C   UNL A   1      31.757  28.486  27.186  1.00  0.00     0.275 C 
ENDROOT
BRANCH   1   2
ATOM      2  O   UNL A   1      32.415  27.584  26.265  1.00  0.00    -0.458 OA
BRANCH   2   3
ATOM      3  C   UNL A   1      31.936  26.316  26.266  1.00  0.00     0.340 C 
ATOM      4  O   UNL A   1      30.919  25.927  26.820  1.00  0.00    -0.246 OA
BRANCH   3   5
ATOM      5  C   UNL A   1      32.883  25.362  25.663  1.00  0.00     0.088 A 
ATOM      6  C   UNL A   1      33.013  25.227  24.269  1.00  0.00     0.067 A 
ATOM      7  C   UNL A   1      33.552  24.056  23.735  1.00  0.00     0.078 A 
ATOM      8  C   UNL A   1      34.106  23.104  24.579  1.00  0.00     0.163 A 
ATOM      9  C   UNL A   1      33.460  24.409  26.513  1.00  0.00     0.068 A 
ATOM     10  C   UNL A   1      34.127  23.319  25.961  1.00  0.00     0.162 A 
ATOM     11  O   UNL A   1      34.663  22.011  23.970  1.00  0.00    -0.486 OA
ATOM     12  O   UNL A   1      34.791  22.484  26.824  1.00  0.00    -0.486 OA
ATOM     13  C   UNL A   1      35.073  21.023  24.918  1.00  0.00     0.271 C 
ATOM     14  C   UNL A   1      35.747  21.688  26.107  1.00  0.00     0.271 C 
BRANCH   6  15
ATOM     15  N   UNL A   1      32.759  26.315  23.371  1.00  0.00    -0.278 N 
ATOM     16  H   UNL A   1      33.352  27.099  23.318  1.00  0.00     0.180 HD
BRANCH  15  17
ATOM     17  S   UNL A   1      31.346  26.167  22.386  1.00  0.00     0.271 S 
ATOM     18  O   UNL A   1      30.665  24.967  22.832  1.00  0.00    -0.200 OA
ATOM     19  O   UNL A   1      31.745  26.322  21.008  1.00  0.00    -0.200 OA
BRANCH  17  20
ATOM     20  C   UNL A   1      30.289  27.559  22.706  1.00  0.00     0.140 A 
ATOM     21  C   UNL A   1      28.904  31.073  21.789  1.00  0.00     0.056 C 
ATOM     22  C   UNL A   1      29.248  29.761  22.396  1.00  0.00     0.003 A 
ATOM     23  C   UNL A   1      28.456  28.923  23.151  1.00  0.00     0.016 A 
ATOM     24  S   UNL A   1      30.809  29.096  22.167  1.00  0.00    -0.127 S 
ATOM     25  C   UNL A   1      29.085  27.667  23.378  1.00  0.00     0.034 A 
ENDBRANCH  17  20
ENDBRANCH  15  17
ENDBRANCH   6  15
ENDBRANCH   3   5
ENDBRANCH   2   3
ENDBRANCH   1   2
BRANCH   1  26
ATOM     26  C   UNL A   1      31.951  29.958  26.822  1.00  0.00     0.275 C 
BRANCH  26  27
ATOM     27  O   UNL A   1      33.318  30.218  26.451  1.00  0.00    -0.458 OA
BRANCH  27  28
ATOM     28  C   UNL A   1      33.924  31.120  27.254  1.00  0.00     0.338 C 
ATOM     29  O   UNL A   1      33.413  32.140  27.683  1.00  0.00    -0.246 OA
BRANCH  28  30
ATOM     30  C   UNL A   1      35.290  30.746  27.638  1.00  0.00     0.060 A 
ATOM     31  C   UNL A   1      35.564  29.417  27.931  1.00  0.00     0.016 A 
ATOM     32  C   UNL A   1      36.189  31.749  28.012  1.00  0.00     0.016 A 
ATOM     33  C   UNL A   1      36.662  29.111  28.731  1.00  0.00     0.010 A 
ATOM     34  C   UNL A   1      37.364  31.416  28.698  1.00  0.00     0.010 A 
ATOM     35  C   UNL A   1      37.597  30.094  29.103  1.00  0.00    -0.014 A 
BRANCH  35  36
ATOM     36  C   UNL A   1      38.825  29.699  29.853  1.00  0.00     0.031 A 
ATOM     37  C   UNL A   1      39.853  28.750  29.284  1.00  0.00     0.074 A 
ATOM     38  C   UNL A   1      39.026  30.240  31.073  1.00  0.00     0.049 A 
ATOM     39  N   UNL A   1      40.891  28.215  29.879  1.00  0.00    -0.248 NA
ATOM     40  C   UNL A   1      39.709  28.353  27.876  1.00  0.00     0.031 C 
ATOM     41  C   UNL A   1      38.130  31.199  31.729  1.00  0.00     0.029 A 
ATOM     42  N   UNL A   1      40.047  30.080  31.976  1.00  0.00    -0.354 N 
ATOM     43  C   UNL A   1      41.502  27.394  28.934  1.00  0.00     0.074 A 
ATOM     44  C   UNL A   1      40.724  27.510  27.720  1.00  0.00     0.031 C 
ATOM     45  C   UNL A   1      38.669  31.593  32.886  1.00  0.00     0.029 A 
ATOM     46  C   UNL A   1      39.864  30.801  33.133  1.00  0.00     0.049 A 
ATOM     47  H   UNL A   1      40.831  29.508  31.814  1.00  0.00     0.167 HD
ATOM     48  C   UNL A   1      42.600  26.610  29.081  1.00  0.00     0.037 A 
ATOM     49  C   UNL A   1      40.519  30.777  34.308  1.00  0.00     0.037 A 
ATOM     50  C   UNL A   1      43.376  26.521  30.296  1.00  0.00     0.049 A 
ATOM     51  C   UNL A   1      41.664  29.832  34.477  1.00  0.00     0.074 A 
ATOM     52  C   UNL A   1      44.515  25.769  30.538  1.00  0.00     0.029 A 
ATOM     53  N   UNL A   1      43.095  27.199  31.473  1.00  0.00    -0.354 N 
ATOM     54  N   UNL A   1      42.187  29.016  33.596  1.00  0.00    -0.248 NA
ATOM     55  C   UNL A   1      42.285  29.779  35.804  1.00  0.00     0.031 C 
ATOM     56  C   UNL A   1      44.889  25.951  31.874  1.00  0.00     0.029 A 
ATOM     57  C   UNL A   1      44.015  26.856  32.452  1.00  0.00     0.049 A 
ATOM     58  H   UNL A   1      42.351  27.832  31.595  1.00  0.00     0.167 HD
ATOM     59  C   UNL A   1      43.196  28.338  34.265  1.00  0.00     0.074 A 
ATOM     60  C   UNL A   1      43.227  28.864  35.616  1.00  0.00     0.031 C 
ATOM     61  C   UNL A   1      44.016  27.364  33.802  1.00  0.00     0.037 A 
BRANCH  48  62
ATOM     62  C   UNL A   1      43.023  25.739  27.924  1.00  0.00     0.058 A 
ATOM     63  C   UNL A   1      43.917  26.181  26.938  1.00  0.00     0.135 A 
ATOM     64  C   UNL A   1      42.605  24.397  27.867  1.00  0.00     0.135 A 
ATOM     65  F   UNL A   1      44.348  27.452  26.938  1.00  0.00    -0.206 F 
ATOM     66  C   UNL A   1      44.379  25.328  25.936  1.00  0.00     0.059 A 
ATOM     67  C   UNL A   1      43.069  23.521  26.889  1.00  0.00     0.059 A 
ATOM     68  F   UNL A   1      41.755  23.916  28.788  1.00  0.00    -0.206 F 
ATOM     69  C   UNL A   1      43.954  23.998  25.923  1.00  0.00     0.060 A 
BRANCH  69  70
ATOM     70  S   UNL A   1      44.595  22.890  24.646  1.00  0.00     0.124 S 
ATOM     71  O   UNL A   1      45.126  21.792  25.447  1.00  0.00    -0.237 OA
ATOM     72  O   UNL A   1      43.400  22.584  23.867  1.00  0.00    -0.237 OA
ATOM     73  O   UNL A   1      45.594  23.703  23.958  1.00  0.00    -0.744 OA
ENDBRANCH  69  70
ENDBRANCH  48  62
BRANCH  49  74
ATOM     74  C   UNL A   1      40.010  31.606  35.430  1.00  0.00     0.058 A 
ATOM     75  C   UNL A   1      38.893  31.212  36.177  1.00  0.00     0.135 A 
ATOM     76  C   UNL A   1      40.700  32.761  35.837  1.00  0.00     0.135 A 
ATOM     77  F   UNL A   1      38.196  30.124  35.819  1.00  0.00    -0.206 F 
ATOM     78  C   UNL A   1      38.490  31.923  37.303  1.00  0.00     0.059 A 
ATOM     79  C   UNL A   1      40.338  33.466  36.977  1.00  0.00     0.059 A 
ATOM     80  F   UNL A   1      41.786  33.169  35.161  1.00  0.00    -0.206 F 
ATOM     81  C   UNL A   1      39.228  33.039  37.704  1.00  0.00     0.060 A 
BRANCH  81  82
ATOM     82  S   UNL A   1      38.771  33.889  39.230  1.00  0.00     0.124 S 
ATOM     83  O   UNL A   1      38.898  35.286  38.834  1.00  0.00    -0.237 OA
ATOM     84  O   UNL A   1      37.412  33.408  39.458  1.00  0.00    -0.237 OA
ATOM     85  O   UNL A   1      39.764  33.410  40.188  1.00  0.00    -0.744 OA
ENDBRANCH  81  82
ENDBRANCH  49  74
BRANCH  61  86
ATOM     86  C   UNL A   1      45.018  26.813  34.774  1.00  0.00     0.058 A 
ATOM     87  C   UNL A   1      44.733  25.682  35.555  1.00  0.00     0.135 A 
ATOM     88  C   UNL A   1      46.272  27.424  34.931  1.00  0.00     0.135 A 
ATOM     89  F   UNL A   1      43.542  25.072  35.452  1.00  0.00    -0.206 F 
ATOM     90  C   UNL A   1      45.646  25.195  36.484  1.00  0.00     0.059 A 
ATOM     91  C   UNL A   1      47.210  26.938  35.836  1.00  0.00     0.059 A 
ATOM     92  F   UNL A   1      46.593  28.506  34.204  1.00  0.00    -0.206 F 
ATOM     93  C   UNL A   1      46.881  25.833  36.621  1.00  0.00     0.060 A 
BRANCH  93  94
ATOM     94  S   UNL A   1      48.057  25.193  37.831  1.00  0.00     0.124 S 
ATOM     95  O   UNL A   1      49.331  25.534  37.209  1.00  0.00    -0.237 OA
ATOM     96  O   UNL A   1      47.714  25.948  39.032  1.00  0.00    -0.237 OA
ATOM     97  O   UNL A   1      47.746  23.767  37.884  1.00  0.00    -0.744 OA
ENDBRANCH  93  94
ENDBRANCH  61  86
ENDBRANCH  35  36
ENDBRANCH  28  30
ENDBRANCH  27  28
ENDBRANCH  26  27
ENDBRANCH   1  26
TORSDOF 17
ENDMDL
