MODEL 1
REMARK VINA RESULT:     -11.3      0.000      0.000
REMARK SMILES O=C(OCCOC(=O)[C@H](CCc1ccccn1)c1ccccc1Br)c1ccc(-c2c3nc(c(-c4c(F)cc(S(=O)(=O)[O-])cc4F)c4ccc([nH]4)c(-c4c(F)cc(S(=O)(=O)[O-])cc4F)c4nc(c(-c5c(F)cc(S(=O)(=O)[O-])cc5F)c5ccc2[nH]5)C=C4)C=C3)cc1
REMARK SMILES IDX 4 1 3 2 2 3 1 4 25 5 26 6 90 7 27 8 89 9 28 10 29 11 30 12
REMARK SMILES IDX 83 13 31 14 88 15 82 16 84 17 32 18 87 19 81 20 80 21 33 23
REMARK SMILES IDX 67 24 46 25 66 26 47 27 50 28 65 29 85 30 48 31 49 32 64 34
REMARK SMILES IDX 86 35 51 36 34 37 35 38 44 39 36 40 37 41 43 42 45 43 38 44
REMARK SMILES IDX 39 45 40 46 41 47 42 48 68 49 69 50 78 51 70 52 71 53 77 54
REMARK SMILES IDX 79 55 72 56 73 57 74 58 75 59 76 60 52 61 53 62 62 63 54 64
REMARK SMILES IDX 55 65 61 66 63 67 56 68 57 69 58 70 59 71 60 72 5 73 6 74
REMARK SMILES IDX 7 75 8 76 9 77 18 78 19 79 23 80 20 81 22 82 24 83 21 84
REMARK SMILES IDX 10 85 11 86 12 87 13 88 17 89 14 90 16 91 15 92
REMARK H PARENT 84 22 50 33
REMARK Flexibility Score: inf
ROOT
ATOM      1  C   UNL A   1      32.855  29.898  26.317  1.00  0.00     0.275 C 
ENDROOT
BRANCH   1   2
ATOM      2  O   UNL A   1      33.533  29.771  27.577  1.00  0.00    -0.458 OA
BRANCH   2   3
ATOM      3  C   UNL A   1      34.519  30.534  28.106  1.00  0.00     0.338 C 
ATOM      4  O   UNL A   1      34.306  31.737  28.244  1.00  0.00    -0.246 OA
BRANCH   3   5
ATOM      5  C   UNL A   1      35.902  30.030  28.402  1.00  0.00     0.060 A 
ATOM      6  C   UNL A   1      36.380  29.553  29.622  1.00  0.00     0.016 A 
ATOM      7  C   UNL A   1      36.816  30.092  27.337  1.00  0.00     0.016 A 
ATOM      8  C   UNL A   1      37.704  29.104  29.751  1.00  0.00     0.010 A 
ATOM      9  C   UNL A   1      38.133  29.623  27.446  1.00  0.00     0.010 A 
ATOM     10  C   UNL A   1      38.593  29.142  28.668  1.00  0.00    -0.014 A 
BRANCH  10  11
ATOM     11  C   UNL A   1      40.037  28.939  28.937  1.00  0.00     0.031 A 
ATOM     12  C   UNL A   1      40.641  27.646  28.486  1.00  0.00     0.074 A 
ATOM     13  C   UNL A   1      40.811  29.906  29.462  1.00  0.00     0.049 A 
ATOM     14  N   UNL A   1      41.898  27.318  28.370  1.00  0.00    -0.248 NA
ATOM     15  C   UNL A   1      39.697  26.572  28.139  1.00  0.00     0.031 C 
ATOM     16  C   UNL A   1      40.315  31.145  30.040  1.00  0.00     0.029 A 
ATOM     17  N   UNL A   1      42.177  30.026  29.554  1.00  0.00    -0.354 N 
ATOM     18  C   UNL A   1      41.897  25.994  27.956  1.00  0.00     0.074 A 
ATOM     19  C   UNL A   1      40.517  25.575  27.856  1.00  0.00     0.031 C 
ATOM     20  C   UNL A   1      41.352  31.959  30.307  1.00  0.00     0.029 A 
ATOM     21  C   UNL A   1      42.593  31.281  29.951  1.00  0.00     0.049 A 
ATOM     22  H   UNL A   1      42.799  29.289  29.356  1.00  0.00     0.167 HD
ATOM     23  C   UNL A   1      42.956  25.195  27.698  1.00  0.00     0.037 A 
ATOM     24  C   UNL A   1      43.830  31.821  29.988  1.00  0.00     0.037 A 
ATOM     25  C   UNL A   1      44.321  25.619  27.842  1.00  0.00     0.049 A 
ATOM     26  C   UNL A   1      44.995  30.938  29.615  1.00  0.00     0.074 A 
ATOM     27  C   UNL A   1      45.477  24.888  27.646  1.00  0.00     0.029 A 
ATOM     28  N   UNL A   1      44.709  26.892  28.236  1.00  0.00    -0.354 N 
ATOM     29  N   UNL A   1      44.982  29.698  29.181  1.00  0.00    -0.248 NA
ATOM     30  C   UNL A   1      46.340  31.510  29.761  1.00  0.00     0.031 C 
ATOM     31  C   UNL A   1      46.565  25.708  27.965  1.00  0.00     0.029 A 
ATOM     32  C   UNL A   1      46.088  26.967  28.298  1.00  0.00     0.049 A 
ATOM     33  H   UNL A   1      44.094  27.633  28.440  1.00  0.00     0.167 HD
ATOM     34  C   UNL A   1      46.315  29.343  29.008  1.00  0.00     0.074 A 
ATOM     35  C   UNL A   1      47.104  30.512  29.340  1.00  0.00     0.031 C 
ATOM     36  C   UNL A   1      46.843  28.151  28.630  1.00  0.00     0.037 A 
BRANCH  23  37
ATOM     37  C   UNL A   1      42.650  23.777  27.315  1.00  0.00     0.058 A 
ATOM     38  C   UNL A   1      42.423  22.781  28.279  1.00  0.00     0.135 A 
ATOM     39  C   UNL A   1      42.653  23.397  25.964  1.00  0.00     0.135 A 
ATOM     40  F   UNL A   1      42.449  23.086  29.586  1.00  0.00    -0.206 F 
ATOM     41  C   UNL A   1      42.249  21.449  27.917  1.00  0.00     0.059 A 
ATOM     42  C   UNL A   1      42.453  22.077  25.578  1.00  0.00     0.059 A 
ATOM     43  F   UNL A   1      42.884  24.308  25.006  1.00  0.00    -0.206 F 
ATOM     44  C   UNL A   1      42.272  21.107  26.564  1.00  0.00     0.060 A 
BRANCH  44  45
ATOM     45  S   UNL A   1      42.074  19.373  26.109  1.00  0.00     0.124 S 
ATOM     46  O   UNL A   1      42.916  19.286  24.920  1.00  0.00    -0.237 OA
ATOM     47  O   UNL A   1      42.575  18.681  27.292  1.00  0.00    -0.237 OA
ATOM     48  O   UNL A   1      40.640  19.245  25.872  1.00  0.00    -0.744 OA
ENDBRANCH  44  45
ENDBRANCH  23  37
BRANCH  24  49
ATOM     49  C   UNL A   1      44.045  33.256  30.346  1.00  0.00     0.058 A 
ATOM     50  C   UNL A   1      44.152  33.656  31.690  1.00  0.00     0.135 A 
ATOM     51  C   UNL A   1      44.122  34.264  29.372  1.00  0.00     0.135 A 
ATOM     52  F   UNL A   1      44.079  32.741  32.669  1.00  0.00    -0.206 F 
ATOM     53  C   UNL A   1      44.303  34.992  32.055  1.00  0.00     0.059 A 
ATOM     54  C   UNL A   1      44.306  35.603  29.709  1.00  0.00     0.059 A 
ATOM     55  F   UNL A   1      44.034  33.948  28.071  1.00  0.00    -0.206 F 
ATOM     56  C   UNL A   1      44.380  35.961  31.054  1.00  0.00     0.060 A 
BRANCH  56  57
ATOM     57  S   UNL A   1      44.620  37.689  31.528  1.00  0.00     0.124 S 
ATOM     58  O   UNL A   1      44.250  37.662  32.938  1.00  0.00    -0.237 OA
ATOM     59  O   UNL A   1      46.037  37.891  31.242  1.00  0.00    -0.237 OA
ATOM     60  O   UNL A   1      43.704  38.405  30.646  1.00  0.00    -0.744 OA
ENDBRANCH  56  57
ENDBRANCH  24  49
BRANCH  36  61
ATOM     61  C   UNL A   1      48.339  28.061  28.533  1.00  0.00     0.058 A 
ATOM     62  C   UNL A   1      49.128  27.677  29.630  1.00  0.00     0.135 A 
ATOM     63  C   UNL A   1      48.982  28.304  27.310  1.00  0.00     0.135 A 
ATOM     64  F   UNL A   1      48.559  27.436  30.822  1.00  0.00    -0.206 F 
ATOM     65  C   UNL A   1      50.509  27.567  29.523  1.00  0.00     0.059 A 
ATOM     66  C   UNL A   1      50.359  28.171  27.174  1.00  0.00     0.059 A 
ATOM     67  F   UNL A   1      48.270  28.659  26.229  1.00  0.00    -0.206 F 
ATOM     68  C   UNL A   1      51.115  27.815  28.290  1.00  0.00     0.060 A 
BRANCH  68  69
ATOM     69  S   UNL A   1      52.907  27.643  28.155  1.00  0.00     0.124 S 
ATOM     70  O   UNL A   1      53.345  29.025  28.320  1.00  0.00    -0.237 OA
ATOM     71  O   UNL A   1      53.219  26.742  29.260  1.00  0.00    -0.237 OA
ATOM     72  O   UNL A   1      53.094  27.079  26.821  1.00  0.00    -0.744 OA
ENDBRANCH  68  69
ENDBRANCH  36  61
ENDBRANCH  10  11
ENDBRANCH   3   5
ENDBRANCH   2   3
ENDBRANCH   1   2
BRANCH   1  73
ATOM     73  C   UNL A   1      33.620  29.259  25.164  1.00  0.00     0.274 C 
BRANCH  73  74
ATOM     74  O   UNL A   1      32.915  29.413  23.924  1.00  0.00    -0.462 OA
BRANCH  74  75
ATOM     75  C   UNL A   1      33.098  28.469  22.953  1.00  0.00     0.313 C 
ATOM     76  O   UNL A   1      34.100  28.382  22.253  1.00  0.00    -0.252 OA
BRANCH  75  77
ATOM     77  C   UNL A   1      31.878  27.533  22.876  1.00  0.00     0.131 C 
BRANCH  77  78
ATOM     78  C   UNL A   1      32.289  26.069  23.161  1.00  0.00    -0.020 A 
ATOM     79  C   UNL A   1      32.737  25.327  22.034  1.00  0.00     0.006 A 
ATOM     80  C   UNL A   1      32.235  25.361  24.377  1.00  0.00     0.022 A 
ATOM     81  C   UNL A   1      33.062  23.968  22.091  1.00  0.00     0.000 A 
ATOM     82  C   UNL A   1      32.515  23.981  24.418  1.00  0.00     0.016 A 
ATOM     83  Br  UNL A   1      31.862  26.105  26.087  1.00  0.00    -0.051 Br
ATOM     84  C   UNL A   1      32.924  23.286  23.285  1.00  0.00     0.001 A 
ENDBRANCH  77  78
BRANCH  77  85
ATOM     85  C   UNL A   1      30.684  28.127  23.666  1.00  0.00     0.026 C 
BRANCH  85  86
ATOM     86  C   UNL A   1      29.352  28.304  22.904  1.00  0.00     0.057 C 
BRANCH  86  87
ATOM     87  C   UNL A   1      28.869  29.704  22.582  1.00  0.00     0.040 A 
ATOM     88  C   UNL A   1      28.392  30.600  23.535  1.00  0.00     0.024 A 
ATOM     89  N   UNL A   1      28.994  30.074  21.281  1.00  0.00    -0.261 NA
ATOM     90  C   UNL A   1      27.956  31.864  23.131  1.00  0.00     0.003 A 
ATOM     91  C   UNL A   1      28.556  31.301  20.911  1.00  0.00     0.111 A 
ATOM     92  C   UNL A   1      28.020  32.218  21.791  1.00  0.00     0.020 A 
ENDBRANCH  86  87
ENDBRANCH  85  86
ENDBRANCH  77  85
ENDBRANCH  75  77
ENDBRANCH  74  75
ENDBRANCH  73  74
ENDBRANCH   1  73
TORSDOF 18
ENDMDL
MODEL 2
REMARK VINA RESULT:     -11.1      1.620      3.666
REMARK SMILES O=C(OCCOC(=O)[C@H](CCc1ccccn1)c1ccccc1Br)c1ccc(-c2c3nc(c(-c4c(F)cc(S(=O)(=O)[O-])cc4F)c4ccc([nH]4)c(-c4c(F)cc(S(=O)(=O)[O-])cc4F)c4nc(c(-c5c(F)cc(S(=O)(=O)[O-])cc5F)c5ccc2[nH]5)C=C4)C=C3)cc1
REMARK SMILES IDX 4 1 3 2 2 3 1 4 25 5 26 6 90 7 27 8 89 9 28 10 29 11 30 12
REMARK SMILES IDX 83 13 31 14 88 15 82 16 84 17 32 18 87 19 81 20 80 21 33 23
REMARK SMILES IDX 67 24 46 25 66 26 47 27 50 28 65 29 85 30 48 31 49 32 64 34
REMARK SMILES IDX 86 35 51 36 34 37 35 38 44 39 36 40 37 41 43 42 45 43 38 44
REMARK SMILES IDX 39 45 40 46 41 47 42 48 68 49 69 50 78 51 70 52 71 53 77 54
REMARK SMILES IDX 79 55 72 56 73 57 74 58 75 59 76 60 52 61 53 62 62 63 54 64
REMARK SMILES IDX 55 65 61 66 63 67 56 68 57 69 58 70 59 71 60 72 5 73 6 74
REMARK SMILES IDX 7 75 8 76 9 77 18 78 19 79 23 80 20 81 22 82 24 83 21 84
REMARK SMILES IDX 10 85 11 86 12 87 13 88 17 89 14 90 16 91 15 92
REMARK H PARENT 84 22 50 33
REMARK Flexibility Score: inf
ROOT
ATOM      1  C   UNL A   1      33.543  28.587  27.003  1.00  0.00     0.275 C 
ENDROOT
BRANCH   1   2
ATOM      2  O   UNL A   1      33.896  29.965  27.205  1.00  0.00    -0.458 OA
BRANCH   2   3
ATOM      3  C   UNL A   1      34.744  30.513  28.107  1.00  0.00     0.338 C 
ATOM      4  O   UNL A   1      34.412  31.570  28.642  1.00  0.00    -0.246 OA
BRANCH   3   5
ATOM      5  C   UNL A   1      36.121  29.989  28.391  1.00  0.00     0.060 A 
ATOM      6  C   UNL A   1      36.599  29.491  29.603  1.00  0.00     0.016 A 
ATOM      7  C   UNL A   1      37.032  30.054  27.323  1.00  0.00     0.016 A 
ATOM      8  C   UNL A   1      37.918  29.024  29.720  1.00  0.00     0.010 A 
ATOM      9  C   UNL A   1      38.344  29.568  27.421  1.00  0.00     0.010 A 
ATOM     10  C   UNL A   1      38.803  29.066  28.635  1.00  0.00    -0.014 A 
BRANCH  10  11
ATOM     11  C   UNL A   1      40.246  28.841  28.895  1.00  0.00     0.031 A 
ATOM     12  C   UNL A   1      40.829  27.541  28.438  1.00  0.00     0.074 A 
ATOM     13  C   UNL A   1      41.036  29.797  29.418  1.00  0.00     0.049 A 
ATOM     14  N   UNL A   1      42.080  27.196  28.315  1.00  0.00    -0.248 NA
ATOM     15  C   UNL A   1      39.868  26.481  28.094  1.00  0.00     0.031 C 
ATOM     16  C   UNL A   1      40.561  31.041  30.001  1.00  0.00     0.029 A 
ATOM     17  N   UNL A   1      42.404  29.897  29.503  1.00  0.00    -0.354 N 
ATOM     18  C   UNL A   1      42.058  25.873  27.898  1.00  0.00     0.074 A 
ATOM     19  C   UNL A   1      40.672  25.473  27.805  1.00  0.00     0.031 C 
ATOM     20  C   UNL A   1      41.611  31.840  30.263  1.00  0.00     0.029 A 
ATOM     21  C   UNL A   1      42.839  31.145  29.899  1.00  0.00     0.049 A 
ATOM     22  H   UNL A   1      43.015  29.151  29.300  1.00  0.00     0.167 HD
ATOM     23  C   UNL A   1      43.104  25.059  27.633  1.00  0.00     0.037 A 
ATOM     24  C   UNL A   1      44.084  31.667  29.930  1.00  0.00     0.037 A 
ATOM     25  C   UNL A   1      44.476  25.463  27.770  1.00  0.00     0.049 A 
ATOM     26  C   UNL A   1      45.235  30.769  29.549  1.00  0.00     0.074 A 
ATOM     27  C   UNL A   1      45.620  24.717  27.566  1.00  0.00     0.029 A 
ATOM     28  N   UNL A   1      44.884  26.730  28.164  1.00  0.00    -0.354 N 
ATOM     29  N   UNL A   1      45.202  29.530  29.113  1.00  0.00    -0.248 NA
ATOM     30  C   UNL A   1      46.589  31.322  29.688  1.00  0.00     0.031 C 
ATOM     31  C   UNL A   1      46.721  25.521  27.880  1.00  0.00     0.029 A 
ATOM     32  C   UNL A   1      46.265  26.786  28.218  1.00  0.00     0.049 A 
ATOM     33  H   UNL A   1      44.280  27.479  28.373  1.00  0.00     0.167 HD
ATOM     34  C   UNL A   1      46.529  29.156  28.932  1.00  0.00     0.074 A 
ATOM     35  C   UNL A   1      47.336  30.314  29.262  1.00  0.00     0.031 C 
ATOM     36  C   UNL A   1      47.037  27.958  28.548  1.00  0.00     0.037 A 
BRANCH  23  37
ATOM     37  C   UNL A   1      42.776  23.647  27.248  1.00  0.00     0.058 A 
ATOM     38  C   UNL A   1      42.463  22.670  28.209  1.00  0.00     0.135 A 
ATOM     39  C   UNL A   1      42.845  23.249  25.905  1.00  0.00     0.135 A 
ATOM     40  F   UNL A   1      42.423  22.991  29.512  1.00  0.00    -0.206 F 
ATOM     41  C   UNL A   1      42.268  21.340  27.853  1.00  0.00     0.059 A 
ATOM     42  C   UNL A   1      42.626  21.931  25.523  1.00  0.00     0.059 A 
ATOM     43  F   UNL A   1      43.160  24.139  24.951  1.00  0.00    -0.206 F 
ATOM     44  C   UNL A   1      42.358  20.980  26.507  1.00  0.00     0.060 A 
BRANCH  44  45
ATOM     45  S   UNL A   1      42.131  19.246  26.061  1.00  0.00     0.124 S 
ATOM     46  O   UNL A   1      43.010  19.128  24.901  1.00  0.00    -0.237 OA
ATOM     47  O   UNL A   1      42.576  18.554  27.266  1.00  0.00    -0.237 OA
ATOM     48  O   UNL A   1      40.703  19.153  25.778  1.00  0.00    -0.744 OA
ENDBRANCH  44  45
ENDBRANCH  23  37
BRANCH  24  49
ATOM     49  C   UNL A   1      44.322  33.099  30.290  1.00  0.00     0.058 A 
ATOM     50  C   UNL A   1      44.269  34.106  29.310  1.00  0.00     0.135 A 
ATOM     51  C   UNL A   1      44.632  33.497  31.600  1.00  0.00     0.135 A 
ATOM     52  F   UNL A   1      43.985  33.790  28.038  1.00  0.00    -0.206 F 
ATOM     53  C   UNL A   1      44.536  35.442  29.608  1.00  0.00     0.059 A 
ATOM     54  C   UNL A   1      44.871  34.829  31.929  1.00  0.00     0.059 A 
ATOM     55  F   UNL A   1      44.692  32.585  32.583  1.00  0.00    -0.206 F 
ATOM     56  C   UNL A   1      44.836  35.794  30.923  1.00  0.00     0.060 A 
BRANCH  56  57
ATOM     57  S   UNL A   1      45.138  37.533  31.314  1.00  0.00     0.124 S 
ATOM     58  O   UNL A   1      43.782  38.029  31.518  1.00  0.00    -0.237 OA
ATOM     59  O   UNL A   1      45.970  37.438  32.510  1.00  0.00    -0.237 OA
ATOM     60  O   UNL A   1      45.822  38.028  30.124  1.00  0.00    -0.744 OA
ENDBRANCH  56  57
ENDBRANCH  24  49
BRANCH  36  61
ATOM     61  C   UNL A   1      48.532  27.847  28.443  1.00  0.00     0.058 A 
ATOM     62  C   UNL A   1      49.213  28.159  27.256  1.00  0.00     0.135 A 
ATOM     63  C   UNL A   1      49.292  27.483  29.565  1.00  0.00     0.135 A 
ATOM     64  F   UNL A   1      48.530  28.511  26.155  1.00  0.00    -0.206 F 
ATOM     65  C   UNL A   1      50.599  28.084  27.177  1.00  0.00     0.059 A 
ATOM     66  C   UNL A   1      50.681  27.430  29.516  1.00  0.00     0.059 A 
ATOM     67  F   UNL A   1      48.688  27.190  30.727  1.00  0.00    -0.206 F 
ATOM     68  C   UNL A   1      51.324  27.719  28.313  1.00  0.00     0.060 A 
BRANCH  68  69
ATOM     69  S   UNL A   1      53.124  27.650  28.207  1.00  0.00     0.124 S 
ATOM     70  O   UNL A   1      53.398  26.327  28.759  1.00  0.00    -0.237 OA
ATOM     71  O   UNL A   1      53.359  27.801  26.775  1.00  0.00    -0.237 OA
ATOM     72  O   UNL A   1      53.556  28.776  29.030  1.00  0.00    -0.744 OA
ENDBRANCH  68  69
ENDBRANCH  36  61
ENDBRANCH  10  11
ENDBRANCH   3   5
ENDBRANCH   2   3
ENDBRANCH   1   2
BRANCH   1  73
ATOM     73  C   UNL A   1      32.153  28.246  27.527  1.00  0.00     0.274 C 
BRANCH  73  74
ATOM     74  O   UNL A   1      31.298  27.784  26.473  1.00  0.00    -0.462 OA
BRANCH  74  75
ATOM     75  C   UNL A   1      31.360  26.466  26.118  1.00  0.00     0.313 C 
ATOM     76  O   UNL A   1      31.178  25.533  26.892  1.00  0.00    -0.252 OA
BRANCH  75  77
ATOM     77  C   UNL A   1      31.680  26.325  24.619  1.00  0.00     0.131 C 
BRANCH  77  78
ATOM     78  C   UNL A   1      30.973  27.430  23.800  1.00  0.00    -0.020 A 
ATOM     79  C   UNL A   1      29.553  27.354  23.763  1.00  0.00     0.006 A 
ATOM     80  C   UNL A   1      31.549  28.474  23.049  1.00  0.00     0.022 A 
ATOM     81  C   UNL A   1      28.760  28.215  23.000  1.00  0.00     0.000 A 
ATOM     82  C   UNL A   1      30.747  29.306  22.243  1.00  0.00     0.016 A 
ATOM     83  Br  UNL A   1      33.387  28.959  23.039  1.00  0.00    -0.051 Br
ATOM     84  C   UNL A   1      29.362  29.179  22.214  1.00  0.00     0.001 A 
ENDBRANCH  77  78
BRANCH  77  85
ATOM     85  C   UNL A   1      33.200  26.111  24.404  1.00  0.00     0.026 C 
BRANCH  85  86
ATOM     86  C   UNL A   1      33.940  25.225  25.430  1.00  0.00     0.057 C 
BRANCH  86  87
ATOM     87  C   UNL A   1      34.998  24.257  24.939  1.00  0.00     0.040 A 
ATOM     88  C   UNL A   1      36.043  23.782  25.726  1.00  0.00     0.024 A 
ATOM     89  N   UNL A   1      34.827  23.811  23.667  1.00  0.00    -0.261 NA
ATOM     90  C   UNL A   1      36.975  22.903  25.170  1.00  0.00     0.003 A 
ATOM     91  C   UNL A   1      35.747  22.966  23.147  1.00  0.00     0.111 A 
ATOM     92  C   UNL A   1      36.839  22.499  23.850  1.00  0.00     0.020 A 
ENDBRANCH  86  87
ENDBRANCH  85  86
ENDBRANCH  77  85
ENDBRANCH  75  77
ENDBRANCH  74  75
ENDBRANCH  73  74
ENDBRANCH   1  73
TORSDOF 18
ENDMDL
MODEL 3
REMARK VINA RESULT:     -11.1      4.000      9.591
REMARK SMILES O=C(OCCOC(=O)[C@H](CCc1ccccn1)c1ccccc1Br)c1ccc(-c2c3nc(c(-c4c(F)cc(S(=O)(=O)[O-])cc4F)c4ccc([nH]4)c(-c4c(F)cc(S(=O)(=O)[O-])cc4F)c4nc(c(-c5c(F)cc(S(=O)(=O)[O-])cc5F)c5ccc2[nH]5)C=C4)C=C3)cc1
REMARK SMILES IDX 4 1 3 2 2 3 1 4 25 5 26 6 90 7 27 8 89 9 28 10 29 11 30 12
REMARK SMILES IDX 83 13 31 14 88 15 82 16 84 17 32 18 87 19 81 20 80 21 33 23
REMARK SMILES IDX 67 24 46 25 66 26 47 27 50 28 65 29 85 30 48 31 49 32 64 34
REMARK SMILES IDX 86 35 51 36 34 37 35 38 44 39 36 40 37 41 43 42 45 43 38 44
REMARK SMILES IDX 39 45 40 46 41 47 42 48 68 49 69 50 78 51 70 52 71 53 77 54
REMARK SMILES IDX 79 55 72 56 73 57 74 58 75 59 76 60 52 61 53 62 62 63 54 64
REMARK SMILES IDX 55 65 61 66 63 67 56 68 57 69 58 70 59 71 60 72 5 73 6 74
REMARK SMILES IDX 7 75 8 76 9 77 18 78 19 79 23 80 20 81 22 82 24 83 21 84
REMARK SMILES IDX 10 85 11 86 12 87 13 88 17 89 14 90 16 91 15 92
REMARK H PARENT 84 22 50 33
REMARK Flexibility Score: inf
ROOT
ATOM      1  C   UNL A   1      37.091  21.571  25.088  1.00  0.00     0.275 C 
ENDROOT
BRANCH   1   2
ATOM      2  O   UNL A   1      37.971  22.694  25.250  1.00  0.00    -0.458 OA
BRANCH   2   3
ATOM      3  C   UNL A   1      39.019  22.853  26.092  1.00  0.00     0.338 C 
ATOM      4  O   UNL A   1      39.632  21.847  26.446  1.00  0.00    -0.246 OA
BRANCH   3   5
ATOM      5  C   UNL A   1      39.391  24.159  26.731  1.00  0.00     0.060 A 
ATOM      6  C   UNL A   1      40.189  25.165  26.186  1.00  0.00     0.016 A 
ATOM      7  C   UNL A   1      38.915  24.359  28.038  1.00  0.00     0.016 A 
ATOM      8  C   UNL A   1      40.449  26.345  26.901  1.00  0.00     0.010 A 
ATOM      9  C   UNL A   1      39.146  25.543  28.751  1.00  0.00     0.010 A 
ATOM     10  C   UNL A   1      39.937  26.542  28.190  1.00  0.00    -0.014 A 
BRANCH  10  11
ATOM     11  C   UNL A   1      40.482  27.658  29.000  1.00  0.00     0.031 A 
ATOM     12  C   UNL A   1      39.571  28.814  29.271  1.00  0.00     0.074 A 
ATOM     13  C   UNL A   1      41.700  27.603  29.568  1.00  0.00     0.049 A 
ATOM     14  N   UNL A   1      39.699  29.781  30.137  1.00  0.00    -0.248 NA
ATOM     15  C   UNL A   1      38.361  28.900  28.437  1.00  0.00     0.031 C 
ATOM     16  C   UNL A   1      42.707  26.594  29.280  1.00  0.00     0.029 A 
ATOM     17  N   UNL A   1      42.286  28.382  30.537  1.00  0.00    -0.354 N 
ATOM     18  C   UNL A   1      38.598  30.601  29.938  1.00  0.00     0.074 A 
ATOM     19  C   UNL A   1      37.821  30.028  28.862  1.00  0.00     0.031 C 
ATOM     20  C   UNL A   1      43.730  26.727  30.141  1.00  0.00     0.029 A 
ATOM     21  C   UNL A   1      43.467  27.859  31.021  1.00  0.00     0.049 A 
ATOM     22  H   UNL A   1      41.900  29.230  30.856  1.00  0.00     0.167 HD
ATOM     23  C   UNL A   1      38.274  31.742  30.587  1.00  0.00     0.037 A 
ATOM     24  C   UNL A   1      44.225  28.237  32.073  1.00  0.00     0.037 A 
ATOM     25  C   UNL A   1      39.080  32.317  31.627  1.00  0.00     0.049 A 
ATOM     26  C   UNL A   1      43.801  29.465  32.841  1.00  0.00     0.074 A 
ATOM     27  C   UNL A   1      38.874  33.487  32.332  1.00  0.00     0.029 A 
ATOM     28  N   UNL A   1      40.262  31.763  32.100  1.00  0.00    -0.354 N 
ATOM     29  N   UNL A   1      42.733  30.212  32.674  1.00  0.00    -0.248 NA
ATOM     30  C   UNL A   1      44.692  29.921  33.916  1.00  0.00     0.031 C 
ATOM     31  C   UNL A   1      39.956  33.663  33.202  1.00  0.00     0.029 A 
ATOM     32  C   UNL A   1      40.803  32.572  33.083  1.00  0.00     0.049 A 
ATOM     33  H   UNL A   1      40.657  30.918  31.783  1.00  0.00     0.167 HD
ATOM     34  C   UNL A   1      42.828  31.226  33.620  1.00  0.00     0.074 A 
ATOM     35  C   UNL A   1      44.033  30.972  34.383  1.00  0.00     0.031 C 
ATOM     36  C   UNL A   1      42.006  32.286  33.826  1.00  0.00     0.037 A 
BRANCH  23  37
ATOM     37  C   UNL A   1      37.039  32.454  30.119  1.00  0.00     0.058 A 
ATOM     38  C   UNL A   1      37.090  33.465  29.146  1.00  0.00     0.135 A 
ATOM     39  C   UNL A   1      35.796  32.167  30.704  1.00  0.00     0.135 A 
ATOM     40  F   UNL A   1      38.261  33.805  28.584  1.00  0.00    -0.206 F 
ATOM     41  C   UNL A   1      35.958  34.194  28.798  1.00  0.00     0.059 A 
ATOM     42  C   UNL A   1      34.647  32.863  30.352  1.00  0.00     0.059 A 
ATOM     43  F   UNL A   1      35.698  31.222  31.653  1.00  0.00    -0.206 F 
ATOM     44  C   UNL A   1      34.742  33.889  29.412  1.00  0.00     0.060 A 
BRANCH  44  45
ATOM     45  S   UNL A   1      33.286  34.860  28.973  1.00  0.00     0.124 S 
ATOM     46  O   UNL A   1      32.617  34.980  30.265  1.00  0.00    -0.237 OA
ATOM     47  O   UNL A   1      33.877  36.088  28.450  1.00  0.00    -0.237 OA
ATOM     48  O   UNL A   1      32.605  34.026  27.989  1.00  0.00    -0.744 OA
ENDBRANCH  44  45
ENDBRANCH  23  37
BRANCH  24  49
ATOM     49  C   UNL A   1      45.422  27.449  32.498  1.00  0.00     0.058 A 
ATOM     50  C   UNL A   1      46.697  27.741  31.982  1.00  0.00     0.135 A 
ATOM     51  C   UNL A   1      45.328  26.376  33.398  1.00  0.00     0.135 A 
ATOM     52  F   UNL A   1      46.853  28.750  31.111  1.00  0.00    -0.206 F 
ATOM     53  C   UNL A   1      47.822  26.992  32.321  1.00  0.00     0.059 A 
ATOM     54  C   UNL A   1      46.442  25.632  33.778  1.00  0.00     0.059 A 
ATOM     55  F   UNL A   1      44.140  26.049  33.931  1.00  0.00    -0.206 F 
ATOM     56  C   UNL A   1      47.684  25.937  33.223  1.00  0.00     0.060 A 
BRANCH  56  57
ATOM     57  S   UNL A   1      49.152  24.994  33.696  1.00  0.00     0.124 S 
ATOM     58  O   UNL A   1      49.830  25.929  34.586  1.00  0.00    -0.237 OA
ATOM     59  O   UNL A   1      48.569  23.816  34.330  1.00  0.00    -0.237 OA
ATOM     60  O   UNL A   1      49.813  24.745  32.418  1.00  0.00    -0.744 OA
ENDBRANCH  56  57
ENDBRANCH  24  49
BRANCH  36  61
ATOM     61  C   UNL A   1      42.370  33.234  34.933  1.00  0.00     0.058 A 
ATOM     62  C   UNL A   1      41.908  33.048  36.246  1.00  0.00     0.135 A 
ATOM     63  C   UNL A   1      43.242  34.305  34.685  1.00  0.00     0.135 A 
ATOM     64  F   UNL A   1      41.072  32.038  36.533  1.00  0.00    -0.206 F 
ATOM     65  C   UNL A   1      42.276  33.913  37.270  1.00  0.00     0.059 A 
ATOM     66  C   UNL A   1      43.646  35.164  35.701  1.00  0.00     0.059 A 
ATOM     67  F   UNL A   1      43.722  34.515  33.449  1.00  0.00    -0.206 F 
ATOM     68  C   UNL A   1      43.146  34.967  36.987  1.00  0.00     0.060 A 
BRANCH  68  69
ATOM     69  S   UNL A   1      43.637  36.068  38.330  1.00  0.00     0.124 S 
ATOM     70  O   UNL A   1      42.508  36.992  38.378  1.00  0.00    -0.237 OA
ATOM     71  O   UNL A   1      43.756  35.152  39.459  1.00  0.00    -0.237 OA
ATOM     72  O   UNL A   1      44.896  36.638  37.857  1.00  0.00    -0.744 OA
ENDBRANCH  68  69
ENDBRANCH  36  61
ENDBRANCH  10  11
ENDBRANCH   3   5
ENDBRANCH   2   3
ENDBRANCH   1   2
BRANCH   1  73
ATOM     73  C   UNL A   1      35.719  21.962  24.552  1.00  0.00     0.274 C 
BRANCH  73  74
ATOM     74  O   UNL A   1      35.457  23.357  24.759  1.00  0.00    -0.462 OA
BRANCH  74  75
ATOM     75  C   UNL A   1      34.400  23.707  25.552  1.00  0.00     0.313 C 
ATOM     76  O   UNL A   1      34.291  23.399  26.733  1.00  0.00    -0.252 OA
BRANCH  75  77
ATOM     77  C   UNL A   1      33.383  24.545  24.756  1.00  0.00     0.131 C 
BRANCH  77  78
ATOM     78  C   UNL A   1      33.009  25.833  25.526  1.00  0.00    -0.020 A 
ATOM     79  C   UNL A   1      34.081  26.733  25.774  1.00  0.00     0.006 A 
ATOM     80  C   UNL A   1      31.759  26.211  26.053  1.00  0.00     0.022 A 
ATOM     81  C   UNL A   1      33.942  27.900  26.531  1.00  0.00     0.000 A 
ATOM     82  C   UNL A   1      31.637  27.362  26.857  1.00  0.00     0.016 A 
ATOM     83  Br  UNL A   1      30.103  25.331  25.741  1.00  0.00    -0.051 Br
ATOM     84  C   UNL A   1      32.719  28.202  27.098  1.00  0.00     0.001 A 
ENDBRANCH  77  78
BRANCH  77  85
ATOM     85  C   UNL A   1      33.825  24.677  23.277  1.00  0.00     0.026 C 
BRANCH  85  86
ATOM     86  C   UNL A   1      32.774  25.193  22.270  1.00  0.00     0.057 C 
BRANCH  86  87
ATOM     87  C   UNL A   1      32.255  26.610  22.409  1.00  0.00     0.040 A 
ATOM     88  C   UNL A   1      33.074  27.732  22.503  1.00  0.00     0.024 A 
ATOM     89  N   UNL A   1      30.904  26.738  22.368  1.00  0.00    -0.261 NA
ATOM     90  C   UNL A   1      32.494  28.995  22.645  1.00  0.00     0.003 A 
ATOM     91  C   UNL A   1      30.363  27.971  22.515  1.00  0.00     0.111 A 
ATOM     92  C   UNL A   1      31.113  29.119  22.671  1.00  0.00     0.020 A 
ENDBRANCH  86  87
ENDBRANCH  85  86
ENDBRANCH  77  85
ENDBRANCH  75  77
ENDBRANCH  74  75
ENDBRANCH  73  74
ENDBRANCH   1  73
TORSDOF 18
ENDMDL
