MODEL 1
REMARK VINA RESULT:     -12.4      0.000      0.000
REMARK SMILES C/C(=N\NC(N)=O)c1nnn(-c2ccc(C(=O)OCCOC(=O)c3ccc(-c4c5nc(c(-c6c(F)cc(S(=O)(=O)[O-])cc6F)c6ccc([nH]6)c(-c6c(F)cc(S(=O)(=O)[O-])cc6F)c6nc(c(-c7c(F)cc(S(=O)(=O)[O-])cc7F)c7ccc4[nH]7)C=C6)C=C5)cc3)cc2)c1C
REMARK SMILES IDX 19 1 18 2 16 3 17 4 15 5 12 6 13 7 91 8 14 9 90 10 11 11
REMARK SMILES IDX 8 12 9 13 92 14 10 15 93 16 2 17 1 18 3 19 4 20 5 21 6 23
REMARK SMILES IDX 7 24 20 27 21 28 22 29 23 30 24 31 25 32 89 33 26 34 88 35
REMARK SMILES IDX 27 36 28 37 29 38 82 39 30 40 87 41 81 42 83 43 31 44 86 45
REMARK SMILES IDX 80 46 79 47 32 49 66 50 45 51 65 52 46 53 49 54 64 55 84 56
REMARK SMILES IDX 47 57 48 58 63 60 85 61 50 62 33 63 34 64 43 65 35 66 36 67
REMARK SMILES IDX 42 68 44 69 37 70 38 71 39 72 40 73 41 74 67 75 68 76 77 77
REMARK SMILES IDX 69 78 70 79 76 80 78 81 71 82 72 83 73 84 74 85 75 86 51 87
REMARK SMILES IDX 52 88 61 89 53 90 54 91 60 92 62 93 55 94 56 95 57 96 58 97
REMARK SMILES IDX 59 98
REMARK H PARENT 4 22 6 25 6 26 83 48 49 59
REMARK Flexibility Score: inf
ROOT
ATOM      1  C   UNL A   1      41.178  19.580  26.206  1.00  0.00     0.275 C 
ENDROOT
BRANCH   1   2
ATOM      2  O   UNL A   1      40.673  20.817  25.682  1.00  0.00    -0.458 OA
BRANCH   2   3
ATOM      3  C   UNL A   1      40.112  21.656  26.586  1.00  0.00     0.338 C 
ATOM      4  O   UNL A   1      40.628  22.062  27.620  1.00  0.00    -0.246 OA
BRANCH   3   5
ATOM      5  C   UNL A   1      38.762  22.065  26.133  1.00  0.00     0.060 A 
ATOM      6  C   UNL A   1      36.354  22.810  24.971  1.00  0.00     0.067 A 
ATOM      7  C   UNL A   1      36.660  21.451  25.080  1.00  0.00     0.029 A 
ATOM      8  C   UNL A   1      37.168  23.782  25.563  1.00  0.00     0.029 A 
ATOM      9  C   UNL A   1      37.884  21.083  25.642  1.00  0.00     0.018 A 
ATOM     10  C   UNL A   1      38.370  23.408  26.151  1.00  0.00     0.018 A 
BRANCH   6  11
ATOM     11  N   UNL A   1      35.335  23.218  24.087  1.00  0.00    -0.217 N 
ATOM     12  C   UNL A   1      33.703  24.339  23.178  1.00  0.00     0.132 A 
ATOM     13  N   UNL A   1      34.411  23.716  22.187  1.00  0.00    -0.128 NA
ATOM     14  C   UNL A   1      34.270  24.049  24.404  1.00  0.00     0.071 A 
ATOM     15  N   UNL A   1      35.444  23.099  22.745  1.00  0.00    -0.061 NA
ATOM     16  C   UNL A   1      34.019  24.646  25.740  1.00  0.00     0.069 C 
BRANCH  12  17
ATOM     17  C   UNL A   1      32.706  25.359  22.912  1.00  0.00     0.087 C 
ATOM     18  C   UNL A   1      31.278  24.935  23.134  1.00  0.00     0.071 C 
ATOM     19  N   UNL A   1      33.165  26.510  22.522  1.00  0.00    -0.174 NA
BRANCH  19  20
ATOM     20  N   UNL A   1      32.351  27.554  22.182  1.00  0.00    -0.229 N 
ATOM     21  C   UNL A   1      32.470  28.869  22.577  1.00  0.00     0.332 C 
ATOM     22  H   UNL A   1      31.596  27.345  21.587  1.00  0.00     0.195 HD
ATOM     23  N   UNL A   1      31.483  29.656  22.062  1.00  0.00    -0.350 N 
ATOM     24  O   UNL A   1      33.330  29.362  23.293  1.00  0.00    -0.247 OA
ATOM     25  H   UNL A   1      30.789  29.261  21.486  1.00  0.00     0.161 HD
ATOM     26  H   UNL A   1      31.464  30.619  22.266  1.00  0.00     0.161 HD
ENDBRANCH  19  20
ENDBRANCH  12  17
ENDBRANCH   6  11
ENDBRANCH   3   5
ENDBRANCH   2   3
ENDBRANCH   1   2
BRANCH   1  27
ATOM     27  C   UNL A   1      42.691  19.512  26.066  1.00  0.00     0.275 C 
BRANCH  27  28
ATOM     28  O   UNL A   1      43.161  20.273  24.954  1.00  0.00    -0.458 OA
BRANCH  28  29
ATOM     29  C   UNL A   1      44.413  20.766  25.098  1.00  0.00     0.338 C 
ATOM     30  O   UNL A   1      45.458  20.137  25.090  1.00  0.00    -0.246 OA
BRANCH  29  31
ATOM     31  C   UNL A   1      44.332  22.161  25.537  1.00  0.00     0.060 A 
ATOM     32  C   UNL A   1      45.104  22.541  26.637  1.00  0.00     0.016 A 
ATOM     33  C   UNL A   1      43.322  22.989  25.023  1.00  0.00     0.016 A 
ATOM     34  C   UNL A   1      44.780  23.711  27.296  1.00  0.00     0.010 A 
ATOM     35  C   UNL A   1      42.991  24.148  25.689  1.00  0.00     0.010 A 
ATOM     36  C   UNL A   1      43.692  24.475  26.847  1.00  0.00    -0.014 A 
BRANCH  36  37
ATOM     37  C   UNL A   1      43.466  25.768  27.471  1.00  0.00     0.031 A 
ATOM     38  C   UNL A   1      44.551  26.713  27.121  1.00  0.00     0.074 A 
ATOM     39  C   UNL A   1      42.349  26.097  28.150  1.00  0.00     0.049 A 
ATOM     40  N   UNL A   1      45.501  27.127  27.892  1.00  0.00    -0.248 NA
ATOM     41  C   UNL A   1      44.759  27.044  25.698  1.00  0.00     0.031 C 
ATOM     42  C   UNL A   1      41.131  25.292  28.281  1.00  0.00     0.029 A 
ATOM     43  N   UNL A   1      42.011  27.261  28.781  1.00  0.00    -0.354 N 
ATOM     44  C   UNL A   1      46.220  28.033  27.119  1.00  0.00     0.074 A 
ATOM     45  C   UNL A   1      45.902  27.731  25.752  1.00  0.00     0.031 C 
ATOM     46  C   UNL A   1      40.125  26.074  28.733  1.00  0.00     0.029 A 
ATOM     47  C   UNL A   1      40.650  27.392  29.045  1.00  0.00     0.049 A 
ATOM     48  H   UNL A   1      42.674  27.947  29.028  1.00  0.00     0.167 HD
ATOM     49  C   UNL A   1      46.660  29.186  27.690  1.00  0.00     0.037 A 
ATOM     50  C   UNL A   1      39.998  28.516  29.447  1.00  0.00     0.037 A 
ATOM     51  C   UNL A   1      46.652  29.061  29.129  1.00  0.00     0.049 A 
ATOM     52  C   UNL A   1      41.006  29.404  30.078  1.00  0.00     0.074 A 
ATOM     53  C   UNL A   1      47.334  28.336  30.082  1.00  0.00     0.029 A 
ATOM     54  N   UNL A   1      45.485  29.491  29.700  1.00  0.00    -0.354 N 
ATOM     55  N   UNL A   1      41.615  29.116  31.195  1.00  0.00    -0.248 NA
ATOM     56  C   UNL A   1      41.626  30.461  29.286  1.00  0.00     0.031 C 
ATOM     57  C   UNL A   1      46.449  28.217  31.196  1.00  0.00     0.029 A 
ATOM     58  C   UNL A   1      45.276  28.916  30.919  1.00  0.00     0.049 A 
ATOM     59  H   UNL A   1      44.871  30.136  29.281  1.00  0.00     0.167 HD
ATOM     60  C   UNL A   1      42.894  29.608  31.024  1.00  0.00     0.074 A 
ATOM     61  C   UNL A   1      42.788  30.572  29.936  1.00  0.00     0.031 C 
ATOM     62  C   UNL A   1      43.966  28.939  31.539  1.00  0.00     0.037 A 
BRANCH  49  63
ATOM     63  C   UNL A   1      46.517  30.559  27.039  1.00  0.00     0.058 A 
ATOM     64  C   UNL A   1      47.640  31.415  27.026  1.00  0.00     0.135 A 
ATOM     65  C   UNL A   1      45.285  31.187  26.741  1.00  0.00     0.135 A 
ATOM     66  F   UNL A   1      48.865  30.937  27.300  1.00  0.00    -0.206 F 
ATOM     67  C   UNL A   1      47.535  32.792  26.816  1.00  0.00     0.059 A 
ATOM     68  C   UNL A   1      45.165  32.547  26.485  1.00  0.00     0.059 A 
ATOM     69  F   UNL A   1      44.112  30.545  26.767  1.00  0.00    -0.206 F 
ATOM     70  C   UNL A   1      46.287  33.349  26.559  1.00  0.00     0.060 A 
BRANCH  70  71
ATOM     71  S   UNL A   1      46.130  35.129  26.343  1.00  0.00     0.124 S 
ATOM     72  O   UNL A   1      47.214  35.405  25.408  1.00  0.00    -0.237 OA
ATOM     73  O   UNL A   1      44.777  35.246  25.811  1.00  0.00    -0.237 OA
ATOM     74  O   UNL A   1      46.312  35.646  27.696  1.00  0.00    -0.744 OA
ENDBRANCH  70  71
ENDBRANCH  49  63
BRANCH  50  75
ATOM     75  C   UNL A   1      38.630  28.997  29.096  1.00  0.00     0.058 A 
ATOM     76  C   UNL A   1      37.667  29.253  30.093  1.00  0.00     0.135 A 
ATOM     77  C   UNL A   1      38.332  29.497  27.813  1.00  0.00     0.135 A 
ATOM     78  F   UNL A   1      37.861  28.821  31.349  1.00  0.00    -0.206 F 
ATOM     79  C   UNL A   1      36.522  30.024  29.851  1.00  0.00     0.059 A 
ATOM     80  C   UNL A   1      37.192  30.256  27.547  1.00  0.00     0.059 A 
ATOM     81  F   UNL A   1      39.188  29.343  26.794  1.00  0.00    -0.206 F 
ATOM     82  C   UNL A   1      36.307  30.545  28.578  1.00  0.00     0.060 A 
BRANCH  82  83
ATOM     83  S   UNL A   1      34.944  31.703  28.300  1.00  0.00     0.124 S 
ATOM     84  O   UNL A   1      35.604  32.780  27.571  1.00  0.00    -0.237 OA
ATOM     85  O   UNL A   1      34.003  30.896  27.529  1.00  0.00    -0.237 OA
ATOM     86  O   UNL A   1      34.506  32.042  29.651  1.00  0.00    -0.744 OA
ENDBRANCH  82  83
ENDBRANCH  50  75
BRANCH  62  87
ATOM     87  C   UNL A   1      43.742  28.093  32.756  1.00  0.00     0.058 A 
ATOM     88  C   UNL A   1      43.665  26.691  32.776  1.00  0.00     0.135 A 
ATOM     89  C   UNL A   1      43.652  28.761  33.987  1.00  0.00     0.135 A 
ATOM     90  F   UNL A   1      43.834  25.971  31.656  1.00  0.00    -0.206 F 
ATOM     91  C   UNL A   1      43.451  25.990  33.966  1.00  0.00     0.059 A 
ATOM     92  C   UNL A   1      43.477  28.084  35.186  1.00  0.00     0.059 A 
ATOM     93  F   UNL A   1      43.767  30.099  34.037  1.00  0.00    -0.206 F 
ATOM     94  C   UNL A   1      43.355  26.699  35.166  1.00  0.00     0.060 A 
BRANCH  94  95
ATOM     95  S   UNL A   1      43.103  25.798  36.709  1.00  0.00     0.124 S 
ATOM     96  O   UNL A   1      41.705  26.089  37.010  1.00  0.00    -0.237 OA
ATOM     97  O   UNL A   1      43.397  24.422  36.324  1.00  0.00    -0.237 OA
ATOM     98  O   UNL A   1      44.074  26.402  37.620  1.00  0.00    -0.744 OA
ENDBRANCH  94  95
ENDBRANCH  62  87
ENDBRANCH  36  37
ENDBRANCH  29  31
ENDBRANCH  28  29
ENDBRANCH  27  28
ENDBRANCH   1  27
TORSDOF 17
ENDMDL
MODEL 2
REMARK VINA RESULT:     -12.1      3.384     10.173
REMARK SMILES C/C(=N\NC(N)=O)c1nnn(-c2ccc(C(=O)OCCOC(=O)c3ccc(-c4c5nc(c(-c6c(F)cc(S(=O)(=O)[O-])cc6F)c6ccc([nH]6)c(-c6c(F)cc(S(=O)(=O)[O-])cc6F)c6nc(c(-c7c(F)cc(S(=O)(=O)[O-])cc7F)c7ccc4[nH]7)C=C6)C=C5)cc3)cc2)c1C
REMARK SMILES IDX 19 1 18 2 16 3 17 4 15 5 12 6 13 7 91 8 14 9 90 10 11 11
REMARK SMILES IDX 8 12 9 13 92 14 10 15 93 16 2 17 1 18 3 19 4 20 5 21 6 23
REMARK SMILES IDX 7 24 20 27 21 28 22 29 23 30 24 31 25 32 89 33 26 34 88 35
REMARK SMILES IDX 27 36 28 37 29 38 82 39 30 40 87 41 81 42 83 43 31 44 86 45
REMARK SMILES IDX 80 46 79 47 32 49 66 50 45 51 65 52 46 53 49 54 64 55 84 56
REMARK SMILES IDX 47 57 48 58 63 60 85 61 50 62 33 63 34 64 43 65 35 66 36 67
REMARK SMILES IDX 42 68 44 69 37 70 38 71 39 72 40 73 41 74 67 75 68 76 77 77
REMARK SMILES IDX 69 78 70 79 76 80 78 81 71 82 72 83 73 84 74 85 75 86 51 87
REMARK SMILES IDX 52 88 61 89 53 90 54 91 60 92 62 93 55 94 56 95 57 96 58 97
REMARK SMILES IDX 59 98
REMARK H PARENT 4 22 6 25 6 26 83 48 49 59
REMARK Flexibility Score: inf
ROOT
ATOM      1  C   UNL A   1      33.092  36.373  29.533  1.00  0.00     0.275 C 
ENDROOT
BRANCH   1   2
ATOM      2  O   UNL A   1      32.711  35.259  28.713  1.00  0.00    -0.458 OA
BRANCH   2   3
ATOM      3  C   UNL A   1      33.728  34.496  28.243  1.00  0.00     0.338 C 
ATOM      4  O   UNL A   1      34.905  34.823  28.162  1.00  0.00    -0.246 OA
BRANCH   3   5
ATOM      5  C   UNL A   1      33.224  33.156  27.859  1.00  0.00     0.060 A 
ATOM      6  C   UNL A   1      32.471  30.678  26.862  1.00  0.00     0.067 A 
ATOM      7  C   UNL A   1      33.662  30.783  27.585  1.00  0.00     0.029 A 
ATOM      8  C   UNL A   1      31.593  31.762  26.760  1.00  0.00     0.029 A 
ATOM      9  C   UNL A   1      34.048  32.037  28.062  1.00  0.00     0.018 A 
ATOM     10  C   UNL A   1      31.967  33.001  27.265  1.00  0.00     0.018 A 
BRANCH   6  11
ATOM     11  N   UNL A   1      32.250  29.541  26.060  1.00  0.00    -0.217 N 
ATOM     12  C   UNL A   1      31.490  27.636  25.326  1.00  0.00     0.132 A 
ATOM     13  N   UNL A   1      31.829  28.413  24.253  1.00  0.00    -0.128 NA
ATOM     14  C   UNL A   1      31.738  28.327  26.496  1.00  0.00     0.071 A 
ATOM     15  N   UNL A   1      32.220  29.596  24.710  1.00  0.00    -0.061 NA
ATOM     16  C   UNL A   1      31.341  28.019  27.893  1.00  0.00     0.069 C 
BRANCH  12  17
ATOM     17  C   UNL A   1      30.727  26.408  25.199  1.00  0.00     0.087 C 
ATOM     18  C   UNL A   1      30.061  26.200  23.864  1.00  0.00     0.071 C 
ATOM     19  N   UNL A   1      30.717  25.637  26.245  1.00  0.00    -0.174 NA
BRANCH  19  20
ATOM     20  N   UNL A   1      30.003  24.473  26.300  1.00  0.00    -0.229 N 
ATOM     21  C   UNL A   1      30.369  23.297  26.917  1.00  0.00     0.332 C 
ATOM     22  H   UNL A   1      29.128  24.475  25.849  1.00  0.00     0.195 HD
ATOM     23  N   UNL A   1      29.426  22.322  26.776  1.00  0.00    -0.350 N 
ATOM     24  O   UNL A   1      31.392  23.067  27.547  1.00  0.00    -0.247 OA
ATOM     25  H   UNL A   1      28.602  22.505  26.268  1.00  0.00     0.161 HD
ATOM     26  H   UNL A   1      29.569  21.436  27.180  1.00  0.00     0.161 HD
ENDBRANCH  19  20
ENDBRANCH  12  17
ENDBRANCH   6  11
ENDBRANCH   3   5
ENDBRANCH   2   3
ENDBRANCH   1   2
BRANCH   1  27
ATOM     27  C   UNL A   1      32.989  36.018  31.009  1.00  0.00     0.275 C 
BRANCH  27  28
ATOM     28  O   UNL A   1      34.213  35.491  31.520  1.00  0.00    -0.458 OA
BRANCH  28  29
ATOM     29  C   UNL A   1      34.119  34.238  32.023  1.00  0.00     0.338 C 
ATOM     30  O   UNL A   1      33.320  33.833  32.851  1.00  0.00    -0.246 OA
BRANCH  29  31
ATOM     31  C   UNL A   1      35.301  33.471  31.624  1.00  0.00     0.060 A 
ATOM     32  C   UNL A   1      35.204  32.078  31.632  1.00  0.00     0.016 A 
ATOM     33  C   UNL A   1      36.538  34.123  31.500  1.00  0.00     0.016 A 
ATOM     34  C   UNL A   1      36.369  31.337  31.630  1.00  0.00     0.010 A 
ATOM     35  C   UNL A   1      37.699  33.383  31.512  1.00  0.00     0.010 A 
ATOM     36  C   UNL A   1      37.606  31.998  31.624  1.00  0.00    -0.014 A 
BRANCH  36  37
ATOM     37  C   UNL A   1      38.807  31.193  31.480  1.00  0.00     0.031 A 
ATOM     38  C   UNL A   1      39.478  31.018  32.789  1.00  0.00     0.074 A 
ATOM     39  C   UNL A   1      39.173  30.574  30.340  1.00  0.00     0.049 A 
ATOM     40  N   UNL A   1      40.570  31.582  33.185  1.00  0.00    -0.248 NA
ATOM     41  C   UNL A   1      38.735  30.344  33.871  1.00  0.00     0.031 C 
ATOM     42  C   UNL A   1      38.397  30.487  29.100  1.00  0.00     0.029 A 
ATOM     43  N   UNL A   1      40.265  29.800  30.068  1.00  0.00    -0.354 N 
ATOM     44  C   UNL A   1      40.806  31.054  34.450  1.00  0.00     0.074 A 
ATOM     45  C   UNL A   1      39.546  30.544  34.912  1.00  0.00     0.031 C 
ATOM     46  C   UNL A   1      38.922  29.522  28.311  1.00  0.00     0.029 A 
ATOM     47  C   UNL A   1      40.138  29.015  28.924  1.00  0.00     0.049 A 
ATOM     48  H   UNL A   1      41.072  29.796  30.633  1.00  0.00     0.167 HD
ATOM     49  C   UNL A   1      42.077  30.717  34.800  1.00  0.00     0.037 A 
ATOM     50  C   UNL A   1      40.949  27.995  28.536  1.00  0.00     0.037 A 
ATOM     51  C   UNL A   1      43.021  31.367  33.921  1.00  0.00     0.049 A 
ATOM     52  C   UNL A   1      42.259  28.201  29.200  1.00  0.00     0.074 A 
ATOM     53  C   UNL A   1      43.440  32.655  33.666  1.00  0.00     0.029 A 
ATOM     54  N   UNL A   1      43.359  30.605  32.835  1.00  0.00    -0.354 N 
ATOM     55  N   UNL A   1      43.051  29.201  28.926  1.00  0.00    -0.248 NA
ATOM     56  C   UNL A   1      42.550  27.501  30.447  1.00  0.00     0.031 C 
ATOM     57  C   UNL A   1      43.899  32.662  32.314  1.00  0.00     0.029 A 
ATOM     58  C   UNL A   1      43.802  31.372  31.797  1.00  0.00     0.049 A 
ATOM     59  H   UNL A   1      43.291  29.624  32.807  1.00  0.00     0.167 HD
ATOM     60  C   UNL A   1      43.618  29.531  30.141  1.00  0.00     0.074 A 
ATOM     61  C   UNL A   1      43.425  28.356  30.982  1.00  0.00     0.031 C 
ATOM     62  C   UNL A   1      43.874  30.835  30.453  1.00  0.00     0.037 A 
BRANCH  49  63
ATOM     63  C   UNL A   1      42.445  29.402  35.481  1.00  0.00     0.058 A 
ATOM     64  C   UNL A   1      43.401  29.431  36.521  1.00  0.00     0.135 A 
ATOM     65  C   UNL A   1      42.171  28.117  34.959  1.00  0.00     0.135 A 
ATOM     66  F   UNL A   1      43.749  30.595  37.094  1.00  0.00    -0.206 F 
ATOM     67  C   UNL A   1      44.084  28.290  36.947  1.00  0.00     0.059 A 
ATOM     68  C   UNL A   1      42.808  26.963  35.399  1.00  0.00     0.059 A 
ATOM     69  F   UNL A   1      41.340  27.907  33.932  1.00  0.00    -0.206 F 
ATOM     70  C   UNL A   1      43.788  27.061  36.368  1.00  0.00     0.060 A 
BRANCH  70  71
ATOM     71  S   UNL A   1      44.701  25.593  36.867  1.00  0.00     0.124 S 
ATOM     72  O   UNL A   1      45.979  26.169  37.270  1.00  0.00    -0.237 OA
ATOM     73  O   UNL A   1      43.863  25.071  37.941  1.00  0.00    -0.237 OA
ATOM     74  O   UNL A   1      44.725  24.786  35.650  1.00  0.00    -0.744 OA
ENDBRANCH  70  71
ENDBRANCH  49  63
BRANCH  50  75
ATOM     75  C   UNL A   1      40.602  26.717  27.848  1.00  0.00     0.058 A 
ATOM     76  C   UNL A   1      41.395  26.215  26.796  1.00  0.00     0.135 A 
ATOM     77  C   UNL A   1      39.670  25.815  28.396  1.00  0.00     0.135 A 
ATOM     78  F   UNL A   1      42.316  26.995  26.210  1.00  0.00    -0.206 F 
ATOM     79  C   UNL A   1      41.322  24.882  26.370  1.00  0.00     0.059 A 
ATOM     80  C   UNL A   1      39.571  24.487  27.980  1.00  0.00     0.059 A 
ATOM     81  F   UNL A   1      38.885  26.170  29.424  1.00  0.00    -0.206 F 
ATOM     82  C   UNL A   1      40.423  24.016  26.989  1.00  0.00     0.060 A 
BRANCH  82  83
ATOM     83  S   UNL A   1      40.456  22.251  26.590  1.00  0.00     0.124 S 
ATOM     84  O   UNL A   1      41.626  22.158  25.723  1.00  0.00    -0.237 OA
ATOM     85  O   UNL A   1      40.588  21.638  27.906  1.00  0.00    -0.237 OA
ATOM     86  O   UNL A   1      39.173  22.029  25.929  1.00  0.00    -0.744 OA
ENDBRANCH  82  83
ENDBRANCH  50  75
BRANCH  62  87
ATOM     87  C   UNL A   1      44.137  31.784  29.323  1.00  0.00     0.058 A 
ATOM     88  C   UNL A   1      43.259  32.780  28.868  1.00  0.00     0.135 A 
ATOM     89  C   UNL A   1      45.394  31.699  28.701  1.00  0.00     0.135 A 
ATOM     90  F   UNL A   1      42.077  32.989  29.468  1.00  0.00    -0.206 F 
ATOM     91  C   UNL A   1      43.597  33.618  27.801  1.00  0.00     0.059 A 
ATOM     92  C   UNL A   1      45.765  32.544  27.665  1.00  0.00     0.059 A 
ATOM     93  F   UNL A   1      46.295  30.797  29.125  1.00  0.00    -0.206 F 
ATOM     94  C   UNL A   1      44.853  33.488  27.205  1.00  0.00     0.060 A 
BRANCH  94  95
ATOM     95  S   UNL A   1      45.304  34.582  25.843  1.00  0.00     0.124 S 
ATOM     96  O   UNL A   1      44.213  34.364  24.899  1.00  0.00    -0.237 OA
ATOM     97  O   UNL A   1      45.336  35.892  26.487  1.00  0.00    -0.237 OA
ATOM     98  O   UNL A   1      46.607  34.076  25.416  1.00  0.00    -0.744 OA
ENDBRANCH  94  95
ENDBRANCH  62  87
ENDBRANCH  36  37
ENDBRANCH  29  31
ENDBRANCH  28  29
ENDBRANCH  27  28
ENDBRANCH   1  27
TORSDOF 17
ENDMDL
MODEL 3
REMARK VINA RESULT:     -12.0      2.880      9.796
REMARK SMILES C/C(=N\NC(N)=O)c1nnn(-c2ccc(C(=O)OCCOC(=O)c3ccc(-c4c5nc(c(-c6c(F)cc(S(=O)(=O)[O-])cc6F)c6ccc([nH]6)c(-c6c(F)cc(S(=O)(=O)[O-])cc6F)c6nc(c(-c7c(F)cc(S(=O)(=O)[O-])cc7F)c7ccc4[nH]7)C=C6)C=C5)cc3)cc2)c1C
REMARK SMILES IDX 19 1 18 2 16 3 17 4 15 5 12 6 13 7 91 8 14 9 90 10 11 11
REMARK SMILES IDX 8 12 9 13 92 14 10 15 93 16 2 17 1 18 3 19 4 20 5 21 6 23
REMARK SMILES IDX 7 24 20 27 21 28 22 29 23 30 24 31 25 32 89 33 26 34 88 35
REMARK SMILES IDX 27 36 28 37 29 38 82 39 30 40 87 41 81 42 83 43 31 44 86 45
REMARK SMILES IDX 80 46 79 47 32 49 66 50 45 51 65 52 46 53 49 54 64 55 84 56
REMARK SMILES IDX 47 57 48 58 63 60 85 61 50 62 33 63 34 64 43 65 35 66 36 67
REMARK SMILES IDX 42 68 44 69 37 70 38 71 39 72 40 73 41 74 67 75 68 76 77 77
REMARK SMILES IDX 69 78 70 79 76 80 78 81 71 82 72 83 73 84 74 85 75 86 51 87
REMARK SMILES IDX 52 88 61 89 53 90 54 91 60 92 62 93 55 94 56 95 57 96 58 97
REMARK SMILES IDX 59 98
REMARK H PARENT 4 22 6 25 6 26 83 48 49 59
REMARK Flexibility Score: inf
ROOT
ATOM      1  C   UNL A   1      31.571  30.412  26.384  1.00  0.00     0.275 C 
ENDROOT
BRANCH   1   2
ATOM      2  O   UNL A   1      31.912  30.127  25.020  1.00  0.00    -0.458 OA
BRANCH   2   3
ATOM      3  C   UNL A   1      31.112  29.236  24.385  1.00  0.00     0.338 C 
ATOM      4  O   UNL A   1      30.116  29.495  23.722  1.00  0.00    -0.246 OA
BRANCH   3   5
ATOM      5  C   UNL A   1      31.634  27.861  24.571  1.00  0.00     0.060 A 
ATOM      6  C   UNL A   1      32.549  25.241  24.592  1.00  0.00     0.067 A 
ATOM      7  C   UNL A   1      33.421  26.258  24.196  1.00  0.00     0.029 A 
ATOM      8  C   UNL A   1      31.284  25.537  25.109  1.00  0.00     0.029 A 
ATOM      9  C   UNL A   1      32.947  27.572  24.163  1.00  0.00     0.018 A 
ATOM     10  C   UNL A   1      30.828  26.850  25.106  1.00  0.00     0.018 A 
BRANCH   6  11
ATOM     11  N   UNL A   1      32.863  23.904  24.276  1.00  0.00    -0.217 N 
ATOM     12  C   UNL A   1      33.372  21.794  24.461  1.00  0.00     0.132 A 
ATOM     13  N   UNL A   1      32.660  21.972  23.307  1.00  0.00    -0.128 NA
ATOM     14  C   UNL A   1      33.514  23.005  25.110  1.00  0.00     0.071 A 
ATOM     15  N   UNL A   1      32.293  23.245  23.243  1.00  0.00    -0.061 NA
ATOM     16  C   UNL A   1      33.999  23.307  26.480  1.00  0.00     0.069 C 
BRANCH  12  17
ATOM     17  C   UNL A   1      33.658  20.484  25.015  1.00  0.00     0.087 C 
ATOM     18  C   UNL A   1      35.096  20.044  24.919  1.00  0.00     0.071 C 
ATOM     19  N   UNL A   1      32.645  19.854  25.532  1.00  0.00    -0.174 NA
BRANCH  19  20
ATOM     20  N   UNL A   1      32.742  18.591  26.045  1.00  0.00    -0.229 N 
ATOM     21  C   UNL A   1      32.691  17.401  25.351  1.00  0.00     0.332 C 
ATOM     22  H   UNL A   1      32.862  18.523  27.019  1.00  0.00     0.195 HD
ATOM     23  N   UNL A   1      32.811  16.319  26.171  1.00  0.00    -0.350 N 
ATOM     24  O   UNL A   1      32.567  17.241  24.145  1.00  0.00    -0.247 OA
ATOM     25  H   UNL A   1      32.911  16.446  27.142  1.00  0.00     0.161 HD
ATOM     26  H   UNL A   1      32.798  15.410  25.792  1.00  0.00     0.161 HD
ENDBRANCH  19  20
ENDBRANCH  12  17
ENDBRANCH   6  11
ENDBRANCH   3   5
ENDBRANCH   2   3
ENDBRANCH   1   2
BRANCH   1  27
ATOM     27  C   UNL A   1      32.404  31.567  26.919  1.00  0.00     0.275 C 
BRANCH  27  28
ATOM     28  O   UNL A   1      33.554  31.113  27.632  1.00  0.00    -0.458 OA
BRANCH  28  29
ATOM     29  C   UNL A   1      34.348  32.100  28.105  1.00  0.00     0.338 C 
ATOM     30  O   UNL A   1      34.208  33.301  27.944  1.00  0.00    -0.246 OA
BRANCH  29  31
ATOM     31  C   UNL A   1      35.580  31.512  28.636  1.00  0.00     0.060 A 
ATOM     32  C   UNL A   1      36.623  32.381  28.969  1.00  0.00     0.016 A 
ATOM     33  C   UNL A   1      35.774  30.125  28.556  1.00  0.00     0.016 A 
ATOM     34  C   UNL A   1      37.894  31.860  29.109  1.00  0.00     0.010 A 
ATOM     35  C   UNL A   1      37.044  29.609  28.682  1.00  0.00     0.010 A 
ATOM     36  C   UNL A   1      38.101  30.487  28.911  1.00  0.00    -0.014 A 
BRANCH  36  37
ATOM     37  C   UNL A   1      39.419  29.948  29.204  1.00  0.00     0.031 A 
ATOM     38  C   UNL A   1      39.669  29.947  30.664  1.00  0.00     0.074 A 
ATOM     39  C   UNL A   1      40.233  29.393  28.284  1.00  0.00     0.049 A 
ATOM     40  N   UNL A   1      40.453  30.735  31.319  1.00  0.00    -0.248 NA
ATOM     41  C   UNL A   1      38.769  29.157  31.527  1.00  0.00     0.031 C 
ATOM     42  C   UNL A   1      39.914  29.117  26.881  1.00  0.00     0.029 A 
ATOM     43  N   UNL A   1      41.482  28.858  28.421  1.00  0.00    -0.354 N 
ATOM     44  C   UNL A   1      40.380  30.297  32.638  1.00  0.00     0.074 A 
ATOM     45  C   UNL A   1      39.161  29.546  32.742  1.00  0.00     0.031 C 
ATOM     46  C   UNL A   1      40.833  28.266  26.372  1.00  0.00     0.029 A 
ATOM     47  C   UNL A   1      41.871  28.039  27.363  1.00  0.00     0.049 A 
ATOM     48  H   UNL A   1      42.058  29.037  29.200  1.00  0.00     0.167 HD
ATOM     49  C   UNL A   1      41.518  30.241  33.380  1.00  0.00     0.037 A 
ATOM     50  C   UNL A   1      42.942  27.202  27.327  1.00  0.00     0.037 A 
ATOM     51  C   UNL A   1      42.546  31.054  32.773  1.00  0.00     0.049 A 
ATOM     52  C   UNL A   1      43.915  27.693  28.333  1.00  0.00     0.074 A 
ATOM     53  C   UNL A   1      42.768  32.396  32.546  1.00  0.00     0.029 A 
ATOM     54  N   UNL A   1      43.345  30.356  31.909  1.00  0.00    -0.354 N 
ATOM     55  N   UNL A   1      44.546  28.830  28.224  1.00  0.00    -0.248 NA
ATOM     56  C   UNL A   1      43.931  27.097  29.665  1.00  0.00     0.031 C 
ATOM     57  C   UNL A   1      43.615  32.468  31.399  1.00  0.00     0.029 A 
ATOM     58  C   UNL A   1      43.934  31.174  30.990  1.00  0.00     0.049 A 
ATOM     59  H   UNL A   1      43.479  29.382  31.947  1.00  0.00     0.167 HD
ATOM     60  C   UNL A   1      44.632  29.298  29.520  1.00  0.00     0.074 A 
ATOM     61  C   UNL A   1      44.415  28.129  30.362  1.00  0.00     0.031 C 
ATOM     62  C   UNL A   1      44.522  30.634  29.781  1.00  0.00     0.037 A 
BRANCH  49  63
ATOM     63  C   UNL A   1      41.901  29.048  34.252  1.00  0.00     0.058 A 
ATOM     64  C   UNL A   1      41.935  27.768  33.658  1.00  0.00     0.135 A 
ATOM     65  C   UNL A   1      41.906  29.050  35.667  1.00  0.00     0.135 A 
ATOM     66  F   UNL A   1      41.928  27.636  32.321  1.00  0.00    -0.206 F 
ATOM     67  C   UNL A   1      41.893  26.589  34.406  1.00  0.00     0.059 A 
ATOM     68  C   UNL A   1      41.909  27.890  36.430  1.00  0.00     0.059 A 
ATOM     69  F   UNL A   1      41.817  30.167  36.396  1.00  0.00    -0.206 F 
ATOM     70  C   UNL A   1      41.868  26.664  35.795  1.00  0.00     0.060 A 
BRANCH  70  71
ATOM     71  S   UNL A   1      41.757  25.155  36.769  1.00  0.00     0.124 S 
ATOM     72  O   UNL A   1      40.602  25.438  37.612  1.00  0.00    -0.237 OA
ATOM     73  O   UNL A   1      41.567  24.145  35.735  1.00  0.00    -0.237 OA
ATOM     74  O   UNL A   1      43.046  25.106  37.455  1.00  0.00    -0.744 OA
ENDBRANCH  70  71
ENDBRANCH  49  63
BRANCH  50  75
ATOM     75  C   UNL A   1      43.080  25.864  26.679  1.00  0.00     0.058 A 
ATOM     76  C   UNL A   1      43.746  25.714  25.446  1.00  0.00     0.135 A 
ATOM     77  C   UNL A   1      42.828  24.674  27.389  1.00  0.00     0.135 A 
ATOM     78  F   UNL A   1      44.035  26.789  24.697  1.00  0.00    -0.206 F 
ATOM     79  C   UNL A   1      44.203  24.472  24.986  1.00  0.00     0.059 A 
ATOM     80  C   UNL A   1      43.263  23.426  26.944  1.00  0.00     0.059 A 
ATOM     81  F   UNL A   1      42.231  24.696  28.589  1.00  0.00    -0.206 F 
ATOM     82  C   UNL A   1      43.980  23.334  25.758  1.00  0.00     0.060 A 
BRANCH  82  83
ATOM     83  S   UNL A   1      44.734  21.761  25.277  1.00  0.00     0.124 S 
ATOM     84  O   UNL A   1      43.798  20.792  25.835  1.00  0.00    -0.237 OA
ATOM     85  O   UNL A   1      44.757  21.859  23.822  1.00  0.00    -0.237 OA
ATOM     86  O   UNL A   1      46.044  21.802  25.921  1.00  0.00    -0.744 OA
ENDBRANCH  82  83
ENDBRANCH  50  75
BRANCH  62  87
ATOM     87  C   UNL A   1      44.938  31.591  28.704  1.00  0.00     0.058 A 
ATOM     88  C   UNL A   1      44.202  31.892  27.547  1.00  0.00     0.135 A 
ATOM     89  C   UNL A   1      46.144  32.282  28.899  1.00  0.00     0.135 A 
ATOM     90  F   UNL A   1      42.995  31.346  27.332  1.00  0.00    -0.206 F 
ATOM     91  C   UNL A   1      44.676  32.801  26.598  1.00  0.00     0.059 A 
ATOM     92  C   UNL A   1      46.617  33.216  27.988  1.00  0.00     0.059 A 
ATOM     93  F   UNL A   1      46.869  32.072  30.011  1.00  0.00    -0.206 F 
ATOM     94  C   UNL A   1      45.889  33.455  26.827  1.00  0.00     0.060 A 
BRANCH  94  95
ATOM     95  S   UNL A   1      46.495  34.648  25.617  1.00  0.00     0.124 S 
ATOM     96  O   UNL A   1      47.882  34.230  25.442  1.00  0.00    -0.237 OA
ATOM     97  O   UNL A   1      45.613  34.418  24.477  1.00  0.00    -0.237 OA
ATOM     98  O   UNL A   1      46.313  35.935  26.285  1.00  0.00    -0.744 OA
ENDBRANCH  94  95
ENDBRANCH  62  87
ENDBRANCH  36  37
ENDBRANCH  29  31
ENDBRANCH  28  29
ENDBRANCH  27  28
ENDBRANCH   1  27
TORSDOF 17
ENDMDL
