MODEL 1
REMARK VINA RESULT:      -9.8      0.000      0.000
REMARK SMILES COc1cc(OC)nc(Oc2ccccc2C(=O)NCC(=O)OCCOC(=O)c2ccc(-c3c4nc(c(-c5c(F)cc(S(=O)(=O)[O-])cc5F)c5ccc([nH]5)c(-c5c(F)cc(S(=O)(=O)[O-])cc5F)c5nc(c(-c6c(F)cc(S(=O)(=O)[O-])cc6F)c6ccc3[nH]6)C=C5)C=C4)cc2)n1
REMARK SMILES IDX 24 1 23 2 21 3 22 4 20 5 19 6 17 7 18 8 16 10 11 11 12 12
REMARK SMILES IDX 13 13 15 14 14 15 10 16 9 17 3 18 4 19 95 20 5 21 8 22 2 23
REMARK SMILES IDX 1 24 6 25 7 26 25 27 26 28 27 29 28 30 29 31 30 32 94 33
REMARK SMILES IDX 31 34 93 35 32 36 33 37 34 38 87 39 35 40 92 41 86 42 88 43
REMARK SMILES IDX 36 44 91 45 85 46 84 47 37 49 71 50 50 51 70 52 51 53 54 54
REMARK SMILES IDX 69 55 89 56 52 57 53 58 68 60 90 61 55 62 38 63 39 64 48 65
REMARK SMILES IDX 40 66 41 67 47 68 49 69 42 70 43 71 44 72 45 73 46 74 72 75
REMARK SMILES IDX 73 76 82 77 74 78 75 79 81 80 83 81 76 82 77 83 78 84 79 85
REMARK SMILES IDX 80 86 56 87 57 88 66 89 58 90 59 91 65 92 67 93 60 94 61 95
REMARK SMILES IDX 62 96 63 97 64 98
REMARK H PARENT 19 9 88 48 54 59
REMARK Flexibility Score: inf
ROOT
ATOM      1  C   UNL A   1      40.276  19.784  26.115  1.00  0.00     0.274 C 
ENDROOT
BRANCH   1   2
ATOM      2  O   UNL A   1      41.555  20.307  26.527  1.00  0.00    -0.461 OA
BRANCH   2   3
ATOM      3  C   UNL A   1      42.590  19.702  25.883  1.00  0.00     0.325 C 
ATOM      4  O   UNL A   1      42.639  18.498  25.639  1.00  0.00    -0.250 OA
BRANCH   3   5
ATOM      5  C   UNL A   1      43.651  20.652  25.354  1.00  0.00     0.239 C 
BRANCH   5   6
ATOM      6  N   UNL A   1      43.374  21.970  24.829  1.00  0.00    -0.341 N 
ATOM      7  C   UNL A   1      43.520  23.177  25.482  1.00  0.00     0.255 C 
ATOM      8  O   UNL A   1      43.281  24.211  24.854  1.00  0.00    -0.269 OA
ATOM      9  H   UNL A   1      43.044  22.012  23.902  1.00  0.00     0.164 HD
BRANCH   7  10
ATOM     10  C   UNL A   1      43.786  23.272  26.958  1.00  0.00     0.082 A 
ATOM     11  C   UNL A   1      45.014  23.339  27.644  1.00  0.00     0.143 A 
ATOM     12  C   UNL A   1      45.030  23.279  29.052  1.00  0.00     0.048 A 
ATOM     13  C   UNL A   1      43.852  23.231  29.789  1.00  0.00     0.004 A 
ATOM     14  C   UNL A   1      42.602  23.277  27.730  1.00  0.00     0.018 A 
ATOM     15  C   UNL A   1      42.633  23.255  29.128  1.00  0.00     0.001 A 
BRANCH  11  16
ATOM     16  O   UNL A   1      46.293  23.383  27.143  1.00  0.00    -0.423 OA
BRANCH  16  17
ATOM     17  C   UNL A   1      47.015  24.556  27.224  1.00  0.00     0.328 A 
ATOM     18  C   UNL A   1      49.139  25.277  27.306  1.00  0.00     0.223 A 
ATOM     19  C   UNL A   1      48.792  26.414  26.627  1.00  0.00     0.137 A 
ATOM     20  N   UNL A   1      48.261  24.354  27.680  1.00  0.00    -0.159 NA
ATOM     21  C   UNL A   1      47.463  26.598  26.349  1.00  0.00     0.223 A 
ATOM     22  N   UNL A   1      46.550  25.660  26.624  1.00  0.00    -0.159 NA
BRANCH  18  23
ATOM     23  O   UNL A   1      50.470  24.936  27.273  1.00  0.00    -0.481 OA
ATOM     24  C   UNL A   1      51.163  25.336  26.103  1.00  0.00     0.280 C 
ENDBRANCH  18  23
BRANCH  21  25
ATOM     25  O   UNL A   1      46.963  27.688  25.690  1.00  0.00    -0.481 OA
ATOM     26  C   UNL A   1      45.773  27.473  24.935  1.00  0.00     0.280 C 
ENDBRANCH  21  25
ENDBRANCH  16  17
ENDBRANCH  11  16
ENDBRANCH   7  10
ENDBRANCH   5   6
ENDBRANCH   3   5
ENDBRANCH   2   3
ENDBRANCH   1   2
BRANCH   1  27
ATOM     27  C   UNL A   1      39.262  20.888  25.813  1.00  0.00     0.275 C 
BRANCH  27  28
ATOM     28  O   UNL A   1      39.745  22.184  26.222  1.00  0.00    -0.458 OA
BRANCH  28  29
ATOM     29  C   UNL A   1      38.884  23.206  26.006  1.00  0.00     0.338 C 
ATOM     30  O   UNL A   1      37.817  23.134  25.413  1.00  0.00    -0.246 OA
BRANCH  29  31
ATOM     31  C   UNL A   1      39.340  24.435  26.696  1.00  0.00     0.060 A 
ATOM     32  C   UNL A   1      38.905  24.594  28.010  1.00  0.00     0.016 A 
ATOM     33  C   UNL A   1      40.165  25.410  26.125  1.00  0.00     0.016 A 
ATOM     34  C   UNL A   1      39.388  25.634  28.802  1.00  0.00     0.010 A 
ATOM     35  C   UNL A   1      40.587  26.508  26.898  1.00  0.00     0.010 A 
ATOM     36  C   UNL A   1      40.227  26.605  28.251  1.00  0.00    -0.014 A 
BRANCH  36  37
ATOM     37  C   UNL A   1      40.572  27.775  29.096  1.00  0.00     0.031 A 
ATOM     38  C   UNL A   1      41.927  27.802  29.744  1.00  0.00     0.074 A 
ATOM     39  C   UNL A   1      39.763  28.851  29.163  1.00  0.00     0.049 A 
ATOM     40  N   UNL A   1      42.456  28.707  30.520  1.00  0.00    -0.248 NA
ATOM     41  C   UNL A   1      42.818  26.669  29.441  1.00  0.00     0.031 C 
ATOM     42  C   UNL A   1      38.504  29.000  28.436  1.00  0.00     0.029 A 
ATOM     43  N   UNL A   1      39.885  30.031  29.852  1.00  0.00    -0.354 N 
ATOM     44  C   UNL A   1      43.740  28.255  30.801  1.00  0.00     0.074 A 
ATOM     45  C   UNL A   1      43.918  27.006  30.097  1.00  0.00     0.031 C 
ATOM     46  C   UNL A   1      37.967  30.199  28.719  1.00  0.00     0.029 A 
ATOM     47  C   UNL A   1      38.810  30.880  29.697  1.00  0.00     0.049 A 
ATOM     48  H   UNL A   1      40.669  30.254  30.406  1.00  0.00     0.167 HD
ATOM     49  C   UNL A   1      44.673  28.821  31.599  1.00  0.00     0.037 A 
ATOM     50  C   UNL A   1      38.523  32.046  30.312  1.00  0.00     0.037 A 
ATOM     51  C   UNL A   1      44.451  30.030  32.343  1.00  0.00     0.049 A 
ATOM     52  C   UNL A   1      39.513  32.580  31.318  1.00  0.00     0.074 A 
ATOM     53  C   UNL A   1      45.270  30.633  33.278  1.00  0.00     0.029 A 
ATOM     54  N   UNL A   1      43.309  30.813  32.241  1.00  0.00    -0.354 N 
ATOM     55  N   UNL A   1      40.693  32.102  31.644  1.00  0.00    -0.248 NA
ATOM     56  C   UNL A   1      39.136  33.795  32.055  1.00  0.00     0.031 C 
ATOM     57  C   UNL A   1      44.600  31.755  33.780  1.00  0.00     0.029 A 
ATOM     58  C   UNL A   1      43.389  31.883  33.113  1.00  0.00     0.049 A 
ATOM     59  H   UNL A   1      42.553  30.634  31.637  1.00  0.00     0.167 HD
ATOM     60  C   UNL A   1      41.206  32.967  32.603  1.00  0.00     0.074 A 
ATOM     61  C   UNL A   1      40.214  34.006  32.797  1.00  0.00     0.031 C 
ATOM     62  C   UNL A   1      42.387  32.910  33.267  1.00  0.00     0.037 A 
BRANCH  49  63
ATOM     63  C   UNL A   1      45.958  28.064  31.780  1.00  0.00     0.058 A 
ATOM     64  C   UNL A   1      47.063  28.259  30.938  1.00  0.00     0.135 A 
ATOM     65  C   UNL A   1      46.060  27.082  32.780  1.00  0.00     0.135 A 
ATOM     66  F   UNL A   1      47.005  29.159  29.943  1.00  0.00    -0.206 F 
ATOM     67  C   UNL A   1      48.214  27.484  31.059  1.00  0.00     0.059 A 
ATOM     68  C   UNL A   1      47.208  26.312  32.933  1.00  0.00     0.059 A 
ATOM     69  F   UNL A   1      45.025  26.845  33.601  1.00  0.00    -0.206 F 
ATOM     70  C   UNL A   1      48.272  26.506  32.055  1.00  0.00     0.060 A 
BRANCH  70  71
ATOM     71  S   UNL A   1      49.749  25.474  32.172  1.00  0.00     0.124 S 
ATOM     72  O   UNL A   1      50.729  26.430  32.680  1.00  0.00    -0.237 OA
ATOM     73  O   UNL A   1      49.331  24.436  33.108  1.00  0.00    -0.237 OA
ATOM     74  O   UNL A   1      49.961  25.028  30.799  1.00  0.00    -0.744 OA
ENDBRANCH  70  71
ENDBRANCH  49  63
BRANCH  50  75
ATOM     75  C   UNL A   1      37.228  32.748  30.063  1.00  0.00     0.058 A 
ATOM     76  C   UNL A   1      37.108  33.771  29.108  1.00  0.00     0.135 A 
ATOM     77  C   UNL A   1      36.081  32.433  30.813  1.00  0.00     0.135 A 
ATOM     78  F   UNL A   1      38.172  34.128  28.372  1.00  0.00    -0.206 F 
ATOM     79  C   UNL A   1      35.913  34.464  28.919  1.00  0.00     0.059 A 
ATOM     80  C   UNL A   1      34.868  33.090  30.622  1.00  0.00     0.059 A 
ATOM     81  F   UNL A   1      36.129  31.467  31.743  1.00  0.00    -0.206 F 
ATOM     82  C   UNL A   1      34.797  34.116  29.682  1.00  0.00     0.060 A 
BRANCH  82  83
ATOM     83  S   UNL A   1      33.245  35.004  29.419  1.00  0.00     0.124 S 
ATOM     84  O   UNL A   1      32.589  34.164  28.424  1.00  0.00    -0.237 OA
ATOM     85  O   UNL A   1      32.656  34.992  30.754  1.00  0.00    -0.237 OA
ATOM     86  O   UNL A   1      33.684  36.314  28.949  1.00  0.00    -0.744 OA
ENDBRANCH  82  83
ENDBRANCH  50  75
BRANCH  62  87
ATOM     87  C   UNL A   1      42.693  34.020  34.232  1.00  0.00     0.058 A 
ATOM     88  C   UNL A   1      42.432  33.896  35.605  1.00  0.00     0.135 A 
ATOM     89  C   UNL A   1      43.336  35.184  33.784  1.00  0.00     0.135 A 
ATOM     90  F   UNL A   1      41.814  32.803  36.080  1.00  0.00    -0.206 F 
ATOM     91  C   UNL A   1      42.788  34.898  36.501  1.00  0.00     0.059 A 
ATOM     92  C   UNL A   1      43.725  36.186  34.665  1.00  0.00     0.059 A 
ATOM     93  F   UNL A   1      43.616  35.343  32.480  1.00  0.00    -0.206 F 
ATOM     94  C   UNL A   1      43.441  36.036  36.022  1.00  0.00     0.060 A 
BRANCH  94  95
ATOM     95  S   UNL A   1      43.956  37.299  37.203  1.00  0.00     0.124 S 
ATOM     96  O   UNL A   1      42.748  37.461  38.005  1.00  0.00    -0.237 OA
ATOM     97  O   UNL A   1      45.083  36.659  37.874  1.00  0.00    -0.237 OA
ATOM     98  O   UNL A   1      44.303  38.436  36.355  1.00  0.00    -0.744 OA
ENDBRANCH  94  95
ENDBRANCH  62  87
ENDBRANCH  36  37
ENDBRANCH  29  31
ENDBRANCH  28  29
ENDBRANCH  27  28
ENDBRANCH   1  27
TORSDOF 20
ENDMDL
MODEL 2
REMARK VINA RESULT:      -9.4      1.317      2.007
REMARK SMILES COc1cc(OC)nc(Oc2ccccc2C(=O)NCC(=O)OCCOC(=O)c2ccc(-c3c4nc(c(-c5c(F)cc(S(=O)(=O)[O-])cc5F)c5ccc([nH]5)c(-c5c(F)cc(S(=O)(=O)[O-])cc5F)c5nc(c(-c6c(F)cc(S(=O)(=O)[O-])cc6F)c6ccc3[nH]6)C=C5)C=C4)cc2)n1
REMARK SMILES IDX 24 1 23 2 21 3 22 4 20 5 19 6 17 7 18 8 16 10 11 11 12 12
REMARK SMILES IDX 13 13 15 14 14 15 10 16 9 17 3 18 4 19 95 20 5 21 8 22 2 23
REMARK SMILES IDX 1 24 6 25 7 26 25 27 26 28 27 29 28 30 29 31 30 32 94 33
REMARK SMILES IDX 31 34 93 35 32 36 33 37 34 38 87 39 35 40 92 41 86 42 88 43
REMARK SMILES IDX 36 44 91 45 85 46 84 47 37 49 71 50 50 51 70 52 51 53 54 54
REMARK SMILES IDX 69 55 89 56 52 57 53 58 68 60 90 61 55 62 38 63 39 64 48 65
REMARK SMILES IDX 40 66 41 67 47 68 49 69 42 70 43 71 44 72 45 73 46 74 72 75
REMARK SMILES IDX 73 76 82 77 74 78 75 79 81 80 83 81 76 82 77 83 78 84 79 85
REMARK SMILES IDX 80 86 56 87 57 88 66 89 58 90 59 91 65 92 67 93 60 94 61 95
REMARK SMILES IDX 62 96 63 97 64 98
REMARK H PARENT 19 9 88 48 54 59
REMARK Flexibility Score: inf
ROOT
ATOM      1  C   UNL A   1      40.624  19.891  26.347  1.00  0.00     0.274 C 
ENDROOT
BRANCH   1   2
ATOM      2  O   UNL A   1      41.979  19.959  26.837  1.00  0.00    -0.461 OA
BRANCH   2   3
ATOM      3  C   UNL A   1      42.877  19.475  25.935  1.00  0.00     0.325 C 
ATOM      4  O   UNL A   1      42.832  18.343  25.457  1.00  0.00    -0.250 OA
BRANCH   3   5
ATOM      5  C   UNL A   1      43.891  20.494  25.441  1.00  0.00     0.239 C 
BRANCH   5   6
ATOM      6  N   UNL A   1      43.545  21.755  24.825  1.00  0.00    -0.341 N 
ATOM      7  C   UNL A   1      43.596  23.008  25.401  1.00  0.00     0.255 C 
ATOM      8  O   UNL A   1      43.307  23.981  24.702  1.00  0.00    -0.269 OA
ATOM      9  H   UNL A   1      43.236  21.715  23.891  1.00  0.00     0.164 HD
BRANCH   7  10
ATOM     10  C   UNL A   1      43.816  23.215  26.873  1.00  0.00     0.082 A 
ATOM     11  C   UNL A   1      45.010  23.480  27.571  1.00  0.00     0.143 A 
ATOM     12  C   UNL A   1      45.004  23.496  28.980  1.00  0.00     0.048 A 
ATOM     13  C   UNL A   1      43.828  23.330  29.703  1.00  0.00     0.004 A 
ATOM     14  C   UNL A   1      42.626  23.103  27.627  1.00  0.00     0.018 A 
ATOM     15  C   UNL A   1      42.630  23.158  29.025  1.00  0.00     0.001 A 
BRANCH  11  16
ATOM     16  O   UNL A   1      46.282  23.667  27.085  1.00  0.00    -0.423 OA
BRANCH  16  17
ATOM     17  C   UNL A   1      46.697  24.937  26.740  1.00  0.00     0.328 A 
ATOM     18  C   UNL A   1      48.466  25.995  25.853  1.00  0.00     0.223 A 
ATOM     19  C   UNL A   1      47.638  26.918  25.271  1.00  0.00     0.137 A 
ATOM     20  N   UNL A   1      48.033  25.027  26.651  1.00  0.00    -0.159 NA
ATOM     21  C   UNL A   1      46.302  26.829  25.557  1.00  0.00     0.223 A 
ATOM     22  N   UNL A   1      45.801  25.822  26.282  1.00  0.00    -0.159 NA
BRANCH  18  23
ATOM     23  O   UNL A   1      49.719  25.875  25.301  1.00  0.00    -0.481 OA
ATOM     24  C   UNL A   1      50.013  26.803  24.271  1.00  0.00     0.280 C 
ENDBRANCH  18  23
BRANCH  21  25
ATOM     25  O   UNL A   1      45.355  27.684  25.061  1.00  0.00    -0.481 OA
ATOM     26  C   UNL A   1      43.997  27.330  25.312  1.00  0.00     0.280 C 
ENDBRANCH  21  25
ENDBRANCH  16  17
ENDBRANCH  11  16
ENDBRANCH   7  10
ENDBRANCH   5   6
ENDBRANCH   3   5
ENDBRANCH   2   3
ENDBRANCH   1   2
BRANCH   1  27
ATOM     27  C   UNL A   1      40.144  21.225  25.772  1.00  0.00     0.275 C 
BRANCH  27  28
ATOM     28  O   UNL A   1      39.344  21.960  26.720  1.00  0.00    -0.458 OA
BRANCH  28  29
ATOM     29  C   UNL A   1      38.793  23.097  26.238  1.00  0.00     0.338 C 
ATOM     30  O   UNL A   1      37.961  23.171  25.344  1.00  0.00    -0.246 OA
BRANCH  29  31
ATOM     31  C   UNL A   1      39.237  24.273  27.022  1.00  0.00     0.060 A 
ATOM     32  C   UNL A   1      39.976  25.227  26.325  1.00  0.00     0.016 A 
ATOM     33  C   UNL A   1      38.958  24.480  28.377  1.00  0.00     0.016 A 
ATOM     34  C   UNL A   1      40.320  26.439  26.920  1.00  0.00     0.010 A 
ATOM     35  C   UNL A   1      39.378  25.667  29.004  1.00  0.00     0.010 A 
ATOM     36  C   UNL A   1      40.032  26.667  28.267  1.00  0.00    -0.014 A 
BRANCH  36  37
ATOM     37  C   UNL A   1      40.570  27.904  28.886  1.00  0.00     0.031 A 
ATOM     38  C   UNL A   1      42.045  27.969  29.164  1.00  0.00     0.074 A 
ATOM     39  C   UNL A   1      39.795  28.993  29.057  1.00  0.00     0.049 A 
ATOM     40  N   UNL A   1      42.745  28.933  29.694  1.00  0.00    -0.248 NA
ATOM     41  C   UNL A   1      42.840  26.800  28.751  1.00  0.00     0.031 C 
ATOM     42  C   UNL A   1      38.392  29.094  28.662  1.00  0.00     0.029 A 
ATOM     43  N   UNL A   1      40.078  30.230  29.581  1.00  0.00    -0.354 N 
ATOM     44  C   UNL A   1      44.062  28.490  29.680  1.00  0.00     0.074 A 
ATOM     45  C   UNL A   1      44.067  27.179  29.072  1.00  0.00     0.031 C 
ATOM     46  C   UNL A   1      37.934  30.321  28.961  1.00  0.00     0.029 A 
ATOM     47  C   UNL A   1      38.991  31.076  29.626  1.00  0.00     0.049 A 
ATOM     48  H   UNL A   1      40.975  30.490  29.895  1.00  0.00     0.167 HD
ATOM     49  C   UNL A   1      45.163  29.112  30.161  1.00  0.00     0.037 A 
ATOM     50  C   UNL A   1      38.859  32.298  30.183  1.00  0.00     0.037 A 
ATOM     51  C   UNL A   1      45.127  30.387  30.822  1.00  0.00     0.049 A 
ATOM     52  C   UNL A   1      40.068  32.907  30.853  1.00  0.00     0.074 A 
ATOM     53  C   UNL A   1      46.151  31.060  31.460  1.00  0.00     0.029 A 
ATOM     54  N   UNL A   1      43.989  31.174  30.941  1.00  0.00    -0.354 N 
ATOM     55  N   UNL A   1      41.296  32.442  30.911  1.00  0.00    -0.248 NA
ATOM     56  C   UNL A   1      39.880  34.188  31.546  1.00  0.00     0.031 C 
ATOM     57  C   UNL A   1      45.620  32.233  32.009  1.00  0.00     0.029 A 
ATOM     58  C   UNL A   1      44.279  32.318  31.662  1.00  0.00     0.049 A 
ATOM     59  H   UNL A   1      43.106  30.952  30.568  1.00  0.00     0.167 HD
ATOM     60  C   UNL A   1      42.028  33.383  31.626  1.00  0.00     0.074 A 
ATOM     61  C   UNL A   1      41.109  34.451  31.968  1.00  0.00     0.031 C 
ATOM     62  C   UNL A   1      43.340  33.369  31.970  1.00  0.00     0.037 A 
BRANCH  49  63
ATOM     63  C   UNL A   1      46.459  28.355  30.079  1.00  0.00     0.058 A 
ATOM     64  C   UNL A   1      46.910  27.534  31.123  1.00  0.00     0.135 A 
ATOM     65  C   UNL A   1      47.289  28.505  28.956  1.00  0.00     0.135 A 
ATOM     66  F   UNL A   1      46.170  27.387  32.235  1.00  0.00    -0.206 F 
ATOM     67  C   UNL A   1      48.155  26.913  31.073  1.00  0.00     0.059 A 
ATOM     68  C   UNL A   1      48.527  27.876  28.874  1.00  0.00     0.059 A 
ATOM     69  F   UNL A   1      46.911  29.291  27.937  1.00  0.00    -0.206 F 
ATOM     70  C   UNL A   1      48.960  27.099  29.947  1.00  0.00     0.060 A 
BRANCH  70  71
ATOM     71  S   UNL A   1      50.593  26.329  29.912  1.00  0.00     0.124 S 
ATOM     72  O   UNL A   1      50.846  26.124  31.336  1.00  0.00    -0.237 OA
ATOM     73  O   UNL A   1      50.352  25.121  29.131  1.00  0.00    -0.237 OA
ATOM     74  O   UNL A   1      51.430  27.335  29.265  1.00  0.00    -0.744 OA
ENDBRANCH  70  71
ENDBRANCH  49  63
BRANCH  50  75
ATOM     75  C   UNL A   1      37.537  32.993  30.207  1.00  0.00     0.058 A 
ATOM     76  C   UNL A   1      36.736  33.028  31.360  1.00  0.00     0.135 A 
ATOM     77  C   UNL A   1      37.026  33.609  29.051  1.00  0.00     0.135 A 
ATOM     78  F   UNL A   1      37.164  32.442  32.490  1.00  0.00    -0.206 F 
ATOM     79  C   UNL A   1      35.477  33.626  31.363  1.00  0.00     0.059 A 
ATOM     80  C   UNL A   1      35.784  34.240  29.038  1.00  0.00     0.059 A 
ATOM     81  F   UNL A   1      37.741  33.611  27.916  1.00  0.00    -0.206 F 
ATOM     82  C   UNL A   1      35.009  34.231  30.195  1.00  0.00     0.060 A 
BRANCH  82  83
ATOM     83  S   UNL A   1      33.385  35.023  30.209  1.00  0.00     0.124 S 
ATOM     84  O   UNL A   1      32.702  34.314  29.134  1.00  0.00    -0.237 OA
ATOM     85  O   UNL A   1      32.917  34.738  31.562  1.00  0.00    -0.237 OA
ATOM     86  O   UNL A   1      33.693  36.425  29.944  1.00  0.00    -0.744 OA
ENDBRANCH  82  83
ENDBRANCH  50  75
BRANCH  62  87
ATOM     87  C   UNL A   1      43.871  34.558  32.720  1.00  0.00     0.058 A 
ATOM     88  C   UNL A   1      43.973  34.562  34.120  1.00  0.00     0.135 A 
ATOM     89  C   UNL A   1      44.363  35.669  32.018  1.00  0.00     0.135 A 
ATOM     90  F   UNL A   1      43.511  33.524  34.834  1.00  0.00    -0.206 F 
ATOM     91  C   UNL A   1      44.536  35.635  34.799  1.00  0.00     0.059 A 
ATOM     92  C   UNL A   1      44.955  36.741  32.676  1.00  0.00     0.059 A 
ATOM     93  F   UNL A   1      44.297  35.706  30.678  1.00  0.00    -0.206 F 
ATOM     94  C   UNL A   1      45.031  36.717  34.068  1.00  0.00     0.060 A 
BRANCH  94  95
ATOM     95  S   UNL A   1      45.818  38.076  34.958  1.00  0.00     0.124 S 
ATOM     96  O   UNL A   1      46.313  37.398  36.151  1.00  0.00    -0.237 OA
ATOM     97  O   UNL A   1      46.836  38.522  34.012  1.00  0.00    -0.237 OA
ATOM     98  O   UNL A   1      44.723  39.016  35.180  1.00  0.00    -0.744 OA
ENDBRANCH  94  95
ENDBRANCH  62  87
ENDBRANCH  36  37
ENDBRANCH  29  31
ENDBRANCH  28  29
ENDBRANCH  27  28
ENDBRANCH   1  27
TORSDOF 20
ENDMDL
MODEL 3
REMARK VINA RESULT:      -9.4      2.212      8.352
REMARK SMILES COc1cc(OC)nc(Oc2ccccc2C(=O)NCC(=O)OCCOC(=O)c2ccc(-c3c4nc(c(-c5c(F)cc(S(=O)(=O)[O-])cc5F)c5ccc([nH]5)c(-c5c(F)cc(S(=O)(=O)[O-])cc5F)c5nc(c(-c6c(F)cc(S(=O)(=O)[O-])cc6F)c6ccc3[nH]6)C=C5)C=C4)cc2)n1
REMARK SMILES IDX 24 1 23 2 21 3 22 4 20 5 19 6 17 7 18 8 16 10 11 11 12 12
REMARK SMILES IDX 13 13 15 14 14 15 10 16 9 17 3 18 4 19 95 20 5 21 8 22 2 23
REMARK SMILES IDX 1 24 6 25 7 26 25 27 26 28 27 29 28 30 29 31 30 32 94 33
REMARK SMILES IDX 31 34 93 35 32 36 33 37 34 38 87 39 35 40 92 41 86 42 88 43
REMARK SMILES IDX 36 44 91 45 85 46 84 47 37 49 71 50 50 51 70 52 51 53 54 54
REMARK SMILES IDX 69 55 89 56 52 57 53 58 68 60 90 61 55 62 38 63 39 64 48 65
REMARK SMILES IDX 40 66 41 67 47 68 49 69 42 70 43 71 44 72 45 73 46 74 72 75
REMARK SMILES IDX 73 76 82 77 74 78 75 79 81 80 83 81 76 82 77 83 78 84 79 85
REMARK SMILES IDX 80 86 56 87 57 88 66 89 58 90 59 91 65 92 67 93 60 94 61 95
REMARK SMILES IDX 62 96 63 97 64 98
REMARK H PARENT 19 9 88 48 54 59
REMARK Flexibility Score: inf
ROOT
ATOM      1  C   UNL A   1      40.456  20.082  26.228  1.00  0.00     0.274 C 
ENDROOT
BRANCH   1   2
ATOM      2  O   UNL A   1      41.749  19.999  26.862  1.00  0.00    -0.461 OA
BRANCH   2   3
ATOM      3  C   UNL A   1      42.673  19.392  26.068  1.00  0.00     0.325 C 
ATOM      4  O   UNL A   1      42.634  18.205  25.750  1.00  0.00    -0.250 OA
BRANCH   3   5
ATOM      5  C   UNL A   1      43.713  20.328  25.475  1.00  0.00     0.239 C 
BRANCH   5   6
ATOM      6  N   UNL A   1      43.403  21.574  24.812  1.00  0.00    -0.341 N 
ATOM      7  C   UNL A   1      43.576  22.850  25.308  1.00  0.00     0.255 C 
ATOM      8  O   UNL A   1      43.299  23.802  24.575  1.00  0.00    -0.269 OA
ATOM      9  H   UNL A   1      43.024  21.505  23.905  1.00  0.00     0.164 HD
BRANCH   7  10
ATOM     10  C   UNL A   1      43.918  23.121  26.746  1.00  0.00     0.082 A 
ATOM     11  C   UNL A   1      45.157  23.460  27.324  1.00  0.00     0.143 A 
ATOM     12  C   UNL A   1      45.276  23.529  28.726  1.00  0.00     0.048 A 
ATOM     13  C   UNL A   1      44.177  23.342  29.558  1.00  0.00     0.004 A 
ATOM     14  C   UNL A   1      42.806  22.989  27.609  1.00  0.00     0.018 A 
ATOM     15  C   UNL A   1      42.932  23.096  28.998  1.00  0.00     0.001 A 
BRANCH  11  16
ATOM     16  O   UNL A   1      46.370  23.681  26.719  1.00  0.00    -0.423 OA
BRANCH  16  17
ATOM     17  C   UNL A   1      46.689  24.949  26.276  1.00  0.00     0.328 A 
ATOM     18  C   UNL A   1      48.256  26.018  25.079  1.00  0.00     0.223 A 
ATOM     19  C   UNL A   1      47.319  26.905  24.620  1.00  0.00     0.137 A 
ATOM     20  N   UNL A   1      47.988  25.064  25.962  1.00  0.00    -0.159 NA
ATOM     21  C   UNL A   1      46.052  26.796  25.129  1.00  0.00     0.223 A 
ATOM     22  N   UNL A   1      45.706  25.799  25.952  1.00  0.00    -0.159 NA
BRANCH  18  23
ATOM     23  O   UNL A   1      49.402  25.909  24.328  1.00  0.00    -0.481 OA
ATOM     24  C   UNL A   1      50.408  26.863  24.626  1.00  0.00     0.280 C 
ENDBRANCH  18  23
BRANCH  21  25
ATOM     25  O   UNL A   1      45.013  27.615  24.777  1.00  0.00    -0.481 OA
ATOM     26  C   UNL A   1      43.703  27.110  25.025  1.00  0.00     0.280 C 
ENDBRANCH  21  25
ENDBRANCH  16  17
ENDBRANCH  11  16
ENDBRANCH   7  10
ENDBRANCH   5   6
ENDBRANCH   3   5
ENDBRANCH   2   3
ENDBRANCH   1   2
BRANCH   1  27
ATOM     27  C   UNL A   1      40.097  21.511  25.818  1.00  0.00     0.275 C 
BRANCH  27  28
ATOM     28  O   UNL A   1      39.110  22.088  26.696  1.00  0.00    -0.458 OA
BRANCH  28  29
ATOM     29  C   UNL A   1      38.591  23.264  26.274  1.00  0.00     0.338 C 
ATOM     30  O   UNL A   1      37.653  23.401  25.500  1.00  0.00    -0.246 OA
BRANCH  29  31
ATOM     31  C   UNL A   1      39.232  24.404  26.970  1.00  0.00     0.060 A 
ATOM     32  C   UNL A   1      40.031  25.229  26.180  1.00  0.00     0.016 A 
ATOM     33  C   UNL A   1      39.078  24.698  28.328  1.00  0.00     0.016 A 
ATOM     34  C   UNL A   1      40.564  26.410  26.693  1.00  0.00     0.010 A 
ATOM     35  C   UNL A   1      39.686  25.846  28.869  1.00  0.00     0.010 A 
ATOM     36  C   UNL A   1      40.403  26.725  28.043  1.00  0.00    -0.014 A 
BRANCH  36  37
ATOM     37  C   UNL A   1      41.133  27.907  28.565  1.00  0.00     0.031 A 
ATOM     38  C   UNL A   1      40.325  29.070  29.066  1.00  0.00     0.074 A 
ATOM     39  C   UNL A   1      42.471  27.887  28.727  1.00  0.00     0.049 A 
ATOM     40  N   UNL A   1      40.729  30.206  29.565  1.00  0.00    -0.248 NA
ATOM     41  C   UNL A   1      38.861  28.910  29.035  1.00  0.00     0.031 C 
ATOM     42  C   UNL A   1      43.333  26.745  28.432  1.00  0.00     0.029 A 
ATOM     43  N   UNL A   1      43.338  28.840  29.200  1.00  0.00    -0.354 N 
ATOM     44  C   UNL A   1      39.573  30.897  29.906  1.00  0.00     0.074 A 
ATOM     45  C   UNL A   1      38.452  30.047  29.576  1.00  0.00     0.031 C 
ATOM     46  C   UNL A   1      44.606  27.062  28.726  1.00  0.00     0.029 A 
ATOM     47  C   UNL A   1      44.661  28.451  29.170  1.00  0.00     0.049 A 
ATOM     48  H   UNL A   1      43.044  29.720  29.531  1.00  0.00     0.167 HD
ATOM     49  C   UNL A   1      39.460  32.143  30.421  1.00  0.00     0.037 A 
ATOM     50  C   UNL A   1      45.783  29.155  29.428  1.00  0.00     0.037 A 
ATOM     51  C   UNL A   1      40.586  32.997  30.680  1.00  0.00     0.049 A 
ATOM     52  C   UNL A   1      45.635  30.596  29.853  1.00  0.00     0.074 A 
ATOM     53  C   UNL A   1      40.594  34.319  31.082  1.00  0.00     0.029 A 
ATOM     54  N   UNL A   1      41.911  32.608  30.543  1.00  0.00    -0.354 N 
ATOM     55  N   UNL A   1      44.534  31.273  30.092  1.00  0.00    -0.248 NA
ATOM     56  C   UNL A   1      46.867  31.377  30.026  1.00  0.00     0.031 C 
ATOM     57  C   UNL A   1      41.926  34.745  31.139  1.00  0.00     0.029 A 
ATOM     58  C   UNL A   1      42.749  33.670  30.830  1.00  0.00     0.049 A 
ATOM     59  H   UNL A   1      42.212  31.708  30.280  1.00  0.00     0.167 HD
ATOM     60  C   UNL A   1      44.942  32.549  30.465  1.00  0.00     0.074 A 
ATOM     61  C   UNL A   1      46.391  32.547  30.432  1.00  0.00     0.031 C 
ATOM     62  C   UNL A   1      44.191  33.626  30.803  1.00  0.00     0.037 A 
BRANCH  49  63
ATOM     63  C   UNL A   1      38.067  32.670  30.620  1.00  0.00     0.058 A 
ATOM     64  C   UNL A   1      37.359  33.312  29.593  1.00  0.00     0.135 A 
ATOM     65  C   UNL A   1      37.457  32.580  31.882  1.00  0.00     0.135 A 
ATOM     66  F   UNL A   1      37.913  33.456  28.378  1.00  0.00    -0.206 F 
ATOM     67  C   UNL A   1      36.107  33.878  29.817  1.00  0.00     0.059 A 
ATOM     68  C   UNL A   1      36.197  33.119  32.123  1.00  0.00     0.059 A 
ATOM     69  F   UNL A   1      38.098  31.991  32.902  1.00  0.00    -0.206 F 
ATOM     70  C   UNL A   1      35.539  33.783  31.090  1.00  0.00     0.060 A 
BRANCH  70  71
ATOM     71  S   UNL A   1      33.936  34.562  31.384  1.00  0.00     0.124 S 
ATOM     72  O   UNL A   1      33.278  34.365  30.095  1.00  0.00    -0.237 OA
ATOM     73  O   UNL A   1      33.406  33.777  32.493  1.00  0.00    -0.237 OA
ATOM     74  O   UNL A   1      34.284  35.942  31.707  1.00  0.00    -0.744 OA
ENDBRANCH  70  71
ENDBRANCH  49  63
BRANCH  50  75
ATOM     75  C   UNL A   1      47.133  28.551  29.222  1.00  0.00     0.058 A 
ATOM     76  C   UNL A   1      47.817  28.658  28.000  1.00  0.00     0.135 A 
ATOM     77  C   UNL A   1      47.755  27.810  30.243  1.00  0.00     0.135 A 
ATOM     78  F   UNL A   1      47.266  29.338  26.982  1.00  0.00    -0.206 F 
ATOM     79  C   UNL A   1      49.051  28.043  27.792  1.00  0.00     0.059 A 
ATOM     80  C   UNL A   1      49.001  27.213  30.069  1.00  0.00     0.059 A 
ATOM     81  F   UNL A   1      47.154  27.669  31.434  1.00  0.00    -0.206 F 
ATOM     82  C   UNL A   1      49.636  27.322  28.834  1.00  0.00     0.060 A 
BRANCH  82  83
ATOM     83  S   UNL A   1      51.245  26.543  28.565  1.00  0.00     0.124 S 
ATOM     84  O   UNL A   1      51.936  27.559  27.781  1.00  0.00    -0.237 OA
ATOM     85  O   UNL A   1      51.724  26.352  29.930  1.00  0.00    -0.237 OA
ATOM     86  O   UNL A   1      50.908  25.316  27.851  1.00  0.00    -0.744 OA
ENDBRANCH  82  83
ENDBRANCH  50  75
BRANCH  62  87
ATOM     87  C   UNL A   1      44.917  34.879  31.203  1.00  0.00     0.058 A 
ATOM     88  C   UNL A   1      45.230  35.880  30.271  1.00  0.00     0.135 A 
ATOM     89  C   UNL A   1      45.224  35.112  32.553  1.00  0.00     0.135 A 
ATOM     90  F   UNL A   1      44.960  35.699  28.969  1.00  0.00    -0.206 F 
ATOM     91  C   UNL A   1      45.834  37.068  30.664  1.00  0.00     0.059 A 
ATOM     92  C   UNL A   1      45.804  36.304  32.971  1.00  0.00     0.059 A 
ATOM     93  F   UNL A   1      44.935  34.187  33.482  1.00  0.00    -0.206 F 
ATOM     94  C   UNL A   1      46.110  37.274  32.018  1.00  0.00     0.060 A 
BRANCH  94  95
ATOM     95  S   UNL A   1      46.836  38.847  32.524  1.00  0.00     0.124 S 
ATOM     96  O   UNL A   1      47.633  39.193  31.352  1.00  0.00    -0.237 OA
ATOM     97  O   UNL A   1      45.657  39.675  32.756  1.00  0.00    -0.237 OA
ATOM     98  O   UNL A   1      47.597  38.501  33.721  1.00  0.00    -0.744 OA
ENDBRANCH  94  95
ENDBRANCH  62  87
ENDBRANCH  36  37
ENDBRANCH  29  31
ENDBRANCH  28  29
ENDBRANCH  27  28
ENDBRANCH   1  27
TORSDOF 20
ENDMDL
