MODEL 1
REMARK VINA RESULT:     -10.3      0.000      0.000
REMARK SMILES O=C(OCCOC(=O)[C@H]1[C@H]2C[C@@H]3[C@@H](OC(=O)[C@@H]31)[C@@H]2Sc1ccccc1)c1ccc(-c2c3nc(c(-c4c(F)cc(S(=O)(=O)[O-])cc4F)c4ccc([nH]4)c(-c4c(F)cc(S(=O)(=O)[O-])cc4F)c4nc(c(-c5c(F)cc(S(=O)(=O)[O-])cc5F)c5ccc2[nH]5)C=C4)C=C3)cc1
REMARK SMILES IDX 4 1 3 2 2 3 1 4 26 5 27 6 91 7 28 8 90 9 29 10 30 11 31 12
REMARK SMILES IDX 84 13 32 14 89 15 83 16 85 17 33 18 88 19 82 20 81 21 34 23
REMARK SMILES IDX 68 24 47 25 67 26 48 27 51 28 66 29 86 30 49 31 50 32 65 34
REMARK SMILES IDX 87 35 52 36 35 37 36 38 45 39 37 40 38 41 44 42 46 43 39 44
REMARK SMILES IDX 40 45 41 46 42 47 43 48 69 49 70 50 79 51 71 52 72 53 78 54
REMARK SMILES IDX 80 55 73 56 74 57 75 58 76 59 77 60 53 61 54 62 63 63 55 64
REMARK SMILES IDX 56 65 62 66 64 67 57 68 58 69 59 70 60 71 61 72 5 73 6 74
REMARK SMILES IDX 7 75 8 76 9 77 10 78 17 79 11 80 18 81 12 82 15 83 13 84
REMARK SMILES IDX 14 85 16 86 19 87 20 88 21 89 25 90 22 91 24 92 23 93
REMARK H PARENT 85 22 51 33
REMARK Flexibility Score: inf
ROOT
ATOM      1  C   UNL A   1      33.952  32.328  28.426  1.00  0.00     0.275 C 
ENDROOT
BRANCH   1   2
ATOM      2  O   UNL A   1      33.932  31.210  27.534  1.00  0.00    -0.458 OA
BRANCH   2   3
ATOM      3  C   UNL A   1      34.637  30.057  27.649  1.00  0.00     0.338 C 
ATOM      4  O   UNL A   1      34.054  28.999  27.418  1.00  0.00    -0.246 OA
BRANCH   3   5
ATOM      5  C   UNL A   1      35.990  29.999  28.314  1.00  0.00     0.060 A 
ATOM      6  C   UNL A   1      36.301  29.605  29.623  1.00  0.00     0.016 A 
ATOM      7  C   UNL A   1      37.065  30.171  27.436  1.00  0.00     0.016 A 
ATOM      8  C   UNL A   1      37.615  29.239  30.003  1.00  0.00     0.010 A 
ATOM      9  C   UNL A   1      38.340  29.716  27.790  1.00  0.00     0.010 A 
ATOM     10  C   UNL A   1      38.648  29.218  29.071  1.00  0.00    -0.014 A 
BRANCH  10  11
ATOM     11  C   UNL A   1      40.050  28.721  29.329  1.00  0.00     0.031 A 
ATOM     12  C   UNL A   1      41.085  29.763  29.690  1.00  0.00     0.074 A 
ATOM     13  C   UNL A   1      40.465  27.451  29.074  1.00  0.00     0.049 A 
ATOM     14  N   UNL A   1      42.389  29.691  29.658  1.00  0.00    -0.248 NA
ATOM     15  C   UNL A   1      40.573  31.092  30.081  1.00  0.00     0.031 C 
ATOM     16  C   UNL A   1      39.622  26.303  28.718  1.00  0.00     0.029 A 
ATOM     17  N   UNL A   1      41.743  26.930  28.974  1.00  0.00    -0.354 N 
ATOM     18  C   UNL A   1      42.834  30.958  30.011  1.00  0.00     0.074 A 
ATOM     19  C   UNL A   1      41.677  31.818  30.075  1.00  0.00     0.031 C 
ATOM     20  C   UNL A   1      40.394  25.275  28.314  1.00  0.00     0.029 A 
ATOM     21  C   UNL A   1      41.796  25.652  28.441  1.00  0.00     0.049 A 
ATOM     22  H   UNL A   1      42.545  27.424  29.258  1.00  0.00     0.167 HD
ATOM     23  C   UNL A   1      44.074  31.358  30.370  1.00  0.00     0.037 A 
ATOM     24  C   UNL A   1      42.848  24.872  28.102  1.00  0.00     0.037 A 
ATOM     25  C   UNL A   1      45.200  30.477  30.441  1.00  0.00     0.049 A 
ATOM     26  C   UNL A   1      44.240  25.345  28.460  1.00  0.00     0.074 A 
ATOM     27  C   UNL A   1      46.457  30.731  30.955  1.00  0.00     0.029 A 
ATOM     28  N   UNL A   1      45.198  29.166  29.995  1.00  0.00    -0.354 N 
ATOM     29  N   UNL A   1      44.609  26.495  28.972  1.00  0.00    -0.248 NA
ATOM     30  C   UNL A   1      45.346  24.392  28.272  1.00  0.00     0.031 C 
ATOM     31  C   UNL A   1      47.233  29.583  30.781  1.00  0.00     0.029 A 
ATOM     32  C   UNL A   1      46.444  28.605  30.195  1.00  0.00     0.049 A 
ATOM     33  H   UNL A   1      44.426  28.705  29.597  1.00  0.00     0.167 HD
ATOM     34  C   UNL A   1      45.968  26.367  29.246  1.00  0.00     0.074 A 
ATOM     35  C   UNL A   1      46.362  25.043  28.822  1.00  0.00     0.031 C 
ATOM     36  C   UNL A   1      46.806  27.263  29.820  1.00  0.00     0.037 A 
BRANCH  23  37
ATOM     37  C   UNL A   1      44.236  32.785  30.804  1.00  0.00     0.058 A 
ATOM     38  C   UNL A   1      44.262  33.133  32.167  1.00  0.00     0.135 A 
ATOM     39  C   UNL A   1      44.363  33.811  29.859  1.00  0.00     0.135 A 
ATOM     40  F   UNL A   1      44.124  32.188  33.111  1.00  0.00    -0.206 F 
ATOM     41  C   UNL A   1      44.356  34.456  32.574  1.00  0.00     0.059 A 
ATOM     42  C   UNL A   1      44.495  35.140  30.247  1.00  0.00     0.059 A 
ATOM     43  F   UNL A   1      44.339  33.529  28.548  1.00  0.00    -0.206 F 
ATOM     44  C   UNL A   1      44.472  35.452  31.606  1.00  0.00     0.060 A 
BRANCH  44  45
ATOM     45  S   UNL A   1      44.602  37.165  32.157  1.00  0.00     0.124 S 
ATOM     46  O   UNL A   1      43.378  37.308  32.941  1.00  0.00    -0.237 OA
ATOM     47  O   UNL A   1      45.845  37.152  32.920  1.00  0.00    -0.237 OA
ATOM     48  O   UNL A   1      44.641  37.920  30.909  1.00  0.00    -0.744 OA
ENDBRANCH  44  45
ENDBRANCH  23  37
BRANCH  24  49
ATOM     49  C   UNL A   1      42.681  23.527  27.466  1.00  0.00     0.058 A 
ATOM     50  C   UNL A   1      42.326  22.405  28.234  1.00  0.00     0.135 A 
ATOM     51  C   UNL A   1      42.995  23.304  26.115  1.00  0.00     0.135 A 
ATOM     52  F   UNL A   1      42.036  22.554  29.537  1.00  0.00    -0.206 F 
ATOM     53  C   UNL A   1      42.342  21.114  27.710  1.00  0.00     0.059 A 
ATOM     54  C   UNL A   1      42.994  22.022  25.558  1.00  0.00     0.059 A 
ATOM     55  F   UNL A   1      43.349  24.337  25.334  1.00  0.00    -0.206 F 
ATOM     56  C   UNL A   1      42.690  20.930  26.371  1.00  0.00     0.060 A 
BRANCH  56  57
ATOM     57  S   UNL A   1      42.750  19.238  25.726  1.00  0.00     0.124 S 
ATOM     58  O   UNL A   1      41.333  18.938  25.552  1.00  0.00    -0.237 OA
ATOM     59  O   UNL A   1      43.517  19.409  24.495  1.00  0.00    -0.237 OA
ATOM     60  O   UNL A   1      43.426  18.493  26.783  1.00  0.00    -0.744 OA
ENDBRANCH  56  57
ENDBRANCH  24  49
BRANCH  36  61
ATOM     61  C   UNL A   1      48.219  26.840  30.102  1.00  0.00     0.058 A 
ATOM     62  C   UNL A   1      49.256  27.088  29.192  1.00  0.00     0.135 A 
ATOM     63  C   UNL A   1      48.555  26.310  31.359  1.00  0.00     0.135 A 
ATOM     64  F   UNL A   1      48.983  27.585  27.975  1.00  0.00    -0.206 F 
ATOM     65  C   UNL A   1      50.581  26.836  29.523  1.00  0.00     0.059 A 
ATOM     66  C   UNL A   1      49.876  26.079  31.722  1.00  0.00     0.059 A 
ATOM     67  F   UNL A   1      47.597  26.064  32.268  1.00  0.00    -0.206 F 
ATOM     68  C   UNL A   1      50.883  26.349  30.797  1.00  0.00     0.060 A 
BRANCH  68  69
ATOM     69  S   UNL A   1      52.617  26.138  31.251  1.00  0.00     0.124 S 
ATOM     70  O   UNL A   1      52.828  27.270  32.145  1.00  0.00    -0.237 OA
ATOM     71  O   UNL A   1      52.613  24.821  31.883  1.00  0.00    -0.237 OA
ATOM     72  O   UNL A   1      53.314  26.208  29.970  1.00  0.00    -0.744 OA
ENDBRANCH  68  69
ENDBRANCH  36  61
ENDBRANCH  10  11
ENDBRANCH   3   5
ENDBRANCH   2   3
ENDBRANCH   1   2
BRANCH   1  73
ATOM     73  C   UNL A   1      34.973  33.412  28.049  1.00  0.00     0.274 C 
BRANCH  73  74
ATOM     74  O   UNL A   1      35.665  34.019  29.160  1.00  0.00    -0.462 OA
BRANCH  74  75
ATOM     75  C   UNL A   1      36.754  33.365  29.676  1.00  0.00     0.310 C 
ATOM     76  O   UNL A   1      37.798  33.192  29.059  1.00  0.00    -0.252 OA
BRANCH  75  77
ATOM     77  C   UNL A   1      36.546  32.877  31.131  1.00  0.00     0.118 C 
ATOM     78  C   UNL A   1      37.880  32.716  31.948  1.00  0.00     0.022 C 
ATOM     79  C   UNL A   1      35.766  33.907  31.973  1.00  0.00     0.120 C 
ATOM     80  C   UNL A   1      38.133  34.167  32.233  1.00  0.00     0.014 C 
ATOM     81  C   UNL A   1      37.650  32.224  33.418  1.00  0.00     0.097 C 
ATOM     82  C   UNL A   1      36.822  34.393  32.947  1.00  0.00     0.047 C 
ATOM     83  C   UNL A   1      34.780  33.226  32.868  1.00  0.00     0.310 C 
ATOM     84  C   UNL A   1      36.755  33.326  34.018  1.00  0.00     0.194 C 
ATOM     85  O   UNL A   1      35.381  32.919  34.053  1.00  0.00    -0.461 OA
ATOM     86  O   UNL A   1      33.650  32.913  32.547  1.00  0.00    -0.252 OA
BRANCH  81  87
ATOM     87  S   UNL A   1      39.193  31.860  34.437  1.00  0.00    -0.119 SA
BRANCH  87  88
ATOM     88  C   UNL A   1      40.167  30.534  33.687  1.00  0.00     0.008 A 
ATOM     89  C   UNL A   1      39.495  29.367  33.283  1.00  0.00     0.015 A 
ATOM     90  C   UNL A   1      41.570  30.510  33.682  1.00  0.00     0.015 A 
ATOM     91  C   UNL A   1      40.196  28.220  32.875  1.00  0.00     0.001 A 
ATOM     92  C   UNL A   1      42.273  29.358  33.275  1.00  0.00     0.001 A 
ATOM     93  C   UNL A   1      41.587  28.214  32.874  1.00  0.00     0.000 A 
ENDBRANCH  87  88
ENDBRANCH  81  87
ENDBRANCH  75  77
ENDBRANCH  74  75
ENDBRANCH  73  74
ENDBRANCH   1  73
TORSDOF 16
ENDMDL
MODEL 2
REMARK VINA RESULT:     -10.0      3.114      6.009
REMARK SMILES O=C(OCCOC(=O)[C@H]1[C@H]2C[C@@H]3[C@@H](OC(=O)[C@@H]31)[C@@H]2Sc1ccccc1)c1ccc(-c2c3nc(c(-c4c(F)cc(S(=O)(=O)[O-])cc4F)c4ccc([nH]4)c(-c4c(F)cc(S(=O)(=O)[O-])cc4F)c4nc(c(-c5c(F)cc(S(=O)(=O)[O-])cc5F)c5ccc2[nH]5)C=C4)C=C3)cc1
REMARK SMILES IDX 4 1 3 2 2 3 1 4 26 5 27 6 91 7 28 8 90 9 29 10 30 11 31 12
REMARK SMILES IDX 84 13 32 14 89 15 83 16 85 17 33 18 88 19 82 20 81 21 34 23
REMARK SMILES IDX 68 24 47 25 67 26 48 27 51 28 66 29 86 30 49 31 50 32 65 34
REMARK SMILES IDX 87 35 52 36 35 37 36 38 45 39 37 40 38 41 44 42 46 43 39 44
REMARK SMILES IDX 40 45 41 46 42 47 43 48 69 49 70 50 79 51 71 52 72 53 78 54
REMARK SMILES IDX 80 55 73 56 74 57 75 58 76 59 77 60 53 61 54 62 63 63 55 64
REMARK SMILES IDX 56 65 62 66 64 67 57 68 58 69 59 70 60 71 61 72 5 73 6 74
REMARK SMILES IDX 7 75 8 76 9 77 10 78 17 79 11 80 18 81 12 82 15 83 13 84
REMARK SMILES IDX 14 85 16 86 19 87 20 88 21 89 25 90 22 91 24 92 23 93
REMARK H PARENT 85 22 51 33
REMARK Flexibility Score: inf
ROOT
ATOM      1  C   UNL A   1      32.526  28.497  27.603  1.00  0.00     0.275 C 
ENDROOT
BRANCH   1   2
ATOM      2  O   UNL A   1      33.868  28.934  27.373  1.00  0.00    -0.458 OA
BRANCH   2   3
ATOM      3  C   UNL A   1      34.463  30.050  27.865  1.00  0.00     0.338 C 
ATOM      4  O   UNL A   1      33.958  31.139  27.597  1.00  0.00    -0.246 OA
BRANCH   3   5
ATOM      5  C   UNL A   1      35.846  30.030  28.468  1.00  0.00     0.060 A 
ATOM      6  C   UNL A   1      36.218  29.711  29.782  1.00  0.00     0.016 A 
ATOM      7  C   UNL A   1      36.879  30.151  27.533  1.00  0.00     0.016 A 
ATOM      8  C   UNL A   1      37.549  29.367  30.120  1.00  0.00     0.010 A 
ATOM      9  C   UNL A   1      38.170  29.718  27.853  1.00  0.00     0.010 A 
ATOM     10  C   UNL A   1      38.538  29.294  29.144  1.00  0.00    -0.014 A 
BRANCH  10  11
ATOM     11  C   UNL A   1      39.952  28.812  29.364  1.00  0.00     0.031 A 
ATOM     12  C   UNL A   1      40.992  29.870  29.663  1.00  0.00     0.074 A 
ATOM     13  C   UNL A   1      40.367  27.540  29.125  1.00  0.00     0.049 A 
ATOM     14  N   UNL A   1      42.293  29.805  29.587  1.00  0.00    -0.248 NA
ATOM     15  C   UNL A   1      40.483  31.204  30.041  1.00  0.00     0.031 C 
ATOM     16  C   UNL A   1      39.522  26.378  28.826  1.00  0.00     0.029 A 
ATOM     17  N   UNL A   1      41.645  27.024  28.992  1.00  0.00    -0.354 N 
ATOM     18  C   UNL A   1      42.741  31.084  29.894  1.00  0.00     0.074 A 
ATOM     19  C   UNL A   1      41.581  31.937  29.978  1.00  0.00     0.031 C 
ATOM     20  C   UNL A   1      40.287  25.346  28.420  1.00  0.00     0.029 A 
ATOM     21  C   UNL A   1      41.689  25.734  28.489  1.00  0.00     0.049 A 
ATOM     22  H   UNL A   1      42.453  27.531  29.236  1.00  0.00     0.167 HD
ATOM     23  C   UNL A   1      43.990  31.500  30.200  1.00  0.00     0.037 A 
ATOM     24  C   UNL A   1      42.735  24.954  28.131  1.00  0.00     0.037 A 
ATOM     25  C   UNL A   1      45.125  30.629  30.252  1.00  0.00     0.049 A 
ATOM     26  C   UNL A   1      44.134  25.445  28.429  1.00  0.00     0.074 A 
ATOM     27  C   UNL A   1      46.397  30.904  30.716  1.00  0.00     0.029 A 
ATOM     28  N   UNL A   1      45.117  29.308  29.838  1.00  0.00    -0.354 N 
ATOM     29  N   UNL A   1      44.512  26.609  28.899  1.00  0.00    -0.248 NA
ATOM     30  C   UNL A   1      45.241  24.495  28.224  1.00  0.00     0.031 C 
ATOM     31  C   UNL A   1      47.174  29.757  30.541  1.00  0.00     0.029 A 
ATOM     32  C   UNL A   1      46.373  28.760  30.007  1.00  0.00     0.049 A 
ATOM     33  H   UNL A   1      44.334  28.832  29.478  1.00  0.00     0.167 HD
ATOM     34  C   UNL A   1      45.881  26.497  29.129  1.00  0.00     0.074 A 
ATOM     35  C   UNL A   1      46.270  25.166  28.723  1.00  0.00     0.031 C 
ATOM     36  C   UNL A   1      46.732  27.412  29.652  1.00  0.00     0.037 A 
BRANCH  23  37
ATOM     37  C   UNL A   1      44.157  32.938  30.594  1.00  0.00     0.058 A 
ATOM     38  C   UNL A   1      44.046  33.343  31.937  1.00  0.00     0.135 A 
ATOM     39  C   UNL A   1      44.423  33.919  29.630  1.00  0.00     0.135 A 
ATOM     40  F   UNL A   1      43.770  32.444  32.896  1.00  0.00    -0.206 F 
ATOM     41  C   UNL A   1      44.144  34.678  32.301  1.00  0.00     0.059 A 
ATOM     42  C   UNL A   1      44.562  35.258  29.979  1.00  0.00     0.059 A 
ATOM     43  F   UNL A   1      44.533  33.583  28.336  1.00  0.00    -0.206 F 
ATOM     44  C   UNL A   1      44.402  35.629  31.314  1.00  0.00     0.060 A 
BRANCH  44  45
ATOM     45  S   UNL A   1      44.534  37.358  31.809  1.00  0.00     0.124 S 
ATOM     46  O   UNL A   1      44.234  38.041  30.554  1.00  0.00    -0.237 OA
ATOM     47  O   UNL A   1      43.512  37.462  32.846  1.00  0.00    -0.237 OA
ATOM     48  O   UNL A   1      45.912  37.472  32.274  1.00  0.00    -0.744 OA
ENDBRANCH  44  45
ENDBRANCH  23  37
BRANCH  24  49
ATOM     49  C   UNL A   1      42.555  23.593  27.534  1.00  0.00     0.058 A 
ATOM     50  C   UNL A   1      42.379  22.464  28.351  1.00  0.00     0.135 A 
ATOM     51  C   UNL A   1      42.685  23.370  26.153  1.00  0.00     0.135 A 
ATOM     52  F   UNL A   1      42.271  22.615  29.681  1.00  0.00    -0.206 F 
ATOM     53  C   UNL A   1      42.394  21.169  27.837  1.00  0.00     0.059 A 
ATOM     54  C   UNL A   1      42.678  22.081  25.609  1.00  0.00     0.059 A 
ATOM     55  F   UNL A   1      42.864  24.409  25.323  1.00  0.00    -0.206 F 
ATOM     56  C   UNL A   1      42.556  20.985  26.463  1.00  0.00     0.060 A 
BRANCH  56  57
ATOM     57  S   UNL A   1      42.620  19.291  25.826  1.00  0.00     0.124 S 
ATOM     58  O   UNL A   1      43.505  19.441  24.676  1.00  0.00    -0.237 OA
ATOM     59  O   UNL A   1      43.176  18.560  26.961  1.00  0.00    -0.237 OA
ATOM     60  O   UNL A   1      41.228  18.990  25.512  1.00  0.00    -0.744 OA
ENDBRANCH  56  57
ENDBRANCH  24  49
BRANCH  36  61
ATOM     61  C   UNL A   1      48.157  27.005  29.894  1.00  0.00     0.058 A 
ATOM     62  C   UNL A   1      49.166  27.270  28.957  1.00  0.00     0.135 A 
ATOM     63  C   UNL A   1      48.533  26.475  31.139  1.00  0.00     0.135 A 
ATOM     64  F   UNL A   1      48.854  27.769  27.751  1.00  0.00    -0.206 F 
ATOM     65  C   UNL A   1      50.503  27.034  29.251  1.00  0.00     0.059 A 
ATOM     66  C   UNL A   1      49.866  26.259  31.465  1.00  0.00     0.059 A 
ATOM     67  F   UNL A   1      47.603  26.212  32.072  1.00  0.00    -0.206 F 
ATOM     68  C   UNL A   1      50.845  26.545  30.515  1.00  0.00     0.060 A 
BRANCH  68  69
ATOM     69  S   UNL A   1      52.592  26.353  30.921  1.00  0.00     0.124 S 
ATOM     70  O   UNL A   1      53.194  26.251  29.596  1.00  0.00    -0.237 OA
ATOM     71  O   UNL A   1      52.876  27.584  31.654  1.00  0.00    -0.237 OA
ATOM     72  O   UNL A   1      52.624  25.133  31.722  1.00  0.00    -0.744 OA
ENDBRANCH  68  69
ENDBRANCH  36  61
ENDBRANCH  10  11
ENDBRANCH   3   5
ENDBRANCH   2   3
ENDBRANCH   1   2
BRANCH   1  73
ATOM     73  C   UNL A   1      31.825  27.944  26.353  1.00  0.00     0.274 C 
BRANCH  73  74
ATOM     74  O   UNL A   1      32.676  27.217  25.442  1.00  0.00    -0.462 OA
BRANCH  74  75
ATOM     75  C   UNL A   1      32.260  27.080  24.143  1.00  0.00     0.310 C 
ATOM     76  O   UNL A   1      31.399  27.781  23.627  1.00  0.00    -0.252 OA
BRANCH  75  77
ATOM     77  C   UNL A   1      33.002  25.958  23.375  1.00  0.00     0.118 C 
ATOM     78  C   UNL A   1      33.402  24.728  24.269  1.00  0.00     0.022 C 
ATOM     79  C   UNL A   1      32.102  25.308  22.304  1.00  0.00     0.120 C 
ATOM     80  C   UNL A   1      32.052  24.081  24.360  1.00  0.00     0.014 C 
ATOM     81  C   UNL A   1      34.149  23.603  23.475  1.00  0.00     0.097 C 
ATOM     82  C   UNL A   1      31.880  23.919  22.869  1.00  0.00     0.047 C 
ATOM     83  C   UNL A   1      32.876  25.036  21.053  1.00  0.00     0.310 C 
ATOM     84  C   UNL A   1      33.126  23.200  22.395  1.00  0.00     0.194 C 
ATOM     85  O   UNL A   1      33.441  23.797  21.131  1.00  0.00    -0.461 OA
ATOM     86  O   UNL A   1      33.048  25.835  20.153  1.00  0.00    -0.252 OA
BRANCH  81  87
ATOM     87  S   UNL A   1      34.800  22.149  24.483  1.00  0.00    -0.119 SA
BRANCH  87  88
ATOM     88  C   UNL A   1      36.491  22.456  25.044  1.00  0.00     0.008 A 
ATOM     89  C   UNL A   1      37.377  21.365  25.102  1.00  0.00     0.015 A 
ATOM     90  C   UNL A   1      36.908  23.662  25.627  1.00  0.00     0.015 A 
ATOM     91  C   UNL A   1      38.639  21.476  25.707  1.00  0.00     0.001 A 
ATOM     92  C   UNL A   1      38.174  23.773  26.237  1.00  0.00     0.001 A 
ATOM     93  C   UNL A   1      39.038  22.680  26.279  1.00  0.00     0.000 A 
ENDBRANCH  87  88
ENDBRANCH  81  87
ENDBRANCH  75  77
ENDBRANCH  74  75
ENDBRANCH  73  74
ENDBRANCH   1  73
TORSDOF 16
ENDMDL
MODEL 3
REMARK VINA RESULT:      -9.7      3.718      6.623
REMARK SMILES O=C(OCCOC(=O)[C@H]1[C@H]2C[C@@H]3[C@@H](OC(=O)[C@@H]31)[C@@H]2Sc1ccccc1)c1ccc(-c2c3nc(c(-c4c(F)cc(S(=O)(=O)[O-])cc4F)c4ccc([nH]4)c(-c4c(F)cc(S(=O)(=O)[O-])cc4F)c4nc(c(-c5c(F)cc(S(=O)(=O)[O-])cc5F)c5ccc2[nH]5)C=C4)C=C3)cc1
REMARK SMILES IDX 4 1 3 2 2 3 1 4 26 5 27 6 91 7 28 8 90 9 29 10 30 11 31 12
REMARK SMILES IDX 84 13 32 14 89 15 83 16 85 17 33 18 88 19 82 20 81 21 34 23
REMARK SMILES IDX 68 24 47 25 67 26 48 27 51 28 66 29 86 30 49 31 50 32 65 34
REMARK SMILES IDX 87 35 52 36 35 37 36 38 45 39 37 40 38 41 44 42 46 43 39 44
REMARK SMILES IDX 40 45 41 46 42 47 43 48 69 49 70 50 79 51 71 52 72 53 78 54
REMARK SMILES IDX 80 55 73 56 74 57 75 58 76 59 77 60 53 61 54 62 63 63 55 64
REMARK SMILES IDX 56 65 62 66 64 67 57 68 58 69 59 70 60 71 61 72 5 73 6 74
REMARK SMILES IDX 7 75 8 76 9 77 10 78 17 79 11 80 18 81 12 82 15 83 13 84
REMARK SMILES IDX 14 85 16 86 19 87 20 88 21 89 25 90 22 91 24 92 23 93
REMARK H PARENT 85 22 51 33
REMARK Flexibility Score: inf
ROOT
ATOM      1  C   UNL A   1      32.315  28.729  27.147  1.00  0.00     0.275 C 
ENDROOT
BRANCH   1   2
ATOM      2  O   UNL A   1      33.697  28.871  27.486  1.00  0.00    -0.458 OA
BRANCH   2   3
ATOM      3  C   UNL A   1      34.352  30.019  27.792  1.00  0.00     0.338 C 
ATOM      4  O   UNL A   1      33.897  31.077  27.360  1.00  0.00    -0.246 OA
BRANCH   3   5
ATOM      5  C   UNL A   1      35.741  30.025  28.382  1.00  0.00     0.060 A 
ATOM      6  C   UNL A   1      36.127  29.748  29.702  1.00  0.00     0.016 A 
ATOM      7  C   UNL A   1      36.764  30.122  27.434  1.00  0.00     0.016 A 
ATOM      8  C   UNL A   1      37.463  29.421  30.037  1.00  0.00     0.010 A 
ATOM      9  C   UNL A   1      38.060  29.706  27.754  1.00  0.00     0.010 A 
ATOM     10  C   UNL A   1      38.443  29.323  29.054  1.00  0.00    -0.014 A 
BRANCH  10  11
ATOM     11  C   UNL A   1      39.861  28.855  29.275  1.00  0.00     0.031 A 
ATOM     12  C   UNL A   1      40.892  29.924  29.568  1.00  0.00     0.074 A 
ATOM     13  C   UNL A   1      40.288  27.585  29.042  1.00  0.00     0.049 A 
ATOM     14  N   UNL A   1      42.194  29.871  29.491  1.00  0.00    -0.248 NA
ATOM     15  C   UNL A   1      40.372  31.256  29.939  1.00  0.00     0.031 C 
ATOM     16  C   UNL A   1      39.453  26.414  28.750  1.00  0.00     0.029 A 
ATOM     17  N   UNL A   1      41.571  27.081  28.911  1.00  0.00    -0.354 N 
ATOM     18  C   UNL A   1      42.630  31.155  29.791  1.00  0.00     0.074 A 
ATOM     19  C   UNL A   1      41.463  31.998  29.872  1.00  0.00     0.031 C 
ATOM     20  C   UNL A   1      40.227  25.387  28.349  1.00  0.00     0.029 A 
ATOM     21  C   UNL A   1      41.626  25.789  28.414  1.00  0.00     0.049 A 
ATOM     22  H   UNL A   1      42.374  27.596  29.151  1.00  0.00     0.167 HD
ATOM     23  C   UNL A   1      43.876  31.584  30.093  1.00  0.00     0.037 A 
ATOM     24  C   UNL A   1      42.678  25.017  28.058  1.00  0.00     0.037 A 
ATOM     25  C   UNL A   1      45.018  30.724  30.148  1.00  0.00     0.049 A 
ATOM     26  C   UNL A   1      44.074  25.522  28.353  1.00  0.00     0.074 A 
ATOM     27  C   UNL A   1      46.288  31.013  30.609  1.00  0.00     0.029 A 
ATOM     28  N   UNL A   1      45.022  29.401  29.740  1.00  0.00    -0.354 N 
ATOM     29  N   UNL A   1      44.441  26.691  28.817  1.00  0.00    -0.248 NA
ATOM     30  C   UNL A   1      45.188  24.580  28.152  1.00  0.00     0.031 C 
ATOM     31  C   UNL A   1      47.076  29.872  30.440  1.00  0.00     0.029 A 
ATOM     32  C   UNL A   1      46.283  28.865  29.911  1.00  0.00     0.049 A 
ATOM     33  H   UNL A   1      44.244  28.916  29.384  1.00  0.00     0.167 HD
ATOM     34  C   UNL A   1      45.811  26.593  29.045  1.00  0.00     0.074 A 
ATOM     35  C   UNL A   1      46.212  25.263  28.646  1.00  0.00     0.031 C 
ATOM     36  C   UNL A   1      46.655  27.519  29.563  1.00  0.00     0.037 A 
BRANCH  23  37
ATOM     37  C   UNL A   1      44.030  33.026  30.480  1.00  0.00     0.058 A 
ATOM     38  C   UNL A   1      44.366  34.004  29.527  1.00  0.00     0.135 A 
ATOM     39  C   UNL A   1      43.847  33.434  31.807  1.00  0.00     0.135 A 
ATOM     40  F   UNL A   1      44.572  33.661  28.246  1.00  0.00    -0.206 F 
ATOM     41  C   UNL A   1      44.564  35.329  29.889  1.00  0.00     0.059 A 
ATOM     42  C   UNL A   1      44.004  34.763  32.185  1.00  0.00     0.059 A 
ATOM     43  F   UNL A   1      43.531  32.536  32.753  1.00  0.00    -0.206 F 
ATOM     44  C   UNL A   1      44.381  35.698  31.221  1.00  0.00     0.060 A 
BRANCH  44  45
ATOM     45  S   UNL A   1      44.636  37.427  31.669  1.00  0.00     0.124 S 
ATOM     46  O   UNL A   1      44.167  37.438  33.051  1.00  0.00    -0.237 OA
ATOM     47  O   UNL A   1      46.075  37.585  31.487  1.00  0.00    -0.237 OA
ATOM     48  O   UNL A   1      43.801  38.150  30.715  1.00  0.00    -0.744 OA
ENDBRANCH  44  45
ENDBRANCH  23  37
BRANCH  24  49
ATOM     49  C   UNL A   1      42.510  23.651  27.469  1.00  0.00     0.058 A 
ATOM     50  C   UNL A   1      42.433  22.514  28.291  1.00  0.00     0.135 A 
ATOM     51  C   UNL A   1      42.554  23.435  26.081  1.00  0.00     0.135 A 
ATOM     52  F   UNL A   1      42.411  22.658  29.626  1.00  0.00    -0.206 F 
ATOM     53  C   UNL A   1      42.463  21.221  27.771  1.00  0.00     0.059 A 
ATOM     54  C   UNL A   1      42.559  22.149  25.533  1.00  0.00     0.059 A 
ATOM     55  F   UNL A   1      42.635  24.483  25.246  1.00  0.00    -0.206 F 
ATOM     56  C   UNL A   1      42.538  21.047  26.388  1.00  0.00     0.060 A 
BRANCH  56  57
ATOM     57  S   UNL A   1      42.623  19.358  25.740  1.00  0.00     0.124 S 
ATOM     58  O   UNL A   1      41.234  19.115  25.366  1.00  0.00    -0.237 OA
ATOM     59  O   UNL A   1      43.561  19.504  24.631  1.00  0.00    -0.237 OA
ATOM     60  O   UNL A   1      43.114  18.581  26.873  1.00  0.00    -0.744 OA
ENDBRANCH  56  57
ENDBRANCH  24  49
BRANCH  36  61
ATOM     61  C   UNL A   1      48.083  27.126  29.805  1.00  0.00     0.058 A 
ATOM     62  C   UNL A   1      49.114  27.541  28.951  1.00  0.00     0.135 A 
ATOM     63  C   UNL A   1      48.434  26.448  30.984  1.00  0.00     0.135 A 
ATOM     64  F   UNL A   1      48.828  28.185  27.808  1.00  0.00    -0.206 F 
ATOM     65  C   UNL A   1      50.448  27.308  29.264  1.00  0.00     0.059 A 
ATOM     66  C   UNL A   1      49.761  26.230  31.331  1.00  0.00     0.059 A 
ATOM     67  F   UNL A   1      47.481  26.038  31.838  1.00  0.00    -0.206 F 
ATOM     68  C   UNL A   1      50.762  26.667  30.465  1.00  0.00     0.060 A 
BRANCH  68  69
ATOM     69  S   UNL A   1      52.500  26.476  30.911  1.00  0.00     0.124 S 
ATOM     70  O   UNL A   1      52.842  27.823  31.352  1.00  0.00    -0.237 OA
ATOM     71  O   UNL A   1      52.441  25.460  31.958  1.00  0.00    -0.237 OA
ATOM     72  O   UNL A   1      53.125  26.045  29.664  1.00  0.00    -0.744 OA
ENDBRANCH  68  69
ENDBRANCH  36  61
ENDBRANCH  10  11
ENDBRANCH   3   5
ENDBRANCH   2   3
ENDBRANCH   1   2
BRANCH   1  73
ATOM     73  C   UNL A   1      32.051  27.739  26.002  1.00  0.00     0.274 C 
BRANCH  73  74
ATOM     74  O   UNL A   1      32.621  26.426  26.182  1.00  0.00    -0.462 OA
BRANCH  74  75
ATOM     75  C   UNL A   1      33.587  26.017  25.299  1.00  0.00     0.310 C 
ATOM     76  O   UNL A   1      33.994  26.704  24.370  1.00  0.00    -0.252 OA
BRANCH  75  77
ATOM     77  C   UNL A   1      34.135  24.600  25.600  1.00  0.00     0.118 C 
ATOM     78  C   UNL A   1      33.104  23.444  25.326  1.00  0.00     0.022 C 
ATOM     79  C   UNL A   1      35.303  24.229  24.664  1.00  0.00     0.120 C 
ATOM     80  C   UNL A   1      33.212  23.412  23.830  1.00  0.00     0.014 C 
ATOM     81  C   UNL A   1      33.676  22.018  25.634  1.00  0.00     0.097 C 
ATOM     82  C   UNL A   1      34.695  23.134  23.809  1.00  0.00     0.047 C 
ATOM     83  C   UNL A   1      36.376  23.504  25.414  1.00  0.00     0.310 C 
ATOM     84  C   UNL A   1      34.892  21.920  24.691  1.00  0.00     0.194 C 
ATOM     85  O   UNL A   1      36.117  22.165  25.394  1.00  0.00    -0.461 OA
ATOM     86  O   UNL A   1      37.281  24.039  26.023  1.00  0.00    -0.252 OA
BRANCH  81  87
ATOM     87  S   UNL A   1      32.475  20.575  25.477  1.00  0.00    -0.119 SA
BRANCH  87  88
ATOM     88  C   UNL A   1      33.182  19.251  24.469  1.00  0.00     0.008 A 
ATOM     89  C   UNL A   1      32.498  18.873  23.299  1.00  0.00     0.015 A 
ATOM     90  C   UNL A   1      34.244  18.437  24.892  1.00  0.00     0.015 A 
ATOM     91  C   UNL A   1      32.868  17.732  22.569  1.00  0.00     0.001 A 
ATOM     92  C   UNL A   1      34.614  17.290  24.160  1.00  0.00     0.001 A 
ATOM     93  C   UNL A   1      33.925  16.937  23.001  1.00  0.00     0.000 A 
ENDBRANCH  87  88
ENDBRANCH  81  87
ENDBRANCH  75  77
ENDBRANCH  74  75
ENDBRANCH  73  74
ENDBRANCH   1  73
TORSDOF 16
ENDMDL
