MODEL 1
REMARK VINA RESULT:     -11.7      0.000      0.000
REMARK SMILES C[C@H](Oc1cc2oc(=O)cc(-c3ccccc3)c2cc1Cl)C(=O)OCCOC(=O)c1ccc(-c2c3nc(c(-c4c(F)cc(S(=O)(=O)[O-])cc4F)c4ccc([nH]4)c(-c4c(F)cc(S(=O)(=O)[O-])cc4F)c4nc(c(-c5c(F)cc(S(=O)(=O)[O-])cc5F)c5ccc2[nH]5)C=C4)C=C3)cc1
REMARK SMILES IDX 25 1 24 2 22 3 23 4 2 5 1 6 3 7 4 8 5 9 20 10 6 11 19 12
REMARK SMILES IDX 21 13 7 14 18 15 8 16 11 17 9 18 10 19 12 20 13 21 17 22
REMARK SMILES IDX 14 23 16 24 15 25 26 26 27 27 28 28 29 29 30 30 31 31 95 32
REMARK SMILES IDX 32 33 94 34 33 35 34 36 35 37 88 38 36 39 93 40 87 41 89 42
REMARK SMILES IDX 37 43 92 44 86 45 85 46 38 48 72 49 51 50 71 51 52 52 55 53
REMARK SMILES IDX 70 54 90 55 53 56 54 57 69 59 91 60 56 61 39 62 40 63 49 64
REMARK SMILES IDX 41 65 42 66 48 67 50 68 43 69 44 70 45 71 46 72 47 73 73 74
REMARK SMILES IDX 74 75 83 76 75 77 76 78 82 79 84 80 77 81 78 82 79 83 80 84
REMARK SMILES IDX 81 85 57 86 58 87 67 88 59 89 60 90 66 91 68 92 61 93 62 94
REMARK SMILES IDX 63 95 64 96 65 97
REMARK H PARENT 89 47 55 58
REMARK Flexibility Score: inf
ROOT
ATOM      1  C   UNL A   1      31.982  30.020  25.579  1.00  0.00     0.274 C 
ENDROOT
BRANCH   1   2
ATOM      2  O   UNL A   1      31.377  28.725  25.412  1.00  0.00    -0.459 OA
BRANCH   2   3
ATOM      3  C   UNL A   1      30.748  28.497  24.223  1.00  0.00     0.347 C 
ATOM      4  O   UNL A   1      30.481  29.363  23.398  1.00  0.00    -0.248 OA
BRANCH   3   5
ATOM      5  C   UNL A   1      30.303  27.038  24.076  1.00  0.00     0.279 C 
ATOM      6  C   UNL A   1      30.461  26.397  25.457  1.00  0.00     0.066 C 
BRANCH   5   7
ATOM      7  O   UNL A   1      31.067  26.419  23.041  1.00  0.00    -0.477 OA
BRANCH   7   8
ATOM      8  C   UNL A   1      31.906  25.370  23.290  1.00  0.00     0.142 A 
ATOM      9  C   UNL A   1      31.511  24.039  23.370  1.00  0.00     0.096 A 
ATOM     10  C   UNL A   1      33.254  25.679  23.545  1.00  0.00     0.084 A 
ATOM     11  C   UNL A   1      32.406  23.082  23.861  1.00  0.00     0.142 A 
ATOM     12  C   UNL A   1      34.160  24.693  23.962  1.00  0.00     0.037 A 
ATOM     13  Cl  UNL A   1      33.845  27.299  23.408  1.00  0.00    -0.080 Cl
ATOM     14  O   UNL A   1      31.872  21.797  24.073  1.00  0.00    -0.423 OA
ATOM     15  C   UNL A   1      33.727  23.384  24.189  1.00  0.00     0.027 A 
ATOM     16  C   UNL A   1      32.599  20.838  24.749  1.00  0.00     0.336 A 
ATOM     17  C   UNL A   1      34.579  22.338  24.785  1.00  0.00    -0.000 A 
ATOM     18  O   UNL A   1      32.118  19.760  25.080  1.00  0.00    -0.246 OA
ATOM     19  C   UNL A   1      33.998  21.158  25.061  1.00  0.00     0.103 A 
BRANCH  17  20
ATOM     20  C   UNL A   1      35.995  22.471  25.201  1.00  0.00    -0.017 A 
ATOM     21  C   UNL A   1      36.895  21.411  25.010  1.00  0.00     0.009 A 
ATOM     22  C   UNL A   1      36.455  23.645  25.814  1.00  0.00     0.009 A 
ATOM     23  C   UNL A   1      38.223  21.522  25.427  1.00  0.00     0.001 A 
ATOM     24  C   UNL A   1      37.788  23.760  26.217  1.00  0.00     0.001 A 
ATOM     25  C   UNL A   1      38.670  22.697  26.026  1.00  0.00     0.000 A 
ENDBRANCH  17  20
ENDBRANCH   7   8
ENDBRANCH   5   7
ENDBRANCH   3   5
ENDBRANCH   2   3
ENDBRANCH   1   2
BRANCH   1  26
ATOM     26  C   UNL A   1      32.461  30.258  27.014  1.00  0.00     0.275 C 
BRANCH  26  27
ATOM     27  O   UNL A   1      33.832  29.862  27.190  1.00  0.00    -0.458 OA
BRANCH  27  28
ATOM     28  C   UNL A   1      34.545  30.649  28.031  1.00  0.00     0.338 C 
ATOM     29  O   UNL A   1      34.128  31.599  28.672  1.00  0.00    -0.246 OA
BRANCH  28  30
ATOM     30  C   UNL A   1      35.906  30.115  28.196  1.00  0.00     0.060 A 
ATOM     31  C   UNL A   1      36.268  29.638  29.460  1.00  0.00     0.016 A 
ATOM     32  C   UNL A   1      36.837  30.146  27.155  1.00  0.00     0.016 A 
ATOM     33  C   UNL A   1      37.568  29.202  29.694  1.00  0.00     0.010 A 
ATOM     34  C   UNL A   1      38.145  29.716  27.394  1.00  0.00     0.010 A 
ATOM     35  C   UNL A   1      38.522  29.260  28.670  1.00  0.00    -0.014 A 
BRANCH  35  36
ATOM     36  C   UNL A   1      39.934  28.921  28.969  1.00  0.00     0.031 A 
ATOM     37  C   UNL A   1      40.803  29.929  29.666  1.00  0.00     0.074 A 
ATOM     38  C   UNL A   1      40.416  27.705  28.655  1.00  0.00     0.049 A 
ATOM     39  N   UNL A   1      42.062  29.840  30.006  1.00  0.00    -0.248 NA
ATOM     40  C   UNL A   1      40.169  31.206  30.032  1.00  0.00     0.031 C 
ATOM     41  C   UNL A   1      39.652  26.635  28.012  1.00  0.00     0.029 A 
ATOM     42  N   UNL A   1      41.663  27.165  28.841  1.00  0.00    -0.354 N 
ATOM     43  C   UNL A   1      42.377  31.049  30.614  1.00  0.00     0.074 A 
ATOM     44  C   UNL A   1      41.180  31.863  30.579  1.00  0.00     0.031 C 
ATOM     45  C   UNL A   1      40.448  25.563  27.860  1.00  0.00     0.029 A 
ATOM     46  C   UNL A   1      41.782  25.882  28.364  1.00  0.00     0.049 A 
ATOM     47  H   UNL A   1      42.402  27.651  29.274  1.00  0.00     0.167 HD
ATOM     48  C   UNL A   1      43.554  31.441  31.158  1.00  0.00     0.037 A 
ATOM     49  C   UNL A   1      42.852  25.064  28.326  1.00  0.00     0.037 A 
ATOM     50  C   UNL A   1      44.739  30.623  31.195  1.00  0.00     0.049 A 
ATOM     51  C   UNL A   1      44.162  25.540  28.894  1.00  0.00     0.074 A 
ATOM     52  C   UNL A   1      45.980  30.926  31.729  1.00  0.00     0.029 A 
ATOM     53  N   UNL A   1      44.831  29.340  30.676  1.00  0.00    -0.354 N 
ATOM     54  N   UNL A   1      44.445  26.685  29.468  1.00  0.00    -0.248 NA
ATOM     55  C   UNL A   1      45.299  24.613  28.808  1.00  0.00     0.031 C 
ATOM     56  C   UNL A   1      46.831  29.839  31.502  1.00  0.00     0.029 A 
ATOM     57  C   UNL A   1      46.110  28.843  30.862  1.00  0.00     0.049 A 
ATOM     58  H   UNL A   1      44.094  28.854  30.239  1.00  0.00     0.167 HD
ATOM     59  C   UNL A   1      45.785  26.608  29.831  1.00  0.00     0.074 A 
ATOM     60  C   UNL A   1      46.253  25.300  29.420  1.00  0.00     0.031 C 
ATOM     61  C   UNL A   1      46.558  27.537  30.449  1.00  0.00     0.037 A 
BRANCH  48  62
ATOM     62  C   UNL A   1      43.622  32.828  31.731  1.00  0.00     0.058 A 
ATOM     63  C   UNL A   1      43.386  33.079  33.092  1.00  0.00     0.135 A 
ATOM     64  C   UNL A   1      43.940  33.922  30.909  1.00  0.00     0.135 A 
ATOM     65  F   UNL A   1      43.061  32.072  33.917  1.00  0.00    -0.206 F 
ATOM     66  C   UNL A   1      43.433  34.368  33.612  1.00  0.00     0.059 A 
ATOM     67  C   UNL A   1      44.013  35.217  31.413  1.00  0.00     0.059 A 
ATOM     68  F   UNL A   1      44.173  33.738  29.599  1.00  0.00    -0.206 F 
ATOM     69  C   UNL A   1      43.742  35.433  32.763  1.00  0.00     0.060 A 
BRANCH  69  70
ATOM     70  S   UNL A   1      43.788  37.102  33.447  1.00  0.00     0.124 S 
ATOM     71  O   UNL A   1      43.781  37.914  32.233  1.00  0.00    -0.237 OA
ATOM     72  O   UNL A   1      42.567  37.149  34.246  1.00  0.00    -0.237 OA
ATOM     73  O   UNL A   1      45.032  37.123  34.209  1.00  0.00    -0.744 OA
ENDBRANCH  69  70
ENDBRANCH  48  62
BRANCH  49  74
ATOM     74  C   UNL A   1      42.729  23.710  27.725  1.00  0.00     0.058 A 
ATOM     75  C   UNL A   1      42.819  23.523  26.339  1.00  0.00     0.135 A 
ATOM     76  C   UNL A   1      42.528  22.576  28.528  1.00  0.00     0.135 A 
ATOM     77  F   UNL A   1      43.001  24.577  25.530  1.00  0.00    -0.206 F 
ATOM     78  C   UNL A   1      42.703  22.260  25.766  1.00  0.00     0.059 A 
ATOM     79  C   UNL A   1      42.432  21.301  27.981  1.00  0.00     0.059 A 
ATOM     80  F   UNL A   1      42.444  22.702  29.862  1.00  0.00    -0.206 F 
ATOM     81  C   UNL A   1      42.512  21.154  26.597  1.00  0.00     0.060 A 
BRANCH  81  82
ATOM     82  S   UNL A   1      42.415  19.512  25.851  1.00  0.00     0.124 S 
ATOM     83  O   UNL A   1      42.785  18.658  26.974  1.00  0.00    -0.237 OA
ATOM     84  O   UNL A   1      41.019  19.445  25.430  1.00  0.00    -0.237 OA
ATOM     85  O   UNL A   1      43.387  19.583  24.763  1.00  0.00    -0.744 OA
ENDBRANCH  81  82
ENDBRANCH  49  74
BRANCH  61  86
ATOM     86  C   UNL A   1      47.981  27.157  30.745  1.00  0.00     0.058 A 
ATOM     87  C   UNL A   1      48.320  26.401  31.879  1.00  0.00     0.135 A 
ATOM     88  C   UNL A   1      49.012  27.518  29.863  1.00  0.00     0.135 A 
ATOM     89  F   UNL A   1      47.373  26.035  32.755  1.00  0.00    -0.206 F 
ATOM     90  C   UNL A   1      49.638  26.039  32.141  1.00  0.00     0.059 A 
ATOM     91  C   UNL A   1      50.333  27.149  30.095  1.00  0.00     0.059 A 
ATOM     92  F   UNL A   1      48.738  28.233  28.760  1.00  0.00    -0.206 F 
ATOM     93  C   UNL A   1      50.638  26.420  31.244  1.00  0.00     0.060 A 
BRANCH  93  94
ATOM     94  S   UNL A   1      52.342  25.926  31.581  1.00  0.00     0.124 S 
ATOM     95  O   UNL A   1      52.744  26.916  32.574  1.00  0.00    -0.237 OA
ATOM     96  O   UNL A   1      52.184  24.562  32.074  1.00  0.00    -0.237 OA
ATOM     97  O   UNL A   1      52.991  26.043  30.278  1.00  0.00    -0.744 OA
ENDBRANCH  93  94
ENDBRANCH  61  86
ENDBRANCH  35  36
ENDBRANCH  28  30
ENDBRANCH  27  28
ENDBRANCH  26  27
ENDBRANCH   1  26
TORSDOF 17
ENDMDL
MODEL 2
REMARK VINA RESULT:     -11.5      2.728      9.273
REMARK SMILES C[C@H](Oc1cc2oc(=O)cc(-c3ccccc3)c2cc1Cl)C(=O)OCCOC(=O)c1ccc(-c2c3nc(c(-c4c(F)cc(S(=O)(=O)[O-])cc4F)c4ccc([nH]4)c(-c4c(F)cc(S(=O)(=O)[O-])cc4F)c4nc(c(-c5c(F)cc(S(=O)(=O)[O-])cc5F)c5ccc2[nH]5)C=C4)C=C3)cc1
REMARK SMILES IDX 25 1 24 2 22 3 23 4 2 5 1 6 3 7 4 8 5 9 20 10 6 11 19 12
REMARK SMILES IDX 21 13 7 14 18 15 8 16 11 17 9 18 10 19 12 20 13 21 17 22
REMARK SMILES IDX 14 23 16 24 15 25 26 26 27 27 28 28 29 29 30 30 31 31 95 32
REMARK SMILES IDX 32 33 94 34 33 35 34 36 35 37 88 38 36 39 93 40 87 41 89 42
REMARK SMILES IDX 37 43 92 44 86 45 85 46 38 48 72 49 51 50 71 51 52 52 55 53
REMARK SMILES IDX 70 54 90 55 53 56 54 57 69 59 91 60 56 61 39 62 40 63 49 64
REMARK SMILES IDX 41 65 42 66 48 67 50 68 43 69 44 70 45 71 46 72 47 73 73 74
REMARK SMILES IDX 74 75 83 76 75 77 76 78 82 79 84 80 77 81 78 82 79 83 80 84
REMARK SMILES IDX 81 85 57 86 58 87 67 88 59 89 60 90 66 91 68 92 61 93 62 94
REMARK SMILES IDX 63 95 64 96 65 97
REMARK H PARENT 89 47 55 58
REMARK Flexibility Score: inf
ROOT
ATOM      1  C   UNL A   1      35.590  22.410  24.100  1.00  0.00     0.274 C 
ENDROOT
BRANCH   1   2
ATOM      2  O   UNL A   1      34.374  23.094  23.747  1.00  0.00    -0.459 OA
BRANCH   2   3
ATOM      3  C   UNL A   1      33.302  22.309  23.437  1.00  0.00     0.347 C 
ATOM      4  O   UNL A   1      32.858  22.152  22.305  1.00  0.00    -0.248 OA
BRANCH   3   5
ATOM      5  C   UNL A   1      32.633  21.726  24.685  1.00  0.00     0.279 C 
ATOM      6  C   UNL A   1      32.484  20.223  24.434  1.00  0.00     0.066 C 
BRANCH   5   7
ATOM      7  O   UNL A   1      31.404  22.414  24.920  1.00  0.00    -0.477 OA
BRANCH   7   8
ATOM      8  C   UNL A   1      31.340  23.777  24.988  1.00  0.00     0.142 A 
ATOM      9  C   UNL A   1      30.628  24.584  24.108  1.00  0.00     0.096 A 
ATOM     10  C   UNL A   1      32.108  24.401  25.988  1.00  0.00     0.084 A 
ATOM     11  C   UNL A   1      30.823  25.969  24.129  1.00  0.00     0.142 A 
ATOM     12  C   UNL A   1      32.232  25.797  26.044  1.00  0.00     0.037 A 
ATOM     13  Cl  UNL A   1      32.976  23.475  27.163  1.00  0.00    -0.080 Cl
ATOM     14  O   UNL A   1      30.199  26.691  23.095  1.00  0.00    -0.423 OA
ATOM     15  C   UNL A   1      31.639  26.600  25.067  1.00  0.00     0.027 A 
ATOM     16  C   UNL A   1      30.494  28.024  22.892  1.00  0.00     0.336 A 
ATOM     17  C   UNL A   1      31.863  28.055  24.965  1.00  0.00    -0.000 A 
ATOM     18  O   UNL A   1      30.085  28.647  21.919  1.00  0.00    -0.246 OA
ATOM     19  C   UNL A   1      31.328  28.684  23.904  1.00  0.00     0.103 A 
BRANCH  17  20
ATOM     20  C   UNL A   1      32.695  28.894  25.859  1.00  0.00    -0.017 A 
ATOM     21  C   UNL A   1      34.002  28.504  26.188  1.00  0.00     0.009 A 
ATOM     22  C   UNL A   1      32.183  30.077  26.412  1.00  0.00     0.009 A 
ATOM     23  C   UNL A   1      34.778  29.279  27.053  1.00  0.00     0.001 A 
ATOM     24  C   UNL A   1      32.966  30.858  27.265  1.00  0.00     0.001 A 
ATOM     25  C   UNL A   1      34.262  30.457  27.588  1.00  0.00     0.000 A 
ENDBRANCH  17  20
ENDBRANCH   7   8
ENDBRANCH   5   7
ENDBRANCH   3   5
ENDBRANCH   2   3
ENDBRANCH   1   2
BRANCH   1  26
ATOM     26  C   UNL A   1      36.146  22.870  25.451  1.00  0.00     0.275 C 
BRANCH  26  27
ATOM     27  O   UNL A   1      37.302  23.710  25.292  1.00  0.00    -0.458 OA
BRANCH  27  28
ATOM     28  C   UNL A   1      38.426  23.244  25.887  1.00  0.00     0.338 C 
ATOM     29  O   UNL A   1      38.938  22.149  25.725  1.00  0.00    -0.246 OA
BRANCH  28  30
ATOM     30  C   UNL A   1      39.062  24.309  26.677  1.00  0.00     0.060 A 
ATOM     31  C   UNL A   1      38.703  24.420  28.025  1.00  0.00     0.016 A 
ATOM     32  C   UNL A   1      39.938  25.230  26.097  1.00  0.00     0.016 A 
ATOM     33  C   UNL A   1      39.206  25.462  28.797  1.00  0.00     0.010 A 
ATOM     34  C   UNL A   1      40.437  26.281  26.872  1.00  0.00     0.010 A 
ATOM     35  C   UNL A   1      40.058  26.413  28.220  1.00  0.00    -0.014 A 
BRANCH  35  36
ATOM     36  C   UNL A   1      40.479  27.591  29.015  1.00  0.00     0.031 A 
ATOM     37  C   UNL A   1      41.835  27.600  29.661  1.00  0.00     0.074 A 
ATOM     38  C   UNL A   1      39.666  28.658  29.121  1.00  0.00     0.049 A 
ATOM     39  N   UNL A   1      42.389  28.519  30.408  1.00  0.00    -0.248 NA
ATOM     40  C   UNL A   1      42.681  26.418  29.434  1.00  0.00     0.031 C 
ATOM     41  C   UNL A   1      38.344  28.775  28.505  1.00  0.00     0.029 A 
ATOM     42  N   UNL A   1      39.837  29.848  29.781  1.00  0.00    -0.354 N 
ATOM     43  C   UNL A   1      43.642  28.025  30.751  1.00  0.00     0.074 A 
ATOM     44  C   UNL A   1      43.759  26.715  30.145  1.00  0.00     0.031 C 
ATOM     45  C   UNL A   1      37.824  29.975  28.813  1.00  0.00     0.029 A 
ATOM     46  C   UNL A   1      38.761  30.695  29.673  1.00  0.00     0.049 A 
ATOM     47  H   UNL A   1      40.653  30.073  30.285  1.00  0.00     0.167 HD
ATOM     48  C   UNL A   1      44.609  28.613  31.495  1.00  0.00     0.037 A 
ATOM     49  C   UNL A   1      38.551  31.909  30.220  1.00  0.00     0.037 A 
ATOM     50  C   UNL A   1      44.488  29.920  32.089  1.00  0.00     0.049 A 
ATOM     51  C   UNL A   1      39.621  32.522  31.083  1.00  0.00     0.074 A 
ATOM     52  C   UNL A   1      45.413  30.607  32.856  1.00  0.00     0.029 A 
ATOM     53  N   UNL A   1      43.371  30.737  31.983  1.00  0.00    -0.354 N 
ATOM     54  N   UNL A   1      40.802  32.044  31.396  1.00  0.00    -0.248 NA
ATOM     55  C   UNL A   1      39.330  33.838  31.668  1.00  0.00     0.031 C 
ATOM     56  C   UNL A   1      44.842  31.825  33.243  1.00  0.00     0.029 A 
ATOM     57  C   UNL A   1      43.577  31.914  32.683  1.00  0.00     0.049 A 
ATOM     58  H   UNL A   1      42.553  30.512  31.483  1.00  0.00     0.167 HD
ATOM     59  C   UNL A   1      41.403  33.009  32.197  1.00  0.00     0.074 A 
ATOM     60  C   UNL A   1      40.459  34.102  32.311  1.00  0.00     0.031 C 
ATOM     61  C   UNL A   1      42.626  32.993  32.784  1.00  0.00     0.037 A 
BRANCH  48  62
ATOM     62  C   UNL A   1      45.870  27.832  31.731  1.00  0.00     0.058 A 
ATOM     63  C   UNL A   1      46.991  27.968  30.897  1.00  0.00     0.135 A 
ATOM     64  C   UNL A   1      45.963  26.941  32.814  1.00  0.00     0.135 A 
ATOM     65  F   UNL A   1      46.949  28.792  29.838  1.00  0.00    -0.206 F 
ATOM     66  C   UNL A   1      48.150  27.228  31.111  1.00  0.00     0.059 A 
ATOM     67  C   UNL A   1      47.119  26.208  33.059  1.00  0.00     0.059 A 
ATOM     68  F   UNL A   1      44.918  26.772  33.641  1.00  0.00    -0.206 F 
ATOM     69  C   UNL A   1      48.203  26.346  32.192  1.00  0.00     0.060 A 
BRANCH  69  70
ATOM     70  S   UNL A   1      49.706  25.382  32.451  1.00  0.00     0.124 S 
ATOM     71  O   UNL A   1      49.242  24.365  33.390  1.00  0.00    -0.237 OA
ATOM     72  O   UNL A   1      50.013  24.907  31.106  1.00  0.00    -0.237 OA
ATOM     73  O   UNL A   1      50.645  26.358  32.996  1.00  0.00    -0.744 OA
ENDBRANCH  69  70
ENDBRANCH  48  62
BRANCH  49  74
ATOM     74  C   UNL A   1      37.273  32.624  29.969  1.00  0.00     0.058 A 
ATOM     75  C   UNL A   1      36.110  32.300  30.682  1.00  0.00     0.135 A 
ATOM     76  C   UNL A   1      37.192  33.652  29.017  1.00  0.00     0.135 A 
ATOM     77  F   UNL A   1      36.135  31.318  31.595  1.00  0.00    -0.206 F 
ATOM     78  C   UNL A   1      34.907  32.962  30.453  1.00  0.00     0.059 A 
ATOM     79  C   UNL A   1      36.007  34.344  28.787  1.00  0.00     0.059 A 
ATOM     80  F   UNL A   1      38.280  34.006  28.315  1.00  0.00    -0.206 F 
ATOM     81  C   UNL A   1      34.867  33.985  29.504  1.00  0.00     0.060 A 
BRANCH  81  82
ATOM     82  S   UNL A   1      33.316  34.875  29.250  1.00  0.00     0.124 S 
ATOM     83  O   UNL A   1      33.794  36.164  28.763  1.00  0.00    -0.237 OA
ATOM     84  O   UNL A   1      32.634  34.035  28.271  1.00  0.00    -0.237 OA
ATOM     85  O   UNL A   1      32.716  34.885  30.581  1.00  0.00    -0.744 OA
ENDBRANCH  81  82
ENDBRANCH  49  74
BRANCH  61  86
ATOM     86  C   UNL A   1      43.023  34.206  33.576  1.00  0.00     0.058 A 
ATOM     87  C   UNL A   1      42.802  34.286  34.959  1.00  0.00     0.135 A 
ATOM     88  C   UNL A   1      43.669  35.285  32.949  1.00  0.00     0.135 A 
ATOM     89  F   UNL A   1      42.184  33.285  35.605  1.00  0.00    -0.206 F 
ATOM     90  C   UNL A   1      43.185  35.407  35.691  1.00  0.00     0.059 A 
ATOM     91  C   UNL A   1      44.079  36.404  33.665  1.00  0.00     0.059 A 
ATOM     92  F   UNL A   1      43.912  35.252  31.629  1.00  0.00    -0.206 F 
ATOM     93  C   UNL A   1      43.821  36.462  35.034  1.00  0.00     0.060 A 
BRANCH  93  94
ATOM     94  S   UNL A   1      44.335  37.902  35.996  1.00  0.00     0.124 S 
ATOM     95  O   UNL A   1      43.526  37.753  37.201  1.00  0.00    -0.237 OA
ATOM     96  O   UNL A   1      45.767  37.675  36.163  1.00  0.00    -0.237 OA
ATOM     97  O   UNL A   1      43.981  39.026  35.135  1.00  0.00    -0.744 OA
ENDBRANCH  93  94
ENDBRANCH  61  86
ENDBRANCH  35  36
ENDBRANCH  28  30
ENDBRANCH  27  28
ENDBRANCH  26  27
ENDBRANCH   1  26
TORSDOF 17
ENDMDL
MODEL 3
REMARK VINA RESULT:     -11.5      1.330      2.610
REMARK SMILES C[C@H](Oc1cc2oc(=O)cc(-c3ccccc3)c2cc1Cl)C(=O)OCCOC(=O)c1ccc(-c2c3nc(c(-c4c(F)cc(S(=O)(=O)[O-])cc4F)c4ccc([nH]4)c(-c4c(F)cc(S(=O)(=O)[O-])cc4F)c4nc(c(-c5c(F)cc(S(=O)(=O)[O-])cc5F)c5ccc2[nH]5)C=C4)C=C3)cc1
REMARK SMILES IDX 25 1 24 2 22 3 23 4 2 5 1 6 3 7 4 8 5 9 20 10 6 11 19 12
REMARK SMILES IDX 21 13 7 14 18 15 8 16 11 17 9 18 10 19 12 20 13 21 17 22
REMARK SMILES IDX 14 23 16 24 15 25 26 26 27 27 28 28 29 29 30 30 31 31 95 32
REMARK SMILES IDX 32 33 94 34 33 35 34 36 35 37 88 38 36 39 93 40 87 41 89 42
REMARK SMILES IDX 37 43 92 44 86 45 85 46 38 48 72 49 51 50 71 51 52 52 55 53
REMARK SMILES IDX 70 54 90 55 53 56 54 57 69 59 91 60 56 61 39 62 40 63 49 64
REMARK SMILES IDX 41 65 42 66 48 67 50 68 43 69 44 70 45 71 46 72 47 73 73 74
REMARK SMILES IDX 74 75 83 76 75 77 76 78 82 79 84 80 77 81 78 82 79 83 80 84
REMARK SMILES IDX 81 85 57 86 58 87 67 88 59 89 60 90 66 91 68 92 61 93 62 94
REMARK SMILES IDX 63 95 64 96 65 97
REMARK H PARENT 89 47 55 58
REMARK Flexibility Score: inf
ROOT
ATOM      1  C   UNL A   1      32.127  29.149  25.759  1.00  0.00     0.274 C 
ENDROOT
BRANCH   1   2
ATOM      2  O   UNL A   1      32.123  28.042  24.840  1.00  0.00    -0.459 OA
BRANCH   2   3
ATOM      3  C   UNL A   1      33.109  28.031  23.896  1.00  0.00     0.347 C 
ATOM      4  O   UNL A   1      33.572  29.031  23.362  1.00  0.00    -0.248 OA
BRANCH   3   5
ATOM      5  C   UNL A   1      33.501  26.607  23.487  1.00  0.00     0.279 C 
ATOM      6  C   UNL A   1      33.201  26.490  21.991  1.00  0.00     0.066 C 
BRANCH   5   7
ATOM      7  O   UNL A   1      32.798  25.675  24.310  1.00  0.00    -0.477 OA
BRANCH   7   8
ATOM      8  C   UNL A   1      33.327  24.461  24.642  1.00  0.00     0.142 A 
ATOM      9  C   UNL A   1      34.625  24.257  25.099  1.00  0.00     0.096 A 
ATOM     10  C   UNL A   1      32.509  23.335  24.442  1.00  0.00     0.084 A 
ATOM     11  C   UNL A   1      35.131  22.955  25.182  1.00  0.00     0.142 A 
ATOM     12  C   UNL A   1      33.009  22.034  24.605  1.00  0.00     0.037 A 
ATOM     13  Cl  UNL A   1      30.863  23.498  23.934  1.00  0.00    -0.080 Cl
ATOM     14  O   UNL A   1      36.501  22.850  25.485  1.00  0.00    -0.423 OA
ATOM     15  C   UNL A   1      34.356  21.827  24.916  1.00  0.00     0.027 A 
ATOM     16  C   UNL A   1      37.151  21.636  25.382  1.00  0.00     0.336 A 
ATOM     17  C   UNL A   1      34.989  20.495  24.938  1.00  0.00    -0.000 A 
ATOM     18  O   UNL A   1      38.367  21.530  25.496  1.00  0.00    -0.246 OA
ATOM     19  C   UNL A   1      36.318  20.453  25.133  1.00  0.00     0.103 A 
BRANCH  17  20
ATOM     20  C   UNL A   1      34.335  19.192  24.679  1.00  0.00    -0.017 A 
ATOM     21  C   UNL A   1      35.091  18.088  24.255  1.00  0.00     0.009 A 
ATOM     22  C   UNL A   1      32.948  19.044  24.827  1.00  0.00     0.009 A 
ATOM     23  C   UNL A   1      34.473  16.866  23.982  1.00  0.00     0.001 A 
ATOM     24  C   UNL A   1      32.334  17.816  24.567  1.00  0.00     0.001 A 
ATOM     25  C   UNL A   1      33.096  16.729  24.142  1.00  0.00     0.000 A 
ENDBRANCH  17  20
ENDBRANCH   7   8
ENDBRANCH   5   7
ENDBRANCH   3   5
ENDBRANCH   2   3
ENDBRANCH   1   2
BRANCH   1  26
ATOM     26  C   UNL A   1      32.584  28.740  27.162  1.00  0.00     0.275 C 
BRANCH  26  27
ATOM     27  O   UNL A   1      34.015  28.795  27.291  1.00  0.00    -0.458 OA
BRANCH  27  28
ATOM     28  C   UNL A   1      34.496  29.969  27.768  1.00  0.00     0.338 C 
ATOM     29  O   UNL A   1      33.862  30.991  27.964  1.00  0.00    -0.246 OA
BRANCH  28  30
ATOM     30  C   UNL A   1      35.903  29.815  28.170  1.00  0.00     0.060 A 
ATOM     31  C   UNL A   1      36.884  30.053  27.202  1.00  0.00     0.016 A 
ATOM     32  C   UNL A   1      36.256  29.377  29.448  1.00  0.00     0.016 A 
ATOM     33  C   UNL A   1      38.225  29.839  27.503  1.00  0.00     0.010 A 
ATOM     34  C   UNL A   1      37.604  29.154  29.747  1.00  0.00     0.010 A 
ATOM     35  C   UNL A   1      38.593  29.365  28.769  1.00  0.00    -0.014 A 
BRANCH  35  36
ATOM     36  C   UNL A   1      40.009  29.014  29.032  1.00  0.00     0.031 A 
ATOM     37  C   UNL A   1      40.907  30.015  29.700  1.00  0.00     0.074 A 
ATOM     38  C   UNL A   1      40.470  27.791  28.711  1.00  0.00     0.049 A 
ATOM     39  N   UNL A   1      42.174  29.915  30.005  1.00  0.00    -0.248 NA
ATOM     40  C   UNL A   1      40.296  31.300  30.076  1.00  0.00     0.031 C 
ATOM     41  C   UNL A   1      39.678  26.726  28.094  1.00  0.00     0.029 A 
ATOM     42  N   UNL A   1      41.716  27.239  28.865  1.00  0.00    -0.354 N 
ATOM     43  C   UNL A   1      42.518  31.125  30.598  1.00  0.00     0.074 A 
ATOM     44  C   UNL A   1      41.329  31.951  30.591  1.00  0.00     0.031 C 
ATOM     45  C   UNL A   1      40.458  25.645  27.926  1.00  0.00     0.029 A 
ATOM     46  C   UNL A   1      41.809  25.953  28.392  1.00  0.00     0.049 A 
ATOM     47  H   UNL A   1      42.472  27.720  29.275  1.00  0.00     0.167 HD
ATOM     48  C   UNL A   1      43.714  31.507  31.107  1.00  0.00     0.037 A 
ATOM     49  C   UNL A   1      42.869  25.124  28.329  1.00  0.00     0.037 A 
ATOM     50  C   UNL A   1      44.891  30.677  31.116  1.00  0.00     0.049 A 
ATOM     51  C   UNL A   1      44.199  25.589  28.858  1.00  0.00     0.074 A 
ATOM     52  C   UNL A   1      46.148  30.969  31.614  1.00  0.00     0.029 A 
ATOM     53  N   UNL A   1      44.955  29.390  30.601  1.00  0.00    -0.354 N 
ATOM     54  N   UNL A   1      44.509  26.734  29.418  1.00  0.00    -0.248 NA
ATOM     55  C   UNL A   1      45.324  24.650  28.745  1.00  0.00     0.031 C 
ATOM     56  C   UNL A   1      46.982  29.873  31.369  1.00  0.00     0.029 A 
ATOM     57  C   UNL A   1      46.234  28.882  30.754  1.00  0.00     0.049 A 
ATOM     58  H   UNL A   1      44.202  28.910  30.187  1.00  0.00     0.167 HD
ATOM     59  C   UNL A   1      45.858  26.645  29.744  1.00  0.00     0.074 A 
ATOM     60  C   UNL A   1      46.302  25.330  29.328  1.00  0.00     0.031 C 
ATOM     61  C   UNL A   1      46.657  27.568  30.336  1.00  0.00     0.037 A 
BRANCH  48  62
ATOM     62  C   UNL A   1      43.811  32.896  31.671  1.00  0.00     0.058 A 
ATOM     63  C   UNL A   1      44.049  34.011  30.851  1.00  0.00     0.135 A 
ATOM     64  C   UNL A   1      43.654  33.118  33.049  1.00  0.00     0.135 A 
ATOM     65  F   UNL A   1      44.224  33.853  29.530  1.00  0.00    -0.206 F 
ATOM     66  C   UNL A   1      44.156  35.293  31.381  1.00  0.00     0.059 A 
ATOM     67  C   UNL A   1      43.735  34.394  33.597  1.00  0.00     0.059 A 
ATOM     68  F   UNL A   1      43.427  32.085  33.878  1.00  0.00    -0.206 F 
ATOM     69  C   UNL A   1      44.003  35.474  32.757  1.00  0.00     0.060 A 
BRANCH  69  70
ATOM     70  S   UNL A   1      44.156  37.140  33.435  1.00  0.00     0.124 S 
ATOM     71  O   UNL A   1      44.600  37.891  32.264  1.00  0.00    -0.237 OA
ATOM     72  O   UNL A   1      42.799  37.422  33.890  1.00  0.00    -0.237 OA
ATOM     73  O   UNL A   1      45.149  36.985  34.494  1.00  0.00    -0.744 OA
ENDBRANCH  69  70
ENDBRANCH  48  62
BRANCH  49  74
ATOM     74  C   UNL A   1      42.716  23.768  27.738  1.00  0.00     0.058 A 
ATOM     75  C   UNL A   1      42.771  23.572  26.351  1.00  0.00     0.135 A 
ATOM     76  C   UNL A   1      42.521  22.641  28.552  1.00  0.00     0.135 A 
ATOM     77  F   UNL A   1      42.945  24.620  25.532  1.00  0.00    -0.206 F 
ATOM     78  C   UNL A   1      42.626  22.308  25.789  1.00  0.00     0.059 A 
ATOM     79  C   UNL A   1      42.398  21.364  28.014  1.00  0.00     0.059 A 
ATOM     80  F   UNL A   1      42.472  22.775  29.887  1.00  0.00    -0.206 F 
ATOM     81  C   UNL A   1      42.442  21.209  26.630  1.00  0.00     0.060 A 
BRANCH  81  82
ATOM     82  S   UNL A   1      42.309  19.564  25.895  1.00  0.00     0.124 S 
ATOM     83  O   UNL A   1      42.651  18.709  27.026  1.00  0.00    -0.237 OA
ATOM     84  O   UNL A   1      40.914  19.528  25.467  1.00  0.00    -0.237 OA
ATOM     85  O   UNL A   1      43.287  19.603  24.812  1.00  0.00    -0.744 OA
ENDBRANCH  81  82
ENDBRANCH  49  74
BRANCH  61  86
ATOM     86  C   UNL A   1      48.084  27.175  30.595  1.00  0.00     0.058 A 
ATOM     87  C   UNL A   1      49.111  27.500  29.695  1.00  0.00     0.135 A 
ATOM     88  C   UNL A   1      48.433  26.502  31.777  1.00  0.00     0.135 A 
ATOM     89  F   UNL A   1      48.829  28.138  28.548  1.00  0.00    -0.206 F 
ATOM     90  C   UNL A   1      50.434  27.146  29.946  1.00  0.00     0.059 A 
ATOM     91  C   UNL A   1      49.751  26.158  32.057  1.00  0.00     0.059 A 
ATOM     92  F   UNL A   1      47.489  26.178  32.674  1.00  0.00    -0.206 F 
ATOM     93  C   UNL A   1      50.743  26.473  31.130  1.00  0.00     0.060 A 
BRANCH  93  94
ATOM     94  S   UNL A   1      52.465  26.039  31.458  1.00  0.00     0.124 S 
ATOM     95  O   UNL A   1      53.043  26.100  30.120  1.00  0.00    -0.237 OA
ATOM     96  O   UNL A   1      52.886  27.090  32.379  1.00  0.00    -0.237 OA
ATOM     97  O   UNL A   1      52.372  24.705  32.042  1.00  0.00    -0.744 OA
ENDBRANCH  93  94
ENDBRANCH  61  86
ENDBRANCH  35  36
ENDBRANCH  28  30
ENDBRANCH  27  28
ENDBRANCH  26  27
ENDBRANCH   1  26
TORSDOF 17
ENDMDL
