MODEL 1
REMARK VINA RESULT:     -12.2      0.000      0.000
REMARK SMILES CN(C)C(=O)c1ccc2c(c1)N(CC(=O)OCCOC(=O)c1ccc(-c3c4nc(c(-c5c(F)cc(S(=O)(=O)[O-])cc5F)c5ccc([nH]5)c(-c5c(F)cc(S(=O)(=O)[O-])cc5F)c5nc(c(-c6c(F)cc(S(=O)(=O)[O-])cc6F)c6ccc3[nH]6)C=C5)C=C4)cc1)C(=O)[C@@H]1CCCCN21
REMARK SMILES IDX 18 1 17 2 16 3 14 4 15 5 13 6 12 7 6 8 7 9 11 10 8 11 10 12
REMARK SMILES IDX 9 13 95 14 88 15 90 16 94 17 89 18 91 19 93 20 92 21 4 22
REMARK SMILES IDX 1 23 2 24 3 25 5 26 19 27 20 28 21 29 22 30 23 31 87 32
REMARK SMILES IDX 24 33 86 34 25 35 26 36 27 37 80 38 28 39 85 40 79 41 81 42
REMARK SMILES IDX 29 43 84 44 78 45 77 46 30 48 64 49 43 50 63 51 44 52 47 53
REMARK SMILES IDX 62 54 82 55 45 56 46 57 61 59 83 60 48 61 31 62 32 63 41 64
REMARK SMILES IDX 33 65 34 66 40 67 42 68 35 69 36 70 37 71 38 72 39 73 65 74
REMARK SMILES IDX 66 75 75 76 67 77 68 78 74 79 76 80 69 81 70 82 71 83 72 84
REMARK SMILES IDX 73 85 49 86 50 87 59 88 51 89 52 90 58 91 60 92 53 93 54 94
REMARK SMILES IDX 55 95 56 96 57 97
REMARK H PARENT 81 47 47 58
REMARK Flexibility Score: inf
ROOT
ATOM      1  C   UNL A   1      40.689  22.755  26.571  1.00  0.00     0.275 C 
ENDROOT
BRANCH   1   2
ATOM      2  C   UNL A   1      39.624  21.692  26.276  1.00  0.00     0.274 C 
BRANCH   2   3
ATOM      3  O   UNL A   1      38.392  22.237  25.756  1.00  0.00    -0.461 OA
BRANCH   3   4
ATOM      4  C   UNL A   1      37.489  21.303  25.358  1.00  0.00     0.326 C 
ATOM      5  O   UNL A   1      37.767  20.346  24.635  1.00  0.00    -0.250 OA
BRANCH   4   6
ATOM      6  C   UNL A   1      36.088  21.455  25.941  1.00  0.00     0.248 C 
BRANCH   6   7
ATOM      7  N   UNL A   1      34.991  22.022  25.170  1.00  0.00    -0.297 N 
ATOM      8  C   UNL A   1      33.205  19.067  23.725  1.00  0.00     0.042 A 
ATOM      9  C   UNL A   1      32.190  19.676  23.005  1.00  0.00     0.016 A 
ATOM     10  C   UNL A   1      34.167  19.840  24.379  1.00  0.00     0.042 A 
ATOM     11  C   UNL A   1      32.137  21.070  22.952  1.00  0.00     0.029 A 
ATOM     12  C   UNL A   1      34.100  21.241  24.367  1.00  0.00     0.069 A 
ATOM     13  C   UNL A   1      33.086  21.889  23.602  1.00  0.00     0.062 A 
ATOM     14  N   UNL A   1      33.046  23.281  23.487  1.00  0.00    -0.358 N 
ATOM     15  C   UNL A   1      34.869  23.404  25.216  1.00  0.00     0.250 C 
ATOM     16  C   UNL A   1      34.209  24.028  23.985  1.00  0.00     0.172 C 
ATOM     17  C   UNL A   1      31.945  24.008  22.854  1.00  0.00     0.117 C 
ATOM     18  O   UNL A   1      35.409  24.084  26.093  1.00  0.00    -0.272 OA
ATOM     19  C   UNL A   1      33.843  25.483  24.264  1.00  0.00     0.035 C 
ATOM     20  C   UNL A   1      32.345  25.349  22.233  1.00  0.00     0.022 C 
ATOM     21  C   UNL A   1      33.411  26.148  22.972  1.00  0.00     0.004 C 
BRANCH   8  22
ATOM     22  C   UNL A   1      33.281  17.595  23.790  1.00  0.00     0.253 C 
ATOM     23  C   UNL A   1      32.880  15.503  25.002  1.00  0.00     0.146 C 
ATOM     24  N   UNL A   1      32.875  16.954  24.959  1.00  0.00    -0.345 N 
ATOM     25  C   UNL A   1      32.546  17.627  26.208  1.00  0.00     0.146 C 
ATOM     26  O   UNL A   1      33.692  17.017  22.788  1.00  0.00    -0.269 OA
ENDBRANCH   8  22
ENDBRANCH   6   7
ENDBRANCH   4   6
ENDBRANCH   3   4
ENDBRANCH   2   3
ENDBRANCH   1   2
BRANCH   1  27
ATOM     27  O   UNL A   1      40.171  24.096  26.496  1.00  0.00    -0.458 OA
BRANCH  27  28
ATOM     28  C   UNL A   1      41.119  25.039  26.673  1.00  0.00     0.338 C 
ATOM     29  O   UNL A   1      42.068  25.245  25.929  1.00  0.00    -0.246 OA
BRANCH  28  30
ATOM     30  C   UNL A   1      40.886  25.860  27.867  1.00  0.00     0.060 A 
ATOM     31  C   UNL A   1      41.761  26.907  28.154  1.00  0.00     0.016 A 
ATOM     32  C   UNL A   1      39.692  25.721  28.576  1.00  0.00     0.016 A 
ATOM     33  C   UNL A   1      41.445  27.802  29.179  1.00  0.00     0.010 A 
ATOM     34  C   UNL A   1      39.339  26.665  29.538  1.00  0.00     0.010 A 
ATOM     35  C   UNL A   1      40.232  27.688  29.878  1.00  0.00    -0.014 A 
BRANCH  35  36
ATOM     36  C   UNL A   1      39.970  28.557  31.051  1.00  0.00     0.031 A 
ATOM     37  C   UNL A   1      40.812  28.380  32.284  1.00  0.00     0.074 A 
ATOM     38  C   UNL A   1      39.034  29.523  31.002  1.00  0.00     0.049 A 
ATOM     39  N   UNL A   1      40.916  29.158  33.329  1.00  0.00    -0.248 NA
ATOM     40  C   UNL A   1      41.644  27.166  32.355  1.00  0.00     0.031 C 
ATOM     41  C   UNL A   1      38.103  29.751  29.897  1.00  0.00     0.029 A 
ATOM     42  N   UNL A   1      38.727  30.509  31.906  1.00  0.00    -0.354 N 
ATOM     43  C   UNL A   1      41.856  28.553  34.153  1.00  0.00     0.074 A 
ATOM     44  C   UNL A   1      42.221  27.298  33.539  1.00  0.00     0.031 C 
ATOM     45  C   UNL A   1      37.353  30.834  30.171  1.00  0.00     0.029 A 
ATOM     46  C   UNL A   1      37.761  31.383  31.463  1.00  0.00     0.049 A 
ATOM     47  H   UNL A   1      39.156  30.585  32.790  1.00  0.00     0.167 HD
ATOM     48  C   UNL A   1      42.410  29.024  35.293  1.00  0.00     0.037 A 
ATOM     49  C   UNL A   1      37.293  32.518  32.020  1.00  0.00     0.037 A 
ATOM     50  C   UNL A   1      42.047  30.267  35.907  1.00  0.00     0.049 A 
ATOM     51  C   UNL A   1      37.889  33.005  33.316  1.00  0.00     0.074 A 
ATOM     52  C   UNL A   1      42.582  30.864  37.033  1.00  0.00     0.029 A 
ATOM     53  N   UNL A   1      41.040  31.101  35.445  1.00  0.00    -0.354 N 
ATOM     54  N   UNL A   1      38.869  32.487  34.019  1.00  0.00    -0.248 NA
ATOM     55  C   UNL A   1      37.329  34.240  33.885  1.00  0.00     0.031 C 
ATOM     56  C   UNL A   1      41.877  32.049  37.269  1.00  0.00     0.029 A 
ATOM     57  C   UNL A   1      40.919  32.197  36.277  1.00  0.00     0.049 A 
ATOM     58  H   UNL A   1      40.492  30.936  34.644  1.00  0.00     0.167 HD
ATOM     59  C   UNL A   1      39.058  33.344  35.098  1.00  0.00     0.074 A 
ATOM     60  C   UNL A   1      38.092  34.414  34.956  1.00  0.00     0.031 C 
ATOM     61  C   UNL A   1      39.953  33.254  36.111  1.00  0.00     0.037 A 
BRANCH  48  62
ATOM     62  C   UNL A   1      43.500  28.195  35.903  1.00  0.00     0.058 A 
ATOM     63  C   UNL A   1      43.190  27.149  36.789  1.00  0.00     0.135 A 
ATOM     64  C   UNL A   1      44.850  28.458  35.637  1.00  0.00     0.135 A 
ATOM     65  F   UNL A   1      41.912  26.874  37.091  1.00  0.00    -0.206 F 
ATOM     66  C   UNL A   1      44.188  26.414  37.419  1.00  0.00     0.059 A 
ATOM     67  C   UNL A   1      45.865  27.723  36.244  1.00  0.00     0.059 A 
ATOM     68  F   UNL A   1      45.195  29.454  34.806  1.00  0.00    -0.206 F 
ATOM     69  C   UNL A   1      45.523  26.716  37.148  1.00  0.00     0.060 A 
BRANCH  69  70
ATOM     70  S   UNL A   1      46.806  25.776  37.999  1.00  0.00     0.124 S 
ATOM     71  O   UNL A   1      46.074  25.264  39.154  1.00  0.00    -0.237 OA
ATOM     72  O   UNL A   1      47.186  24.782  37.000  1.00  0.00    -0.237 OA
ATOM     73  O   UNL A   1      47.822  26.781  38.296  1.00  0.00    -0.744 OA
ENDBRANCH  69  70
ENDBRANCH  48  62
BRANCH  49  74
ATOM     74  C   UNL A   1      36.252  33.316  31.322  1.00  0.00     0.058 A 
ATOM     75  C   UNL A   1      36.580  34.095  30.203  1.00  0.00     0.135 A 
ATOM     76  C   UNL A   1      34.919  33.319  31.757  1.00  0.00     0.135 A 
ATOM     77  F   UNL A   1      37.843  34.129  29.755  1.00  0.00    -0.206 F 
ATOM     78  C   UNL A   1      35.622  34.860  29.544  1.00  0.00     0.059 A 
ATOM     79  C   UNL A   1      33.942  34.067  31.107  1.00  0.00     0.059 A 
ATOM     80  F   UNL A   1      34.559  32.588  32.823  1.00  0.00    -0.206 F 
ATOM     81  C   UNL A   1      34.305  34.842  30.005  1.00  0.00     0.060 A 
BRANCH  81  82
ATOM     82  S   UNL A   1      33.064  35.814  29.120  1.00  0.00     0.124 S 
ATOM     83  O   UNL A   1      33.900  36.743  28.370  1.00  0.00    -0.237 OA
ATOM     84  O   UNL A   1      32.378  34.796  28.332  1.00  0.00    -0.237 OA
ATOM     85  O   UNL A   1      32.271  36.403  30.195  1.00  0.00    -0.744 OA
ENDBRANCH  81  82
ENDBRANCH  49  74
BRANCH  61  86
ATOM     86  C   UNL A   1      39.946  34.333  37.153  1.00  0.00     0.058 A 
ATOM     87  C   UNL A   1      40.667  35.521  36.967  1.00  0.00     0.135 A 
ATOM     88  C   UNL A   1      39.110  34.233  38.276  1.00  0.00     0.135 A 
ATOM     89  F   UNL A   1      41.482  35.659  35.910  1.00  0.00    -0.206 F 
ATOM     90  C   UNL A   1      40.551  36.583  37.857  1.00  0.00     0.059 A 
ATOM     91  C   UNL A   1      38.966  35.290  39.170  1.00  0.00     0.059 A 
ATOM     92  F   UNL A   1      38.393  33.118  38.489  1.00  0.00    -0.206 F 
ATOM     93  C   UNL A   1      39.689  36.462  38.949  1.00  0.00     0.060 A 
BRANCH  93  94
ATOM     94  S   UNL A   1      39.468  37.884  40.040  1.00  0.00     0.124 S 
ATOM     95  O   UNL A   1      38.204  38.430  39.560  1.00  0.00    -0.237 OA
ATOM     96  O   UNL A   1      39.429  37.266  41.363  1.00  0.00    -0.237 OA
ATOM     97  O   UNL A   1      40.648  38.702  39.773  1.00  0.00    -0.744 OA
ENDBRANCH  93  94
ENDBRANCH  61  86
ENDBRANCH  35  36
ENDBRANCH  28  30
ENDBRANCH  27  28
ENDBRANCH   1  27
TORSDOF 16
ENDMDL
MODEL 2
REMARK VINA RESULT:     -11.8      0.692      8.118
REMARK SMILES CN(C)C(=O)c1ccc2c(c1)N(CC(=O)OCCOC(=O)c1ccc(-c3c4nc(c(-c5c(F)cc(S(=O)(=O)[O-])cc5F)c5ccc([nH]5)c(-c5c(F)cc(S(=O)(=O)[O-])cc5F)c5nc(c(-c6c(F)cc(S(=O)(=O)[O-])cc6F)c6ccc3[nH]6)C=C5)C=C4)cc1)C(=O)[C@@H]1CCCCN21
REMARK SMILES IDX 18 1 17 2 16 3 14 4 15 5 13 6 12 7 6 8 7 9 11 10 8 11 10 12
REMARK SMILES IDX 9 13 95 14 88 15 90 16 94 17 89 18 91 19 93 20 92 21 4 22
REMARK SMILES IDX 1 23 2 24 3 25 5 26 19 27 20 28 21 29 22 30 23 31 87 32
REMARK SMILES IDX 24 33 86 34 25 35 26 36 27 37 80 38 28 39 85 40 79 41 81 42
REMARK SMILES IDX 29 43 84 44 78 45 77 46 30 48 64 49 43 50 63 51 44 52 47 53
REMARK SMILES IDX 62 54 82 55 45 56 46 57 61 59 83 60 48 61 31 62 32 63 41 64
REMARK SMILES IDX 33 65 34 66 40 67 42 68 35 69 36 70 37 71 38 72 39 73 65 74
REMARK SMILES IDX 66 75 75 76 67 77 68 78 74 79 76 80 69 81 70 82 71 83 72 84
REMARK SMILES IDX 73 85 49 86 50 87 59 88 51 89 52 90 58 91 60 92 53 93 54 94
REMARK SMILES IDX 55 95 56 96 57 97
REMARK H PARENT 81 47 47 58
REMARK Flexibility Score: inf
ROOT
ATOM      1  C   UNL A   1      40.343  22.507  27.189  1.00  0.00     0.275 C 
ENDROOT
BRANCH   1   2
ATOM      2  C   UNL A   1      39.771  21.646  26.057  1.00  0.00     0.274 C 
BRANCH   2   3
ATOM      3  O   UNL A   1      38.461  21.110  26.341  1.00  0.00    -0.461 OA
BRANCH   3   4
ATOM      4  C   UNL A   1      37.498  21.483  25.459  1.00  0.00     0.326 C 
ATOM      5  O   UNL A   1      37.716  21.743  24.276  1.00  0.00    -0.250 OA
BRANCH   4   6
ATOM      6  C   UNL A   1      36.074  21.480  26.003  1.00  0.00     0.248 C 
BRANCH   6   7
ATOM      7  N   UNL A   1      34.958  22.026  25.244  1.00  0.00    -0.297 N 
ATOM      8  C   UNL A   1      33.259  19.042  23.754  1.00  0.00     0.042 A 
ATOM      9  C   UNL A   1      32.224  19.631  23.045  1.00  0.00     0.016 A 
ATOM     10  C   UNL A   1      34.199  19.832  24.418  1.00  0.00     0.042 A 
ATOM     11  C   UNL A   1      32.129  21.024  23.015  1.00  0.00     0.029 A 
ATOM     12  C   UNL A   1      34.089  21.231  24.430  1.00  0.00     0.069 A 
ATOM     13  C   UNL A   1      33.054  21.861  23.676  1.00  0.00     0.062 A 
ATOM     14  N   UNL A   1      32.972  23.252  23.584  1.00  0.00    -0.358 N 
ATOM     15  C   UNL A   1      34.794  23.403  25.312  1.00  0.00     0.250 C 
ATOM     16  C   UNL A   1      34.114  24.026  24.091  1.00  0.00     0.172 C 
ATOM     17  C   UNL A   1      31.848  23.955  22.965  1.00  0.00     0.117 C 
ATOM     18  O   UNL A   1      35.315  24.084  26.199  1.00  0.00    -0.272 OA
ATOM     19  C   UNL A   1      33.704  25.465  24.394  1.00  0.00     0.035 C 
ATOM     20  C   UNL A   1      32.207  25.318  22.364  1.00  0.00     0.022 C 
ATOM     21  C   UNL A   1      33.249  26.137  23.114  1.00  0.00     0.004 C 
BRANCH   8  22
ATOM     22  C   UNL A   1      33.379  17.572  23.795  1.00  0.00     0.253 C 
ATOM     23  C   UNL A   1      32.991  15.444  24.948  1.00  0.00     0.146 C 
ATOM     24  N   UNL A   1      32.941  16.895  24.932  1.00  0.00    -0.345 N 
ATOM     25  C   UNL A   1      32.533  17.533  26.177  1.00  0.00     0.146 C 
ATOM     26  O   UNL A   1      33.855  17.028  22.803  1.00  0.00    -0.269 OA
ENDBRANCH   8  22
ENDBRANCH   6   7
ENDBRANCH   4   6
ENDBRANCH   3   4
ENDBRANCH   2   3
ENDBRANCH   1   2
BRANCH   1  27
ATOM     27  O   UNL A   1      40.648  23.849  26.767  1.00  0.00    -0.458 OA
BRANCH  27  28
ATOM     28  C   UNL A   1      39.575  24.666  26.787  1.00  0.00     0.338 C 
ATOM     29  O   UNL A   1      38.564  24.533  26.112  1.00  0.00    -0.246 OA
BRANCH  28  30
ATOM     30  C   UNL A   1      39.712  25.756  27.760  1.00  0.00     0.060 A 
ATOM     31  C   UNL A   1      38.911  25.755  28.901  1.00  0.00     0.016 A 
ATOM     32  C   UNL A   1      40.772  26.656  27.642  1.00  0.00     0.016 A 
ATOM     33  C   UNL A   1      39.160  26.682  29.915  1.00  0.00     0.010 A 
ATOM     34  C   UNL A   1      41.073  27.522  28.691  1.00  0.00     0.010 A 
ATOM     35  C   UNL A   1      40.243  27.572  29.818  1.00  0.00    -0.014 A 
BRANCH  35  36
ATOM     36  C   UNL A   1      40.416  28.639  30.832  1.00  0.00     0.031 A 
ATOM     37  C   UNL A   1      39.492  29.826  30.799  1.00  0.00     0.074 A 
ATOM     38  C   UNL A   1      41.345  28.532  31.800  1.00  0.00     0.049 A 
ATOM     39  N   UNL A   1      39.309  30.753  31.702  1.00  0.00    -0.248 NA
ATOM     40  C   UNL A   1      38.667  29.994  29.591  1.00  0.00     0.031 C 
ATOM     41  C   UNL A   1      42.349  27.472  31.902  1.00  0.00     0.029 A 
ATOM     42  N   UNL A   1      41.581  29.322  32.899  1.00  0.00    -0.354 N 
ATOM     43  C   UNL A   1      38.320  31.582  31.190  1.00  0.00     0.074 A 
ATOM     44  C   UNL A   1      38.008  31.110  29.861  1.00  0.00     0.031 C 
ATOM     45  C   UNL A   1      43.069  27.656  33.024  1.00  0.00     0.029 A 
ATOM     46  C   UNL A   1      42.568  28.837  33.725  1.00  0.00     0.049 A 
ATOM     47  H   UNL A   1      41.090  30.157  33.078  1.00  0.00     0.167 HD
ATOM     48  C   UNL A   1      37.684  32.612  31.792  1.00  0.00     0.037 A 
ATOM     49  C   UNL A   1      42.987  29.275  34.929  1.00  0.00     0.037 A 
ATOM     50  C   UNL A   1      37.993  33.086  33.109  1.00  0.00     0.049 A 
ATOM     51  C   UNL A   1      42.298  30.455  35.566  1.00  0.00     0.074 A 
ATOM     52  C   UNL A   1      37.377  34.088  33.834  1.00  0.00     0.029 A 
ATOM     53  N   UNL A   1      39.024  32.591  33.894  1.00  0.00    -0.354 N 
ATOM     54  N   UNL A   1      41.277  31.150  35.125  1.00  0.00    -0.248 NA
ATOM     55  C   UNL A   1      42.807  30.899  36.873  1.00  0.00     0.031 C 
ATOM     56  C   UNL A   1      38.054  34.218  35.052  1.00  0.00     0.029 A 
ATOM     57  C   UNL A   1      39.078  33.283  35.089  1.00  0.00     0.049 A 
ATOM     58  H   UNL A   1      39.626  31.857  33.638  1.00  0.00     0.167 HD
ATOM     59  C   UNL A   1      41.007  32.096  36.108  1.00  0.00     0.074 A 
ATOM     60  C   UNL A   1      41.971  31.885  37.169  1.00  0.00     0.031 C 
ATOM     61  C   UNL A   1      40.044  33.049  36.133  1.00  0.00     0.037 A 
BRANCH  48  62
ATOM     62  C   UNL A   1      36.561  33.248  31.028  1.00  0.00     0.058 A 
ATOM     63  C   UNL A   1      36.828  34.115  29.956  1.00  0.00     0.135 A 
ATOM     64  C   UNL A   1      35.223  33.025  31.380  1.00  0.00     0.135 A 
ATOM     65  F   UNL A   1      38.094  34.377  29.597  1.00  0.00    -0.206 F 
ATOM     66  C   UNL A   1      35.804  34.769  29.280  1.00  0.00     0.059 A 
ATOM     67  C   UNL A   1      34.182  33.655  30.707  1.00  0.00     0.059 A 
ATOM     68  F   UNL A   1      34.920  32.212  32.405  1.00  0.00    -0.206 F 
ATOM     69  C   UNL A   1      34.484  34.540  29.671  1.00  0.00     0.060 A 
BRANCH  69  70
ATOM     70  S   UNL A   1      33.168  35.422  28.807  1.00  0.00     0.124 S 
ATOM     71  O   UNL A   1      32.419  35.991  29.923  1.00  0.00    -0.237 OA
ATOM     72  O   UNL A   1      33.911  36.379  27.991  1.00  0.00    -0.237 OA
ATOM     73  O   UNL A   1      32.485  34.368  28.064  1.00  0.00    -0.744 OA
ENDBRANCH  69  70
ENDBRANCH  48  62
BRANCH  49  74
ATOM     74  C   UNL A   1      44.067  28.554  35.650  1.00  0.00     0.058 A 
ATOM     75  C   UNL A   1      45.414  28.874  35.425  1.00  0.00     0.135 A 
ATOM     76  C   UNL A   1      43.780  27.535  36.569  1.00  0.00     0.135 A 
ATOM     77  F   UNL A   1      45.738  29.837  34.549  1.00  0.00    -0.206 F 
ATOM     78  C   UNL A   1      46.441  28.201  36.079  1.00  0.00     0.059 A 
ATOM     79  C   UNL A   1      44.790  26.856  37.245  1.00  0.00     0.059 A 
ATOM     80  F   UNL A   1      42.506  27.195  36.818  1.00  0.00    -0.206 F 
ATOM     81  C   UNL A   1      46.119  27.191  36.987  1.00  0.00     0.060 A 
BRANCH  81  82
ATOM     82  S   UNL A   1      47.461  26.347  37.856  1.00  0.00     0.124 S 
ATOM     83  O   UNL A   1      48.157  27.467  38.478  1.00  0.00    -0.237 OA
ATOM     84  O   UNL A   1      46.736  25.464  38.763  1.00  0.00    -0.237 OA
ATOM     85  O   UNL A   1      48.184  25.673  36.782  1.00  0.00    -0.744 OA
ENDBRANCH  81  82
ENDBRANCH  49  74
BRANCH  61  86
ATOM     86  C   UNL A   1      39.970  33.943  37.335  1.00  0.00     0.058 A 
ATOM     87  C   UNL A   1      40.583  35.203  37.335  1.00  0.00     0.135 A 
ATOM     88  C   UNL A   1      39.174  33.591  38.437  1.00  0.00     0.135 A 
ATOM     89  F   UNL A   1      41.357  35.579  36.305  1.00  0.00    -0.206 F 
ATOM     90  C   UNL A   1      40.399  36.095  38.387  1.00  0.00     0.059 A 
ATOM     91  C   UNL A   1      38.964  34.474  39.491  1.00  0.00     0.059 A 
ATOM     92  F   UNL A   1      38.561  32.398  38.475  1.00  0.00    -0.206 F 
ATOM     93  C   UNL A   1      39.579  35.725  39.455  1.00  0.00     0.060 A 
BRANCH  93  94
ATOM     94  S   UNL A   1      39.265  36.930  40.763  1.00  0.00     0.124 S 
ATOM     95  O   UNL A   1      38.476  37.933  40.057  1.00  0.00    -0.237 OA
ATOM     96  O   UNL A   1      38.543  36.138  41.756  1.00  0.00    -0.237 OA
ATOM     97  O   UNL A   1      40.605  37.352  41.163  1.00  0.00    -0.744 OA
ENDBRANCH  93  94
ENDBRANCH  61  86
ENDBRANCH  35  36
ENDBRANCH  28  30
ENDBRANCH  27  28
ENDBRANCH   1  27
TORSDOF 16
ENDMDL
MODEL 3
REMARK VINA RESULT:     -11.6      7.015     12.816
REMARK SMILES CN(C)C(=O)c1ccc2c(c1)N(CC(=O)OCCOC(=O)c1ccc(-c3c4nc(c(-c5c(F)cc(S(=O)(=O)[O-])cc5F)c5ccc([nH]5)c(-c5c(F)cc(S(=O)(=O)[O-])cc5F)c5nc(c(-c6c(F)cc(S(=O)(=O)[O-])cc6F)c6ccc3[nH]6)C=C5)C=C4)cc1)C(=O)[C@@H]1CCCCN21
REMARK SMILES IDX 18 1 17 2 16 3 14 4 15 5 13 6 12 7 6 8 7 9 11 10 8 11 10 12
REMARK SMILES IDX 9 13 95 14 88 15 90 16 94 17 89 18 91 19 93 20 92 21 4 22
REMARK SMILES IDX 1 23 2 24 3 25 5 26 19 27 20 28 21 29 22 30 23 31 87 32
REMARK SMILES IDX 24 33 86 34 25 35 26 36 27 37 80 38 28 39 85 40 79 41 81 42
REMARK SMILES IDX 29 43 84 44 78 45 77 46 30 48 64 49 43 50 63 51 44 52 47 53
REMARK SMILES IDX 62 54 82 55 45 56 46 57 61 59 83 60 48 61 31 62 32 63 41 64
REMARK SMILES IDX 33 65 34 66 40 67 42 68 35 69 36 70 37 71 38 72 39 73 65 74
REMARK SMILES IDX 66 75 75 76 67 77 68 78 74 79 76 80 69 81 70 82 71 83 72 84
REMARK SMILES IDX 73 85 49 86 50 87 59 88 51 89 52 90 58 91 60 92 53 93 54 94
REMARK SMILES IDX 55 95 56 96 57 97
REMARK H PARENT 81 47 47 58
REMARK Flexibility Score: inf
ROOT
ATOM      1  C   UNL A   1      35.100  31.580  29.308  1.00  0.00     0.275 C 
ENDROOT
BRANCH   1   2
ATOM      2  C   UNL A   1      34.210  31.757  28.072  1.00  0.00     0.274 C 
BRANCH   2   3
ATOM      3  O   UNL A   1      34.395  30.731  27.073  1.00  0.00    -0.461 OA
BRANCH   3   4
ATOM      4  C   UNL A   1      33.242  30.264  26.528  1.00  0.00     0.326 C 
ATOM      5  O   UNL A   1      32.121  30.578  26.924  1.00  0.00    -0.250 OA
BRANCH   4   6
ATOM      6  C   UNL A   1      33.412  29.368  25.305  1.00  0.00     0.248 C 
BRANCH   6   7
ATOM      7  N   UNL A   1      32.639  28.147  25.132  1.00  0.00    -0.297 N 
ATOM      8  C   UNL A   1      29.815  29.112  22.873  1.00  0.00     0.042 A 
ATOM      9  C   UNL A   1      29.122  27.917  22.760  1.00  0.00     0.016 A 
ATOM     10  C   UNL A   1      30.929  29.206  23.708  1.00  0.00     0.042 A 
ATOM     11  C   UNL A   1      29.562  26.807  23.484  1.00  0.00     0.029 A 
ATOM     12  C   UNL A   1      31.405  28.086  24.408  1.00  0.00     0.069 A 
ATOM     13  C   UNL A   1      30.687  26.856  24.336  1.00  0.00     0.062 A 
ATOM     14  N   UNL A   1      31.074  25.749  25.095  1.00  0.00    -0.358 N 
ATOM     15  C   UNL A   1      33.144  27.015  25.756  1.00  0.00     0.250 C 
ATOM     16  C   UNL A   1      32.093  25.969  26.130  1.00  0.00     0.172 C 
ATOM     17  C   UNL A   1      30.481  24.420  24.944  1.00  0.00     0.117 C 
ATOM     18  O   UNL A   1      34.315  26.942  26.138  1.00  0.00    -0.272 OA
ATOM     19  C   UNL A   1      32.770  24.656  26.516  1.00  0.00     0.035 C 
ATOM     20  C   UNL A   1      30.511  23.565  26.215  1.00  0.00     0.022 C 
ATOM     21  C   UNL A   1      31.739  23.713  27.103  1.00  0.00     0.004 C 
BRANCH   8  22
ATOM     22  C   UNL A   1      29.363  30.298  22.119  1.00  0.00     0.253 C 
ATOM     23  C   UNL A   1      28.009  32.336  21.983  1.00  0.00     0.146 C 
ATOM     24  N   UNL A   1      28.404  31.131  22.690  1.00  0.00    -0.345 N 
ATOM     25  C   UNL A   1      27.662  30.834  23.908  1.00  0.00     0.146 C 
ATOM     26  O   UNL A   1      29.880  30.485  21.021  1.00  0.00    -0.269 OA
ENDBRANCH   8  22
ENDBRANCH   6   7
ENDBRANCH   4   6
ENDBRANCH   3   4
ENDBRANCH   2   3
ENDBRANCH   1   2
BRANCH   1  27
ATOM     27  O   UNL A   1      35.694  30.271  29.381  1.00  0.00    -0.458 OA
BRANCH  27  28
ATOM     28  C   UNL A   1      36.676  30.187  30.302  1.00  0.00     0.338 C 
ATOM     29  O   UNL A   1      36.553  30.412  31.498  1.00  0.00    -0.246 OA
BRANCH  28  30
ATOM     30  C   UNL A   1      37.953  29.746  29.730  1.00  0.00     0.060 A 
ATOM     31  C   UNL A   1      38.134  29.798  28.348  1.00  0.00     0.016 A 
ATOM     32  C   UNL A   1      39.033  29.482  30.574  1.00  0.00     0.016 A 
ATOM     33  C   UNL A   1      39.401  29.556  27.813  1.00  0.00     0.010 A 
ATOM     34  C   UNL A   1      40.311  29.327  30.045  1.00  0.00     0.010 A 
ATOM     35  C   UNL A   1      40.499  29.319  28.657  1.00  0.00    -0.014 A 
BRANCH  35  36
ATOM     36  C   UNL A   1      41.807  28.929  28.077  1.00  0.00     0.031 A 
ATOM     37  C   UNL A   1      42.895  29.963  27.988  1.00  0.00     0.074 A 
ATOM     38  C   UNL A   1      42.041  27.664  27.683  1.00  0.00     0.049 A 
ATOM     39  N   UNL A   1      44.167  29.800  27.733  1.00  0.00    -0.248 NA
ATOM     40  C   UNL A   1      42.503  31.365  28.213  1.00  0.00     0.031 C 
ATOM     41  C   UNL A   1      41.051  26.587  27.646  1.00  0.00     0.029 A 
ATOM     42  N   UNL A   1      43.200  27.066  27.252  1.00  0.00    -0.354 N 
ATOM     43  C   UNL A   1      44.728  31.068  27.814  1.00  0.00     0.074 A 
ATOM     44  C   UNL A   1      43.651  32.001  28.044  1.00  0.00     0.031 C 
ATOM     45  C   UNL A   1      41.654  25.450  27.254  1.00  0.00     0.029 A 
ATOM     46  C   UNL A   1      43.073  25.716  27.025  1.00  0.00     0.049 A 
ATOM     47  H   UNL A   1      44.043  27.558  27.118  1.00  0.00     0.167 HD
ATOM     48  C   UNL A   1      46.032  31.421  27.757  1.00  0.00     0.037 A 
ATOM     49  C   UNL A   1      44.006  24.796  26.709  1.00  0.00     0.037 A 
ATOM     50  C   UNL A   1      47.104  30.498  27.525  1.00  0.00     0.049 A 
ATOM     51  C   UNL A   1      45.450  25.215  26.603  1.00  0.00     0.074 A 
ATOM     52  C   UNL A   1      48.464  30.740  27.500  1.00  0.00     0.029 A 
ATOM     53  N   UNL A   1      46.927  29.148  27.262  1.00  0.00    -0.354 N 
ATOM     54  N   UNL A   1      45.983  26.395  26.809  1.00  0.00    -0.248 NA
ATOM     55  C   UNL A   1      46.423  24.172  26.241  1.00  0.00     0.031 C 
ATOM     56  C   UNL A   1      49.111  29.538  27.195  1.00  0.00     0.029 A 
ATOM     57  C   UNL A   1      48.152  28.546  27.050  1.00  0.00     0.049 A 
ATOM     58  H   UNL A   1      46.058  28.687  27.232  1.00  0.00     0.167 HD
ATOM     59  C   UNL A   1      47.352  26.233  26.624  1.00  0.00     0.074 A 
ATOM     60  C   UNL A   1      47.567  24.840  26.291  1.00  0.00     0.031 C 
ATOM     61  C   UNL A   1      48.341  27.154  26.727  1.00  0.00     0.037 A 
BRANCH  48  62
ATOM     62  C   UNL A   1      46.349  32.866  28.002  1.00  0.00     0.058 A 
ATOM     63  C   UNL A   1      46.287  33.798  26.953  1.00  0.00     0.135 A 
ATOM     64  C   UNL A   1      46.747  33.320  29.267  1.00  0.00     0.135 A 
ATOM     65  F   UNL A   1      45.933  33.406  25.720  1.00  0.00    -0.206 F 
ATOM     66  C   UNL A   1      46.644  35.128  27.143  1.00  0.00     0.059 A 
ATOM     67  C   UNL A   1      47.092  34.650  29.484  1.00  0.00     0.059 A 
ATOM     68  F   UNL A   1      46.831  32.463  30.297  1.00  0.00    -0.206 F 
ATOM     69  C   UNL A   1      47.055  35.542  28.410  1.00  0.00     0.060 A 
BRANCH  69  70
ATOM     70  S   UNL A   1      47.548  37.263  28.634  1.00  0.00     0.124 S 
ATOM     71  O   UNL A   1      46.505  37.750  29.532  1.00  0.00    -0.237 OA
ATOM     72  O   UNL A   1      48.880  37.138  29.220  1.00  0.00    -0.237 OA
ATOM     73  O   UNL A   1      47.513  37.804  27.279  1.00  0.00    -0.744 OA
ENDBRANCH  69  70
ENDBRANCH  48  62
BRANCH  49  74
ATOM     74  C   UNL A   1      43.621  23.371  26.540  1.00  0.00     0.058 A 
ATOM     75  C   UNL A   1      43.345  22.568  27.657  1.00  0.00     0.135 A 
ATOM     76  C   UNL A   1      43.523  22.785  25.271  1.00  0.00     0.135 A 
ATOM     77  F   UNL A   1      43.433  23.084  28.892  1.00  0.00    -0.206 F 
ATOM     78  C   UNL A   1      42.996  21.228  27.521  1.00  0.00     0.059 A 
ATOM     79  C   UNL A   1      43.163  21.449  25.109  1.00  0.00     0.059 A 
ATOM     80  F   UNL A   1      43.775  23.514  24.173  1.00  0.00    -0.206 F 
ATOM     81  C   UNL A   1      42.909  20.676  26.242  1.00  0.00     0.060 A 
BRANCH  81  82
ATOM     82  S   UNL A   1      42.422  18.944  26.078  1.00  0.00     0.124 S 
ATOM     83  O   UNL A   1      41.020  19.068  25.698  1.00  0.00    -0.237 OA
ATOM     84  O   UNL A   1      43.324  18.465  25.035  1.00  0.00    -0.237 OA
ATOM     85  O   UNL A   1      42.669  18.397  27.409  1.00  0.00    -0.744 OA
ENDBRANCH  81  82
ENDBRANCH  49  74
BRANCH  61  86
ATOM     86  C   UNL A   1      49.750  26.702  26.481  1.00  0.00     0.058 A 
ATOM     87  C   UNL A   1      50.487  26.056  27.483  1.00  0.00     0.135 A 
ATOM     88  C   UNL A   1      50.315  26.796  25.199  1.00  0.00     0.135 A 
ATOM     89  F   UNL A   1      49.988  25.947  28.725  1.00  0.00    -0.206 F 
ATOM     90  C   UNL A   1      51.736  25.506  27.221  1.00  0.00     0.059 A 
ATOM     91  C   UNL A   1      51.556  26.239  24.910  1.00  0.00     0.059 A 
ATOM     92  F   UNL A   1      49.641  27.397  24.206  1.00  0.00    -0.206 F 
ATOM     93  C   UNL A   1      52.258  25.593  25.928  1.00  0.00     0.060 A 
BRANCH  93  94
ATOM     94  S   UNL A   1      53.834  24.786  25.574  1.00  0.00     0.124 S 
ATOM     95  O   UNL A   1      53.410  23.417  25.304  1.00  0.00    -0.237 OA
ATOM     96  O   UNL A   1      54.323  25.537  24.421  1.00  0.00    -0.237 OA
ATOM     97  O   UNL A   1      54.596  24.976  26.805  1.00  0.00    -0.744 OA
ENDBRANCH  93  94
ENDBRANCH  61  86
ENDBRANCH  35  36
ENDBRANCH  28  30
ENDBRANCH  27  28
ENDBRANCH   1  27
TORSDOF 16
ENDMDL
