MODEL 1
REMARK VINA RESULT:     -10.7      0.000      0.000
REMARK SMILES C[C@H](SC1CCOCC1)c1ccc(C(=O)OCCOC(=O)c2ccc(-c3c4nc(c(-c5c(F)cc(S(=O)(=O)[O-])cc5F)c5ccc([nH]5)c(-c5c(F)cc(S(=O)(=O)[O-])cc5F)c5nc(c(-c6c(F)cc(S(=O)(=O)[O-])cc6F)c6ccc3[nH]6)C=C5)C=C4)cc2)o1
REMARK SMILES IDX 17 1 16 2 14 3 15 4 13 5 10 6 11 7 88 8 12 9 2 10 1 11 3 12
REMARK SMILES IDX 4 13 5 14 9 15 6 16 8 17 7 18 18 19 19 20 20 21 21 22 22 23
REMARK SMILES IDX 23 24 87 25 24 26 86 27 25 28 26 29 27 30 80 31 28 32 85 33
REMARK SMILES IDX 79 34 81 35 29 36 84 37 78 38 77 39 30 41 64 42 43 43 63 44
REMARK SMILES IDX 44 45 47 46 62 47 82 48 45 49 46 50 61 52 83 53 48 54 31 55
REMARK SMILES IDX 32 56 41 57 33 58 34 59 40 60 42 61 35 62 36 63 37 64 38 65
REMARK SMILES IDX 39 66 65 67 66 68 75 69 67 70 68 71 74 72 76 73 69 74 70 75
REMARK SMILES IDX 71 76 72 77 73 78 49 79 50 80 59 81 51 82 52 83 58 84 60 85
REMARK SMILES IDX 53 86 54 87 55 88 56 89 57 90
REMARK H PARENT 81 40 47 51
REMARK Flexibility Score: inf
ROOT
ATOM      1  C   UNL A   1      42.513  21.772  26.128  1.00  0.00     0.275 C 
ENDROOT
BRANCH   1   2
ATOM      2  O   UNL A   1      41.152  21.655  25.675  1.00  0.00    -0.456 OA
BRANCH   2   3
ATOM      3  C   UNL A   1      40.192  21.629  26.651  1.00  0.00     0.374 C 
ATOM      4  O   UNL A   1      40.359  21.158  27.767  1.00  0.00    -0.242 OA
BRANCH   3   5
ATOM      5  C   UNL A   1      38.996  22.285  26.175  1.00  0.00     0.211 A 
ATOM      6  C   UNL A   1      37.014  22.336  25.182  1.00  0.00     0.117 A 
ATOM      7  C   UNL A   1      37.232  23.595  25.710  1.00  0.00     0.048 A 
ATOM      8  O   UNL A   1      38.110  21.557  25.422  1.00  0.00    -0.453 OA
ATOM      9  C   UNL A   1      38.491  23.559  26.353  1.00  0.00     0.058 A 
BRANCH   6  10
ATOM     10  C   UNL A   1      35.880  21.730  24.403  1.00  0.00     0.110 C 
ATOM     11  C   UNL A   1      34.946  22.821  23.858  1.00  0.00     0.028 C 
BRANCH  10  12
ATOM     12  S   UNL A   1      34.793  20.657  25.413  1.00  0.00    -0.147 SA
BRANCH  12  13
ATOM     13  C   UNL A   1      34.145  19.406  24.230  1.00  0.00     0.052 C 
ATOM     14  C   UNL A   1      32.628  19.464  24.048  1.00  0.00     0.043 C 
ATOM     15  C   UNL A   1      34.609  17.972  24.489  1.00  0.00     0.043 C 
ATOM     16  C   UNL A   1      32.209  18.458  22.980  1.00  0.00     0.161 C 
ATOM     17  C   UNL A   1      34.067  17.052  23.401  1.00  0.00     0.161 C 
ATOM     18  O   UNL A   1      32.644  17.145  23.343  1.00  0.00    -0.381 OA
ENDBRANCH  12  13
ENDBRANCH  10  12
ENDBRANCH   6  10
ENDBRANCH   3   5
ENDBRANCH   2   3
ENDBRANCH   1   2
BRANCH   1  19
ATOM     19  C   UNL A   1      43.024  23.213  26.011  1.00  0.00     0.275 C 
BRANCH  19  20
ATOM     20  O   UNL A   1      41.948  24.165  26.074  1.00  0.00    -0.458 OA
BRANCH  20  21
ATOM     21  C   UNL A   1      42.314  25.462  25.916  1.00  0.00     0.338 C 
ATOM     22  O   UNL A   1      42.772  25.964  24.902  1.00  0.00    -0.246 OA
BRANCH  21  23
ATOM     23  C   UNL A   1      41.924  26.241  27.108  1.00  0.00     0.060 A 
ATOM     24  C   UNL A   1      42.547  27.476  27.296  1.00  0.00     0.016 A 
ATOM     25  C   UNL A   1      40.985  25.779  28.038  1.00  0.00     0.016 A 
ATOM     26  C   UNL A   1      42.217  28.258  28.398  1.00  0.00     0.010 A 
ATOM     27  C   UNL A   1      40.665  26.566  29.153  1.00  0.00     0.010 A 
ATOM     28  C   UNL A   1      41.278  27.815  29.333  1.00  0.00    -0.014 A 
BRANCH  28  29
ATOM     29  C   UNL A   1      41.006  28.675  30.507  1.00  0.00     0.031 A 
ATOM     30  C   UNL A   1      41.915  28.612  31.698  1.00  0.00     0.074 A 
ATOM     31  C   UNL A   1      40.024  29.594  30.451  1.00  0.00     0.049 A 
ATOM     32  N   UNL A   1      41.886  29.318  32.799  1.00  0.00    -0.248 NA
ATOM     33  C   UNL A   1      43.012  27.634  31.633  1.00  0.00     0.031 C 
ATOM     34  C   UNL A   1      39.136  29.809  29.308  1.00  0.00     0.029 A 
ATOM     35  N   UNL A   1      39.626  30.533  31.368  1.00  0.00    -0.354 N 
ATOM     36  C   UNL A   1      42.958  28.871  33.560  1.00  0.00     0.074 A 
ATOM     37  C   UNL A   1      43.612  27.828  32.799  1.00  0.00     0.031 C 
ATOM     38  C   UNL A   1      38.300  30.823  29.591  1.00  0.00     0.029 A 
ATOM     39  C   UNL A   1      38.574  31.309  30.942  1.00  0.00     0.049 A 
ATOM     40  H   UNL A   1      40.052  30.641  32.249  1.00  0.00     0.167 HD
ATOM     41  C   UNL A   1      43.356  29.290  34.785  1.00  0.00     0.037 A 
ATOM     42  C   UNL A   1      37.903  32.290  31.577  1.00  0.00     0.037 A 
ATOM     43  C   UNL A   1      42.690  30.313  35.549  1.00  0.00     0.049 A 
ATOM     44  C   UNL A   1      38.307  32.674  32.975  1.00  0.00     0.074 A 
ATOM     45  C   UNL A   1      42.995  30.780  36.816  1.00  0.00     0.029 A 
ATOM     46  N   UNL A   1      41.578  31.022  35.119  1.00  0.00    -0.354 N 
ATOM     47  N   UNL A   1      39.309  32.228  33.696  1.00  0.00    -0.248 NA
ATOM     48  C   UNL A   1      37.483  33.686  33.653  1.00  0.00     0.031 C 
ATOM     49  C   UNL A   1      42.041  31.743  37.168  1.00  0.00     0.029 A 
ATOM     50  C   UNL A   1      41.168  31.905  36.105  1.00  0.00     0.049 A 
ATOM     51  H   UNL A   1      41.145  30.915  34.242  1.00  0.00     0.167 HD
ATOM     52  C   UNL A   1      39.239  32.909  34.907  1.00  0.00     0.074 A 
ATOM     53  C   UNL A   1      38.111  33.812  34.815  1.00  0.00     0.031 C 
ATOM     54  C   UNL A   1      40.037  32.794  35.999  1.00  0.00     0.037 A 
BRANCH  41  55
ATOM     55  C   UNL A   1      44.535  28.588  35.393  1.00  0.00     0.058 A 
ATOM     56  C   UNL A   1      44.386  27.439  36.184  1.00  0.00     0.135 A 
ATOM     57  C   UNL A   1      45.832  29.085  35.193  1.00  0.00     0.135 A 
ATOM     58  F   UNL A   1      43.163  26.935  36.420  1.00  0.00    -0.206 F 
ATOM     59  C   UNL A   1      45.480  26.825  36.785  1.00  0.00     0.059 A 
ATOM     60  C   UNL A   1      46.943  28.476  35.769  1.00  0.00     0.059 A 
ATOM     61  F   UNL A   1      46.027  30.184  34.448  1.00  0.00    -0.206 F 
ATOM     62  C   UNL A   1      46.754  27.358  36.580  1.00  0.00     0.060 A 
BRANCH  62  63
ATOM     63  S   UNL A   1      48.165  26.578  37.393  1.00  0.00     0.124 S 
ATOM     64  O   UNL A   1      47.676  26.450  38.763  1.00  0.00    -0.237 OA
ATOM     65  O   UNL A   1      48.306  25.329  36.652  1.00  0.00    -0.237 OA
ATOM     66  O   UNL A   1      49.243  27.543  37.199  1.00  0.00    -0.744 OA
ENDBRANCH  62  63
ENDBRANCH  41  55
BRANCH  42  67
ATOM     67  C   UNL A   1      36.761  32.964  30.905  1.00  0.00     0.058 A 
ATOM     68  C   UNL A   1      36.968  33.878  29.863  1.00  0.00     0.135 A 
ATOM     69  C   UNL A   1      35.437  32.707  31.296  1.00  0.00     0.135 A 
ATOM     70  F   UNL A   1      38.216  34.166  29.463  1.00  0.00    -0.206 F 
ATOM     71  C   UNL A   1      35.905  34.523  29.237  1.00  0.00     0.059 A 
ATOM     72  C   UNL A   1      34.357  33.322  30.671  1.00  0.00     0.059 A 
ATOM     73  F   UNL A   1      35.186  31.835  32.285  1.00  0.00    -0.206 F 
ATOM     74  C   UNL A   1      34.602  34.237  29.649  1.00  0.00     0.060 A 
BRANCH  74  75
ATOM     75  S   UNL A   1      33.222  35.043  28.807  1.00  0.00     0.124 S 
ATOM     76  O   UNL A   1      32.763  33.983  27.917  1.00  0.00    -0.237 OA
ATOM     77  O   UNL A   1      32.332  35.375  29.915  1.00  0.00    -0.237 OA
ATOM     78  O   UNL A   1      33.851  36.188  28.156  1.00  0.00    -0.744 OA
ENDBRANCH  74  75
ENDBRANCH  42  67
BRANCH  54  79
ATOM     79  C   UNL A   1      39.724  33.669  37.180  1.00  0.00     0.058 A 
ATOM     80  C   UNL A   1      38.843  33.249  38.188  1.00  0.00     0.135 A 
ATOM     81  C   UNL A   1      40.356  34.913  37.336  1.00  0.00     0.135 A 
ATOM     82  F   UNL A   1      38.209  32.070  38.084  1.00  0.00    -0.206 F 
ATOM     83  C   UNL A   1      38.587  34.039  39.305  1.00  0.00     0.059 A 
ATOM     84  C   UNL A   1      40.131  35.710  38.455  1.00  0.00     0.059 A 
ATOM     85  F   UNL A   1      41.214  35.357  36.404  1.00  0.00    -0.206 F 
ATOM     86  C   UNL A   1      39.237  35.268  39.431  1.00  0.00     0.060 A 
BRANCH  86  87
ATOM     87  S   UNL A   1      38.933  36.266  40.904  1.00  0.00     0.124 S 
ATOM     88  O   UNL A   1      37.914  35.477  41.588  1.00  0.00    -0.237 OA
ATOM     89  O   UNL A   1      40.245  36.297  41.541  1.00  0.00    -0.237 OA
ATOM     90  O   UNL A   1      38.478  37.543  40.360  1.00  0.00    -0.744 OA
ENDBRANCH  86  87
ENDBRANCH  54  79
ENDBRANCH  28  29
ENDBRANCH  21  23
ENDBRANCH  20  21
ENDBRANCH  19  20
ENDBRANCH   1  19
TORSDOF 17
ENDMDL
MODEL 2
REMARK VINA RESULT:     -10.7      0.775      8.457
REMARK SMILES C[C@H](SC1CCOCC1)c1ccc(C(=O)OCCOC(=O)c2ccc(-c3c4nc(c(-c5c(F)cc(S(=O)(=O)[O-])cc5F)c5ccc([nH]5)c(-c5c(F)cc(S(=O)(=O)[O-])cc5F)c5nc(c(-c6c(F)cc(S(=O)(=O)[O-])cc6F)c6ccc3[nH]6)C=C5)C=C4)cc2)o1
REMARK SMILES IDX 17 1 16 2 14 3 15 4 13 5 10 6 11 7 88 8 12 9 2 10 1 11 3 12
REMARK SMILES IDX 4 13 5 14 9 15 6 16 8 17 7 18 18 19 19 20 20 21 21 22 22 23
REMARK SMILES IDX 23 24 87 25 24 26 86 27 25 28 26 29 27 30 80 31 28 32 85 33
REMARK SMILES IDX 79 34 81 35 29 36 84 37 78 38 77 39 30 41 64 42 43 43 63 44
REMARK SMILES IDX 44 45 47 46 62 47 82 48 45 49 46 50 61 52 83 53 48 54 31 55
REMARK SMILES IDX 32 56 41 57 33 58 34 59 40 60 42 61 35 62 36 63 37 64 38 65
REMARK SMILES IDX 39 66 65 67 66 68 75 69 67 70 68 71 74 72 76 73 69 74 70 75
REMARK SMILES IDX 71 76 72 77 73 78 49 79 50 80 59 81 51 82 52 83 58 84 60 85
REMARK SMILES IDX 53 86 54 87 55 88 56 89 57 90
REMARK H PARENT 81 40 47 51
REMARK Flexibility Score: inf
ROOT
ATOM      1  C   UNL A   1      42.586  22.526  27.699  1.00  0.00     0.275 C 
ENDROOT
BRANCH   1   2
ATOM      2  O   UNL A   1      41.167  22.444  27.929  1.00  0.00    -0.456 OA
BRANCH   2   3
ATOM      3  C   UNL A   1      40.474  21.588  27.116  1.00  0.00     0.374 C 
ATOM      4  O   UNL A   1      40.744  20.403  26.974  1.00  0.00    -0.242 OA
BRANCH   3   5
ATOM      5  C   UNL A   1      39.362  22.285  26.511  1.00  0.00     0.211 A 
ATOM      6  C   UNL A   1      37.516  22.407  25.287  1.00  0.00     0.117 A 
ATOM      7  C   UNL A   1      37.704  23.652  25.859  1.00  0.00     0.048 A 
ATOM      8  O   UNL A   1      38.554  21.593  25.644  1.00  0.00    -0.453 OA
ATOM      9  C   UNL A   1      38.875  23.571  26.648  1.00  0.00     0.058 A 
BRANCH   6  10
ATOM     10  C   UNL A   1      36.468  21.846  24.368  1.00  0.00     0.110 C 
ATOM     11  C   UNL A   1      36.282  22.745  23.136  1.00  0.00     0.028 C 
BRANCH  10  12
ATOM     12  S   UNL A   1      34.805  21.756  25.127  1.00  0.00    -0.147 SA
BRANCH  12  13
ATOM     13  C   UNL A   1      34.197  20.068  24.718  1.00  0.00     0.052 C 
ATOM     14  C   UNL A   1      33.009  19.622  25.570  1.00  0.00     0.043 C 
ATOM     15  C   UNL A   1      35.278  18.986  24.679  1.00  0.00     0.043 C 
ATOM     16  C   UNL A   1      32.526  18.258  25.087  1.00  0.00     0.161 C 
ATOM     17  C   UNL A   1      34.660  17.658  24.256  1.00  0.00     0.161 C 
ATOM     18  O   UNL A   1      33.593  17.309  25.139  1.00  0.00    -0.381 OA
ENDBRANCH  12  13
ENDBRANCH  10  12
ENDBRANCH   6  10
ENDBRANCH   3   5
ENDBRANCH   2   3
ENDBRANCH   1   2
BRANCH   1  19
ATOM     19  C   UNL A   1      42.902  23.222  26.370  1.00  0.00     0.275 C 
BRANCH  19  20
ATOM     20  O   UNL A   1      43.270  24.598  26.566  1.00  0.00    -0.458 OA
BRANCH  20  21
ATOM     21  C   UNL A   1      42.320  25.505  26.229  1.00  0.00     0.338 C 
ATOM     22  O   UNL A   1      41.722  25.562  25.166  1.00  0.00    -0.246 OA
BRANCH  21  23
ATOM     23  C   UNL A   1      41.977  26.332  27.403  1.00  0.00     0.060 A 
ATOM     24  C   UNL A   1      42.720  27.497  27.602  1.00  0.00     0.016 A 
ATOM     25  C   UNL A   1      40.967  25.980  28.306  1.00  0.00     0.016 A 
ATOM     26  C   UNL A   1      42.441  28.321  28.688  1.00  0.00     0.010 A 
ATOM     27  C   UNL A   1      40.698  26.807  29.406  1.00  0.00     0.010 A 
ATOM     28  C   UNL A   1      41.433  27.987  29.596  1.00  0.00    -0.014 A 
BRANCH  28  29
ATOM     29  C   UNL A   1      41.217  28.883  30.755  1.00  0.00     0.031 A 
ATOM     30  C   UNL A   1      40.097  29.879  30.722  1.00  0.00     0.074 A 
ATOM     31  C   UNL A   1      41.944  28.715  31.876  1.00  0.00     0.049 A 
ATOM     32  N   UNL A   1      39.705  30.714  31.650  1.00  0.00    -0.248 NA
ATOM     33  C   UNL A   1      39.304  29.932  29.485  1.00  0.00     0.031 C 
ATOM     34  C   UNL A   1      42.997  27.716  32.056  1.00  0.00     0.029 A 
ATOM     35  N   UNL A   1      41.888  29.366  33.082  1.00  0.00    -0.354 N 
ATOM     36  C   UNL A   1      38.619  31.392  31.111  1.00  0.00     0.074 A 
ATOM     37  C   UNL A   1      38.421  30.878  29.772  1.00  0.00     0.031 C 
ATOM     38  C   UNL A   1      43.485  27.817  33.304  1.00  0.00     0.029 A 
ATOM     39  C   UNL A   1      42.799  28.903  34.001  1.00  0.00     0.049 A 
ATOM     40  H   UNL A   1      41.256  30.097  33.272  1.00  0.00     0.167 HD
ATOM     41  C   UNL A   1      37.862  32.360  31.680  1.00  0.00     0.037 A 
ATOM     42  C   UNL A   1      43.057  29.319  35.257  1.00  0.00     0.037 A 
ATOM     43  C   UNL A   1      38.075  32.884  33.004  1.00  0.00     0.049 A 
ATOM     44  C   UNL A   1      42.261  30.459  35.834  1.00  0.00     0.074 A 
ATOM     45  C   UNL A   1      37.384  33.892  33.654  1.00  0.00     0.029 A 
ATOM     46  N   UNL A   1      39.060  32.447  33.878  1.00  0.00    -0.354 N 
ATOM     47  N   UNL A   1      41.252  31.111  35.306  1.00  0.00    -0.248 NA
ATOM     48  C   UNL A   1      42.646  30.930  37.173  1.00  0.00     0.031 C 
ATOM     49  C   UNL A   1      37.979  34.091  34.907  1.00  0.00     0.029 A 
ATOM     50  C   UNL A   1      39.013  33.180  35.053  1.00  0.00     0.049 A 
ATOM     51  H   UNL A   1      39.698  31.720  33.692  1.00  0.00     0.167 HD
ATOM     52  C   UNL A   1      40.878  32.062  36.249  1.00  0.00     0.074 A 
ATOM     53  C   UNL A   1      41.754  31.889  37.389  1.00  0.00     0.031 C 
ATOM     54  C   UNL A   1      39.898  32.998  36.176  1.00  0.00     0.037 A 
BRANCH  41  55
ATOM     55  C   UNL A   1      36.771  32.952  30.837  1.00  0.00     0.058 A 
ATOM     56  C   UNL A   1      37.029  33.952  29.888  1.00  0.00     0.135 A 
ATOM     57  C   UNL A   1      35.444  32.521  30.995  1.00  0.00     0.135 A 
ATOM     58  F   UNL A   1      38.279  34.410  29.712  1.00  0.00    -0.206 F 
ATOM     59  C   UNL A   1      36.004  34.531  29.147  1.00  0.00     0.059 A 
ATOM     60  C   UNL A   1      34.405  33.073  30.251  1.00  0.00     0.059 A 
ATOM     61  F   UNL A   1      35.145  31.570  31.893  1.00  0.00    -0.206 F 
ATOM     62  C   UNL A   1      34.693  34.091  29.344  1.00  0.00     0.060 A 
BRANCH  62  63
ATOM     63  S   UNL A   1      33.363  34.873  28.406  1.00  0.00     0.124 S 
ATOM     64  O   UNL A   1      34.106  35.821  27.582  1.00  0.00    -0.237 OA
ATOM     65  O   UNL A   1      32.771  33.744  27.695  1.00  0.00    -0.237 OA
ATOM     66  O   UNL A   1      32.522  35.467  29.442  1.00  0.00    -0.744 OA
ENDBRANCH  62  63
ENDBRANCH  41  55
BRANCH  42  67
ATOM     67  C   UNL A   1      44.134  28.669  36.048  1.00  0.00     0.058 A 
ATOM     68  C   UNL A   1      43.865  27.570  36.876  1.00  0.00     0.135 A 
ATOM     69  C   UNL A   1      45.456  29.138  35.993  1.00  0.00     0.135 A 
ATOM     70  F   UNL A   1      42.614  27.094  36.972  1.00  0.00    -0.206 F 
ATOM     71  C   UNL A   1      44.865  26.963  37.631  1.00  0.00     0.059 A 
ATOM     72  C   UNL A   1      46.478  28.534  36.720  1.00  0.00     0.059 A 
ATOM     73  F   UNL A   1      45.767  30.183  35.211  1.00  0.00    -0.206 F 
ATOM     74  C   UNL A   1      46.170  27.454  37.545  1.00  0.00     0.060 A 
BRANCH  74  75
ATOM     75  S   UNL A   1      47.475  26.638  38.491  1.00  0.00     0.124 S 
ATOM     76  O   UNL A   1      46.717  25.637  39.232  1.00  0.00    -0.237 OA
ATOM     77  O   UNL A   1      48.349  26.127  37.439  1.00  0.00    -0.237 OA
ATOM     78  O   UNL A   1      48.037  27.724  39.288  1.00  0.00    -0.744 OA
ENDBRANCH  74  75
ENDBRANCH  42  67
BRANCH  54  79
ATOM     79  C   UNL A   1      39.715  33.903  37.362  1.00  0.00     0.058 A 
ATOM     80  C   UNL A   1      38.953  33.508  38.473  1.00  0.00     0.135 A 
ATOM     81  C   UNL A   1      40.356  35.150  37.416  1.00  0.00     0.135 A 
ATOM     82  F   UNL A   1      38.314  32.326  38.469  1.00  0.00    -0.206 F 
ATOM     83  C   UNL A   1      38.820  34.325  39.591  1.00  0.00     0.059 A 
ATOM     84  C   UNL A   1      40.255  35.975  38.533  1.00  0.00     0.059 A 
ATOM     85  F   UNL A   1      41.105  35.571  36.384  1.00  0.00    -0.206 F 
ATOM     86  C   UNL A   1      39.477  35.558  39.613  1.00  0.00     0.060 A 
BRANCH  86  87
ATOM     87  S   UNL A   1      39.335  36.593  41.085  1.00  0.00     0.124 S 
ATOM     88  O   UNL A   1      38.327  35.872  41.855  1.00  0.00    -0.237 OA
ATOM     89  O   UNL A   1      40.689  36.559  41.627  1.00  0.00    -0.237 OA
ATOM     90  O   UNL A   1      38.913  37.885  40.552  1.00  0.00    -0.744 OA
ENDBRANCH  86  87
ENDBRANCH  54  79
ENDBRANCH  28  29
ENDBRANCH  21  23
ENDBRANCH  20  21
ENDBRANCH  19  20
ENDBRANCH   1  19
TORSDOF 17
ENDMDL
MODEL 3
REMARK VINA RESULT:     -10.6      1.038      8.606
REMARK SMILES C[C@H](SC1CCOCC1)c1ccc(C(=O)OCCOC(=O)c2ccc(-c3c4nc(c(-c5c(F)cc(S(=O)(=O)[O-])cc5F)c5ccc([nH]5)c(-c5c(F)cc(S(=O)(=O)[O-])cc5F)c5nc(c(-c6c(F)cc(S(=O)(=O)[O-])cc6F)c6ccc3[nH]6)C=C5)C=C4)cc2)o1
REMARK SMILES IDX 17 1 16 2 14 3 15 4 13 5 10 6 11 7 88 8 12 9 2 10 1 11 3 12
REMARK SMILES IDX 4 13 5 14 9 15 6 16 8 17 7 18 18 19 19 20 20 21 21 22 22 23
REMARK SMILES IDX 23 24 87 25 24 26 86 27 25 28 26 29 27 30 80 31 28 32 85 33
REMARK SMILES IDX 79 34 81 35 29 36 84 37 78 38 77 39 30 41 64 42 43 43 63 44
REMARK SMILES IDX 44 45 47 46 62 47 82 48 45 49 46 50 61 52 83 53 48 54 31 55
REMARK SMILES IDX 32 56 41 57 33 58 34 59 40 60 42 61 35 62 36 63 37 64 38 65
REMARK SMILES IDX 39 66 65 67 66 68 75 69 67 70 68 71 74 72 76 73 69 74 70 75
REMARK SMILES IDX 71 76 72 77 73 78 49 79 50 80 59 81 51 82 52 83 58 84 60 85
REMARK SMILES IDX 53 86 54 87 55 88 56 89 57 90
REMARK H PARENT 81 40 47 51
REMARK Flexibility Score: inf
ROOT
ATOM      1  C   UNL A   1      39.554  22.176  26.638  1.00  0.00     0.275 C 
ENDROOT
BRANCH   1   2
ATOM      2  O   UNL A   1      38.551  22.256  25.608  1.00  0.00    -0.456 OA
BRANCH   2   3
ATOM      3  C   UNL A   1      37.641  23.271  25.731  1.00  0.00     0.374 C 
ATOM      4  O   UNL A   1      37.783  24.237  26.468  1.00  0.00    -0.242 OA
BRANCH   3   5
ATOM      5  C   UNL A   1      36.536  23.047  24.827  1.00  0.00     0.211 A 
ATOM      6  C   UNL A   1      34.477  22.398  24.321  1.00  0.00     0.117 A 
ATOM      7  C   UNL A   1      35.009  22.974  23.182  1.00  0.00     0.048 A 
ATOM      8  O   UNL A   1      35.426  22.398  25.304  1.00  0.00    -0.453 OA
ATOM      9  C   UNL A   1      36.318  23.397  23.508  1.00  0.00     0.058 A 
BRANCH   6  10
ATOM     10  C   UNL A   1      33.145  21.774  24.631  1.00  0.00     0.110 C 
ATOM     11  C   UNL A   1      32.240  22.760  25.385  1.00  0.00     0.028 C 
BRANCH  10  12
ATOM     12  S   UNL A   1      33.262  20.320  25.738  1.00  0.00    -0.147 SA
BRANCH  12  13
ATOM     13  C   UNL A   1      33.043  18.870  24.626  1.00  0.00     0.052 C 
ATOM     14  C   UNL A   1      34.293  17.999  24.503  1.00  0.00     0.043 C 
ATOM     15  C   UNL A   1      32.468  19.197  23.247  1.00  0.00     0.043 C 
ATOM     16  C   UNL A   1      33.975  16.780  23.642  1.00  0.00     0.161 C 
ATOM     17  C   UNL A   1      32.266  17.909  22.456  1.00  0.00     0.161 C 
ATOM     18  O   UNL A   1      33.497  17.193  22.360  1.00  0.00    -0.381 OA
ENDBRANCH  12  13
ENDBRANCH  10  12
ENDBRANCH   6  10
ENDBRANCH   3   5
ENDBRANCH   2   3
ENDBRANCH   1   2
BRANCH   1  19
ATOM     19  C   UNL A   1      40.895  22.749  26.165  1.00  0.00     0.275 C 
BRANCH  19  20
ATOM     20  O   UNL A   1      41.378  23.772  27.052  1.00  0.00    -0.458 OA
BRANCH  20  21
ATOM     21  C   UNL A   1      41.266  25.041  26.586  1.00  0.00     0.338 C 
ATOM     22  O   UNL A   1      41.212  25.378  25.414  1.00  0.00    -0.246 OA
BRANCH  21  23
ATOM     23  C   UNL A   1      41.050  25.971  27.713  1.00  0.00     0.060 A 
ATOM     24  C   UNL A   1      42.008  26.965  27.914  1.00  0.00     0.016 A 
ATOM     25  C   UNL A   1      39.948  25.873  28.571  1.00  0.00     0.016 A 
ATOM     26  C   UNL A   1      41.856  27.874  28.957  1.00  0.00     0.010 A 
ATOM     27  C   UNL A   1      39.806  26.784  29.627  1.00  0.00     0.010 A 
ATOM     28  C   UNL A   1      40.760  27.795  29.819  1.00  0.00    -0.014 A 
BRANCH  28  29
ATOM     29  C   UNL A   1      40.681  28.764  30.935  1.00  0.00     0.031 A 
ATOM     30  C   UNL A   1      39.648  29.851  30.900  1.00  0.00     0.074 A 
ATOM     31  C   UNL A   1      41.450  28.593  32.027  1.00  0.00     0.049 A 
ATOM     32  N   UNL A   1      39.376  30.763  31.798  1.00  0.00    -0.248 NA
ATOM     33  C   UNL A   1      38.798  29.907  29.702  1.00  0.00     0.031 C 
ATOM     34  C   UNL A   1      42.424  27.517  32.211  1.00  0.00     0.029 A 
ATOM     35  N   UNL A   1      41.513  29.308  33.196  1.00  0.00    -0.354 N 
ATOM     36  C   UNL A   1      38.324  31.503  31.276  1.00  0.00     0.074 A 
ATOM     37  C   UNL A   1      38.013  30.939  29.979  1.00  0.00     0.031 C 
ATOM     38  C   UNL A   1      42.984  27.641  33.427  1.00  0.00     0.029 A 
ATOM     39  C   UNL A   1      42.430  28.816  34.094  1.00  0.00     0.049 A 
ATOM     40  H   UNL A   1      40.955  30.100  33.375  1.00  0.00     0.167 HD
ATOM     41  C   UNL A   1      37.682  32.561  31.826  1.00  0.00     0.037 A 
ATOM     42  C   UNL A   1      42.788  29.273  35.310  1.00  0.00     0.037 A 
ATOM     43  C   UNL A   1      38.008  33.132  33.106  1.00  0.00     0.049 A 
ATOM     44  C   UNL A   1      42.122  30.506  35.861  1.00  0.00     0.074 A 
ATOM     45  C   UNL A   1      37.439  34.228  33.732  1.00  0.00     0.029 A 
ATOM     46  N   UNL A   1      38.997  32.658  33.954  1.00  0.00    -0.354 N 
ATOM     47  N   UNL A   1      41.144  31.214  35.346  1.00  0.00    -0.248 NA
ATOM     48  C   UNL A   1      42.616  31.011  37.150  1.00  0.00     0.031 C 
ATOM     49  C   UNL A   1      38.114  34.440  34.940  1.00  0.00     0.029 A 
ATOM     50  C   UNL A   1      39.074  33.452  35.086  1.00  0.00     0.049 A 
ATOM     51  H   UNL A   1      39.562  31.871  33.778  1.00  0.00     0.167 HD
ATOM     52  C   UNL A   1      40.901  32.242  36.252  1.00  0.00     0.074 A 
ATOM     53  C   UNL A   1      41.819  32.053  37.356  1.00  0.00     0.031 C 
ATOM     54  C   UNL A   1      40.000  33.253  36.175  1.00  0.00     0.037 A 
BRANCH  41  55
ATOM     55  C   UNL A   1      36.600  33.200  31.005  1.00  0.00     0.058 A 
ATOM     56  C   UNL A   1      36.893  34.054  29.931  1.00  0.00     0.135 A 
ATOM     57  C   UNL A   1      35.250  32.966  31.310  1.00  0.00     0.135 A 
ATOM     58  F   UNL A   1      38.169  34.324  29.611  1.00  0.00    -0.206 F 
ATOM     59  C   UNL A   1      35.884  34.683  29.207  1.00  0.00     0.059 A 
ATOM     60  C   UNL A   1      34.224  33.568  30.588  1.00  0.00     0.059 A 
ATOM     61  F   UNL A   1      34.918  32.160  32.330  1.00  0.00    -0.206 F 
ATOM     62  C   UNL A   1      34.552  34.441  29.551  1.00  0.00     0.060 A 
BRANCH  62  63
ATOM     63  S   UNL A   1      33.250  35.289  28.633  1.00  0.00     0.124 S 
ATOM     64  O   UNL A   1      32.581  34.170  27.976  1.00  0.00    -0.237 OA
ATOM     65  O   UNL A   1      32.492  35.946  29.693  1.00  0.00    -0.237 OA
ATOM     66  O   UNL A   1      33.988  36.186  27.748  1.00  0.00    -0.744 OA
ENDBRANCH  62  63
ENDBRANCH  41  55
BRANCH  42  67
ATOM     67  C   UNL A   1      43.848  28.575  36.084  1.00  0.00     0.058 A 
ATOM     68  C   UNL A   1      43.542  27.495  36.924  1.00  0.00     0.135 A 
ATOM     69  C   UNL A   1      45.190  28.976  35.998  1.00  0.00     0.135 A 
ATOM     70  F   UNL A   1      42.271  27.083  37.049  1.00  0.00    -0.206 F 
ATOM     71  C   UNL A   1      44.526  26.844  37.662  1.00  0.00     0.059 A 
ATOM     72  C   UNL A   1      46.196  28.327  36.707  1.00  0.00     0.059 A 
ATOM     73  F   UNL A   1      45.536  30.000  35.202  1.00  0.00    -0.206 F 
ATOM     74  C   UNL A   1      45.851  27.268  37.545  1.00  0.00     0.060 A 
BRANCH  74  75
ATOM     75  S   UNL A   1      47.134  26.393  38.470  1.00  0.00     0.124 S 
ATOM     76  O   UNL A   1      48.342  27.052  37.988  1.00  0.00    -0.237 OA
ATOM     77  O   UNL A   1      46.764  26.672  39.854  1.00  0.00    -0.237 OA
ATOM     78  O   UNL A   1      46.959  25.006  38.051  1.00  0.00    -0.744 OA
ENDBRANCH  74  75
ENDBRANCH  42  67
BRANCH  54  79
ATOM     79  C   UNL A   1      39.957  34.230  37.315  1.00  0.00     0.058 A 
ATOM     80  C   UNL A   1      40.716  35.410  37.297  1.00  0.00     0.135 A 
ATOM     81  C   UNL A   1      39.104  34.016  38.409  1.00  0.00     0.135 A 
ATOM     82  F   UNL A   1      41.552  35.660  36.275  1.00  0.00    -0.206 F 
ATOM     83  C   UNL A   1      40.644  36.339  38.331  1.00  0.00     0.059 A 
ATOM     84  C   UNL A   1      38.999  34.941  39.445  1.00  0.00     0.059 A 
ATOM     85  F   UNL A   1      38.349  32.907  38.471  1.00  0.00    -0.206 F 
ATOM     86  C   UNL A   1      39.780  36.095  39.401  1.00  0.00     0.060 A 
BRANCH  86  87
ATOM     87  S   UNL A   1      39.659  37.325  40.717  1.00  0.00     0.124 S 
ATOM     88  O   UNL A   1      38.905  38.387  40.059  1.00  0.00    -0.237 OA
ATOM     89  O   UNL A   1      38.949  36.599  41.764  1.00  0.00    -0.237 OA
ATOM     90  O   UNL A   1      41.053  37.639  41.017  1.00  0.00    -0.744 OA
ENDBRANCH  86  87
ENDBRANCH  54  79
ENDBRANCH  28  29
ENDBRANCH  21  23
ENDBRANCH  20  21
ENDBRANCH  19  20
ENDBRANCH   1  19
TORSDOF 17
ENDMDL
