MODEL 1
REMARK VINA RESULT:     -11.4      0.000      0.000
REMARK SMILES CC(C)C[C@H](NC(=O)[C@@H](NC(=O)N1CC(OCCOC(=O)c2ccc(-c3c4nc(c(-c5c(F)cc(S(=O)(=O)[O-])cc5F)c5ccc([nH]5)c(-c5c(F)cc(S(=O)(=O)[O-])cc5F)c5nc(c(-c6c(F)cc(S(=O)(=O)[O-])cc6F)c6ccc3[nH]6)C=C5)C=C4)cc2)=Nc2ccccc21)C(C)C)C(=O)[O-]
REMARK SMILES IDX 17 1 16 2 15 3 13 4 14 5 94 6 89 7 93 8 88 9 90 10 92 11
REMARK SMILES IDX 91 12 11 13 10 14 12 16 9 17 7 18 6 19 8 21 5 22 4 23 2 24
REMARK SMILES IDX 1 25 3 26 98 27 99 28 100 29 95 30 96 31 97 32 18 33 19 34
REMARK SMILES IDX 20 35 21 36 22 37 23 38 87 39 24 40 86 41 25 42 26 43 27 44
REMARK SMILES IDX 80 45 28 46 85 47 79 48 81 49 29 50 84 51 78 52 77 53 30 55
REMARK SMILES IDX 64 56 43 57 63 58 44 59 47 60 62 61 82 62 45 63 46 64 61 66
REMARK SMILES IDX 83 67 48 68 31 69 32 70 41 71 33 72 34 73 40 74 42 75 35 76
REMARK SMILES IDX 36 77 37 78 38 79 39 80 65 81 66 82 75 83 67 84 68 85 74 86
REMARK SMILES IDX 76 87 69 88 70 89 71 90 72 91 73 92 49 93 50 94 59 95 51 96
REMARK SMILES IDX 52 97 58 98 60 99 53 100 54 101 55 102 56 103 57 104
REMARK H PARENT 10 15 6 20 81 54 47 65
REMARK Flexibility Score: inf
ROOT
ATOM      1  C   UNL A   1      39.024  21.293  25.985  1.00  0.00     0.272 C 
ENDROOT
BRANCH   1   2
ATOM      2  O   UNL A   1      38.142  22.321  25.481  1.00  0.00    -0.476 OA
BRANCH   2   3
ATOM      3  C   UNL A   1      36.918  21.971  25.009  1.00  0.00     0.209 C 
ATOM      4  N   UNL A   1      34.855  23.074  24.220  1.00  0.00    -0.283 N 
ATOM      5  C   UNL A   1      36.308  23.083  24.208  1.00  0.00     0.224 C 
ATOM      6  C   UNL A   1      34.279  21.761  24.203  1.00  0.00     0.072 A 
ATOM      7  C   UNL A   1      35.056  20.668  24.675  1.00  0.00     0.091 A 
ATOM      8  C   UNL A   1      32.944  21.544  23.844  1.00  0.00     0.029 A 
ATOM      9  N   UNL A   1      36.372  20.813  25.186  1.00  0.00    -0.214 NA
ATOM     10  C   UNL A   1      34.464  19.406  24.796  1.00  0.00     0.030 A 
ATOM     11  C   UNL A   1      32.368  20.280  23.984  1.00  0.00     0.002 A 
ATOM     12  C   UNL A   1      33.125  19.213  24.462  1.00  0.00     0.002 A 
BRANCH   4  13
ATOM     13  C   UNL A   1      34.216  24.201  23.736  1.00  0.00     0.323 C 
ATOM     14  N   UNL A   1      33.677  25.052  24.673  1.00  0.00    -0.326 N 
ATOM     15  H   UNL A   1      34.224  25.823  24.950  1.00  0.00     0.166 HD
ATOM     16  O   UNL A   1      34.310  24.591  22.574  1.00  0.00    -0.248 OA
BRANCH  14  17
ATOM     17  C   UNL A   1      32.336  24.906  25.306  1.00  0.00     0.175 C 
BRANCH  17  18
ATOM     18  C   UNL A   1      31.471  26.200  25.419  1.00  0.00     0.243 C 
ATOM     19  N   UNL A   1      31.615  27.244  24.558  1.00  0.00    -0.346 N 
ATOM     20  H   UNL A   1      31.480  28.141  24.941  1.00  0.00     0.164 HD
ATOM     21  O   UNL A   1      30.773  26.404  26.417  1.00  0.00    -0.273 OA
BRANCH  19  22
ATOM     22  C   UNL A   1      31.947  27.200  23.138  1.00  0.00     0.128 C 
BRANCH  22  23
ATOM     23  C   UNL A   1      30.672  27.603  22.386  1.00  0.00     0.034 C 
BRANCH  23  24
ATOM     24  C   UNL A   1      29.577  28.393  23.118  1.00  0.00    -0.015 C 
ATOM     25  C   UNL A   1      29.035  29.612  22.384  1.00  0.00     0.007 C 
ATOM     26  C   UNL A   1      28.413  27.435  23.406  1.00  0.00     0.007 C 
ENDBRANCH  23  24
ENDBRANCH  22  23
BRANCH  22  27
ATOM     27  C   UNL A   1      33.083  28.176  22.819  1.00  0.00     0.064 C 
ATOM     28  O   UNL A   1      33.330  29.214  23.415  1.00  0.00    -0.548 OA
ATOM     29  O   UNL A   1      33.914  27.745  21.844  1.00  0.00    -0.548 OA
ENDBRANCH  22  27
ENDBRANCH  19  22
ENDBRANCH  17  18
BRANCH  17  30
ATOM     30  C   UNL A   1      32.314  24.123  26.644  1.00  0.00     0.015 C 
ATOM     31  C   UNL A   1      31.383  22.901  26.669  1.00  0.00     0.010 C 
ATOM     32  C   UNL A   1      33.739  23.662  26.989  1.00  0.00     0.010 C 
ENDBRANCH  17  30
ENDBRANCH  14  17
ENDBRANCH   4  13
ENDBRANCH   2   3
ENDBRANCH   1   2
BRANCH   1  33
ATOM     33  C   UNL A   1      40.076  21.922  26.902  1.00  0.00     0.274 C 
BRANCH  33  34
ATOM     34  O   UNL A   1      39.719  23.293  27.144  1.00  0.00    -0.458 OA
BRANCH  34  35
ATOM     35  C   UNL A   1      40.673  24.226  26.924  1.00  0.00     0.338 C 
ATOM     36  O   UNL A   1      41.578  24.159  26.098  1.00  0.00    -0.246 OA
BRANCH  35  37
ATOM     37  C   UNL A   1      40.424  25.395  27.801  1.00  0.00     0.060 A 
ATOM     38  C   UNL A   1      41.359  26.423  27.812  1.00  0.00     0.016 A 
ATOM     39  C   UNL A   1      39.368  25.436  28.715  1.00  0.00     0.016 A 
ATOM     40  C   UNL A   1      41.298  27.437  28.761  1.00  0.00     0.010 A 
ATOM     41  C   UNL A   1      39.271  26.501  29.638  1.00  0.00     0.010 A 
ATOM     42  C   UNL A   1      40.260  27.497  29.698  1.00  0.00    -0.014 A 
BRANCH  42  43
ATOM     43  C   UNL A   1      40.298  28.568  30.745  1.00  0.00     0.031 A 
ATOM     44  C   UNL A   1      41.361  28.582  31.825  1.00  0.00     0.074 A 
ATOM     45  C   UNL A   1      39.488  29.644  30.631  1.00  0.00     0.049 A 
ATOM     46  N   UNL A   1      41.553  29.455  32.784  1.00  0.00    -0.248 NA
ATOM     47  C   UNL A   1      42.376  27.519  31.790  1.00  0.00     0.031 C 
ATOM     48  C   UNL A   1      38.521  29.867  29.553  1.00  0.00     0.029 A 
ATOM     49  N   UNL A   1      39.370  30.771  31.410  1.00  0.00    -0.354 N 
ATOM     50  C   UNL A   1      42.722  29.066  33.436  1.00  0.00     0.074 A 
ATOM     51  C   UNL A   1      43.208  27.888  32.755  1.00  0.00     0.031 C 
ATOM     52  C   UNL A   1      37.950  31.068  29.711  1.00  0.00     0.029 A 
ATOM     53  C   UNL A   1      38.403  31.646  30.971  1.00  0.00     0.049 A 
ATOM     54  H   UNL A   1      39.925  30.937  32.206  1.00  0.00     0.167 HD
ATOM     55  C   UNL A   1      43.317  29.614  34.521  1.00  0.00     0.037 A 
ATOM     56  C   UNL A   1      37.872  32.743  31.547  1.00  0.00     0.037 A 
ATOM     57  C   UNL A   1      42.771  30.712  35.276  1.00  0.00     0.049 A 
ATOM     58  C   UNL A   1      38.365  33.162  32.903  1.00  0.00     0.074 A 
ATOM     59  C   UNL A   1      43.199  31.226  36.488  1.00  0.00     0.029 A 
ATOM     60  N   UNL A   1      41.655  31.445  34.905  1.00  0.00    -0.354 N 
ATOM     61  N   UNL A   1      39.390  32.706  33.581  1.00  0.00    -0.248 NA
ATOM     62  C   UNL A   1      37.599  34.206  33.596  1.00  0.00     0.031 C 
ATOM     63  C   UNL A   1      42.299  32.221  36.884  1.00  0.00     0.029 A 
ATOM     64  C   UNL A   1      41.346  32.368  35.890  1.00  0.00     0.049 A 
ATOM     65  H   UNL A   1      41.154  31.326  34.065  1.00  0.00     0.167 HD
ATOM     66  C   UNL A   1      39.387  33.401  34.784  1.00  0.00     0.074 A 
ATOM     67  C   UNL A   1      38.276  34.329  34.730  1.00  0.00     0.031 C 
ATOM     68  C   UNL A   1      40.225  33.273  35.842  1.00  0.00     0.037 A 
BRANCH  55  69
ATOM     69  C   UNL A   1      44.564  28.956  35.043  1.00  0.00     0.058 A 
ATOM     70  C   UNL A   1      44.521  27.873  35.932  1.00  0.00     0.135 A 
ATOM     71  C   UNL A   1      45.824  29.393  34.601  1.00  0.00     0.135 A 
ATOM     72  F   UNL A   1      43.343  27.426  36.398  1.00  0.00    -0.206 F 
ATOM     73  C   UNL A   1      45.687  27.245  36.369  1.00  0.00     0.059 A 
ATOM     74  C   UNL A   1      46.998  28.773  35.012  1.00  0.00     0.059 A 
ATOM     75  F   UNL A   1      45.917  30.430  33.755  1.00  0.00    -0.206 F 
ATOM     76  C   UNL A   1      46.922  27.704  35.902  1.00  0.00     0.060 A 
BRANCH  76  77
ATOM     77  S   UNL A   1      48.429  26.878  36.462  1.00  0.00     0.124 S 
ATOM     78  O   UNL A   1      48.246  25.535  35.920  1.00  0.00    -0.237 OA
ATOM     79  O   UNL A   1      49.476  27.678  35.836  1.00  0.00    -0.237 OA
ATOM     80  O   UNL A   1      48.352  26.980  37.916  1.00  0.00    -0.744 OA
ENDBRANCH  76  77
ENDBRANCH  55  69
BRANCH  56  81
ATOM     81  C   UNL A   1      36.717  33.430  30.906  1.00  0.00     0.058 A 
ATOM     82  C   UNL A   1      36.881  34.276  29.802  1.00  0.00     0.135 A 
ATOM     83  C   UNL A   1      35.411  33.238  31.392  1.00  0.00     0.135 A 
ATOM     84  F   UNL A   1      38.109  34.516  29.315  1.00  0.00    -0.206 F 
ATOM     85  C   UNL A   1      35.793  34.898  29.194  1.00  0.00     0.059 A 
ATOM     86  C   UNL A   1      34.307  33.816  30.781  1.00  0.00     0.059 A 
ATOM     87  F   UNL A   1      35.196  32.445  32.454  1.00  0.00    -0.206 F 
ATOM     88  C   UNL A   1      34.508  34.652  29.685  1.00  0.00     0.060 A 
BRANCH  88  89
ATOM     89  S   UNL A   1      33.087  35.391  28.851  1.00  0.00     0.124 S 
ATOM     90  O   UNL A   1      32.562  34.252  28.106  1.00  0.00    -0.237 OA
ATOM     91  O   UNL A   1      32.274  35.853  29.971  1.00  0.00    -0.237 OA
ATOM     92  O   UNL A   1      33.689  36.451  28.048  1.00  0.00    -0.744 OA
ENDBRANCH  88  89
ENDBRANCH  56  81
BRANCH  68  93
ATOM     93  C   UNL A   1      39.973  34.150  37.033  1.00  0.00     0.058 A 
ATOM     94  C   UNL A   1      40.580  35.409  37.154  1.00  0.00     0.135 A 
ATOM     95  C   UNL A   1      39.087  33.748  38.045  1.00  0.00     0.135 A 
ATOM     96  F   UNL A   1      41.441  35.838  36.217  1.00  0.00    -0.206 F 
ATOM     97  C   UNL A   1      40.334  36.232  38.249  1.00  0.00     0.059 A 
ATOM     98  C   UNL A   1      38.809  34.563  39.137  1.00  0.00     0.059 A 
ATOM     99  F   UNL A   1      38.474  32.555  37.971  1.00  0.00    -0.206 F 
ATOM    100  C   UNL A   1      39.447  35.798  39.236  1.00  0.00     0.060 A 
BRANCH 100 101
ATOM    101  S   UNL A   1      39.118  36.883  40.641  1.00  0.00     0.124 S 
ATOM    102  O   UNL A   1      38.244  37.885  40.041  1.00  0.00    -0.237 OA
ATOM    103  O   UNL A   1      38.483  35.978  41.595  1.00  0.00    -0.237 OA
ATOM    104  O   UNL A   1      40.445  37.354  41.024  1.00  0.00    -0.744 OA
ENDBRANCH 100 101
ENDBRANCH  68  93
ENDBRANCH  42  43
ENDBRANCH  35  37
ENDBRANCH  34  35
ENDBRANCH  33  34
ENDBRANCH   1  33
TORSDOF 21
ENDMDL
MODEL 2
REMARK VINA RESULT:     -11.3      5.939     11.513
REMARK SMILES CC(C)C[C@H](NC(=O)[C@@H](NC(=O)N1CC(OCCOC(=O)c2ccc(-c3c4nc(c(-c5c(F)cc(S(=O)(=O)[O-])cc5F)c5ccc([nH]5)c(-c5c(F)cc(S(=O)(=O)[O-])cc5F)c5nc(c(-c6c(F)cc(S(=O)(=O)[O-])cc6F)c6ccc3[nH]6)C=C5)C=C4)cc2)=Nc2ccccc21)C(C)C)C(=O)[O-]
REMARK SMILES IDX 17 1 16 2 15 3 13 4 14 5 94 6 89 7 93 8 88 9 90 10 92 11
REMARK SMILES IDX 91 12 11 13 10 14 12 16 9 17 7 18 6 19 8 21 5 22 4 23 2 24
REMARK SMILES IDX 1 25 3 26 98 27 99 28 100 29 95 30 96 31 97 32 18 33 19 34
REMARK SMILES IDX 20 35 21 36 22 37 23 38 87 39 24 40 86 41 25 42 26 43 27 44
REMARK SMILES IDX 80 45 28 46 85 47 79 48 81 49 29 50 84 51 78 52 77 53 30 55
REMARK SMILES IDX 64 56 43 57 63 58 44 59 47 60 62 61 82 62 45 63 46 64 61 66
REMARK SMILES IDX 83 67 48 68 31 69 32 70 41 71 33 72 34 73 40 74 42 75 35 76
REMARK SMILES IDX 36 77 37 78 38 79 39 80 65 81 66 82 75 83 67 84 68 85 74 86
REMARK SMILES IDX 76 87 69 88 70 89 71 90 72 91 73 92 49 93 50 94 59 95 51 96
REMARK SMILES IDX 52 97 58 98 60 99 53 100 54 101 55 102 56 103 57 104
REMARK H PARENT 10 15 6 20 81 54 47 65
REMARK Flexibility Score: inf
ROOT
ATOM      1  C   UNL A   1      33.468  30.969  27.584  1.00  0.00     0.272 C 
ENDROOT
BRANCH   1   2
ATOM      2  O   UNL A   1      33.734  29.573  27.326  1.00  0.00    -0.476 OA
BRANCH   2   3
ATOM      3  C   UNL A   1      33.029  28.932  26.360  1.00  0.00     0.209 C 
ATOM      4  N   UNL A   1      33.077  26.776  25.157  1.00  0.00    -0.283 N 
ATOM      5  C   UNL A   1      33.232  27.446  26.436  1.00  0.00     0.224 C 
ATOM      6  C   UNL A   1      32.046  27.330  24.328  1.00  0.00     0.072 A 
ATOM      7  C   UNL A   1      31.653  28.680  24.538  1.00  0.00     0.091 A 
ATOM      8  C   UNL A   1      31.502  26.620  23.252  1.00  0.00     0.029 A 
ATOM      9  N   UNL A   1      32.246  29.519  25.516  1.00  0.00    -0.214 NA
ATOM     10  C   UNL A   1      30.751  29.278  23.651  1.00  0.00     0.030 A 
ATOM     11  C   UNL A   1      30.613  27.239  22.371  1.00  0.00     0.002 A 
ATOM     12  C   UNL A   1      30.240  28.567  22.568  1.00  0.00     0.002 A 
BRANCH   4  13
ATOM     13  C   UNL A   1      33.502  25.462  25.081  1.00  0.00     0.323 C 
ATOM     14  N   UNL A   1      32.521  24.498  25.072  1.00  0.00    -0.326 N 
ATOM     15  H   UNL A   1      32.229  24.161  24.194  1.00  0.00     0.166 HD
ATOM     16  O   UNL A   1      34.651  25.134  24.792  1.00  0.00    -0.248 OA
BRANCH  14  17
ATOM     17  C   UNL A   1      31.861  23.922  26.277  1.00  0.00     0.175 C 
BRANCH  17  18
ATOM     18  C   UNL A   1      32.536  22.669  26.914  1.00  0.00     0.243 C 
ATOM     19  N   UNL A   1      32.595  21.472  26.268  1.00  0.00    -0.346 N 
ATOM     20  H   UNL A   1      32.527  20.671  26.835  1.00  0.00     0.164 HD
ATOM     21  O   UNL A   1      32.855  22.664  28.107  1.00  0.00    -0.273 OA
BRANCH  19  22
ATOM     22  C   UNL A   1      32.747  21.229  24.837  1.00  0.00     0.128 C 
BRANCH  22  23
ATOM     23  C   UNL A   1      34.213  21.532  24.502  1.00  0.00     0.034 C 
BRANCH  23  24
ATOM     24  C   UNL A   1      35.324  21.031  25.437  1.00  0.00    -0.015 C 
ATOM     25  C   UNL A   1      36.250  19.969  24.858  1.00  0.00     0.007 C 
ATOM     26  C   UNL A   1      36.167  22.240  25.861  1.00  0.00     0.007 C 
ENDBRANCH  23  24
ENDBRANCH  22  23
BRANCH  22  27
ATOM     27  C   UNL A   1      32.414  19.773  24.499  1.00  0.00     0.064 C 
ATOM     28  O   UNL A   1      32.087  18.905  25.295  1.00  0.00    -0.548 OA
ATOM     29  O   UNL A   1      32.399  19.511  23.173  1.00  0.00    -0.548 OA
ENDBRANCH  22  27
ENDBRANCH  19  22
ENDBRANCH  17  18
BRANCH  17  30
ATOM     30  C   UNL A   1      30.330  23.708  26.157  1.00  0.00     0.015 C 
ATOM     31  C   UNL A   1      29.705  22.839  27.260  1.00  0.00     0.010 C 
ATOM     32  C   UNL A   1      29.622  25.072  26.145  1.00  0.00     0.010 C 
ENDBRANCH  17  30
ENDBRANCH  14  17
ENDBRANCH   4  13
ENDBRANCH   2   3
ENDBRANCH   1   2
BRANCH   1  33
ATOM     33  C   UNL A   1      34.721  31.634  28.160  1.00  0.00     0.274 C 
BRANCH  33  34
ATOM     34  O   UNL A   1      35.702  30.620  28.430  1.00  0.00    -0.458 OA
BRANCH  34  35
ATOM     35  C   UNL A   1      36.328  30.671  29.627  1.00  0.00     0.338 C 
ATOM     36  O   UNL A   1      35.790  30.780  30.725  1.00  0.00    -0.246 OA
BRANCH  35  37
ATOM     37  C   UNL A   1      37.787  30.510  29.423  1.00  0.00     0.060 A 
ATOM     38  C   UNL A   1      38.236  30.090  28.176  1.00  0.00     0.016 A 
ATOM     39  C   UNL A   1      38.709  30.624  30.466  1.00  0.00     0.016 A 
ATOM     40  C   UNL A   1      39.561  29.714  27.981  1.00  0.00     0.010 A 
ATOM     41  C   UNL A   1      40.067  30.303  30.251  1.00  0.00     0.010 A 
ATOM     42  C   UNL A   1      40.504  29.805  29.011  1.00  0.00    -0.014 A 
BRANCH  42  43
ATOM     43  C   UNL A   1      41.894  29.307  28.759  1.00  0.00     0.031 A 
ATOM     44  C   UNL A   1      43.105  30.189  28.986  1.00  0.00     0.074 A 
ATOM     45  C   UNL A   1      42.097  27.997  28.499  1.00  0.00     0.049 A 
ATOM     46  N   UNL A   1      44.376  29.899  28.847  1.00  0.00    -0.248 NA
ATOM     47  C   UNL A   1      42.868  31.548  29.494  1.00  0.00     0.031 C 
ATOM     48  C   UNL A   1      41.048  26.976  28.413  1.00  0.00     0.029 A 
ATOM     49  N   UNL A   1      43.257  27.287  28.291  1.00  0.00    -0.354 N 
ATOM     50  C   UNL A   1      45.081  31.020  29.281  1.00  0.00     0.074 A 
ATOM     51  C   UNL A   1      44.099  31.992  29.706  1.00  0.00     0.031 C 
ATOM     52  C   UNL A   1      41.612  25.776  28.221  1.00  0.00     0.029 A 
ATOM     53  C   UNL A   1      43.047  25.952  28.033  1.00  0.00     0.049 A 
ATOM     54  H   UNL A   1      44.152  27.695  28.325  1.00  0.00     0.167 HD
ATOM     55  C   UNL A   1      46.417  31.237  29.293  1.00  0.00     0.037 A 
ATOM     56  C   UNL A   1      43.889  24.988  27.609  1.00  0.00     0.037 A 
ATOM     57  C   UNL A   1      47.390  30.321  28.757  1.00  0.00     0.049 A 
ATOM     58  C   UNL A   1      45.327  25.340  27.352  1.00  0.00     0.074 A 
ATOM     59  C   UNL A   1      48.746  30.520  28.558  1.00  0.00     0.029 A 
ATOM     60  N   UNL A   1      47.105  29.043  28.304  1.00  0.00    -0.354 N 
ATOM     61  N   UNL A   1      45.964  26.448  27.641  1.00  0.00    -0.248 NA
ATOM     62  C   UNL A   1      46.146  24.333  26.665  1.00  0.00     0.031 C 
ATOM     63  C   UNL A   1      49.264  29.388  27.918  1.00  0.00     0.029 A 
ATOM     64  C   UNL A   1      48.244  28.462  27.775  1.00  0.00     0.049 A 
ATOM     65  H   UNL A   1      46.220  28.612  28.351  1.00  0.00     0.167 HD
ATOM     66  C   UNL A   1      47.257  26.276  27.162  1.00  0.00     0.074 A 
ATOM     67  C   UNL A   1      47.320  24.946  26.591  1.00  0.00     0.031 C 
ATOM     68  C   UNL A   1      48.295  27.148  27.186  1.00  0.00     0.037 A 
BRANCH  55  69
ATOM     69  C   UNL A   1      46.905  32.571  29.784  1.00  0.00     0.058 A 
ATOM     70  C   UNL A   1      47.317  32.775  31.109  1.00  0.00     0.135 A 
ATOM     71  C   UNL A   1      47.006  33.652  28.892  1.00  0.00     0.135 A 
ATOM     72  F   UNL A   1      47.226  31.780  32.006  1.00  0.00    -0.206 F 
ATOM     73  C   UNL A   1      47.810  34.008  31.535  1.00  0.00     0.059 A 
ATOM     74  C   UNL A   1      47.508  34.885  29.291  1.00  0.00     0.059 A 
ATOM     75  F   UNL A   1      46.619  33.508  27.615  1.00  0.00    -0.206 F 
ATOM     76  C   UNL A   1      47.902  35.057  30.616  1.00  0.00     0.060 A 
BRANCH  76  77
ATOM     77  S   UNL A   1      48.555  36.649  31.171  1.00  0.00     0.124 S 
ATOM     78  O   UNL A   1      48.564  36.473  32.620  1.00  0.00    -0.237 OA
ATOM     79  O   UNL A   1      49.864  36.692  30.529  1.00  0.00    -0.237 OA
ATOM     80  O   UNL A   1      47.581  37.611  30.665  1.00  0.00    -0.744 OA
ENDBRANCH  76  77
ENDBRANCH  55  69
BRANCH  56  81
ATOM     81  C   UNL A   1      43.357  23.640  27.263  1.00  0.00     0.058 A 
ATOM     82  C   UNL A   1      43.099  23.266  25.938  1.00  0.00     0.135 A 
ATOM     83  C   UNL A   1      43.106  22.691  28.270  1.00  0.00     0.135 A 
ATOM     84  F   UNL A   1      43.295  24.144  24.942  1.00  0.00    -0.206 F 
ATOM     85  C   UNL A   1      42.623  21.996  25.621  1.00  0.00     0.059 A 
ATOM     86  C   UNL A   1      42.667  21.407  27.975  1.00  0.00     0.059 A 
ATOM     87  F   UNL A   1      43.326  22.998  29.558  1.00  0.00    -0.206 F 
ATOM     88  C   UNL A   1      42.421  21.070  26.647  1.00  0.00     0.060 A 
BRANCH  88  89
ATOM     89  S   UNL A   1      41.882  19.397  26.233  1.00  0.00     0.124 S 
ATOM     90  O   UNL A   1      40.447  19.588  26.057  1.00  0.00    -0.237 OA
ATOM     91  O   UNL A   1      42.644  19.115  25.021  1.00  0.00    -0.237 OA
ATOM     92  O   UNL A   1      42.279  18.623  27.406  1.00  0.00    -0.744 OA
ENDBRANCH  88  89
ENDBRANCH  56  81
BRANCH  68  93
ATOM     93  C   UNL A   1      49.589  26.698  26.572  1.00  0.00     0.058 A 
ATOM     94  C   UNL A   1      50.479  25.868  27.272  1.00  0.00     0.135 A 
ATOM     95  C   UNL A   1      49.926  27.065  25.260  1.00  0.00     0.135 A 
ATOM     96  F   UNL A   1      50.207  25.494  28.532  1.00  0.00    -0.206 F 
ATOM     97  C   UNL A   1      51.670  25.436  26.698  1.00  0.00     0.059 A 
ATOM     98  C   UNL A   1      51.100  26.626  24.659  1.00  0.00     0.059 A 
ATOM     99  F   UNL A   1      49.103  27.851  24.546  1.00  0.00    -0.206 F 
ATOM    100  C   UNL A   1      51.972  25.822  25.391  1.00  0.00     0.060 A 
BRANCH 100 101
ATOM    101  S   UNL A   1      53.510  25.237  24.648  1.00  0.00     0.124 S 
ATOM    102  O   UNL A   1      54.503  26.033  25.362  1.00  0.00    -0.237 OA
ATOM    103  O   UNL A   1      53.493  23.812  24.968  1.00  0.00    -0.237 OA
ATOM    104  O   UNL A   1      53.347  25.556  23.234  1.00  0.00    -0.744 OA
ENDBRANCH 100 101
ENDBRANCH  68  93
ENDBRANCH  42  43
ENDBRANCH  35  37
ENDBRANCH  34  35
ENDBRANCH  33  34
ENDBRANCH   1  33
TORSDOF 21
ENDMDL
MODEL 3
REMARK VINA RESULT:     -11.3      5.947     11.539
REMARK SMILES CC(C)C[C@H](NC(=O)[C@@H](NC(=O)N1CC(OCCOC(=O)c2ccc(-c3c4nc(c(-c5c(F)cc(S(=O)(=O)[O-])cc5F)c5ccc([nH]5)c(-c5c(F)cc(S(=O)(=O)[O-])cc5F)c5nc(c(-c6c(F)cc(S(=O)(=O)[O-])cc6F)c6ccc3[nH]6)C=C5)C=C4)cc2)=Nc2ccccc21)C(C)C)C(=O)[O-]
REMARK SMILES IDX 17 1 16 2 15 3 13 4 14 5 94 6 89 7 93 8 88 9 90 10 92 11
REMARK SMILES IDX 91 12 11 13 10 14 12 16 9 17 7 18 6 19 8 21 5 22 4 23 2 24
REMARK SMILES IDX 1 25 3 26 98 27 99 28 100 29 95 30 96 31 97 32 18 33 19 34
REMARK SMILES IDX 20 35 21 36 22 37 23 38 87 39 24 40 86 41 25 42 26 43 27 44
REMARK SMILES IDX 80 45 28 46 85 47 79 48 81 49 29 50 84 51 78 52 77 53 30 55
REMARK SMILES IDX 64 56 43 57 63 58 44 59 47 60 62 61 82 62 45 63 46 64 61 66
REMARK SMILES IDX 83 67 48 68 31 69 32 70 41 71 33 72 34 73 40 74 42 75 35 76
REMARK SMILES IDX 36 77 37 78 38 79 39 80 65 81 66 82 75 83 67 84 68 85 74 86
REMARK SMILES IDX 76 87 69 88 70 89 71 90 72 91 73 92 49 93 50 94 59 95 51 96
REMARK SMILES IDX 52 97 58 98 60 99 53 100 54 101 55 102 56 103 57 104
REMARK H PARENT 10 15 6 20 81 54 47 65
REMARK Flexibility Score: inf
ROOT
ATOM      1  C   UNL A   1      33.531  31.018  27.590  1.00  0.00     0.272 C 
ENDROOT
BRANCH   1   2
ATOM      2  O   UNL A   1      33.750  29.936  26.658  1.00  0.00    -0.476 OA
BRANCH   2   3
ATOM      3  C   UNL A   1      32.835  29.706  25.682  1.00  0.00     0.209 C 
ATOM      4  N   UNL A   1      32.727  28.624  23.466  1.00  0.00    -0.283 N 
ATOM      5  C   UNL A   1      33.240  28.544  24.823  1.00  0.00     0.224 C 
ATOM      6  C   UNL A   1      31.408  29.177  23.372  1.00  0.00     0.072 A 
ATOM      7  C   UNL A   1      30.946  30.025  24.416  1.00  0.00     0.091 A 
ATOM      8  C   UNL A   1      30.611  29.000  22.234  1.00  0.00     0.029 A 
ATOM      9  N   UNL A   1      31.736  30.370  25.542  1.00  0.00    -0.214 NA
ATOM     10  C   UNL A   1      29.720  30.683  24.274  1.00  0.00     0.030 A 
ATOM     11  C   UNL A   1      29.396  29.676  22.106  1.00  0.00     0.002 A 
ATOM     12  C   UNL A   1      28.952  30.519  23.123  1.00  0.00     0.002 A 
BRANCH   4  13
ATOM     13  C   UNL A   1      33.261  27.745  22.541  1.00  0.00     0.323 C 
ATOM     14  N   UNL A   1      32.482  26.664  22.200  1.00  0.00    -0.326 N 
ATOM     15  H   UNL A   1      31.931  26.744  21.388  1.00  0.00     0.166 HD
ATOM     16  O   UNL A   1      34.250  27.996  21.856  1.00  0.00    -0.248 OA
BRANCH  14  17
ATOM     17  C   UNL A   1      32.401  25.382  22.954  1.00  0.00     0.175 C 
BRANCH  17  18
ATOM     18  C   UNL A   1      33.377  24.246  22.514  1.00  0.00     0.243 C 
ATOM     19  N   UNL A   1      34.534  23.989  23.182  1.00  0.00    -0.346 N 
ATOM     20  H   UNL A   1      35.294  23.693  22.631  1.00  0.00     0.164 HD
ATOM     21  O   UNL A   1      33.235  23.682  21.425  1.00  0.00    -0.273 OA
BRANCH  19  22
ATOM     22  C   UNL A   1      34.789  24.098  24.615  1.00  0.00     0.128 C 
BRANCH  22  23
ATOM     23  C   UNL A   1      33.902  23.044  25.290  1.00  0.00     0.034 C 
BRANCH  23  24
ATOM     24  C   UNL A   1      33.484  23.230  26.756  1.00  0.00    -0.015 C 
ATOM     25  C   UNL A   1      31.993  23.423  27.002  1.00  0.00     0.007 C 
ATOM     26  C   UNL A   1      33.957  22.001  27.543  1.00  0.00     0.007 C 
ENDBRANCH  23  24
ENDBRANCH  22  23
BRANCH  22  27
ATOM     27  C   UNL A   1      36.265  23.827  24.922  1.00  0.00     0.064 C 
ATOM     28  O   UNL A   1      36.854  24.124  25.951  1.00  0.00    -0.548 OA
ATOM     29  O   UNL A   1      36.894  23.100  23.972  1.00  0.00    -0.548 OA
ENDBRANCH  22  27
ENDBRANCH  19  22
ENDBRANCH  17  18
BRANCH  17  30
ATOM     30  C   UNL A   1      30.971  24.817  23.152  1.00  0.00     0.015 C 
ATOM     31  C   UNL A   1      30.904  23.329  23.528  1.00  0.00     0.010 C 
ATOM     32  C   UNL A   1      30.246  25.631  24.236  1.00  0.00     0.010 C 
ENDBRANCH  17  30
ENDBRANCH  14  17
ENDBRANCH   4  13
ENDBRANCH   2   3
ENDBRANCH   1   2
BRANCH   1  33
ATOM     33  C   UNL A   1      34.878  31.570  28.065  1.00  0.00     0.274 C 
BRANCH  33  34
ATOM     34  O   UNL A   1      35.700  30.474  28.500  1.00  0.00    -0.458 OA
BRANCH  34  35
ATOM     35  C   UNL A   1      36.348  30.621  29.677  1.00  0.00     0.338 C 
ATOM     36  O   UNL A   1      35.830  30.797  30.776  1.00  0.00    -0.246 OA
BRANCH  35  37
ATOM     37  C   UNL A   1      37.806  30.473  29.454  1.00  0.00     0.060 A 
ATOM     38  C   UNL A   1      38.242  30.034  28.209  1.00  0.00     0.016 A 
ATOM     39  C   UNL A   1      38.742  30.618  30.481  1.00  0.00     0.016 A 
ATOM     40  C   UNL A   1      39.567  29.671  28.000  1.00  0.00     0.010 A 
ATOM     41  C   UNL A   1      40.101  30.309  30.251  1.00  0.00     0.010 A 
ATOM     42  C   UNL A   1      40.525  29.793  29.015  1.00  0.00    -0.014 A 
BRANCH  42  43
ATOM     43  C   UNL A   1      41.917  29.306  28.751  1.00  0.00     0.031 A 
ATOM     44  C   UNL A   1      43.120  30.207  28.937  1.00  0.00     0.074 A 
ATOM     45  C   UNL A   1      42.132  27.992  28.516  1.00  0.00     0.049 A 
ATOM     46  N   UNL A   1      44.392  29.930  28.784  1.00  0.00    -0.248 NA
ATOM     47  C   UNL A   1      42.874  31.575  29.418  1.00  0.00     0.031 C 
ATOM     48  C   UNL A   1      41.095  26.958  28.471  1.00  0.00     0.029 A 
ATOM     49  N   UNL A   1      43.298  27.292  28.306  1.00  0.00    -0.354 N 
ATOM     50  C   UNL A   1      45.089  31.069  29.181  1.00  0.00     0.074 A 
ATOM     51  C   UNL A   1      44.103  32.039  29.600  1.00  0.00     0.031 C 
ATOM     52  C   UNL A   1      41.671  25.760  28.297  1.00  0.00     0.029 A 
ATOM     53  C   UNL A   1      43.100  25.950  28.081  1.00  0.00     0.049 A 
ATOM     54  H   UNL A   1      44.188  27.712  28.316  1.00  0.00     0.167 HD
ATOM     55  C   UNL A   1      46.423  31.303  29.166  1.00  0.00     0.037 A 
ATOM     56  C   UNL A   1      43.947  24.986  27.665  1.00  0.00     0.037 A 
ATOM     57  C   UNL A   1      47.399  30.387  28.635  1.00  0.00     0.049 A 
ATOM     58  C   UNL A   1      45.376  25.350  27.377  1.00  0.00     0.074 A 
ATOM     59  C   UNL A   1      48.748  30.598  28.410  1.00  0.00     0.029 A 
ATOM     60  N   UNL A   1      47.122  29.096  28.216  1.00  0.00    -0.354 N 
ATOM     61  N   UNL A   1      46.004  26.473  27.630  1.00  0.00    -0.248 NA
ATOM     62  C   UNL A   1      46.197  24.338  26.700  1.00  0.00     0.031 C 
ATOM     63  C   UNL A   1      49.271  29.458  27.787  1.00  0.00     0.029 A 
ATOM     64  C   UNL A   1      48.260  28.517  27.681  1.00  0.00     0.049 A 
ATOM     65  H   UNL A   1      46.244  28.655  28.287  1.00  0.00     0.167 HD
ATOM     66  C   UNL A   1      47.292  26.305  27.135  1.00  0.00     0.074 A 
ATOM     67  C   UNL A   1      47.362  24.964  26.593  1.00  0.00     0.031 C 
ATOM     68  C   UNL A   1      48.319  27.190  27.122  1.00  0.00     0.037 A 
BRANCH  55  69
ATOM     69  C   UNL A   1      46.902  32.654  29.619  1.00  0.00     0.058 A 
ATOM     70  C   UNL A   1      47.411  32.873  30.907  1.00  0.00     0.135 A 
ATOM     71  C   UNL A   1      46.893  33.736  28.723  1.00  0.00     0.135 A 
ATOM     72  F   UNL A   1      47.428  31.877  31.807  1.00  0.00    -0.206 F 
ATOM     73  C   UNL A   1      47.894  34.123  31.294  1.00  0.00     0.059 A 
ATOM     74  C   UNL A   1      47.382  34.987  29.083  1.00  0.00     0.059 A 
ATOM     75  F   UNL A   1      46.410  33.578  27.482  1.00  0.00    -0.206 F 
ATOM     76  C   UNL A   1      47.875  35.174  30.373  1.00  0.00     0.060 A 
BRANCH  76  77
ATOM     77  S   UNL A   1      48.514  36.788  30.877  1.00  0.00     0.124 S 
ATOM     78  O   UNL A   1      49.354  36.429  32.014  1.00  0.00    -0.237 OA
ATOM     79  O   UNL A   1      49.221  37.233  29.680  1.00  0.00    -0.237 OA
ATOM     80  O   UNL A   1      47.309  37.544  31.204  1.00  0.00    -0.744 OA
ENDBRANCH  76  77
ENDBRANCH  55  69
BRANCH  56  81
ATOM     81  C   UNL A   1      43.427  23.625  27.359  1.00  0.00     0.058 A 
ATOM     82  C   UNL A   1      43.222  22.670  28.364  1.00  0.00     0.135 A 
ATOM     83  C   UNL A   1      43.115  23.259  26.038  1.00  0.00     0.135 A 
ATOM     84  F   UNL A   1      43.529  22.958  29.638  1.00  0.00    -0.206 F 
ATOM     85  C   UNL A   1      42.714  21.406  28.072  1.00  0.00     0.059 A 
ATOM     86  C   UNL A   1      42.574  22.019  25.727  1.00  0.00     0.059 A 
ATOM     87  F   UNL A   1      43.302  24.130  25.033  1.00  0.00    -0.206 F 
ATOM     88  C   UNL A   1      42.383  21.095  26.751  1.00  0.00     0.060 A 
BRANCH  88  89
ATOM     89  S   UNL A   1      41.649  19.487  26.380  1.00  0.00     0.124 S 
ATOM     90  O   UNL A   1      41.987  18.728  27.579  1.00  0.00    -0.237 OA
ATOM     91  O   UNL A   1      40.238  19.821  26.210  1.00  0.00    -0.237 OA
ATOM     92  O   UNL A   1      42.339  19.083  25.158  1.00  0.00    -0.744 OA
ENDBRANCH  88  89
ENDBRANCH  56  81
BRANCH  68  93
ATOM     93  C   UNL A   1      49.608  26.742  26.496  1.00  0.00     0.058 A 
ATOM     94  C   UNL A   1      49.884  26.983  25.142  1.00  0.00     0.135 A 
ATOM     95  C   UNL A   1      50.592  26.103  27.265  1.00  0.00     0.135 A 
ATOM     96  F   UNL A   1      48.972  27.585  24.362  1.00  0.00    -0.206 F 
ATOM     97  C   UNL A   1      51.085  26.584  24.564  1.00  0.00     0.059 A 
ATOM     98  C   UNL A   1      51.810  25.716  26.714  1.00  0.00     0.059 A 
ATOM     99  F   UNL A   1      50.380  25.858  28.568  1.00  0.00    -0.206 F 
ATOM    100  C   UNL A   1      52.041  25.950  25.359  1.00  0.00     0.060 A 
BRANCH 100 101
ATOM    101  S   UNL A   1      53.606  25.457  24.605  1.00  0.00     0.124 S 
ATOM    102  O   UNL A   1      53.450  25.965  23.246  1.00  0.00    -0.237 OA
ATOM    103  O   UNL A   1      54.587  26.152  25.433  1.00  0.00    -0.237 OA
ATOM    104  O   UNL A   1      53.603  24.004  24.736  1.00  0.00    -0.744 OA
ENDBRANCH 100 101
ENDBRANCH  68  93
ENDBRANCH  42  43
ENDBRANCH  35  37
ENDBRANCH  34  35
ENDBRANCH  33  34
ENDBRANCH   1  33
TORSDOF 21
ENDMDL
