MODEL 1
REMARK VINA RESULT:     -12.3      0.000      0.000
REMARK SMILES O=C(N/N=C\c1ccccc1C(=O)OCCOC(=O)c1ccc(-c2c3nc(c(-c4c(F)cc(S(=O)(=O)[O-])cc4F)c4ccc([nH]4)c(-c4c(F)cc(S(=O)(=O)[O-])cc4F)c4nc(c(-c5c(F)cc(S(=O)(=O)[O-])cc5F)c5ccc2[nH]5)C=C4)C=C3)cc1)C(=O)N1CCCCC1
REMARK SMILES IDX 15 1 14 2 12 3 13 4 11 5 6 6 7 7 8 8 10 9 9 10 5 11 4 12
REMARK SMILES IDX 3 13 1 14 2 15 86 17 87 18 88 19 89 20 93 21 90 22 92 23
REMARK SMILES IDX 91 24 16 25 17 26 18 27 19 28 20 29 21 30 85 31 22 32 84 33
REMARK SMILES IDX 23 34 24 35 25 36 78 37 26 38 83 39 77 40 79 41 27 42 82 43
REMARK SMILES IDX 76 44 75 45 28 47 62 48 41 49 61 50 42 51 45 52 60 53 80 54
REMARK SMILES IDX 43 55 44 56 59 58 81 59 46 60 29 61 30 62 39 63 31 64 32 65
REMARK SMILES IDX 38 66 40 67 33 68 34 69 35 70 36 71 37 72 63 73 64 74 73 75
REMARK SMILES IDX 65 76 66 77 72 78 74 79 67 80 68 81 69 82 70 83 71 84 47 85
REMARK SMILES IDX 48 86 57 87 49 88 50 89 56 90 58 91 51 92 52 93 53 94 54 95
REMARK SMILES IDX 55 96
REMARK H PARENT 3 16 79 46 45 57
REMARK Flexibility Score: inf
ROOT
ATOM      1  C   UNL A   1      32.021  29.833  26.787  1.00  0.00     0.275 C 
ENDROOT
BRANCH   1   2
ATOM      2  O   UNL A   1      31.452  30.317  25.553  1.00  0.00    -0.458 OA
BRANCH   2   3
ATOM      3  C   UNL A   1      31.798  29.581  24.474  1.00  0.00     0.338 C 
ATOM      4  O   UNL A   1      32.928  29.331  24.090  1.00  0.00    -0.246 OA
BRANCH   3   5
ATOM      5  C   UNL A   1      30.612  29.164  23.722  1.00  0.00     0.068 A 
ATOM      6  C   UNL A   1      30.061  27.464  23.970  1.00  0.00     0.009 A 
ATOM      7  C   UNL A   1      28.284  26.989  23.731  1.00  0.00     0.010 A 
ATOM      8  C   UNL A   1      27.082  28.279  23.293  1.00  0.00     0.001 A 
ATOM      9  C   UNL A   1      29.409  30.436  23.284  1.00  0.00     0.016 A 
ATOM     10  C   UNL A   1      27.627  29.994  23.095  1.00  0.00     0.001 A 
BRANCH   6  11
ATOM     11  C   UNL A   1      30.851  26.705  24.904  1.00  0.00     0.142 C 
ATOM     12  N   UNL A   1      31.922  26.105  24.517  1.00  0.00    -0.180 NA
BRANCH  12  13
ATOM     13  N   UNL A   1      32.306  26.231  23.208  1.00  0.00    -0.239 N 
ATOM     14  O   UNL A   1      32.565  25.604  21.060  1.00  0.00    -0.262 OA
ATOM     15  C   UNL A   1      32.716  25.298  22.248  1.00  0.00     0.329 C 
ATOM     16  H   UNL A   1      32.289  27.158  22.878  1.00  0.00     0.194 HD
BRANCH  15  17
ATOM     17  C   UNL A   1      33.542  23.869  22.630  1.00  0.00     0.313 C 
ATOM     18  O   UNL A   1      33.525  23.425  21.423  1.00  0.00    -0.263 OA
ATOM     19  N   UNL A   1      34.237  23.101  24.335  1.00  0.00    -0.334 N 
ATOM     20  C   UNL A   1      34.742  21.519  24.779  1.00  0.00     0.120 C 
ATOM     21  C   UNL A   1      34.554  23.774  25.876  1.00  0.00     0.120 C 
ATOM     22  C   UNL A   1      33.874  20.926  25.902  1.00  0.00     0.022 C 
ATOM     23  C   UNL A   1      33.681  23.161  26.980  1.00  0.00     0.022 C 
ATOM     24  C   UNL A   1      33.991  21.697  27.198  1.00  0.00     0.004 C 
ENDBRANCH  15  17
ENDBRANCH  12  13
ENDBRANCH   6  11
ENDBRANCH   3   5
ENDBRANCH   2   3
ENDBRANCH   1   2
BRANCH   1  25
ATOM     25  C   UNL A   1      33.224  30.658  27.265  1.00  0.00     0.275 C 
BRANCH  25  26
ATOM     26  O   UNL A   1      34.084  29.933  28.163  1.00  0.00    -0.458 OA
BRANCH  26  27
ATOM     27  C   UNL A   1      35.081  30.668  28.708  1.00  0.00     0.338 C 
ATOM     28  O   UNL A   1      34.978  31.763  29.240  1.00  0.00    -0.246 OA
BRANCH  27  29
ATOM     29  C   UNL A   1      36.367  29.960  28.620  1.00  0.00     0.060 A 
ATOM     30  C   UNL A   1      36.908  29.415  29.783  1.00  0.00     0.016 A 
ATOM     31  C   UNL A   1      37.125  30.020  27.451  1.00  0.00     0.016 A 
ATOM     32  C   UNL A   1      38.246  29.033  29.818  1.00  0.00     0.010 A 
ATOM     33  C   UNL A   1      38.448  29.561  27.467  1.00  0.00     0.010 A 
ATOM     34  C   UNL A   1      39.036  29.106  28.662  1.00  0.00    -0.014 A 
BRANCH  34  35
ATOM     35  C   UNL A   1      40.482  28.758  28.715  1.00  0.00     0.031 A 
ATOM     36  C   UNL A   1      41.490  29.786  29.160  1.00  0.00     0.074 A 
ATOM     37  C   UNL A   1      40.900  27.520  28.388  1.00  0.00     0.049 A 
ATOM     38  N   UNL A   1      42.796  29.749  29.084  1.00  0.00    -0.248 NA
ATOM     39  C   UNL A   1      40.959  31.019  29.761  1.00  0.00     0.031 C 
ATOM     40  C   UNL A   1      40.036  26.407  27.994  1.00  0.00     0.029 A 
ATOM     41  N   UNL A   1      42.166  26.989  28.343  1.00  0.00    -0.354 N 
ATOM     42  C   UNL A   1      43.240  30.976  29.562  1.00  0.00     0.074 A 
ATOM     43  C   UNL A   1      42.065  31.727  29.953  1.00  0.00     0.031 C 
ATOM     44  C   UNL A   1      40.792  25.320  27.775  1.00  0.00     0.029 A 
ATOM     45  C   UNL A   1      42.196  25.675  27.944  1.00  0.00     0.049 A 
ATOM     46  H   UNL A   1      42.974  27.502  28.574  1.00  0.00     0.167 HD
ATOM     47  C   UNL A   1      44.510  31.437  29.655  1.00  0.00     0.037 A 
ATOM     48  C   UNL A   1      43.237  24.856  27.703  1.00  0.00     0.037 A 
ATOM     49  C   UNL A   1      45.682  30.668  29.327  1.00  0.00     0.049 A 
ATOM     50  C   UNL A   1      44.638  25.378  27.837  1.00  0.00     0.074 A 
ATOM     51  C   UNL A   1      47.009  31.057  29.362  1.00  0.00     0.029 A 
ATOM     52  N   UNL A   1      45.666  29.340  28.933  1.00  0.00    -0.354 N 
ATOM     53  N   UNL A   1      45.038  26.577  28.184  1.00  0.00    -0.248 NA
ATOM     54  C   UNL A   1      45.728  24.445  27.519  1.00  0.00     0.031 C 
ATOM     55  C   UNL A   1      47.797  29.963  28.984  1.00  0.00     0.029 A 
ATOM     56  C   UNL A   1      46.959  28.890  28.729  1.00  0.00     0.049 A 
ATOM     57  H   UNL A   1      44.853  28.795  28.814  1.00  0.00     0.167 HD
ATOM     58  C   UNL A   1      46.425  26.549  28.108  1.00  0.00     0.074 A 
ATOM     59  C   UNL A   1      46.797  25.207  27.710  1.00  0.00     0.031 C 
ATOM     60  C   UNL A   1      47.308  27.552  28.330  1.00  0.00     0.037 A 
BRANCH  47  61
ATOM     61  C   UNL A   1      44.695  32.860  30.091  1.00  0.00     0.058 A 
ATOM     62  C   UNL A   1      44.651  33.927  29.182  1.00  0.00     0.135 A 
ATOM     63  C   UNL A   1      44.901  33.158  31.448  1.00  0.00     0.135 A 
ATOM     64  F   UNL A   1      44.475  33.691  27.873  1.00  0.00    -0.206 F 
ATOM     65  C   UNL A   1      44.822  35.243  29.601  1.00  0.00     0.059 A 
ATOM     66  C   UNL A   1      45.062  34.467  31.891  1.00  0.00     0.059 A 
ATOM     67  F   UNL A   1      44.956  32.170  32.356  1.00  0.00    -0.206 F 
ATOM     68  C   UNL A   1      45.036  35.502  30.957  1.00  0.00     0.060 A 
BRANCH  68  69
ATOM     69  S   UNL A   1      45.264  37.209  31.500  1.00  0.00     0.124 S 
ATOM     70  O   UNL A   1      45.870  37.811  30.316  1.00  0.00    -0.237 OA
ATOM     71  O   UNL A   1      43.901  37.637  31.799  1.00  0.00    -0.237 OA
ATOM     72  O   UNL A   1      46.142  37.078  32.659  1.00  0.00    -0.744 OA
ENDBRANCH  68  69
ENDBRANCH  47  61
BRANCH  48  73
ATOM     73  C   UNL A   1      42.983  23.464  27.256  1.00  0.00     0.058 A 
ATOM     74  C   UNL A   1      43.124  23.102  25.910  1.00  0.00     0.135 A 
ATOM     75  C   UNL A   1      42.630  22.466  28.176  1.00  0.00     0.135 A 
ATOM     76  F   UNL A   1      43.451  24.029  24.996  1.00  0.00    -0.206 F 
ATOM     77  C   UNL A   1      42.926  21.792  25.487  1.00  0.00     0.059 A 
ATOM     78  C   UNL A   1      42.442  21.147  27.780  1.00  0.00     0.059 A 
ATOM     79  F   UNL A   1      42.494  22.767  29.476  1.00  0.00    -0.206 F 
ATOM     80  C   UNL A   1      42.585  20.821  26.430  1.00  0.00     0.060 A 
BRANCH  80  81
ATOM     81  S   UNL A   1      42.393  19.103  25.907  1.00  0.00     0.124 S 
ATOM     82  O   UNL A   1      40.952  19.019  25.703  1.00  0.00    -0.237 OA
ATOM     83  O   UNL A   1      43.212  19.041  24.699  1.00  0.00    -0.237 OA
ATOM     84  O   UNL A   1      42.918  18.354  27.046  1.00  0.00    -0.744 OA
ENDBRANCH  80  81
ENDBRANCH  48  73
BRANCH  60  85
ATOM     85  C   UNL A   1      48.760  27.232  28.141  1.00  0.00     0.058 A 
ATOM     86  C   UNL A   1      49.389  27.439  26.905  1.00  0.00     0.135 A 
ATOM     87  C   UNL A   1      49.534  26.747  29.206  1.00  0.00     0.135 A 
ATOM     88  F   UNL A   1      48.686  27.896  25.857  1.00  0.00    -0.206 F 
ATOM     89  C   UNL A   1      50.740  27.164  26.725  1.00  0.00     0.059 A 
ATOM     90  C   UNL A   1      50.889  26.474  29.051  1.00  0.00     0.059 A 
ATOM     91  F   UNL A   1      48.974  26.537  30.407  1.00  0.00    -0.206 F 
ATOM     92  C   UNL A   1      51.482  26.677  27.803  1.00  0.00     0.060 A 
BRANCH  92  93
ATOM     93  S   UNL A   1      53.243  26.347  27.580  1.00  0.00     0.124 S 
ATOM     94  O   UNL A   1      53.213  25.140  26.760  1.00  0.00    -0.237 OA
ATOM     95  O   UNL A   1      53.714  27.555  26.910  1.00  0.00    -0.237 OA
ATOM     96  O   UNL A   1      53.726  26.170  28.947  1.00  0.00    -0.744 OA
ENDBRANCH  92  93
ENDBRANCH  60  85
ENDBRANCH  34  35
ENDBRANCH  27  29
ENDBRANCH  26  27
ENDBRANCH  25  26
ENDBRANCH   1  25
TORSDOF 17
ENDMDL
MODEL 2
REMARK VINA RESULT:     -12.1      5.501     11.233
REMARK SMILES O=C(N/N=C\c1ccccc1C(=O)OCCOC(=O)c1ccc(-c2c3nc(c(-c4c(F)cc(S(=O)(=O)[O-])cc4F)c4ccc([nH]4)c(-c4c(F)cc(S(=O)(=O)[O-])cc4F)c4nc(c(-c5c(F)cc(S(=O)(=O)[O-])cc5F)c5ccc2[nH]5)C=C4)C=C3)cc1)C(=O)N1CCCCC1
REMARK SMILES IDX 15 1 14 2 12 3 13 4 11 5 6 6 7 7 8 8 10 9 9 10 5 11 4 12
REMARK SMILES IDX 3 13 1 14 2 15 86 17 87 18 88 19 89 20 93 21 90 22 92 23
REMARK SMILES IDX 91 24 16 25 17 26 18 27 19 28 20 29 21 30 85 31 22 32 84 33
REMARK SMILES IDX 23 34 24 35 25 36 78 37 26 38 83 39 77 40 79 41 27 42 82 43
REMARK SMILES IDX 76 44 75 45 28 47 62 48 41 49 61 50 42 51 45 52 60 53 80 54
REMARK SMILES IDX 43 55 44 56 59 58 81 59 46 60 29 61 30 62 39 63 31 64 32 65
REMARK SMILES IDX 38 66 40 67 33 68 34 69 35 70 36 71 37 72 63 73 64 74 73 75
REMARK SMILES IDX 65 76 66 77 72 78 74 79 67 80 68 81 69 82 70 83 71 84 47 85
REMARK SMILES IDX 48 86 57 87 49 88 50 89 56 90 58 91 51 92 52 93 53 94 54 95
REMARK SMILES IDX 55 96
REMARK H PARENT 3 16 79 46 45 57
REMARK Flexibility Score: inf
ROOT
ATOM      1  C   UNL A   1      38.905  21.412  25.772  1.00  0.00     0.275 C 
ENDROOT
BRANCH   1   2
ATOM      2  O   UNL A   1      37.795  22.318  25.939  1.00  0.00    -0.458 OA
BRANCH   2   3
ATOM      3  C   UNL A   1      36.889  22.254  24.939  1.00  0.00     0.338 C 
ATOM      4  O   UNL A   1      37.056  22.584  23.778  1.00  0.00    -0.246 OA
BRANCH   3   5
ATOM      5  C   UNL A   1      35.588  21.802  25.440  1.00  0.00     0.068 A 
ATOM      6  C   UNL A   1      34.410  23.092  25.890  1.00  0.00     0.009 A 
ATOM      7  C   UNL A   1      32.582  22.782  25.828  1.00  0.00     0.010 A 
ATOM      8  C   UNL A   1      31.984  21.166  25.251  1.00  0.00     0.001 A 
ATOM      9  C   UNL A   1      34.983  20.200  24.872  1.00  0.00     0.016 A 
ATOM     10  C   UNL A   1      33.168  19.890  24.751  1.00  0.00     0.001 A 
BRANCH   6  11
ATOM     11  C   UNL A   1      34.881  24.437  25.686  1.00  0.00     0.142 C 
ATOM     12  N   UNL A   1      34.797  24.990  24.526  1.00  0.00    -0.180 NA
BRANCH  12  13
ATOM     13  N   UNL A   1      34.222  24.281  23.504  1.00  0.00    -0.239 N 
ATOM     14  O   UNL A   1      33.359  23.947  21.451  1.00  0.00    -0.262 OA
ATOM     15  C   UNL A   1      33.355  24.649  22.468  1.00  0.00     0.329 C 
ATOM     16  H   UNL A   1      34.468  23.328  23.496  1.00  0.00     0.194 HD
BRANCH  15  17
ATOM     17  C   UNL A   1      32.211  25.890  22.606  1.00  0.00     0.313 C 
ATOM     18  O   UNL A   1      31.952  25.921  21.347  1.00  0.00    -0.263 OA
ATOM     19  N   UNL A   1      31.542  26.972  24.142  1.00  0.00    -0.334 N 
ATOM     20  C   UNL A   1      30.666  28.449  24.233  1.00  0.00     0.120 C 
ATOM     21  C   UNL A   1      31.621  26.767  25.840  1.00  0.00     0.120 C 
ATOM     22  C   UNL A   1      31.461  29.553  24.951  1.00  0.00     0.022 C 
ATOM     23  C   UNL A   1      32.413  27.884  26.534  1.00  0.00     0.022 C 
ATOM     24  C   UNL A   1      31.728  29.227  26.404  1.00  0.00     0.004 C 
ENDBRANCH  15  17
ENDBRANCH  12  13
ENDBRANCH   6  11
ENDBRANCH   3   5
ENDBRANCH   2   3
ENDBRANCH   1   2
BRANCH   1  25
ATOM     25  C   UNL A   1      40.107  21.753  26.662  1.00  0.00     0.275 C 
BRANCH  25  26
ATOM     26  O   UNL A   1      39.972  23.019  27.332  1.00  0.00    -0.458 OA
BRANCH  26  27
ATOM     27  C   UNL A   1      40.869  23.959  26.954  1.00  0.00     0.338 C 
ATOM     28  O   UNL A   1      41.754  23.835  26.122  1.00  0.00    -0.246 OA
BRANCH  27  29
ATOM     29  C   UNL A   1      40.636  25.226  27.665  1.00  0.00     0.060 A 
ATOM     30  C   UNL A   1      41.654  26.178  27.680  1.00  0.00     0.016 A 
ATOM     31  C   UNL A   1      39.514  25.381  28.479  1.00  0.00     0.016 A 
ATOM     32  C   UNL A   1      41.612  27.229  28.591  1.00  0.00     0.010 A 
ATOM     33  C   UNL A   1      39.438  26.483  29.340  1.00  0.00     0.010 A 
ATOM     34  C   UNL A   1      40.507  27.393  29.438  1.00  0.00    -0.014 A 
BRANCH  34  35
ATOM     35  C   UNL A   1      40.492  28.478  30.456  1.00  0.00     0.031 A 
ATOM     36  C   UNL A   1      41.507  28.483  31.569  1.00  0.00     0.074 A 
ATOM     37  C   UNL A   1      39.589  29.475  30.380  1.00  0.00     0.049 A 
ATOM     38  N   UNL A   1      41.539  29.213  32.655  1.00  0.00    -0.248 NA
ATOM     39  C   UNL A   1      42.628  27.537  31.450  1.00  0.00     0.031 C 
ATOM     40  C   UNL A   1      38.583  29.633  29.329  1.00  0.00     0.029 A 
ATOM     41  N   UNL A   1      39.378  30.551  31.206  1.00  0.00    -0.354 N 
ATOM     42  C   UNL A   1      42.639  28.771  33.379  1.00  0.00     0.074 A 
ATOM     43  C   UNL A   1      43.267  27.725  32.597  1.00  0.00     0.031 C 
ATOM     44  C   UNL A   1      37.881  30.754  29.557  1.00  0.00     0.029 A 
ATOM     45  C   UNL A   1      38.339  31.355  30.805  1.00  0.00     0.049 A 
ATOM     46  H   UNL A   1      39.919  30.729  32.009  1.00  0.00     0.167 HD
ATOM     47  C   UNL A   1      43.078  29.189  34.590  1.00  0.00     0.037 A 
ATOM     48  C   UNL A   1      37.788  32.434  31.392  1.00  0.00     0.037 A 
ATOM     49  C   UNL A   1      42.493  30.271  35.338  1.00  0.00     0.049 A 
ATOM     50  C   UNL A   1      38.306  32.900  32.722  1.00  0.00     0.074 A 
ATOM     51  C   UNL A   1      42.850  30.750  36.587  1.00  0.00     0.029 A 
ATOM     52  N   UNL A   1      41.446  31.061  34.891  1.00  0.00    -0.354 N 
ATOM     53  N   UNL A   1      39.277  32.399  33.446  1.00  0.00    -0.248 NA
ATOM     54  C   UNL A   1      37.633  34.057  33.328  1.00  0.00     0.031 C 
ATOM     55  C   UNL A   1      42.013  31.831  36.896  1.00  0.00     0.029 A 
ATOM     56  C   UNL A   1      41.148  32.031  35.833  1.00  0.00     0.049 A 
ATOM     57  H   UNL A   1      40.982  30.949  34.029  1.00  0.00     0.167 HD
ATOM     58  C   UNL A   1      39.321  33.168  34.602  1.00  0.00     0.074 A 
ATOM     59  C   UNL A   1      38.298  34.186  34.469  1.00  0.00     0.031 C 
ATOM     60  C   UNL A   1      40.125  33.031  35.684  1.00  0.00     0.037 A 
BRANCH  47  61
ATOM     61  C   UNL A   1      44.226  28.442  35.202  1.00  0.00     0.058 A 
ATOM     62  C   UNL A   1      44.030  27.314  36.011  1.00  0.00     0.135 A 
ATOM     63  C   UNL A   1      45.545  28.857  34.957  1.00  0.00     0.135 A 
ATOM     64  F   UNL A   1      42.787  26.891  36.289  1.00  0.00    -0.206 F 
ATOM     65  C   UNL A   1      45.104  26.629  36.571  1.00  0.00     0.059 A 
ATOM     66  C   UNL A   1      46.634  28.180  35.496  1.00  0.00     0.059 A 
ATOM     67  F   UNL A   1      45.783  29.935  34.193  1.00  0.00    -0.206 F 
ATOM     68  C   UNL A   1      46.402  27.075  36.315  1.00  0.00     0.060 A 
BRANCH  68  69
ATOM     69  S   UNL A   1      47.797  26.191  37.046  1.00  0.00     0.124 S 
ATOM     70  O   UNL A   1      47.909  26.851  38.343  1.00  0.00    -0.237 OA
ATOM     71  O   UNL A   1      47.322  24.811  37.079  1.00  0.00    -0.237 OA
ATOM     72  O   UNL A   1      48.887  26.451  36.110  1.00  0.00    -0.744 OA
ENDBRANCH  68  69
ENDBRANCH  47  61
BRANCH  48  73
ATOM     73  C   UNL A   1      36.643  33.116  30.741  1.00  0.00     0.058 A 
ATOM     74  C   UNL A   1      35.332  32.913  31.191  1.00  0.00     0.135 A 
ATOM     75  C   UNL A   1      36.845  34.010  29.678  1.00  0.00     0.135 A 
ATOM     76  F   UNL A   1      35.093  32.058  32.198  1.00  0.00    -0.206 F 
ATOM     77  C   UNL A   1      34.255  33.576  30.613  1.00  0.00     0.059 A 
ATOM     78  C   UNL A   1      35.787  34.696  29.095  1.00  0.00     0.059 A 
ATOM     79  F   UNL A   1      38.086  34.241  29.222  1.00  0.00    -0.206 F 
ATOM     80  C   UNL A   1      34.493  34.466  29.564  1.00  0.00     0.060 A 
BRANCH  80  81
ATOM     81  S   UNL A   1      33.112  35.387  28.850  1.00  0.00     0.124 S 
ATOM     82  O   UNL A   1      32.498  34.376  27.997  1.00  0.00    -0.237 OA
ATOM     83  O   UNL A   1      32.344  35.780  30.027  1.00  0.00    -0.237 OA
ATOM     84  O   UNL A   1      33.778  36.485  28.154  1.00  0.00    -0.744 OA
ENDBRANCH  80  81
ENDBRANCH  48  73
BRANCH  60  85
ATOM     85  C   UNL A   1      39.923  34.002  36.807  1.00  0.00     0.058 A 
ATOM     86  C   UNL A   1      40.548  35.258  36.796  1.00  0.00     0.135 A 
ATOM     87  C   UNL A   1      39.078  33.692  37.883  1.00  0.00     0.135 A 
ATOM     88  F   UNL A   1      41.370  35.595  35.790  1.00  0.00    -0.206 F 
ATOM     89  C   UNL A   1      40.352  36.174  37.824  1.00  0.00     0.059 A 
ATOM     90  C   UNL A   1      38.860  34.596  38.917  1.00  0.00     0.059 A 
ATOM     91  F   UNL A   1      38.457  32.504  37.933  1.00  0.00    -0.206 F 
ATOM     92  C   UNL A   1      39.509  35.832  38.884  1.00  0.00     0.060 A 
BRANCH  92  93
ATOM     93  S   UNL A   1      39.229  37.031  40.205  1.00  0.00     0.124 S 
ATOM     94  O   UNL A   1      38.392  36.266  41.123  1.00  0.00    -0.237 OA
ATOM     95  O   UNL A   1      40.582  37.317  40.671  1.00  0.00    -0.237 OA
ATOM     96  O   UNL A   1      38.566  38.136  39.518  1.00  0.00    -0.744 OA
ENDBRANCH  92  93
ENDBRANCH  60  85
ENDBRANCH  34  35
ENDBRANCH  27  29
ENDBRANCH  26  27
ENDBRANCH  25  26
ENDBRANCH   1  25
TORSDOF 17
ENDMDL
MODEL 3
REMARK VINA RESULT:     -12.1      1.450      2.187
REMARK SMILES O=C(N/N=C\c1ccccc1C(=O)OCCOC(=O)c1ccc(-c2c3nc(c(-c4c(F)cc(S(=O)(=O)[O-])cc4F)c4ccc([nH]4)c(-c4c(F)cc(S(=O)(=O)[O-])cc4F)c4nc(c(-c5c(F)cc(S(=O)(=O)[O-])cc5F)c5ccc2[nH]5)C=C4)C=C3)cc1)C(=O)N1CCCCC1
REMARK SMILES IDX 15 1 14 2 12 3 13 4 11 5 6 6 7 7 8 8 10 9 9 10 5 11 4 12
REMARK SMILES IDX 3 13 1 14 2 15 86 17 87 18 88 19 89 20 93 21 90 22 92 23
REMARK SMILES IDX 91 24 16 25 17 26 18 27 19 28 20 29 21 30 85 31 22 32 84 33
REMARK SMILES IDX 23 34 24 35 25 36 78 37 26 38 83 39 77 40 79 41 27 42 82 43
REMARK SMILES IDX 76 44 75 45 28 47 62 48 41 49 61 50 42 51 45 52 60 53 80 54
REMARK SMILES IDX 43 55 44 56 59 58 81 59 46 60 29 61 30 62 39 63 31 64 32 65
REMARK SMILES IDX 38 66 40 67 33 68 34 69 35 70 36 71 37 72 63 73 64 74 73 75
REMARK SMILES IDX 65 76 66 77 72 78 74 79 67 80 68 81 69 82 70 83 71 84 47 85
REMARK SMILES IDX 48 86 57 87 49 88 50 89 56 90 58 91 51 92 52 93 53 94 54 95
REMARK SMILES IDX 55 96
REMARK H PARENT 3 16 79 46 45 57
REMARK Flexibility Score: inf
ROOT
ATOM      1  C   UNL A   1      33.384  31.574  27.656  1.00  0.00     0.275 C 
ENDROOT
BRANCH   1   2
ATOM      2  O   UNL A   1      33.169  30.791  26.464  1.00  0.00    -0.458 OA
BRANCH   2   3
ATOM      3  C   UNL A   1      32.052  30.031  26.511  1.00  0.00     0.338 C 
ATOM      4  O   UNL A   1      31.603  29.450  27.484  1.00  0.00    -0.246 OA
BRANCH   3   5
ATOM      5  C   UNL A   1      31.452  29.900  25.181  1.00  0.00     0.068 A 
ATOM      6  C   UNL A   1      31.310  28.225  24.526  1.00  0.00     0.009 A 
ATOM      7  C   UNL A   1      29.995  27.788  23.294  1.00  0.00     0.010 A 
ATOM      8  C   UNL A   1      28.805  29.064  22.789  1.00  0.00     0.001 A 
ATOM      9  C   UNL A   1      30.266  31.161  24.670  1.00  0.00     0.016 A 
ATOM     10  C   UNL A   1      28.917  30.731  23.486  1.00  0.00     0.001 A 
BRANCH   6  11
ATOM     11  C   UNL A   1      31.794  27.191  25.405  1.00  0.00     0.142 C 
ATOM     12  N   UNL A   1      32.748  26.412  25.032  1.00  0.00    -0.180 NA
BRANCH  12  13
ATOM     13  N   UNL A   1      33.310  26.609  23.799  1.00  0.00    -0.239 N 
ATOM     14  O   UNL A   1      33.653  26.249  21.602  1.00  0.00    -0.262 OA
ATOM     15  C   UNL A   1      33.568  25.745  22.728  1.00  0.00     0.329 C 
ATOM     16  H   UNL A   1      33.586  27.540  23.633  1.00  0.00     0.194 HD
BRANCH  15  17
ATOM     17  C   UNL A   1      33.923  24.100  22.921  1.00  0.00     0.313 C 
ATOM     18  O   UNL A   1      33.672  23.805  21.695  1.00  0.00    -0.263 OA
ATOM     19  N   UNL A   1      34.467  22.990  24.486  1.00  0.00    -0.334 N 
ATOM     20  C   UNL A   1      34.475  21.294  24.764  1.00  0.00     0.120 C 
ATOM     21  C   UNL A   1      35.100  23.375  26.029  1.00  0.00     0.120 C 
ATOM     22  C   UNL A   1      33.553  20.891  25.928  1.00  0.00     0.022 C 
ATOM     23  C   UNL A   1      34.165  22.958  27.173  1.00  0.00     0.022 C 
ATOM     24  C   UNL A   1      34.009  21.455  27.255  1.00  0.00     0.004 C 
ENDBRANCH  15  17
ENDBRANCH  12  13
ENDBRANCH   6  11
ENDBRANCH   3   5
ENDBRANCH   2   3
ENDBRANCH   1   2
BRANCH   1  25
ATOM     25  C   UNL A   1      34.862  31.899  27.909  1.00  0.00     0.275 C 
BRANCH  25  26
ATOM     26  O   UNL A   1      35.437  31.121  28.974  1.00  0.00    -0.458 OA
BRANCH  26  27
ATOM     27  C   UNL A   1      35.874  29.894  28.607  1.00  0.00     0.338 C 
ATOM     28  O   UNL A   1      35.186  28.926  28.319  1.00  0.00    -0.246 OA
BRANCH  27  29
ATOM     29  C   UNL A   1      37.343  29.851  28.556  1.00  0.00     0.060 A 
ATOM     30  C   UNL A   1      37.968  29.903  27.311  1.00  0.00     0.016 A 
ATOM     31  C   UNL A   1      38.079  29.549  29.702  1.00  0.00     0.016 A 
ATOM     32  C   UNL A   1      39.307  29.542  27.186  1.00  0.00     0.010 A 
ATOM     33  C   UNL A   1      39.445  29.262  29.584  1.00  0.00     0.010 A 
ATOM     34  C   UNL A   1      40.062  29.211  28.320  1.00  0.00    -0.014 A 
BRANCH  34  35
ATOM     35  C   UNL A   1      41.474  28.763  28.180  1.00  0.00     0.031 A 
ATOM     36  C   UNL A   1      42.600  29.748  28.354  1.00  0.00     0.074 A 
ATOM     37  C   UNL A   1      41.759  27.473  27.917  1.00  0.00     0.049 A 
ATOM     38  N   UNL A   1      43.871  29.608  28.077  1.00  0.00    -0.248 NA
ATOM     39  C   UNL A   1      42.248  31.067  28.904  1.00  0.00     0.031 C 
ATOM     40  C   UNL A   1      40.777  26.396  27.778  1.00  0.00     0.029 A 
ATOM     41  N   UNL A   1      42.966  26.847  27.727  1.00  0.00    -0.354 N 
ATOM     42  C   UNL A   1      44.459  30.836  28.353  1.00  0.00     0.074 A 
ATOM     43  C   UNL A   1      43.411  31.705  28.846  1.00  0.00     0.031 C 
ATOM     44  C   UNL A   1      41.421  25.240  27.553  1.00  0.00     0.029 A 
ATOM     45  C   UNL A   1      42.853  25.504  27.462  1.00  0.00     0.049 A 
ATOM     46  H   UNL A   1      43.831  27.317  27.774  1.00  0.00     0.167 HD
ATOM     47  C   UNL A   1      45.752  31.208  28.197  1.00  0.00     0.037 A 
ATOM     48  C   UNL A   1      43.790  24.592  27.143  1.00  0.00     0.037 A 
ATOM     49  C   UNL A   1      46.807  30.327  27.768  1.00  0.00     0.049 A 
ATOM     50  C   UNL A   1      45.222  25.017  27.002  1.00  0.00     0.074 A 
ATOM     51  C   UNL A   1      48.143  30.618  27.554  1.00  0.00     0.029 A 
ATOM     52  N   UNL A   1      46.648  28.974  27.517  1.00  0.00    -0.354 N 
ATOM     53  N   UNL A   1      45.744  26.210  27.158  1.00  0.00    -0.248 NA
ATOM     54  C   UNL A   1      46.188  23.981  26.611  1.00  0.00     0.031 C 
ATOM     55  C   UNL A   1      48.792  29.438  27.168  1.00  0.00     0.029 A 
ATOM     56  C   UNL A   1      47.862  28.412  27.158  1.00  0.00     0.049 A 
ATOM     57  H   UNL A   1      45.796  28.483  27.583  1.00  0.00     0.167 HD
ATOM     58  C   UNL A   1      47.095  26.072  26.868  1.00  0.00     0.074 A 
ATOM     59  C   UNL A   1      47.318  24.675  26.554  1.00  0.00     0.031 C 
ATOM     60  C   UNL A   1      48.061  27.022  26.846  1.00  0.00     0.037 A 
BRANCH  47  61
ATOM     61  C   UNL A   1      46.090  32.647  28.454  1.00  0.00     0.058 A 
ATOM     62  C   UNL A   1      46.403  33.118  29.736  1.00  0.00     0.135 A 
ATOM     63  C   UNL A   1      46.119  33.562  27.389  1.00  0.00     0.135 A 
ATOM     64  F   UNL A   1      46.371  32.285  30.788  1.00  0.00    -0.206 F 
ATOM     65  C   UNL A   1      46.717  34.456  29.959  1.00  0.00     0.059 A 
ATOM     66  C   UNL A   1      46.442  34.901  27.587  1.00  0.00     0.059 A 
ATOM     67  F   UNL A   1      45.822  33.159  26.143  1.00  0.00    -0.206 F 
ATOM     68  C   UNL A   1      46.725  35.341  28.880  1.00  0.00     0.060 A 
BRANCH  68  69
ATOM     69  S   UNL A   1      47.127  37.078  29.169  1.00  0.00     0.124 S 
ATOM     70  O   UNL A   1      48.033  37.354  28.057  1.00  0.00    -0.237 OA
ATOM     71  O   UNL A   1      45.822  37.727  29.097  1.00  0.00    -0.237 OA
ATOM     72  O   UNL A   1      47.741  37.064  30.493  1.00  0.00    -0.744 OA
ENDBRANCH  68  69
ENDBRANCH  47  61
BRANCH  48  73
ATOM     73  C   UNL A   1      43.385  23.188  26.885  1.00  0.00     0.058 A 
ATOM     74  C   UNL A   1      43.421  22.654  25.591  1.00  0.00     0.135 A 
ATOM     75  C   UNL A   1      42.988  22.347  27.936  1.00  0.00     0.135 A 
ATOM     76  F   UNL A   1      43.785  23.426  24.555  1.00  0.00    -0.206 F 
ATOM     77  C   UNL A   1      43.080  21.328  25.343  1.00  0.00     0.059 A 
ATOM     78  C   UNL A   1      42.658  21.015  27.716  1.00  0.00     0.059 A 
ATOM     79  F   UNL A   1      42.948  22.816  29.193  1.00  0.00    -0.206 F 
ATOM     80  C   UNL A   1      42.699  20.516  26.413  1.00  0.00     0.060 A 
BRANCH  80  81
ATOM     81  S   UNL A   1      42.321  18.775  26.116  1.00  0.00     0.124 S 
ATOM     82  O   UNL A   1      40.897  18.834  25.809  1.00  0.00    -0.237 OA
ATOM     83  O   UNL A   1      43.200  18.441  25.000  1.00  0.00    -0.237 OA
ATOM     84  O   UNL A   1      42.671  18.145  27.387  1.00  0.00    -0.744 OA
ENDBRANCH  80  81
ENDBRANCH  48  73
BRANCH  60  85
ATOM     85  C   UNL A   1      49.441  26.579  26.463  1.00  0.00     0.058 A 
ATOM     86  C   UNL A   1      50.308  26.022  27.414  1.00  0.00     0.135 A 
ATOM     87  C   UNL A   1      49.888  26.682  25.138  1.00  0.00     0.135 A 
ATOM     88  F   UNL A   1      49.924  25.910  28.696  1.00  0.00    -0.206 F 
ATOM     89  C   UNL A   1      51.583  25.590  27.066  1.00  0.00     0.059 A 
ATOM     90  C   UNL A   1      51.155  26.248  24.765  1.00  0.00     0.059 A 
ATOM     91  F   UNL A   1      49.090  27.206  24.195  1.00  0.00    -0.206 F 
ATOM     92  C   UNL A   1      52.000  25.711  25.738  1.00  0.00     0.060 A 
BRANCH  92  93
ATOM     93  S   UNL A   1      53.644  25.124  25.278  1.00  0.00     0.124 S 
ATOM     94  O   UNL A   1      53.477  23.677  25.377  1.00  0.00    -0.237 OA
ATOM     95  O   UNL A   1      53.807  25.651  23.927  1.00  0.00    -0.237 OA
ATOM     96  O   UNL A   1      54.510  25.729  26.286  1.00  0.00    -0.744 OA
ENDBRANCH  92  93
ENDBRANCH  60  85
ENDBRANCH  34  35
ENDBRANCH  27  29
ENDBRANCH  26  27
ENDBRANCH  25  26
ENDBRANCH   1  25
TORSDOF 17
ENDMDL
