MODEL 1
REMARK VINA RESULT:     -10.6      0.000      0.000
REMARK SMILES Cc1cc(C(=O)N[C@@H]2C(=O)N3C(C(=O)OCCOC(=O)c4ccc(-c5c6nc(c(-c7c(F)cc(S(=O)(=O)[O-])cc7F)c7ccc([nH]7)c(-c7c(F)cc(S(=O)(=O)[O-])cc7F)c7nc(c(-c8c(F)cc(S(=O)(=O)[O-])cc8F)c8ccc5[nH]8)C=C7)C=C6)cc4)=C(CSc4nnc(C)s4)CS[C@H]23)n(C)n1
REMARK SMILES IDX 16 1 15 2 13 3 14 4 12 5 8 6 9 7 98 8 10 9 11 10 97 11 96 12
REMARK SMILES IDX 87 13 7 14 5 15 6 16 4 18 1 19 2 20 3 21 101 22 99 23 100 24
REMARK SMILES IDX 88 25 89 26 90 27 91 28 95 29 92 30 93 31 94 32 17 33 18 34
REMARK SMILES IDX 19 35 20 36 21 37 22 38 86 39 23 40 85 41 24 42 25 43 26 44
REMARK SMILES IDX 79 45 27 46 84 47 78 48 80 49 28 50 83 51 77 52 76 53 29 55
REMARK SMILES IDX 63 56 42 57 62 58 43 59 46 60 61 61 81 62 44 63 45 64 60 66
REMARK SMILES IDX 82 67 47 68 30 69 31 70 40 71 32 72 33 73 39 74 41 75 34 76
REMARK SMILES IDX 35 77 36 78 37 79 38 80 64 81 65 82 74 83 66 84 67 85 73 86
REMARK SMILES IDX 75 87 68 88 69 89 70 90 71 91 72 92 48 93 49 94 58 95 50 96
REMARK SMILES IDX 51 97 57 98 59 99 52 100 53 101 54 102 55 103 56 104
REMARK H PARENT 7 17 80 54 46 65
REMARK Flexibility Score: inf
ROOT
ATOM      1  C   UNL A   1      36.191  30.079  30.132  1.00  0.00     0.275 C 
ENDROOT
BRANCH   1   2
ATOM      2  O   UNL A   1      35.566  29.329  29.070  1.00  0.00    -0.457 OA
BRANCH   2   3
ATOM      3  C   UNL A   1      35.554  29.915  27.855  1.00  0.00     0.355 C 
ATOM      4  O   UNL A   1      36.543  30.212  27.195  1.00  0.00    -0.244 OA
BRANCH   3   5
ATOM      5  C   UNL A   1      34.176  30.244  27.369  1.00  0.00     0.132 C 
ATOM      6  C   UNL A   1      32.763  28.314  24.944  1.00  0.00     0.206 C 
ATOM      7  C   UNL A   1      33.142  28.171  26.459  1.00  0.00     0.253 C 
ATOM      8  C   UNL A   1      32.901  29.841  25.280  1.00  0.00     0.181 C 
ATOM      9  O   UNL A   1      32.971  27.383  27.360  1.00  0.00    -0.272 OA
ATOM     10  N   UNL A   1      33.712  29.404  26.402  1.00  0.00    -0.289 N 
ATOM     11  S   UNL A   1      31.436  30.681  25.948  1.00  0.00    -0.129 SA
ATOM     12  C   UNL A   1      32.386  31.948  26.817  1.00  0.00     0.106 C 
ATOM     13  C   UNL A   1      33.610  31.457  27.579  1.00  0.00    -0.019 C 
BRANCH   6  14
ATOM     14  N   UNL A   1      31.484  27.738  24.490  1.00  0.00    -0.336 N 
ATOM     15  C   UNL A   1      31.209  26.466  24.035  1.00  0.00     0.270 C 
ATOM     16  O   UNL A   1      30.039  26.193  23.784  1.00  0.00    -0.268 OA
ATOM     17  H   UNL A   1      30.714  28.350  24.515  1.00  0.00     0.164 HD
BRANCH  15  18
ATOM     18  C   UNL A   1      32.307  25.559  23.795  1.00  0.00     0.126 A 
ATOM     19  C   UNL A   1      35.463  23.868  24.511  1.00  0.00     0.069 C 
ATOM     20  C   UNL A   1      34.206  24.422  23.958  1.00  0.00     0.060 A 
ATOM     21  C   UNL A   1      33.011  24.722  24.645  1.00  0.00     0.059 A 
ATOM     22  N   UNL A   1      34.130  24.784  22.676  1.00  0.00    -0.178 NA
ATOM     23  N   UNL A   1      32.912  25.366  22.573  1.00  0.00    -0.263 N 
ATOM     24  C   UNL A   1      32.469  25.766  21.258  1.00  0.00     0.174 C 
ENDBRANCH  15  18
ENDBRANCH   6  14
BRANCH  13  25
ATOM     25  C   UNL A   1      34.192  32.530  28.471  1.00  0.00     0.111 C 
BRANCH  25  26
ATOM     26  S   UNL A   1      33.324  34.113  28.541  1.00  0.00    -0.089 SA
BRANCH  26  27
ATOM     27  C   UNL A   1      33.673  34.748  30.125  1.00  0.00     0.174 A 
ATOM     28  N   UNL A   1      34.211  34.024  31.079  1.00  0.00    -0.132 NA
ATOM     29  S   UNL A   1      33.231  36.333  30.602  1.00  0.00    -0.091 S 
ATOM     30  N   UNL A   1      34.314  34.725  32.266  1.00  0.00    -0.143 NA
ATOM     31  C   UNL A   1      33.821  35.943  32.168  1.00  0.00     0.115 A 
ATOM     32  C   UNL A   1      33.721  36.910  33.292  1.00  0.00     0.081 C 
ENDBRANCH  26  27
ENDBRANCH  25  26
ENDBRANCH  13  25
ENDBRANCH   3   5
ENDBRANCH   2   3
ENDBRANCH   1   2
BRANCH   1  33
ATOM     33  C   UNL A   1      37.017  29.154  31.015  1.00  0.00     0.275 C 
BRANCH  33  34
ATOM     34  O   UNL A   1      37.063  29.693  32.345  1.00  0.00    -0.458 OA
BRANCH  34  35
ATOM     35  C   UNL A   1      37.754  30.850  32.471  1.00  0.00     0.338 C 
ATOM     36  O   UNL A   1      37.362  31.885  32.985  1.00  0.00    -0.246 OA
BRANCH  35  37
ATOM     37  C   UNL A   1      39.090  30.686  31.874  1.00  0.00     0.060 A 
ATOM     38  C   UNL A   1      39.397  31.319  30.671  1.00  0.00     0.016 A 
ATOM     39  C   UNL A   1      39.980  29.772  32.431  1.00  0.00     0.016 A 
ATOM     40  C   UNL A   1      40.521  30.922  29.950  1.00  0.00     0.010 A 
ATOM     41  C   UNL A   1      41.177  29.482  31.768  1.00  0.00     0.010 A 
ATOM     42  C   UNL A   1      41.440  30.010  30.492  1.00  0.00    -0.014 A 
BRANCH  42  43
ATOM     43  C   UNL A   1      42.652  29.593  29.723  1.00  0.00     0.031 A 
ATOM     44  C   UNL A   1      42.691  28.259  29.014  1.00  0.00     0.074 A 
ATOM     45  C   UNL A   1      43.728  30.406  29.652  1.00  0.00     0.049 A 
ATOM     46  N   UNL A   1      43.716  27.627  28.499  1.00  0.00    -0.248 NA
ATOM     47  C   UNL A   1      41.419  27.530  28.888  1.00  0.00     0.031 C 
ATOM     48  C   UNL A   1      43.827  31.739  30.251  1.00  0.00     0.029 A 
ATOM     49  N   UNL A   1      44.947  30.232  29.043  1.00  0.00    -0.354 N 
ATOM     50  C   UNL A   1      43.229  26.400  28.058  1.00  0.00     0.074 A 
ATOM     51  C   UNL A   1      41.814  26.379  28.362  1.00  0.00     0.031 C 
ATOM     52  C   UNL A   1      45.011  32.281  29.936  1.00  0.00     0.029 A 
ATOM     53  C   UNL A   1      45.806  31.293  29.219  1.00  0.00     0.049 A 
ATOM     54  H   UNL A   1      45.184  29.426  28.530  1.00  0.00     0.167 HD
ATOM     55  C   UNL A   1      43.904  25.383  27.465  1.00  0.00     0.037 A 
ATOM     56  C   UNL A   1      47.106  31.443  28.901  1.00  0.00     0.037 A 
ATOM     57  C   UNL A   1      45.299  25.443  27.100  1.00  0.00     0.049 A 
ATOM     58  C   UNL A   1      47.836  30.305  28.253  1.00  0.00     0.074 A 
ATOM     59  C   UNL A   1      46.066  24.479  26.468  1.00  0.00     0.029 A 
ATOM     60  N   UNL A   1      46.129  26.534  27.316  1.00  0.00    -0.354 N 
ATOM     61  N   UNL A   1      47.379  29.124  27.912  1.00  0.00    -0.248 NA
ATOM     62  C   UNL A   1      49.263  30.508  27.970  1.00  0.00     0.031 C 
ATOM     63  C   UNL A   1      47.370  24.972  26.337  1.00  0.00     0.029 A 
ATOM     64  C   UNL A   1      47.404  26.261  26.843  1.00  0.00     0.049 A 
ATOM     65  H   UNL A   1      45.855  27.378  27.743  1.00  0.00     0.167 HD
ATOM     66  C   UNL A   1      48.462  28.442  27.370  1.00  0.00     0.074 A 
ATOM     67  C   UNL A   1      49.588  29.353  27.406  1.00  0.00     0.031 C 
ATOM     68  C   UNL A   1      48.517  27.176  26.890  1.00  0.00     0.037 A 
BRANCH  55  69
ATOM     69  C   UNL A   1      43.161  24.097  27.205  1.00  0.00     0.058 A 
ATOM     70  C   UNL A   1      42.591  23.794  25.959  1.00  0.00     0.135 A 
ATOM     71  C   UNL A   1      43.057  23.130  28.221  1.00  0.00     0.135 A 
ATOM     72  F   UNL A   1      42.648  24.684  24.956  1.00  0.00    -0.206 F 
ATOM     73  C   UNL A   1      41.920  22.593  25.737  1.00  0.00     0.059 A 
ATOM     74  C   UNL A   1      42.416  21.911  28.013  1.00  0.00     0.059 A 
ATOM     75  F   UNL A   1      43.587  23.362  29.432  1.00  0.00    -0.206 F 
ATOM     76  C   UNL A   1      41.835  21.659  26.772  1.00  0.00     0.060 A 
BRANCH  76  77
ATOM     77  S   UNL A   1      40.961  20.107  26.472  1.00  0.00     0.124 S 
ATOM     78  O   UNL A   1      39.700  20.584  25.915  1.00  0.00    -0.237 OA
ATOM     79  O   UNL A   1      41.848  19.421  25.538  1.00  0.00    -0.237 OA
ATOM     80  O   UNL A   1      40.871  19.505  27.800  1.00  0.00    -0.744 OA
ENDBRANCH  76  77
ENDBRANCH  55  69
BRANCH  56  81
ATOM     81  C   UNL A   1      47.803  32.710  29.249  1.00  0.00     0.058 A 
ATOM     82  C   UNL A   1      47.787  33.807  28.376  1.00  0.00     0.135 A 
ATOM     83  C   UNL A   1      48.450  32.868  30.486  1.00  0.00     0.135 A 
ATOM     84  F   UNL A   1      47.192  33.702  27.178  1.00  0.00    -0.206 F 
ATOM     85  C   UNL A   1      48.380  35.018  28.719  1.00  0.00     0.059 A 
ATOM     86  C   UNL A   1      49.021  34.078  30.864  1.00  0.00     0.059 A 
ATOM     87  F   UNL A   1      48.481  31.853  31.364  1.00  0.00    -0.206 F 
ATOM     88  C   UNL A   1      48.985  35.147  29.971  1.00  0.00     0.060 A 
BRANCH  88  89
ATOM     89  S   UNL A   1      49.666  36.750  30.447  1.00  0.00     0.124 S 
ATOM     90  O   UNL A   1      48.474  37.449  30.911  1.00  0.00    -0.237 OA
ATOM     91  O   UNL A   1      50.633  36.380  31.475  1.00  0.00    -0.237 OA
ATOM     92  O   UNL A   1      50.248  37.248  29.204  1.00  0.00    -0.744 OA
ENDBRANCH  88  89
ENDBRANCH  56  81
BRANCH  68  93
ATOM     93  C   UNL A   1      49.838  26.710  26.342  1.00  0.00     0.058 A 
ATOM     94  C   UNL A   1      50.235  27.008  25.029  1.00  0.00     0.135 A 
ATOM     95  C   UNL A   1      50.724  25.979  27.148  1.00  0.00     0.135 A 
ATOM     96  F   UNL A   1      49.419  27.696  24.215  1.00  0.00    -0.206 F 
ATOM     97  C   UNL A   1      51.456  26.572  24.526  1.00  0.00     0.059 A 
ATOM     98  C   UNL A   1      51.961  25.555  26.673  1.00  0.00     0.059 A 
ATOM     99  F   UNL A   1      50.394  25.675  28.414  1.00  0.00    -0.206 F 
ATOM    100  C   UNL A   1      52.312  25.844  25.354  1.00  0.00     0.060 A 
BRANCH 100 101
ATOM    101  S   UNL A   1      53.900  25.297  24.694  1.00  0.00     0.124 S 
ATOM    102  O   UNL A   1      53.819  23.854  24.894  1.00  0.00    -0.237 OA
ATOM    103  O   UNL A   1      53.837  25.749  23.308  1.00  0.00    -0.237 OA
ATOM    104  O   UNL A   1      54.874  25.993  25.530  1.00  0.00    -0.744 OA
ENDBRANCH 100 101
ENDBRANCH  68  93
ENDBRANCH  42  43
ENDBRANCH  35  37
ENDBRANCH  34  35
ENDBRANCH  33  34
ENDBRANCH   1  33
TORSDOF 19
ENDMDL
MODEL 2
REMARK VINA RESULT:     -10.2      8.051     16.794
REMARK SMILES Cc1cc(C(=O)N[C@@H]2C(=O)N3C(C(=O)OCCOC(=O)c4ccc(-c5c6nc(c(-c7c(F)cc(S(=O)(=O)[O-])cc7F)c7ccc([nH]7)c(-c7c(F)cc(S(=O)(=O)[O-])cc7F)c7nc(c(-c8c(F)cc(S(=O)(=O)[O-])cc8F)c8ccc5[nH]8)C=C7)C=C6)cc4)=C(CSc4nnc(C)s4)CS[C@H]23)n(C)n1
REMARK SMILES IDX 16 1 15 2 13 3 14 4 12 5 8 6 9 7 98 8 10 9 11 10 97 11 96 12
REMARK SMILES IDX 87 13 7 14 5 15 6 16 4 18 1 19 2 20 3 21 101 22 99 23 100 24
REMARK SMILES IDX 88 25 89 26 90 27 91 28 95 29 92 30 93 31 94 32 17 33 18 34
REMARK SMILES IDX 19 35 20 36 21 37 22 38 86 39 23 40 85 41 24 42 25 43 26 44
REMARK SMILES IDX 79 45 27 46 84 47 78 48 80 49 28 50 83 51 77 52 76 53 29 55
REMARK SMILES IDX 63 56 42 57 62 58 43 59 46 60 61 61 81 62 44 63 45 64 60 66
REMARK SMILES IDX 82 67 47 68 30 69 31 70 40 71 32 72 33 73 39 74 41 75 34 76
REMARK SMILES IDX 35 77 36 78 37 79 38 80 64 81 65 82 74 83 66 84 67 85 73 86
REMARK SMILES IDX 75 87 68 88 69 89 70 90 71 91 72 92 48 93 49 94 58 95 50 96
REMARK SMILES IDX 51 97 57 98 59 99 52 100 53 101 54 102 55 103 56 104
REMARK H PARENT 7 17 80 54 46 65
REMARK Flexibility Score: inf
ROOT
ATOM      1  C   UNL A   1      46.860  22.963  38.761  1.00  0.00     0.275 C 
ENDROOT
BRANCH   1   2
ATOM      2  O   UNL A   1      47.824  22.691  37.723  1.00  0.00    -0.457 OA
BRANCH   2   3
ATOM      3  C   UNL A   1      48.365  21.455  37.723  1.00  0.00     0.355 C 
ATOM      4  O   UNL A   1      48.839  20.882  38.697  1.00  0.00    -0.244 OA
BRANCH   3   5
ATOM      5  C   UNL A   1      48.395  20.821  36.366  1.00  0.00     0.132 C 
ATOM      6  C   UNL A   1      50.996  21.496  34.274  1.00  0.00     0.206 C 
ATOM      7  C   UNL A   1      50.761  20.698  35.604  1.00  0.00     0.253 C 
ATOM      8  C   UNL A   1      49.434  21.378  34.184  1.00  0.00     0.181 C 
ATOM      9  O   UNL A   1      51.369  19.932  36.315  1.00  0.00    -0.272 OA
ATOM     10  N   UNL A   1      49.482  21.160  35.618  1.00  0.00    -0.289 N 
ATOM     11  S   UNL A   1      48.756  19.877  33.417  1.00  0.00    -0.129 SA
ATOM     12  C   UNL A   1      47.190  19.959  34.313  1.00  0.00     0.106 C 
ATOM     13  C   UNL A   1      47.288  20.287  35.797  1.00  0.00    -0.019 C 
BRANCH   6  14
ATOM     14  N   UNL A   1      51.874  20.897  33.250  1.00  0.00    -0.336 N 
ATOM     15  C   UNL A   1      53.246  20.960  33.129  1.00  0.00     0.270 C 
ATOM     16  O   UNL A   1      53.766  20.310  32.227  1.00  0.00    -0.268 OA
ATOM     17  H   UNL A   1      51.414  20.378  32.553  1.00  0.00     0.164 HD
BRANCH  15  18
ATOM     18  C   UNL A   1      53.984  21.845  33.999  1.00  0.00     0.126 A 
ATOM     19  C   UNL A   1      54.840  23.491  37.145  1.00  0.00     0.069 C 
ATOM     20  C   UNL A   1      54.687  23.011  35.752  1.00  0.00     0.060 A 
ATOM     21  C   UNL A   1      54.412  21.700  35.309  1.00  0.00     0.059 A 
ATOM     22  N   UNL A   1      54.722  23.869  34.731  1.00  0.00    -0.178 NA
ATOM     23  N   UNL A   1      54.409  23.108  33.655  1.00  0.00    -0.263 N 
ATOM     24  C   UNL A   1      54.481  23.727  32.353  1.00  0.00     0.174 C 
ENDBRANCH  15  18
ENDBRANCH   6  14
BRANCH  13  25
ATOM     25  C   UNL A   1      45.969  20.088  36.512  1.00  0.00     0.111 C 
BRANCH  25  26
ATOM     26  S   UNL A   1      45.186  18.466  36.371  1.00  0.00    -0.089 SA
BRANCH  26  27
ATOM     27  C   UNL A   1      45.069  17.880  38.007  1.00  0.00     0.174 A 
ATOM     28  N   UNL A   1      44.017  17.239  38.460  1.00  0.00    -0.132 NA
ATOM     29  S   UNL A   1      46.269  18.198  39.188  1.00  0.00    -0.091 S 
ATOM     30  N   UNL A   1      44.128  16.949  39.807  1.00  0.00    -0.143 NA
ATOM     31  C   UNL A   1      45.249  17.410  40.324  1.00  0.00     0.115 A 
ATOM     32  C   UNL A   1      45.619  17.321  41.761  1.00  0.00     0.081 C 
ENDBRANCH  26  27
ENDBRANCH  25  26
ENDBRANCH  13  25
ENDBRANCH   3   5
ENDBRANCH   2   3
ENDBRANCH   1   2
BRANCH   1  33
ATOM     33  C   UNL A   1      47.299  24.166  39.586  1.00  0.00     0.275 C 
BRANCH  33  34
ATOM     34  O   UNL A   1      46.553  25.319  39.166  1.00  0.00    -0.458 OA
BRANCH  34  35
ATOM     35  C   UNL A   1      47.147  26.068  38.207  1.00  0.00     0.338 C 
ATOM     36  O   UNL A   1      48.309  26.002  37.841  1.00  0.00    -0.246 OA
BRANCH  35  37
ATOM     37  C   UNL A   1      46.164  27.014  37.651  1.00  0.00     0.060 A 
ATOM     38  C   UNL A   1      44.801  26.747  37.762  1.00  0.00     0.016 A 
ATOM     39  C   UNL A   1      46.608  28.085  36.879  1.00  0.00     0.016 A 
ATOM     40  C   UNL A   1      43.894  27.456  36.978  1.00  0.00     0.010 A 
ATOM     41  C   UNL A   1      45.677  28.881  36.205  1.00  0.00     0.010 A 
ATOM     42  C   UNL A   1      44.311  28.546  36.199  1.00  0.00    -0.014 A 
BRANCH  42  43
ATOM     43  C   UNL A   1      43.335  29.313  35.366  1.00  0.00     0.031 A 
ATOM     44  C   UNL A   1      42.580  30.484  35.951  1.00  0.00     0.074 A 
ATOM     45  C   UNL A   1      43.117  28.966  34.079  1.00  0.00     0.049 A 
ATOM     46  N   UNL A   1      41.540  31.119  35.471  1.00  0.00    -0.248 NA
ATOM     47  C   UNL A   1      43.038  30.994  37.253  1.00  0.00     0.031 C 
ATOM     48  C   UNL A   1      43.796  27.884  33.363  1.00  0.00     0.029 A 
ATOM     49  N   UNL A   1      42.261  29.490  33.141  1.00  0.00    -0.354 N 
ATOM     50  C   UNL A   1      41.174  32.047  36.441  1.00  0.00     0.074 A 
ATOM     51  C   UNL A   1      42.108  31.896  37.536  1.00  0.00     0.031 C 
ATOM     52  C   UNL A   1      43.374  27.859  32.092  1.00  0.00     0.029 A 
ATOM     53  C   UNL A   1      42.308  28.838  31.930  1.00  0.00     0.049 A 
ATOM     54  H   UNL A   1      41.670  30.257  33.317  1.00  0.00     0.167 HD
ATOM     55  C   UNL A   1      40.148  32.934  36.422  1.00  0.00     0.037 A 
ATOM     56  C   UNL A   1      41.544  28.960  30.827  1.00  0.00     0.037 A 
ATOM     57  C   UNL A   1      39.267  33.127  35.295  1.00  0.00     0.049 A 
ATOM     58  C   UNL A   1      40.409  29.942  30.829  1.00  0.00     0.074 A 
ATOM     59  C   UNL A   1      38.218  34.021  35.165  1.00  0.00     0.029 A 
ATOM     60  N   UNL A   1      39.345  32.429  34.098  1.00  0.00    -0.354 N 
ATOM     61  N   UNL A   1      40.031  30.757  31.783  1.00  0.00    -0.248 NA
ATOM     62  C   UNL A   1      39.583  30.000  29.617  1.00  0.00     0.031 C 
ATOM     63  C   UNL A   1      37.637  33.837  33.905  1.00  0.00     0.029 A 
ATOM     64  C   UNL A   1      38.354  32.863  33.230  1.00  0.00     0.049 A 
ATOM     65  H   UNL A   1      40.007  31.729  33.894  1.00  0.00     0.167 HD
ATOM     66  C   UNL A   1      38.923  31.431  31.286  1.00  0.00     0.074 A 
ATOM     67  C   UNL A   1      38.709  30.944  29.938  1.00  0.00     0.031 C 
ATOM     68  C   UNL A   1      38.150  32.365  31.893  1.00  0.00     0.037 A 
BRANCH  55  69
ATOM     69  C   UNL A   1      39.887  33.741  37.668  1.00  0.00     0.058 A 
ATOM     70  C   UNL A   1      40.531  34.961  37.925  1.00  0.00     0.135 A 
ATOM     71  C   UNL A   1      38.936  33.298  38.605  1.00  0.00     0.135 A 
ATOM     72  F   UNL A   1      41.457  35.428  37.074  1.00  0.00    -0.206 F 
ATOM     73  C   UNL A   1      40.265  35.698  39.078  1.00  0.00     0.059 A 
ATOM     74  C   UNL A   1      38.633  34.031  39.749  1.00  0.00     0.059 A 
ATOM     75  F   UNL A   1      38.283  32.141  38.410  1.00  0.00    -0.206 F 
ATOM     76  C   UNL A   1      39.316  35.223  39.985  1.00  0.00     0.060 A 
BRANCH  76  77
ATOM     77  S   UNL A   1      38.981  36.186  41.477  1.00  0.00     0.124 S 
ATOM     78  O   UNL A   1      38.762  37.517  40.921  1.00  0.00    -0.237 OA
ATOM     79  O   UNL A   1      37.801  35.524  42.021  1.00  0.00    -0.237 OA
ATOM     80  O   UNL A   1      40.201  36.030  42.264  1.00  0.00    -0.744 OA
ENDBRANCH  76  77
ENDBRANCH  55  69
BRANCH  56  81
ATOM     81  C   UNL A   1      41.806  28.084  29.655  1.00  0.00     0.058 A 
ATOM     82  C   UNL A   1      40.937  27.031  29.332  1.00  0.00     0.135 A 
ATOM     83  C   UNL A   1      42.896  28.317  28.801  1.00  0.00     0.135 A 
ATOM     84  F   UNL A   1      39.888  26.761  30.123  1.00  0.00    -0.206 F 
ATOM     85  C   UNL A   1      41.135  26.246  28.201  1.00  0.00     0.059 A 
ATOM     86  C   UNL A   1      43.096  27.567  27.648  1.00  0.00     0.059 A 
ATOM     87  F   UNL A   1      43.749  29.322  29.057  1.00  0.00    -0.206 F 
ATOM     88  C   UNL A   1      42.212  26.529  27.358  1.00  0.00     0.060 A 
BRANCH  88  89
ATOM     89  S   UNL A   1      42.406  25.568  25.842  1.00  0.00     0.124 S 
ATOM     90  O   UNL A   1      43.649  26.112  25.308  1.00  0.00    -0.237 OA
ATOM     91  O   UNL A   1      42.472  24.202  26.350  1.00  0.00    -0.237 OA
ATOM     92  O   UNL A   1      41.199  25.888  25.087  1.00  0.00    -0.744 OA
ENDBRANCH  88  89
ENDBRANCH  56  81
BRANCH  68  93
ATOM     93  C   UNL A   1      37.016  32.939  31.091  1.00  0.00     0.058 A 
ATOM     94  C   UNL A   1      35.686  32.546  31.311  1.00  0.00     0.135 A 
ATOM     95  C   UNL A   1      37.260  33.911  30.108  1.00  0.00     0.135 A 
ATOM     96  F   UNL A   1      35.401  31.614  32.233  1.00  0.00    -0.206 F 
ATOM     97  C   UNL A   1      34.640  33.078  30.564  1.00  0.00     0.059 A 
ATOM     98  C   UNL A   1      36.227  34.474  29.366  1.00  0.00     0.059 A 
ATOM     99  F   UNL A   1      38.513  34.326  29.864  1.00  0.00    -0.206 F 
ATOM    100  C   UNL A   1      34.920  34.040  29.592  1.00  0.00     0.060 A 
BRANCH 100 101
ATOM    101  S   UNL A   1      33.553  34.733  28.639  1.00  0.00     0.124 S 
ATOM    102  O   UNL A   1      32.541  34.921  29.674  1.00  0.00    -0.237 OA
ATOM    103  O   UNL A   1      34.136  35.955  28.095  1.00  0.00    -0.237 OA
ATOM    104  O   UNL A   1      33.261  33.693  27.657  1.00  0.00    -0.744 OA
ENDBRANCH 100 101
ENDBRANCH  68  93
ENDBRANCH  42  43
ENDBRANCH  35  37
ENDBRANCH  34  35
ENDBRANCH  33  34
ENDBRANCH   1  33
TORSDOF 19
ENDMDL
MODEL 3
REMARK VINA RESULT:      -9.9      5.263     12.444
REMARK SMILES Cc1cc(C(=O)N[C@@H]2C(=O)N3C(C(=O)OCCOC(=O)c4ccc(-c5c6nc(c(-c7c(F)cc(S(=O)(=O)[O-])cc7F)c7ccc([nH]7)c(-c7c(F)cc(S(=O)(=O)[O-])cc7F)c7nc(c(-c8c(F)cc(S(=O)(=O)[O-])cc8F)c8ccc5[nH]8)C=C7)C=C6)cc4)=C(CSc4nnc(C)s4)CS[C@H]23)n(C)n1
REMARK SMILES IDX 16 1 15 2 13 3 14 4 12 5 8 6 9 7 98 8 10 9 11 10 97 11 96 12
REMARK SMILES IDX 87 13 7 14 5 15 6 16 4 18 1 19 2 20 3 21 101 22 99 23 100 24
REMARK SMILES IDX 88 25 89 26 90 27 91 28 95 29 92 30 93 31 94 32 17 33 18 34
REMARK SMILES IDX 19 35 20 36 21 37 22 38 86 39 23 40 85 41 24 42 25 43 26 44
REMARK SMILES IDX 79 45 27 46 84 47 78 48 80 49 28 50 83 51 77 52 76 53 29 55
REMARK SMILES IDX 63 56 42 57 62 58 43 59 46 60 61 61 81 62 44 63 45 64 60 66
REMARK SMILES IDX 82 67 47 68 30 69 31 70 40 71 32 72 33 73 39 74 41 75 34 76
REMARK SMILES IDX 35 77 36 78 37 79 38 80 64 81 65 82 74 83 66 84 67 85 73 86
REMARK SMILES IDX 75 87 68 88 69 89 70 90 71 91 72 92 48 93 49 94 58 95 50 96
REMARK SMILES IDX 51 97 57 98 59 99 52 100 53 101 54 102 55 103 56 104
REMARK H PARENT 7 17 80 54 46 65
REMARK Flexibility Score: inf
ROOT
ATOM      1  C   UNL A   1      40.443  25.614  26.478  1.00  0.00     0.275 C 
ENDROOT
BRANCH   1   2
ATOM      2  O   UNL A   1      39.512  24.712  25.845  1.00  0.00    -0.457 OA
BRANCH   2   3
ATOM      3  C   UNL A   1      38.797  23.919  26.670  1.00  0.00     0.355 C 
ATOM      4  O   UNL A   1      38.648  24.090  27.874  1.00  0.00    -0.244 OA
BRANCH   3   5
ATOM      5  C   UNL A   1      38.213  22.722  25.983  1.00  0.00     0.132 C 
ATOM      6  C   UNL A   1      34.833  22.496  25.627  1.00  0.00     0.206 C 
ATOM      7  C   UNL A   1      36.002  23.357  25.033  1.00  0.00     0.253 C 
ATOM      8  C   UNL A   1      36.024  21.557  26.032  1.00  0.00     0.181 C 
ATOM      9  O   UNL A   1      36.166  24.169  24.152  1.00  0.00    -0.272 OA
ATOM     10  N   UNL A   1      36.853  22.740  25.895  1.00  0.00    -0.289 N 
ATOM     11  S   UNL A   1      36.582  20.343  24.801  1.00  0.00    -0.129 SA
ATOM     12  C   UNL A   1      38.263  20.247  25.453  1.00  0.00     0.106 C 
ATOM     13  C   UNL A   1      38.914  21.575  25.817  1.00  0.00    -0.019 C 
BRANCH   6  14
ATOM     14  N   UNL A   1      33.770  22.040  24.710  1.00  0.00    -0.336 N 
ATOM     15  C   UNL A   1      32.611  22.681  24.328  1.00  0.00     0.270 C 
ATOM     16  O   UNL A   1      31.910  22.130  23.484  1.00  0.00    -0.268 OA
ATOM     17  H   UNL A   1      33.909  21.150  24.314  1.00  0.00     0.164 HD
BRANCH  15  18
ATOM     18  C   UNL A   1      32.238  23.906  24.995  1.00  0.00     0.126 A 
ATOM     19  C   UNL A   1      32.762  27.223  26.430  1.00  0.00     0.069 C 
ATOM     20  C   UNL A   1      32.282  25.900  25.968  1.00  0.00     0.060 A 
ATOM     21  C   UNL A   1      32.612  25.222  24.776  1.00  0.00     0.059 A 
ATOM     22  N   UNL A   1      31.498  25.153  26.748  1.00  0.00    -0.178 NA
ATOM     23  N   UNL A   1      31.386  23.984  26.073  1.00  0.00    -0.263 N 
ATOM     24  C   UNL A   1      30.487  22.987  26.605  1.00  0.00     0.174 C 
ENDBRANCH  15  18
ENDBRANCH   6  14
BRANCH  13  25
ATOM     25  C   UNL A   1      40.390  21.424  26.111  1.00  0.00     0.111 C 
BRANCH  25  26
ATOM     26  S   UNL A   1      40.952  19.822  26.730  1.00  0.00    -0.089 SA
BRANCH  26  27
ATOM     27  C   UNL A   1      42.472  19.539  25.928  1.00  0.00     0.174 A 
ATOM     28  N   UNL A   1      42.888  18.340  25.592  1.00  0.00    -0.132 NA
ATOM     29  S   UNL A   1      43.600  20.792  25.621  1.00  0.00    -0.091 S 
ATOM     30  N   UNL A   1      44.156  18.366  25.044  1.00  0.00    -0.143 NA
ATOM     31  C   UNL A   1      44.660  19.583  25.015  1.00  0.00     0.115 A 
ATOM     32  C   UNL A   1      46.032  19.922  24.553  1.00  0.00     0.081 C 
ENDBRANCH  26  27
ENDBRANCH  25  26
ENDBRANCH  13  25
ENDBRANCH   3   5
ENDBRANCH   2   3
ENDBRANCH   1   2
BRANCH   1  33
ATOM     33  C   UNL A   1      41.858  25.060  26.389  1.00  0.00     0.275 C 
BRANCH  33  34
ATOM     34  O   UNL A   1      42.484  25.163  27.677  1.00  0.00    -0.458 OA
BRANCH  34  35
ATOM     35  C   UNL A   1      43.664  25.829  27.689  1.00  0.00     0.338 C 
ATOM     36  O   UNL A   1      44.718  25.460  27.198  1.00  0.00    -0.246 OA
BRANCH  35  37
ATOM     37  C   UNL A   1      43.495  27.102  28.408  1.00  0.00     0.060 A 
ATOM     38  C   UNL A   1      42.556  28.032  27.968  1.00  0.00     0.016 A 
ATOM     39  C   UNL A   1      44.387  27.435  29.425  1.00  0.00     0.016 A 
ATOM     40  C   UNL A   1      42.611  29.343  28.437  1.00  0.00     0.010 A 
ATOM     41  C   UNL A   1      44.342  28.714  29.991  1.00  0.00     0.010 A 
ATOM     42  C   UNL A   1      43.492  29.704  29.469  1.00  0.00    -0.014 A 
BRANCH  42  43
ATOM     43  C   UNL A   1      43.542  31.108  29.979  1.00  0.00     0.031 A 
ATOM     44  C   UNL A   1      44.478  32.119  29.357  1.00  0.00     0.074 A 
ATOM     45  C   UNL A   1      42.751  31.489  31.004  1.00  0.00     0.049 A 
ATOM     46  N   UNL A   1      44.831  33.300  29.799  1.00  0.00    -0.248 NA
ATOM     47  C   UNL A   1      45.116  31.745  28.084  1.00  0.00     0.031 C 
ATOM     48  C   UNL A   1      41.770  30.639  31.683  1.00  0.00     0.029 A 
ATOM     49  N   UNL A   1      42.643  32.694  31.656  1.00  0.00    -0.354 N 
ATOM     50  C   UNL A   1      45.785  33.776  28.905  1.00  0.00     0.074 A 
ATOM     51  C   UNL A   1      45.952  32.758  27.891  1.00  0.00     0.031 C 
ATOM     52  C   UNL A   1      41.127  31.358  32.612  1.00  0.00     0.029 A 
ATOM     53  C   UNL A   1      41.728  32.682  32.683  1.00  0.00     0.049 A 
ATOM     54  H   UNL A   1      43.170  33.489  31.412  1.00  0.00     0.167 HD
ATOM     55  C   UNL A   1      46.464  34.950  28.936  1.00  0.00     0.037 A 
ATOM     56  C   UNL A   1      41.439  33.603  33.624  1.00  0.00     0.037 A 
ATOM     57  C   UNL A   1      46.238  35.990  29.910  1.00  0.00     0.049 A 
ATOM     58  C   UNL A   1      42.208  34.891  33.646  1.00  0.00     0.074 A 
ATOM     59  C   UNL A   1      46.852  37.227  30.009  1.00  0.00     0.029 A 
ATOM     60  N   UNL A   1      45.312  35.923  30.942  1.00  0.00    -0.354 N 
ATOM     61  N   UNL A   1      43.159  35.293  32.839  1.00  0.00    -0.248 NA
ATOM     62  C   UNL A   1      41.882  35.838  34.719  1.00  0.00     0.031 C 
ATOM     63  C   UNL A   1      46.325  37.892  31.122  1.00  0.00     0.029 A 
ATOM     64  C   UNL A   1      45.348  37.090  31.690  1.00  0.00     0.049 A 
ATOM     65  H   UNL A   1      44.716  35.159  31.118  1.00  0.00     0.167 HD
ATOM     66  C   UNL A   1      43.546  36.544  33.304  1.00  0.00     0.074 A 
ATOM     67  C   UNL A   1      42.707  36.840  34.448  1.00  0.00     0.031 C 
ATOM     68  C   UNL A   1      44.511  37.369  32.829  1.00  0.00     0.037 A 
BRANCH  55  69
ATOM     69  C   UNL A   1      47.550  35.166  27.912  1.00  0.00     0.058 A 
ATOM     70  C   UNL A   1      48.904  34.922  28.187  1.00  0.00     0.135 A 
ATOM     71  C   UNL A   1      47.216  35.590  26.614  1.00  0.00     0.135 A 
ATOM     72  F   UNL A   1      49.285  34.528  29.412  1.00  0.00    -0.206 F 
ATOM     73  C   UNL A   1      49.891  35.116  27.222  1.00  0.00     0.059 A 
ATOM     74  C   UNL A   1      48.182  35.764  25.625  1.00  0.00     0.059 A 
ATOM     75  F   UNL A   1      45.936  35.835  26.291  1.00  0.00    -0.206 F 
ATOM     76  C   UNL A   1      49.519  35.540  25.944  1.00  0.00     0.060 A 
BRANCH  76  77
ATOM     77  S   UNL A   1      50.808  35.790  24.703  1.00  0.00     0.124 S 
ATOM     78  O   UNL A   1      50.144  36.697  23.772  1.00  0.00    -0.237 OA
ATOM     79  O   UNL A   1      51.893  36.368  25.487  1.00  0.00    -0.237 OA
ATOM     80  O   UNL A   1      51.056  34.443  24.195  1.00  0.00    -0.744 OA
ENDBRANCH  76  77
ENDBRANCH  55  69
BRANCH  56  81
ATOM     81  C   UNL A   1      40.408  33.301  34.652  1.00  0.00     0.058 A 
ATOM     82  C   UNL A   1      40.737  32.601  35.821  1.00  0.00     0.135 A 
ATOM     83  C   UNL A   1      39.087  33.757  34.512  1.00  0.00     0.135 A 
ATOM     84  F   UNL A   1      41.982  32.134  35.996  1.00  0.00    -0.206 F 
ATOM     85  C   UNL A   1      39.796  32.370  36.820  1.00  0.00     0.059 A 
ATOM     86  C   UNL A   1      38.138  33.567  35.510  1.00  0.00     0.059 A 
ATOM     87  F   UNL A   1      38.725  34.445  33.418  1.00  0.00    -0.206 F 
ATOM     88  C   UNL A   1      38.501  32.867  36.660  1.00  0.00     0.060 A 
BRANCH  88  89
ATOM     89  S   UNL A   1      37.313  32.647  38.001  1.00  0.00     0.124 S 
ATOM     90  O   UNL A   1      37.948  33.394  39.080  1.00  0.00    -0.237 OA
ATOM     91  O   UNL A   1      36.103  33.239  37.440  1.00  0.00    -0.237 OA
ATOM     92  O   UNL A   1      37.268  31.199  38.175  1.00  0.00    -0.744 OA
ENDBRANCH  88  89
ENDBRANCH  56  81
BRANCH  68  93
ATOM     93  C   UNL A   1      44.693  38.684  33.534  1.00  0.00     0.058 A 
ATOM     94  C   UNL A   1      45.558  38.818  34.631  1.00  0.00     0.135 A 
ATOM     95  C   UNL A   1      44.011  39.828  33.092  1.00  0.00     0.135 A 
ATOM     96  F   UNL A   1      46.226  37.752  35.099  1.00  0.00    -0.206 F 
ATOM     97  C   UNL A   1      45.720  40.036  35.283  1.00  0.00     0.059 A 
ATOM     98  C   UNL A   1      44.177  41.062  33.712  1.00  0.00     0.059 A 
ATOM     99  F   UNL A   1      43.177  39.755  32.042  1.00  0.00    -0.206 F 
ATOM    100  C   UNL A   1      45.023  41.153  34.817  1.00  0.00     0.060 A 
BRANCH 100 101
ATOM    101  S   UNL A   1      45.253  42.732  35.662  1.00  0.00     0.124 S 
ATOM    102  O   UNL A   1      43.954  43.364  35.459  1.00  0.00    -0.237 OA
ATOM    103  O   UNL A   1      45.549  42.317  37.029  1.00  0.00    -0.237 OA
ATOM    104  O   UNL A   1      46.368  43.342  34.943  1.00  0.00    -0.744 OA
ENDBRANCH 100 101
ENDBRANCH  68  93
ENDBRANCH  42  43
ENDBRANCH  35  37
ENDBRANCH  34  35
ENDBRANCH  33  34
ENDBRANCH   1  33
TORSDOF 19
ENDMDL
