MODEL 1
REMARK VINA RESULT:     -10.9      0.000      0.000
REMARK SMILES O=C(OCCOC(=O)[C@H]1C[C@@H](O)C[N@H+]1Cc1ccccc1)c1ccc(-c2c3nc(c(-c4c(F)cc(S(=O)(=O)[O-])cc4F)c4ccc([nH]4)c(-c4c(F)cc(S(=O)(=O)[O-])cc4F)c4nc(c(-c5c(F)cc(S(=O)(=O)[O-])cc5F)c5ccc2[nH]5)C=C4)C=C3)cc1
REMARK SMILES IDX 4 1 3 2 2 3 1 4 22 5 23 6 87 7 24 8 86 9 25 10 26 11 27 12
REMARK SMILES IDX 80 13 28 14 85 15 79 16 81 17 29 18 84 19 78 20 77 21 30 23
REMARK SMILES IDX 64 24 43 25 63 26 44 27 47 28 62 29 82 30 45 31 46 32 61 34
REMARK SMILES IDX 83 35 48 36 31 37 32 38 41 39 33 40 34 41 40 42 42 43 35 44
REMARK SMILES IDX 36 45 37 46 38 47 39 48 65 49 66 50 75 51 67 52 68 53 74 54
REMARK SMILES IDX 76 55 69 56 70 57 71 58 72 59 73 60 49 61 50 62 59 63 51 64
REMARK SMILES IDX 52 65 58 66 60 67 53 68 54 69 55 70 56 71 57 72 5 73 6 74
REMARK SMILES IDX 7 75 8 76 9 77 10 78 14 79 11 80 13 81 15 83 16 84 17 85
REMARK SMILES IDX 21 86 18 87 20 88 19 89 12 90
REMARK H PARENT 81 22 47 33 14 82 12 91
REMARK Flexibility Score: inf
ROOT
ATOM      1  C   UNL A   1      40.175  23.093  27.209  1.00  0.00     0.275 C 
ENDROOT
BRANCH   1   2
ATOM      2  O   UNL A   1      40.710  23.987  26.219  1.00  0.00    -0.458 OA
BRANCH   2   3
ATOM      3  C   UNL A   1      40.834  25.336  26.249  1.00  0.00     0.338 C 
ATOM      4  O   UNL A   1      41.149  25.933  25.223  1.00  0.00    -0.246 OA
BRANCH   3   5
ATOM      5  C   UNL A   1      40.699  26.132  27.505  1.00  0.00     0.060 A 
ATOM      6  C   UNL A   1      39.633  26.036  28.406  1.00  0.00     0.016 A 
ATOM      7  C   UNL A   1      41.713  27.070  27.765  1.00  0.00     0.016 A 
ATOM      8  C   UNL A   1      39.617  26.783  29.589  1.00  0.00     0.010 A 
ATOM      9  C   UNL A   1      41.673  27.862  28.916  1.00  0.00     0.010 A 
ATOM     10  C   UNL A   1      40.626  27.714  29.841  1.00  0.00    -0.014 A 
BRANCH  10  11
ATOM     11  C   UNL A   1      40.421  28.737  30.891  1.00  0.00     0.031 A 
ATOM     12  C   UNL A   1      41.208  28.541  32.151  1.00  0.00     0.074 A 
ATOM     13  C   UNL A   1      39.619  29.806  30.736  1.00  0.00     0.049 A 
ATOM     14  N   UNL A   1      41.281  29.311  33.201  1.00  0.00    -0.248 NA
ATOM     15  C   UNL A   1      42.068  27.344  32.214  1.00  0.00     0.031 C 
ATOM     16  C   UNL A   1      38.924  30.178  29.510  1.00  0.00     0.029 A 
ATOM     17  N   UNL A   1      39.232  30.777  31.625  1.00  0.00    -0.354 N 
ATOM     18  C   UNL A   1      42.243  28.728  34.011  1.00  0.00     0.074 A 
ATOM     19  C   UNL A   1      42.665  27.500  33.382  1.00  0.00     0.031 C 
ATOM     20  C   UNL A   1      38.098  31.211  29.749  1.00  0.00     0.029 A 
ATOM     21  C   UNL A   1      38.258  31.620  31.136  1.00  0.00     0.049 A 
ATOM     22  H   UNL A   1      39.614  30.863  32.529  1.00  0.00     0.167 HD
ATOM     23  C   UNL A   1      42.761  29.206  35.162  1.00  0.00     0.037 A 
ATOM     24  C   UNL A   1      37.589  32.624  31.738  1.00  0.00     0.037 A 
ATOM     25  C   UNL A   1      42.278  30.395  35.802  1.00  0.00     0.049 A 
ATOM     26  C   UNL A   1      38.046  33.034  33.112  1.00  0.00     0.074 A 
ATOM     27  C   UNL A   1      42.689  30.960  36.993  1.00  0.00     0.029 A 
ATOM     28  N   UNL A   1      41.244  31.183  35.311  1.00  0.00    -0.354 N 
ATOM     29  N   UNL A   1      39.002  32.511  33.845  1.00  0.00    -0.248 NA
ATOM     30  C   UNL A   1      37.388  34.196  33.718  1.00  0.00     0.031 C 
ATOM     31  C   UNL A   1      41.858  32.054  37.254  1.00  0.00     0.029 A 
ATOM     32  C   UNL A   1      40.973  32.209  36.196  1.00  0.00     0.049 A 
ATOM     33  H   UNL A   1      40.774  31.033  34.460  1.00  0.00     0.167 HD
ATOM     34  C   UNL A   1      39.104  33.317  34.970  1.00  0.00     0.074 A 
ATOM     35  C   UNL A   1      38.101  34.355  34.826  1.00  0.00     0.031 C 
ATOM     36  C   UNL A   1      39.962  33.224  36.016  1.00  0.00     0.037 A 
BRANCH  23  37
ATOM     37  C   UNL A   1      43.866  28.408  35.783  1.00  0.00     0.058 A 
ATOM     38  C   UNL A   1      45.212  28.622  35.433  1.00  0.00     0.135 A 
ATOM     39  C   UNL A   1      43.579  27.380  36.692  1.00  0.00     0.135 A 
ATOM     40  F   UNL A   1      45.537  29.566  34.534  1.00  0.00    -0.206 F 
ATOM     41  C   UNL A   1      46.230  27.827  35.946  1.00  0.00     0.059 A 
ATOM     42  C   UNL A   1      44.584  26.589  37.236  1.00  0.00     0.059 A 
ATOM     43  F   UNL A   1      42.308  27.119  37.036  1.00  0.00    -0.206 F 
ATOM     44  C   UNL A   1      45.905  26.811  36.846  1.00  0.00     0.060 A 
BRANCH  44  45
ATOM     45  S   UNL A   1      47.236  25.783  37.499  1.00  0.00     0.124 S 
ATOM     46  O   UNL A   1      47.436  26.370  38.821  1.00  0.00    -0.237 OA
ATOM     47  O   UNL A   1      46.637  24.453  37.481  1.00  0.00    -0.237 OA
ATOM     48  O   UNL A   1      48.323  25.991  36.549  1.00  0.00    -0.744 OA
ENDBRANCH  44  45
ENDBRANCH  23  37
BRANCH  24  49
ATOM     49  C   UNL A   1      36.482  33.333  31.036  1.00  0.00     0.058 A 
ATOM     50  C   UNL A   1      36.726  34.209  29.967  1.00  0.00     0.135 A 
ATOM     51  C   UNL A   1      35.144  33.153  31.430  1.00  0.00     0.135 A 
ATOM     52  F   UNL A   1      37.983  34.420  29.549  1.00  0.00    -0.206 F 
ATOM     53  C   UNL A   1      35.694  34.896  29.331  1.00  0.00     0.059 A 
ATOM     54  C   UNL A   1      34.094  33.816  30.799  1.00  0.00     0.059 A 
ATOM     55  F   UNL A   1      34.848  32.320  32.440  1.00  0.00    -0.206 F 
ATOM     56  C   UNL A   1      34.379  34.695  29.755  1.00  0.00     0.060 A 
BRANCH  56  57
ATOM     57  S   UNL A   1      33.050  35.577  28.905  1.00  0.00     0.124 S 
ATOM     58  O   UNL A   1      32.295  36.128  30.026  1.00  0.00    -0.237 OA
ATOM     59  O   UNL A   1      33.790  36.541  28.099  1.00  0.00    -0.237 OA
ATOM     60  O   UNL A   1      32.375  34.524  28.149  1.00  0.00    -0.744 OA
ENDBRANCH  56  57
ENDBRANCH  24  49
BRANCH  36  61
ATOM     61  C   UNL A   1      39.873  34.287  37.071  1.00  0.00     0.058 A 
ATOM     62  C   UNL A   1      40.487  35.537  36.910  1.00  0.00     0.135 A 
ATOM     63  C   UNL A   1      39.097  34.072  38.221  1.00  0.00     0.135 A 
ATOM     64  F   UNL A   1      41.243  35.786  35.829  1.00  0.00    -0.206 F 
ATOM     65  C   UNL A   1      40.351  36.534  37.867  1.00  0.00     0.059 A 
ATOM     66  C   UNL A   1      38.920  35.067  39.174  1.00  0.00     0.059 A 
ATOM     67  F   UNL A   1      38.479  32.895  38.414  1.00  0.00    -0.206 F 
ATOM     68  C   UNL A   1      39.560  36.292  38.992  1.00  0.00     0.060 A 
BRANCH  68  69
ATOM     69  S   UNL A   1      39.352  37.615  40.199  1.00  0.00     0.124 S 
ATOM     70  O   UNL A   1      38.277  38.396  39.594  1.00  0.00    -0.237 OA
ATOM     71  O   UNL A   1      38.998  36.880  41.410  1.00  0.00    -0.237 OA
ATOM     72  O   UNL A   1      40.661  38.261  40.224  1.00  0.00    -0.744 OA
ENDBRANCH  68  69
ENDBRANCH  36  61
ENDBRANCH  10  11
ENDBRANCH   3   5
ENDBRANCH   2   3
ENDBRANCH   1   2
BRANCH   1  73
ATOM     73  C   UNL A   1      40.246  21.608  26.866  1.00  0.00     0.274 C 
BRANCH  73  74
ATOM     74  O   UNL A   1      41.547  21.023  27.020  1.00  0.00    -0.458 OA
BRANCH  74  75
ATOM     75  C   UNL A   1      41.852  20.008  26.156  1.00  0.00     0.365 C 
ATOM     76  O   UNL A   1      41.004  19.345  25.576  1.00  0.00    -0.245 OA
BRANCH  75  77
ATOM     77  C   UNL A   1      43.375  19.775  26.008  1.00  0.00     0.298 C 
ATOM     78  C   UNL A   1      43.865  18.750  24.989  1.00  0.00     0.115 C 
ATOM     79  N   UNL A   1      44.170  20.990  25.742  1.00  0.00    -0.317 N 
ATOM     80  C   UNL A   1      44.992  19.388  24.190  1.00  0.00     0.175 C 
ATOM     81  C   UNL A   1      45.369  20.621  24.995  1.00  0.00     0.295 C 
ATOM     82  H   UNL A   1      44.415  21.330  26.672  1.00  0.00     0.349 HD
BRANCH  79  83
ATOM     83  C   UNL A   1      43.531  22.239  25.358  1.00  0.00     0.299 C 
BRANCH  83  84
ATOM     84  C   UNL A   1      43.984  23.576  25.917  1.00  0.00     0.006 A 
ATOM     85  C   UNL A   1      44.405  24.552  24.999  1.00  0.00     0.009 A 
ATOM     86  C   UNL A   1      44.144  23.880  27.274  1.00  0.00     0.009 A 
ATOM     87  C   UNL A   1      44.969  25.759  25.424  1.00  0.00     0.001 A 
ATOM     88  C   UNL A   1      44.721  25.075  27.708  1.00  0.00     0.001 A 
ATOM     89  C   UNL A   1      45.142  26.014  26.779  1.00  0.00     0.000 A 
ENDBRANCH  83  84
ENDBRANCH  79  83
BRANCH  80  90
ATOM     90  O   UNL A   1      44.533  19.664  22.873  1.00  0.00    -0.387 OA
ATOM     91  H   UNL A   1      43.761  19.112  22.679  1.00  0.00     0.211 HD
ENDBRANCH  80  90
ENDBRANCH  75  77
ENDBRANCH  74  75
ENDBRANCH  73  74
ENDBRANCH   1  73
TORSDOF 17
ENDMDL
MODEL 2
REMARK VINA RESULT:     -10.8      4.244     12.066
REMARK SMILES O=C(OCCOC(=O)[C@H]1C[C@@H](O)C[N@H+]1Cc1ccccc1)c1ccc(-c2c3nc(c(-c4c(F)cc(S(=O)(=O)[O-])cc4F)c4ccc([nH]4)c(-c4c(F)cc(S(=O)(=O)[O-])cc4F)c4nc(c(-c5c(F)cc(S(=O)(=O)[O-])cc5F)c5ccc2[nH]5)C=C4)C=C3)cc1
REMARK SMILES IDX 4 1 3 2 2 3 1 4 22 5 23 6 87 7 24 8 86 9 25 10 26 11 27 12
REMARK SMILES IDX 80 13 28 14 85 15 79 16 81 17 29 18 84 19 78 20 77 21 30 23
REMARK SMILES IDX 64 24 43 25 63 26 44 27 47 28 62 29 82 30 45 31 46 32 61 34
REMARK SMILES IDX 83 35 48 36 31 37 32 38 41 39 33 40 34 41 40 42 42 43 35 44
REMARK SMILES IDX 36 45 37 46 38 47 39 48 65 49 66 50 75 51 67 52 68 53 74 54
REMARK SMILES IDX 76 55 69 56 70 57 71 58 72 59 73 60 49 61 50 62 59 63 51 64
REMARK SMILES IDX 52 65 58 66 60 67 53 68 54 69 55 70 56 71 57 72 5 73 6 74
REMARK SMILES IDX 7 75 8 76 9 77 10 78 14 79 11 80 13 81 15 83 16 84 17 85
REMARK SMILES IDX 21 86 18 87 20 88 19 89 12 90
REMARK H PARENT 81 22 47 33 14 82 12 91
REMARK Flexibility Score: inf
ROOT
ATOM      1  C   UNL A   1      34.915  33.439  28.913  1.00  0.00     0.275 C 
ENDROOT
BRANCH   1   2
ATOM      2  O   UNL A   1      34.116  32.306  28.530  1.00  0.00    -0.458 OA
BRANCH   2   3
ATOM      3  C   UNL A   1      34.494  31.131  27.973  1.00  0.00     0.338 C 
ATOM      4  O   UNL A   1      33.719  30.548  27.218  1.00  0.00    -0.246 OA
BRANCH   3   5
ATOM      5  C   UNL A   1      35.779  30.452  28.310  1.00  0.00     0.060 A 
ATOM      6  C   UNL A   1      36.122  29.964  29.576  1.00  0.00     0.016 A 
ATOM      7  C   UNL A   1      36.720  30.336  27.272  1.00  0.00     0.016 A 
ATOM      8  C   UNL A   1      37.329  29.290  29.790  1.00  0.00     0.010 A 
ATOM      9  C   UNL A   1      37.953  29.716  27.494  1.00  0.00     0.010 A 
ATOM     10  C   UNL A   1      38.259  29.179  28.755  1.00  0.00    -0.014 A 
BRANCH  10  11
ATOM     11  C   UNL A   1      39.653  28.795  29.072  1.00  0.00     0.031 A 
ATOM     12  C   UNL A   1      40.499  29.868  29.686  1.00  0.00     0.074 A 
ATOM     13  C   UNL A   1      40.144  27.558  28.871  1.00  0.00     0.049 A 
ATOM     14  N   UNL A   1      41.723  29.797  30.128  1.00  0.00    -0.248 NA
ATOM     15  C   UNL A   1      39.860  31.185  29.877  1.00  0.00     0.031 C 
ATOM     16  C   UNL A   1      39.380  26.402  28.421  1.00  0.00     0.029 A 
ATOM     17  N   UNL A   1      41.417  27.064  29.001  1.00  0.00    -0.354 N 
ATOM     18  C   UNL A   1      41.972  31.031  30.708  1.00  0.00     0.074 A 
ATOM     19  C   UNL A   1      40.814  31.863  30.490  1.00  0.00     0.031 C 
ATOM     20  C   UNL A   1      40.208  25.370  28.186  1.00  0.00     0.029 A 
ATOM     21  C   UNL A   1      41.561  25.774  28.538  1.00  0.00     0.049 A 
ATOM     22  H   UNL A   1      42.159  27.582  29.389  1.00  0.00     0.167 HD
ATOM     23  C   UNL A   1      43.062  31.417  31.404  1.00  0.00     0.037 A 
ATOM     24  C   UNL A   1      42.661  25.001  28.433  1.00  0.00     0.037 A 
ATOM     25  C   UNL A   1      44.228  30.595  31.550  1.00  0.00     0.049 A 
ATOM     26  C   UNL A   1      43.933  25.521  29.045  1.00  0.00     0.074 A 
ATOM     27  C   UNL A   1      45.414  30.889  32.194  1.00  0.00     0.029 A 
ATOM     28  N   UNL A   1      44.361  29.323  31.008  1.00  0.00    -0.354 N 
ATOM     29  N   UNL A   1      44.140  26.670  29.647  1.00  0.00    -0.248 NA
ATOM     30  C   UNL A   1      45.099  24.632  29.024  1.00  0.00     0.031 C 
ATOM     31  C   UNL A   1      46.289  29.818  31.985  1.00  0.00     0.029 A 
ATOM     32  C   UNL A   1      45.627  28.831  31.267  1.00  0.00     0.049 A 
ATOM     33  H   UNL A   1      43.659  28.843  30.514  1.00  0.00     0.167 HD
ATOM     34  C   UNL A   1      45.440  26.617  30.132  1.00  0.00     0.074 A 
ATOM     35  C   UNL A   1      45.974  25.327  29.740  1.00  0.00     0.031 C 
ATOM     36  C   UNL A   1      46.122  27.539  30.856  1.00  0.00     0.037 A 
BRANCH  23  37
ATOM     37  C   UNL A   1      43.022  32.789  32.006  1.00  0.00     0.058 A 
ATOM     38  C   UNL A   1      43.416  33.923  31.275  1.00  0.00     0.135 A 
ATOM     39  C   UNL A   1      42.641  32.968  33.344  1.00  0.00     0.135 A 
ATOM     40  F   UNL A   1      43.831  33.800  30.003  1.00  0.00    -0.206 F 
ATOM     41  C   UNL A   1      43.458  35.184  31.858  1.00  0.00     0.059 A 
ATOM     42  C   UNL A   1      42.651  34.224  33.940  1.00  0.00     0.059 A 
ATOM     43  F   UNL A   1      42.283  31.912  34.091  1.00  0.00    -0.206 F 
ATOM     44  C   UNL A   1      43.074  35.323  33.193  1.00  0.00     0.060 A 
BRANCH  44  45
ATOM     45  S   UNL A   1      43.139  36.965  33.939  1.00  0.00     0.124 S 
ATOM     46  O   UNL A   1      43.363  37.808  32.768  1.00  0.00    -0.237 OA
ATOM     47  O   UNL A   1      41.822  37.076  34.557  1.00  0.00    -0.237 OA
ATOM     48  O   UNL A   1      44.259  36.872  34.869  1.00  0.00    -0.744 OA
ENDBRANCH  44  45
ENDBRANCH  23  37
BRANCH  24  49
ATOM     49  C   UNL A   1      42.593  23.660  27.786  1.00  0.00     0.058 A 
ATOM     50  C   UNL A   1      42.418  22.487  28.535  1.00  0.00     0.135 A 
ATOM     51  C   UNL A   1      42.711  23.524  26.391  1.00  0.00     0.135 A 
ATOM     52  F   UNL A   1      42.302  22.557  29.870  1.00  0.00    -0.206 F 
ATOM     53  C   UNL A   1      42.386  21.230  27.934  1.00  0.00     0.059 A 
ATOM     54  C   UNL A   1      42.666  22.279  25.766  1.00  0.00     0.059 A 
ATOM     55  F   UNL A   1      42.870  24.612  25.621  1.00  0.00    -0.206 F 
ATOM     56  C   UNL A   1      42.512  21.135  26.547  1.00  0.00     0.060 A 
BRANCH  56  57
ATOM     57  S   UNL A   1      42.447  19.500  25.780  1.00  0.00     0.124 S 
ATOM     58  O   UNL A   1      42.864  18.638  26.881  1.00  0.00    -0.237 OA
ATOM     59  O   UNL A   1      41.044  19.401  25.390  1.00  0.00    -0.237 OA
ATOM     60  O   UNL A   1      43.393  19.608  24.672  1.00  0.00    -0.744 OA
ENDBRANCH  56  57
ENDBRANCH  24  49
BRANCH  36  61
ATOM     61  C   UNL A   1      47.510  27.174  31.294  1.00  0.00     0.058 A 
ATOM     62  C   UNL A   1      47.751  26.534  32.518  1.00  0.00     0.135 A 
ATOM     63  C   UNL A   1      48.600  27.401  30.438  1.00  0.00     0.135 A 
ATOM     64  F   UNL A   1      46.741  26.302  33.371  1.00  0.00    -0.206 F 
ATOM     65  C   UNL A   1      49.033  26.150  32.888  1.00  0.00     0.059 A 
ATOM     66  C   UNL A   1      49.884  26.994  30.774  1.00  0.00     0.059 A 
ATOM     67  F   UNL A   1      48.416  27.999  29.249  1.00  0.00    -0.206 F 
ATOM     68  C   UNL A   1      50.092  26.378  32.007  1.00  0.00     0.060 A 
BRANCH  68  69
ATOM     69  S   UNL A   1      51.741  25.826  32.481  1.00  0.00     0.124 S 
ATOM     70  O   UNL A   1      51.779  24.486  31.902  1.00  0.00    -0.237 OA
ATOM     71  O   UNL A   1      52.599  26.819  31.840  1.00  0.00    -0.237 OA
ATOM     72  O   UNL A   1      51.711  25.879  33.940  1.00  0.00    -0.744 OA
ENDBRANCH  68  69
ENDBRANCH  36  61
ENDBRANCH  10  11
ENDBRANCH   3   5
ENDBRANCH   2   3
ENDBRANCH   1   2
BRANCH   1  73
ATOM     73  C   UNL A   1      34.852  33.824  30.387  1.00  0.00     0.274 C 
BRANCH  73  74
ATOM     74  O   UNL A   1      35.695  33.040  31.244  1.00  0.00    -0.458 OA
BRANCH  74  75
ATOM     75  C   UNL A   1      36.996  33.448  31.339  1.00  0.00     0.365 C 
ATOM     76  O   UNL A   1      37.733  33.565  30.371  1.00  0.00    -0.245 OA
BRANCH  75  77
ATOM     77  C   UNL A   1      37.441  33.722  32.796  1.00  0.00     0.298 C 
ATOM     78  C   UNL A   1      36.575  34.627  33.670  1.00  0.00     0.115 C 
ATOM     79  N   UNL A   1      37.683  32.517  33.614  1.00  0.00    -0.317 N 
ATOM     80  C   UNL A   1      36.390  33.938  35.014  1.00  0.00     0.175 C 
ATOM     81  C   UNL A   1      37.436  32.837  35.017  1.00  0.00     0.295 C 
ATOM     82  H   UNL A   1      38.669  32.311  33.458  1.00  0.00     0.349 HD
BRANCH  79  83
ATOM     83  C   UNL A   1      37.248  31.203  33.165  1.00  0.00     0.299 C 
BRANCH  83  84
ATOM     84  C   UNL A   1      38.184  30.008  33.161  1.00  0.00     0.006 A 
ATOM     85  C   UNL A   1      39.520  30.232  33.529  1.00  0.00     0.009 A 
ATOM     86  C   UNL A   1      37.866  28.727  32.698  1.00  0.00     0.009 A 
ATOM     87  C   UNL A   1      40.486  29.226  33.422  1.00  0.00     0.001 A 
ATOM     88  C   UNL A   1      38.825  27.719  32.572  1.00  0.00     0.001 A 
ATOM     89  C   UNL A   1      40.141  27.973  32.928  1.00  0.00     0.000 A 
ENDBRANCH  83  84
ENDBRANCH  79  83
BRANCH  80  90
ATOM     90  O   UNL A   1      35.049  33.475  35.121  1.00  0.00    -0.387 OA
ATOM     91  H   UNL A   1      34.519  34.131  35.599  1.00  0.00     0.211 HD
ENDBRANCH  80  90
ENDBRANCH  75  77
ENDBRANCH  74  75
ENDBRANCH  73  74
ENDBRANCH   1  73
TORSDOF 17
ENDMDL
MODEL 3
REMARK VINA RESULT:     -10.6      1.465      8.703
REMARK SMILES O=C(OCCOC(=O)[C@H]1C[C@@H](O)C[N@H+]1Cc1ccccc1)c1ccc(-c2c3nc(c(-c4c(F)cc(S(=O)(=O)[O-])cc4F)c4ccc([nH]4)c(-c4c(F)cc(S(=O)(=O)[O-])cc4F)c4nc(c(-c5c(F)cc(S(=O)(=O)[O-])cc5F)c5ccc2[nH]5)C=C4)C=C3)cc1
REMARK SMILES IDX 4 1 3 2 2 3 1 4 22 5 23 6 87 7 24 8 86 9 25 10 26 11 27 12
REMARK SMILES IDX 80 13 28 14 85 15 79 16 81 17 29 18 84 19 78 20 77 21 30 23
REMARK SMILES IDX 64 24 43 25 63 26 44 27 47 28 62 29 82 30 45 31 46 32 61 34
REMARK SMILES IDX 83 35 48 36 31 37 32 38 41 39 33 40 34 41 40 42 42 43 35 44
REMARK SMILES IDX 36 45 37 46 38 47 39 48 65 49 66 50 75 51 67 52 68 53 74 54
REMARK SMILES IDX 76 55 69 56 70 57 71 58 72 59 73 60 49 61 50 62 59 63 51 64
REMARK SMILES IDX 52 65 58 66 60 67 53 68 54 69 55 70 56 71 57 72 5 73 6 74
REMARK SMILES IDX 7 75 8 76 9 77 10 78 14 79 11 80 13 81 15 83 16 84 17 85
REMARK SMILES IDX 21 86 18 87 20 88 19 89 12 90
REMARK H PARENT 81 22 47 33 14 82 12 91
REMARK Flexibility Score: inf
ROOT
ATOM      1  C   UNL A   1      44.277  24.954  25.013  1.00  0.00     0.275 C 
ENDROOT
BRANCH   1   2
ATOM      2  O   UNL A   1      43.027  24.929  25.724  1.00  0.00    -0.458 OA
BRANCH   2   3
ATOM      3  C   UNL A   1      42.163  25.938  25.987  1.00  0.00     0.338 C 
ATOM      4  O   UNL A   1      41.510  26.423  25.066  1.00  0.00    -0.246 OA
BRANCH   3   5
ATOM      5  C   UNL A   1      42.034  26.563  27.337  1.00  0.00     0.060 A 
ATOM      6  C   UNL A   1      41.059  26.232  28.284  1.00  0.00     0.016 A 
ATOM      7  C   UNL A   1      42.949  27.584  27.646  1.00  0.00     0.016 A 
ATOM      8  C   UNL A   1      41.047  26.830  29.548  1.00  0.00     0.010 A 
ATOM      9  C   UNL A   1      42.905  28.228  28.887  1.00  0.00     0.010 A 
ATOM     10  C   UNL A   1      41.957  27.845  29.850  1.00  0.00    -0.014 A 
BRANCH  10  11
ATOM     11  C   UNL A   1      41.716  28.707  31.028  1.00  0.00     0.031 A 
ATOM     12  C   UNL A   1      40.644  29.743  30.867  1.00  0.00     0.074 A 
ATOM     13  C   UNL A   1      42.372  28.568  32.195  1.00  0.00     0.049 A 
ATOM     14  N   UNL A   1      40.175  30.581  31.747  1.00  0.00    -0.248 NA
ATOM     15  C   UNL A   1      39.977  29.803  29.553  1.00  0.00     0.031 C 
ATOM     16  C   UNL A   1      43.322  27.511  32.515  1.00  0.00     0.029 A 
ATOM     17  N   UNL A   1      42.356  29.334  33.333  1.00  0.00    -0.354 N 
ATOM     18  C   UNL A   1      39.116  31.214  31.115  1.00  0.00     0.074 A 
ATOM     19  C   UNL A   1      39.062  30.734  29.756  1.00  0.00     0.031 C 
ATOM     20  C   UNL A   1      43.897  27.758  33.704  1.00  0.00     0.029 A 
ATOM     21  C   UNL A   1      43.301  28.961  34.265  1.00  0.00     0.049 A 
ATOM     22  H   UNL A   1      41.729  30.080  33.471  1.00  0.00     0.167 HD
ATOM     23  C   UNL A   1      38.236  32.091  31.644  1.00  0.00     0.037 A 
ATOM     24  C   UNL A   1      43.627  29.518  35.448  1.00  0.00     0.037 A 
ATOM     25  C   UNL A   1      38.350  32.604  32.979  1.00  0.00     0.049 A 
ATOM     26  C   UNL A   1      42.753  30.635  35.953  1.00  0.00     0.074 A 
ATOM     27  C   UNL A   1      37.549  33.529  33.617  1.00  0.00     0.029 A 
ATOM     28  N   UNL A   1      39.360  32.255  33.867  1.00  0.00    -0.354 N 
ATOM     29  N   UNL A   1      41.713  31.185  35.369  1.00  0.00    -0.248 NA
ATOM     30  C   UNL A   1      43.047  31.165  37.288  1.00  0.00     0.031 C 
ATOM     31  C   UNL A   1      38.113  33.788  34.871  1.00  0.00     0.029 A 
ATOM     32  C   UNL A   1      39.227  32.977  35.038  1.00  0.00     0.049 A 
ATOM     33  H   UNL A   1      40.064  31.592  33.690  1.00  0.00     0.167 HD
ATOM     34  C   UNL A   1      41.190  32.082  36.290  1.00  0.00     0.074 A 
ATOM     35  C   UNL A   1      42.038  32.008  37.465  1.00  0.00     0.031 C 
ATOM     36  C   UNL A   1      40.095  32.876  36.187  1.00  0.00     0.037 A 
BRANCH  23  37
ATOM     37  C   UNL A   1      37.124  32.547  30.750  1.00  0.00     0.058 A 
ATOM     38  C   UNL A   1      37.275  33.655  29.898  1.00  0.00     0.135 A 
ATOM     39  C   UNL A   1      35.876  31.909  30.784  1.00  0.00     0.135 A 
ATOM     40  F   UNL A   1      38.437  34.328  29.860  1.00  0.00    -0.206 F 
ATOM     41  C   UNL A   1      36.218  34.130  29.130  1.00  0.00     0.059 A 
ATOM     42  C   UNL A   1      34.812  32.351  30.005  1.00  0.00     0.059 A 
ATOM     43  F   UNL A   1      35.674  30.864  31.601  1.00  0.00    -0.206 F 
ATOM     44  C   UNL A   1      34.989  33.470  29.192  1.00  0.00     0.060 A 
BRANCH  44  45
ATOM     45  S   UNL A   1      33.625  34.100  28.194  1.00  0.00     0.124 S 
ATOM     46  O   UNL A   1      34.331  34.939  27.230  1.00  0.00    -0.237 OA
ATOM     47  O   UNL A   1      33.041  32.875  27.659  1.00  0.00    -0.237 OA
ATOM     48  O   UNL A   1      32.798  34.815  29.161  1.00  0.00    -0.744 OA
ENDBRANCH  44  45
ENDBRANCH  23  37
BRANCH  24  49
ATOM     49  C   UNL A   1      44.776  29.002  36.245  1.00  0.00     0.058 A 
ATOM     50  C   UNL A   1      46.062  29.551  36.129  1.00  0.00     0.135 A 
ATOM     51  C   UNL A   1      44.611  27.932  37.142  1.00  0.00     0.135 A 
ATOM     52  F   UNL A   1      46.279  30.573  35.286  1.00  0.00    -0.206 F 
ATOM     53  C   UNL A   1      47.143  29.048  36.850  1.00  0.00     0.059 A 
ATOM     54  C   UNL A   1      45.673  27.423  37.887  1.00  0.00     0.059 A 
ATOM     55  F   UNL A   1      43.401  27.372  37.304  1.00  0.00    -0.206 F 
ATOM     56  C   UNL A   1      46.940  27.982  37.727  1.00  0.00     0.060 A 
BRANCH  56  57
ATOM     57  S   UNL A   1      48.347  27.355  38.671  1.00  0.00     0.124 S 
ATOM     58  O   UNL A   1      47.965  27.697  40.038  1.00  0.00    -0.237 OA
ATOM     59  O   UNL A   1      48.329  25.934  38.340  1.00  0.00    -0.237 OA
ATOM     60  O   UNL A   1      49.479  28.103  38.129  1.00  0.00    -0.744 OA
ENDBRANCH  56  57
ENDBRANCH  24  49
BRANCH  36  61
ATOM     61  C   UNL A   1      39.738  33.707  37.383  1.00  0.00     0.058 A 
ATOM     62  C   UNL A   1      38.845  33.246  38.360  1.00  0.00     0.135 A 
ATOM     63  C   UNL A   1      40.360  34.950  37.587  1.00  0.00     0.135 A 
ATOM     64  F   UNL A   1      38.221  32.067  38.204  1.00  0.00    -0.206 F 
ATOM     65  C   UNL A   1      38.563  33.999  39.492  1.00  0.00     0.059 A 
ATOM     66  C   UNL A   1      40.119  35.703  38.729  1.00  0.00     0.059 A 
ATOM     67  F   UNL A   1      41.233  35.428  36.686  1.00  0.00    -0.206 F 
ATOM     68  C   UNL A   1      39.211  35.223  39.670  1.00  0.00     0.060 A 
BRANCH  68  69
ATOM     69  S   UNL A   1      38.874  36.164  41.171  1.00  0.00     0.124 S 
ATOM     70  O   UNL A   1      37.716  35.456  41.707  1.00  0.00    -0.237 OA
ATOM     71  O   UNL A   1      40.117  36.009  41.922  1.00  0.00    -0.237 OA
ATOM     72  O   UNL A   1      38.612  37.512  40.675  1.00  0.00    -0.744 OA
ENDBRANCH  68  69
ENDBRANCH  36  61
ENDBRANCH  10  11
ENDBRANCH   3   5
ENDBRANCH   2   3
ENDBRANCH   1   2
BRANCH   1  73
ATOM     73  C   UNL A   1      44.860  23.590  24.655  1.00  0.00     0.274 C 
BRANCH  73  74
ATOM     74  O   UNL A   1      43.890  22.620  24.233  1.00  0.00    -0.458 OA
BRANCH  74  75
ATOM     75  C   UNL A   1      43.609  21.627  25.129  1.00  0.00     0.365 C 
ATOM     76  O   UNL A   1      44.324  20.648  25.289  1.00  0.00    -0.245 OA
BRANCH  75  77
ATOM     77  C   UNL A   1      42.287  21.860  25.899  1.00  0.00     0.298 C 
ATOM     78  C   UNL A   1      41.299  20.704  26.029  1.00  0.00     0.115 C 
ATOM     79  N   UNL A   1      42.446  22.385  27.270  1.00  0.00    -0.317 N 
ATOM     80  C   UNL A   1      40.857  20.630  27.483  1.00  0.00     0.175 C 
ATOM     81  C   UNL A   1      41.312  21.951  28.080  1.00  0.00     0.295 C 
ATOM     82  H   UNL A   1      42.436  23.397  27.146  1.00  0.00     0.349 HD
BRANCH  79  83
ATOM     83  C   UNL A   1      43.744  22.391  27.928  1.00  0.00     0.299 C 
BRANCH  83  84
ATOM     84  C   UNL A   1      44.115  23.443  28.956  1.00  0.00     0.006 A 
ATOM     85  C   UNL A   1      44.923  24.509  28.529  1.00  0.00     0.009 A 
ATOM     86  C   UNL A   1      43.832  23.380  30.325  1.00  0.00     0.009 A 
ATOM     87  C   UNL A   1      45.431  25.449  29.432  1.00  0.00     0.001 A 
ATOM     88  C   UNL A   1      44.346  24.304  31.237  1.00  0.00     0.001 A 
ATOM     89  C   UNL A   1      45.154  25.337  30.790  1.00  0.00     0.000 A 
ENDBRANCH  83  84
ENDBRANCH  79  83
BRANCH  80  90
ATOM     90  O   UNL A   1      41.436  19.481  28.090  1.00  0.00    -0.387 OA
ATOM     91  H   UNL A   1      42.314  19.707  28.433  1.00  0.00     0.211 HD
ENDBRANCH  80  90
ENDBRANCH  75  77
ENDBRANCH  74  75
ENDBRANCH  73  74
ENDBRANCH   1  73
TORSDOF 17
ENDMDL
