MODEL 1
REMARK VINA RESULT:     -10.7      0.000      0.000
REMARK SMILES C[C@H](/N=C(\Cc1ccccc1)C(=O)OC(C)(C)C)C(=O)OCCOC(=O)c1ccc(-c2c3nc(c(-c4c(F)cc(S(=O)(=O)[O-])cc4F)c4ccc([nH]4)c(-c4c(F)cc(S(=O)(=O)[O-])cc4F)c4nc(c(-c5c(F)cc(S(=O)(=O)[O-])cc5F)c5ccc2[nH]5)C=C4)C=C3)cc1
REMARK SMILES IDX 22 1 21 2 19 3 20 4 2 5 1 6 3 7 4 8 5 9 6 10 7 11 11 12 8 13
REMARK SMILES IDX 10 14 9 15 12 16 13 17 14 18 15 19 16 20 17 21 18 22 23 23
REMARK SMILES IDX 24 24 25 25 26 26 27 27 28 28 92 29 29 30 91 31 30 32 31 33
REMARK SMILES IDX 32 34 85 35 33 36 90 37 84 38 86 39 34 40 89 41 83 42 82 43
REMARK SMILES IDX 35 45 69 46 48 47 68 48 49 49 52 50 67 51 87 52 50 53 51 54
REMARK SMILES IDX 66 56 88 57 53 58 36 59 37 60 46 61 38 62 39 63 45 64 47 65
REMARK SMILES IDX 40 66 41 67 42 68 43 69 44 70 70 71 71 72 80 73 72 74 73 75
REMARK SMILES IDX 79 76 81 77 74 78 75 79 76 80 77 81 78 82 54 83 55 84 64 85
REMARK SMILES IDX 56 86 57 87 63 88 65 89 58 90 59 91 60 92 61 93 62 94
REMARK H PARENT 86 44 52 55
REMARK Flexibility Score: inf
ROOT
ATOM      1  C   UNL A   1      34.089  31.892  27.915  1.00  0.00     0.274 C 
ENDROOT
BRANCH   1   2
ATOM      2  O   UNL A   1      33.879  30.810  26.988  1.00  0.00    -0.460 OA
BRANCH   2   3
ATOM      3  C   UNL A   1      32.586  30.559  26.639  1.00  0.00     0.330 C 
ATOM      4  O   UNL A   1      31.672  31.372  26.743  1.00  0.00    -0.250 OA
BRANCH   3   5
ATOM      5  C   UNL A   1      32.374  29.145  26.088  1.00  0.00     0.212 C 
ATOM      6  C   UNL A   1      33.578  28.252  26.309  1.00  0.00     0.046 C 
BRANCH   5   7
ATOM      7  N   UNL A   1      31.765  29.139  24.752  1.00  0.00    -0.267 NA
ATOM      8  C   UNL A   1      31.013  28.247  24.215  1.00  0.00     0.125 C 
BRANCH   8   9
ATOM      9  C   UNL A   1      30.480  26.998  24.877  1.00  0.00     0.099 C 
BRANCH   9  10
ATOM     10  C   UNL A   1      31.496  25.874  24.991  1.00  0.00    -0.042 A 
ATOM     11  C   UNL A   1      31.545  25.129  26.178  1.00  0.00     0.004 A 
ATOM     12  C   UNL A   1      32.412  25.558  23.971  1.00  0.00     0.004 A 
ATOM     13  C   UNL A   1      32.482  24.105  26.341  1.00  0.00     0.000 A 
ATOM     14  C   UNL A   1      33.353  24.541  24.139  1.00  0.00     0.000 A 
ATOM     15  C   UNL A   1      33.390  23.816  25.324  1.00  0.00     0.000 A 
ENDBRANCH   9  10
ENDBRANCH   8   9
BRANCH   8  16
ATOM     16  C   UNL A   1      30.523  28.515  22.768  1.00  0.00     0.353 C 
ATOM     17  O   UNL A   1      30.587  27.695  21.875  1.00  0.00    -0.245 OA
BRANCH  16  18
ATOM     18  O   UNL A   1      30.109  29.793  22.662  1.00  0.00    -0.455 OA
BRANCH  18  19
ATOM     19  C   UNL A   1      28.704  30.135  22.648  1.00  0.00     0.104 C 
ATOM     20  C   UNL A   1      28.298  30.759  21.309  1.00  0.00     0.056 C 
ATOM     21  C   UNL A   1      27.831  28.931  23.010  1.00  0.00     0.056 C 
ATOM     22  C   UNL A   1      28.564  31.201  23.747  1.00  0.00     0.056 C 
ENDBRANCH  18  19
ENDBRANCH  16  18
ENDBRANCH   8  16
ENDBRANCH   5   7
ENDBRANCH   3   5
ENDBRANCH   2   3
ENDBRANCH   1   2
BRANCH   1  23
ATOM     23  C   UNL A   1      35.574  32.249  27.997  1.00  0.00     0.275 C 
BRANCH  23  24
ATOM     24  O   UNL A   1      36.125  31.822  29.257  1.00  0.00    -0.458 OA
BRANCH  24  25
ATOM     25  C   UNL A   1      36.362  30.492  29.364  1.00  0.00     0.338 C 
ATOM     26  O   UNL A   1      35.555  29.612  29.602  1.00  0.00    -0.246 OA
BRANCH  25  27
ATOM     27  C   UNL A   1      37.783  30.230  29.095  1.00  0.00     0.060 A 
ATOM     28  C   UNL A   1      38.147  29.781  27.829  1.00  0.00     0.016 A 
ATOM     29  C   UNL A   1      38.735  30.318  30.109  1.00  0.00     0.016 A 
ATOM     30  C   UNL A   1      39.459  29.401  27.563  1.00  0.00     0.010 A 
ATOM     31  C   UNL A   1      40.063  29.962  29.838  1.00  0.00     0.010 A 
ATOM     32  C   UNL A   1      40.432  29.486  28.566  1.00  0.00    -0.014 A 
BRANCH  32  33
ATOM     33  C   UNL A   1      41.817  29.030  28.279  1.00  0.00     0.031 A 
ATOM     34  C   UNL A   1      42.957  30.012  28.315  1.00  0.00     0.074 A 
ATOM     35  C   UNL A   1      42.055  27.727  28.035  1.00  0.00     0.049 A 
ATOM     36  N   UNL A   1      44.219  29.823  28.025  1.00  0.00    -0.248 NA
ATOM     37  C   UNL A   1      42.637  31.386  28.733  1.00  0.00     0.031 C 
ATOM     38  C   UNL A   1      41.038  26.672  28.014  1.00  0.00     0.029 A 
ATOM     39  N   UNL A   1      43.225  27.063  27.762  1.00  0.00    -0.354 N 
ATOM     40  C   UNL A   1      44.840  31.055  28.203  1.00  0.00     0.074 A 
ATOM     41  C   UNL A   1      43.812  31.989  28.609  1.00  0.00     0.031 C 
ATOM     42  C   UNL A   1      41.630  25.495  27.758  1.00  0.00     0.029 A 
ATOM     43  C   UNL A   1      43.057  25.716  27.543  1.00  0.00     0.049 A 
ATOM     44  H   UNL A   1      44.102  27.509  27.728  1.00  0.00     0.167 HD
ATOM     45  C   UNL A   1      46.148  31.372  28.047  1.00  0.00     0.037 A 
ATOM     46  C   UNL A   1      43.945  24.771  27.180  1.00  0.00     0.037 A 
ATOM     47  C   UNL A   1      47.170  30.430  27.666  1.00  0.00     0.049 A 
ATOM     48  C   UNL A   1      45.383  25.161  26.974  1.00  0.00     0.074 A 
ATOM     49  C   UNL A   1      48.523  30.655  27.478  1.00  0.00     0.029 A 
ATOM     50  N   UNL A   1      46.955  29.080  27.428  1.00  0.00    -0.354 N 
ATOM     51  N   UNL A   1      45.947  26.336  27.115  1.00  0.00    -0.248 NA
ATOM     52  C   UNL A   1      46.306  24.096  26.553  1.00  0.00     0.031 C 
ATOM     53  C   UNL A   1      49.121  29.450  27.094  1.00  0.00     0.029 A 
ATOM     54  C   UNL A   1      48.147  28.464  27.083  1.00  0.00     0.049 A 
ATOM     55  H   UNL A   1      46.084  28.627  27.493  1.00  0.00     0.167 HD
ATOM     56  C   UNL A   1      47.292  26.151  26.811  1.00  0.00     0.074 A 
ATOM     57  C   UNL A   1      47.461  24.746  26.504  1.00  0.00     0.031 C 
ATOM     58  C   UNL A   1      48.295  27.062  26.781  1.00  0.00     0.037 A 
BRANCH  45  59
ATOM     59  C   UNL A   1      46.553  32.803  28.267  1.00  0.00     0.058 A 
ATOM     60  C   UNL A   1      46.492  33.755  27.237  1.00  0.00     0.135 A 
ATOM     61  C   UNL A   1      46.953  33.240  29.540  1.00  0.00     0.135 A 
ATOM     62  F   UNL A   1      46.133  33.388  25.998  1.00  0.00    -0.206 F 
ATOM     63  C   UNL A   1      46.826  35.089  27.460  1.00  0.00     0.059 A 
ATOM     64  C   UNL A   1      47.270  34.573  29.791  1.00  0.00     0.059 A 
ATOM     65  F   UNL A   1      47.030  32.371  30.560  1.00  0.00    -0.206 F 
ATOM     66  C   UNL A   1      47.210  35.488  28.741  1.00  0.00     0.060 A 
BRANCH  66  67
ATOM     67  S   UNL A   1      47.610  37.227  29.020  1.00  0.00     0.124 S 
ATOM     68  O   UNL A   1      49.031  37.258  28.686  1.00  0.00    -0.237 OA
ATOM     69  O   UNL A   1      46.724  37.908  28.083  1.00  0.00    -0.237 OA
ATOM     70  O   UNL A   1      47.295  37.427  30.432  1.00  0.00    -0.744 OA
ENDBRANCH  66  67
ENDBRANCH  45  59
BRANCH  46  71
ATOM     71  C   UNL A   1      43.496  23.371  26.947  1.00  0.00     0.058 A 
ATOM     72  C   UNL A   1      43.313  22.871  25.649  1.00  0.00     0.135 A 
ATOM     73  C   UNL A   1      43.225  22.512  28.023  1.00  0.00     0.135 A 
ATOM     74  F   UNL A   1      43.548  23.658  24.588  1.00  0.00    -0.206 F 
ATOM     75  C   UNL A   1      42.855  21.576  25.427  1.00  0.00     0.059 A 
ATOM     76  C   UNL A   1      42.794  21.204  27.825  1.00  0.00     0.059 A 
ATOM     77  F   UNL A   1      43.395  22.938  29.285  1.00  0.00    -0.206 F 
ATOM     78  C   UNL A   1      42.596  20.751  26.522  1.00  0.00     0.060 A 
BRANCH  78  79
ATOM     79  S   UNL A   1      42.028  19.062  26.229  1.00  0.00     0.124 S 
ATOM     80  O   UNL A   1      42.931  18.630  25.169  1.00  0.00    -0.237 OA
ATOM     81  O   UNL A   1      42.227  18.436  27.532  1.00  0.00    -0.237 OA
ATOM     82  O   UNL A   1      40.633  19.242  25.837  1.00  0.00    -0.744 OA
ENDBRANCH  78  79
ENDBRANCH  46  71
BRANCH  58  83
ATOM     83  C   UNL A   1      49.665  26.557  26.424  1.00  0.00     0.058 A 
ATOM     84  C   UNL A   1      50.152  26.625  25.110  1.00  0.00     0.135 A 
ATOM     85  C   UNL A   1      50.504  26.013  27.409  1.00  0.00     0.135 A 
ATOM     86  F   UNL A   1      49.387  27.130  24.129  1.00  0.00    -0.206 F 
ATOM     87  C   UNL A   1      51.412  26.137  24.777  1.00  0.00     0.059 A 
ATOM     88  C   UNL A   1      51.777  25.542  27.103  1.00  0.00     0.059 A 
ATOM     89  F   UNL A   1      50.089  25.936  28.684  1.00  0.00    -0.206 F 
ATOM     90  C   UNL A   1      52.216  25.592  25.781  1.00  0.00     0.060 A 
BRANCH  90  91
ATOM     91  S   UNL A   1      53.850  24.966  25.341  1.00  0.00     0.124 S 
ATOM     92  O   UNL A   1      54.620  25.294  26.536  1.00  0.00    -0.237 OA
ATOM     93  O   UNL A   1      53.597  23.546  25.121  1.00  0.00    -0.237 OA
ATOM     94  O   UNL A   1      54.194  25.728  24.145  1.00  0.00    -0.744 OA
ENDBRANCH  90  91
ENDBRANCH  58  83
ENDBRANCH  32  33
ENDBRANCH  25  27
ENDBRANCH  24  25
ENDBRANCH  23  24
ENDBRANCH   1  23
TORSDOF 20
ENDMDL
MODEL 2
REMARK VINA RESULT:     -10.6      0.895      3.025
REMARK SMILES C[C@H](/N=C(\Cc1ccccc1)C(=O)OC(C)(C)C)C(=O)OCCOC(=O)c1ccc(-c2c3nc(c(-c4c(F)cc(S(=O)(=O)[O-])cc4F)c4ccc([nH]4)c(-c4c(F)cc(S(=O)(=O)[O-])cc4F)c4nc(c(-c5c(F)cc(S(=O)(=O)[O-])cc5F)c5ccc2[nH]5)C=C4)C=C3)cc1
REMARK SMILES IDX 22 1 21 2 19 3 20 4 2 5 1 6 3 7 4 8 5 9 6 10 7 11 11 12 8 13
REMARK SMILES IDX 10 14 9 15 12 16 13 17 14 18 15 19 16 20 17 21 18 22 23 23
REMARK SMILES IDX 24 24 25 25 26 26 27 27 28 28 92 29 29 30 91 31 30 32 31 33
REMARK SMILES IDX 32 34 85 35 33 36 90 37 84 38 86 39 34 40 89 41 83 42 82 43
REMARK SMILES IDX 35 45 69 46 48 47 68 48 49 49 52 50 67 51 87 52 50 53 51 54
REMARK SMILES IDX 66 56 88 57 53 58 36 59 37 60 46 61 38 62 39 63 45 64 47 65
REMARK SMILES IDX 40 66 41 67 42 68 43 69 44 70 70 71 71 72 80 73 72 74 73 75
REMARK SMILES IDX 79 76 81 77 74 78 75 79 76 80 77 81 78 82 54 83 55 84 64 85
REMARK SMILES IDX 56 86 57 87 63 88 65 89 58 90 59 91 60 92 61 93 62 94
REMARK H PARENT 86 44 52 55
REMARK Flexibility Score: inf
ROOT
ATOM      1  C   UNL A   1      33.782  31.630  27.301  1.00  0.00     0.274 C 
ENDROOT
BRANCH   1   2
ATOM      2  O   UNL A   1      33.081  30.373  27.363  1.00  0.00    -0.460 OA
BRANCH   2   3
ATOM      3  C   UNL A   1      31.999  30.246  26.544  1.00  0.00     0.330 C 
ATOM      4  O   UNL A   1      31.432  31.187  25.997  1.00  0.00    -0.250 OA
BRANCH   3   5
ATOM      5  C   UNL A   1      31.550  28.793  26.361  1.00  0.00     0.212 C 
ATOM      6  C   UNL A   1      31.279  28.099  27.681  1.00  0.00     0.046 C 
BRANCH   5   7
ATOM      7  N   UNL A   1      32.357  28.068  25.370  1.00  0.00    -0.267 NA
ATOM      8  C   UNL A   1      31.971  27.237  24.470  1.00  0.00     0.125 C 
BRANCH   8   9
ATOM      9  C   UNL A   1      30.545  26.865  24.138  1.00  0.00     0.099 C 
BRANCH   9  10
ATOM     10  C   UNL A   1      29.779  27.945  23.391  1.00  0.00    -0.042 A 
ATOM     11  C   UNL A   1      28.381  27.972  23.492  1.00  0.00     0.004 A 
ATOM     12  C   UNL A   1      30.404  28.909  22.578  1.00  0.00     0.004 A 
ATOM     13  C   UNL A   1      27.632  28.928  22.800  1.00  0.00     0.000 A 
ATOM     14  C   UNL A   1      29.654  29.856  21.879  1.00  0.00     0.000 A 
ATOM     15  C   UNL A   1      28.268  29.865  21.989  1.00  0.00     0.000 A 
ENDBRANCH   9  10
ENDBRANCH   8   9
BRANCH   8  16
ATOM     16  C   UNL A   1      33.066  26.616  23.566  1.00  0.00     0.353 C 
ATOM     17  O   UNL A   1      33.991  27.250  23.100  1.00  0.00    -0.245 OA
BRANCH  16  18
ATOM     18  O   UNL A   1      32.775  25.321  23.330  1.00  0.00    -0.455 OA
BRANCH  18  19
ATOM     19  C   UNL A   1      33.491  24.252  23.992  1.00  0.00     0.104 C 
ATOM     20  C   UNL A   1      34.578  23.668  23.083  1.00  0.00     0.056 C 
ATOM     21  C   UNL A   1      34.051  24.705  25.342  1.00  0.00     0.056 C 
ATOM     22  C   UNL A   1      32.422  23.174  24.231  1.00  0.00     0.056 C 
ENDBRANCH  18  19
ENDBRANCH  16  18
ENDBRANCH   8  16
ENDBRANCH   5   7
ENDBRANCH   3   5
ENDBRANCH   2   3
ENDBRANCH   1   2
BRANCH   1  23
ATOM     23  C   UNL A   1      34.690  31.801  28.519  1.00  0.00     0.275 C 
BRANCH  23  24
ATOM     24  O   UNL A   1      35.692  30.768  28.548  1.00  0.00    -0.458 OA
BRANCH  24  25
ATOM     25  C   UNL A   1      36.366  30.647  29.716  1.00  0.00     0.338 C 
ATOM     26  O   UNL A   1      35.912  30.707  30.844  1.00  0.00    -0.246 OA
BRANCH  25  27
ATOM     27  C   UNL A   1      37.783  30.374  29.433  1.00  0.00     0.060 A 
ATOM     28  C   UNL A   1      38.150  30.063  28.126  1.00  0.00     0.016 A 
ATOM     29  C   UNL A   1      38.723  30.314  30.459  1.00  0.00     0.016 A 
ATOM     30  C   UNL A   1      39.453  29.676  27.831  1.00  0.00     0.010 A 
ATOM     31  C   UNL A   1      40.044  29.950  30.161  1.00  0.00     0.010 A 
ATOM     32  C   UNL A   1      40.415  29.614  28.846  1.00  0.00    -0.014 A 
BRANCH  32  33
ATOM     33  C   UNL A   1      41.790  29.151  28.521  1.00  0.00     0.031 A 
ATOM     34  C   UNL A   1      42.939  30.122  28.553  1.00  0.00     0.074 A 
ATOM     35  C   UNL A   1      42.010  27.851  28.246  1.00  0.00     0.049 A 
ATOM     36  N   UNL A   1      44.193  29.928  28.233  1.00  0.00    -0.248 NA
ATOM     37  C   UNL A   1      42.640  31.490  29.005  1.00  0.00     0.031 C 
ATOM     38  C   UNL A   1      40.983  26.806  28.225  1.00  0.00     0.029 A 
ATOM     39  N   UNL A   1      43.168  27.183  27.936  1.00  0.00    -0.354 N 
ATOM     40  C   UNL A   1      44.829  31.150  28.422  1.00  0.00     0.074 A 
ATOM     41  C   UNL A   1      43.819  32.084  28.868  1.00  0.00     0.031 C 
ATOM     42  C   UNL A   1      41.559  25.629  27.934  1.00  0.00     0.029 A 
ATOM     43  C   UNL A   1      42.983  25.841  27.693  1.00  0.00     0.049 A 
ATOM     44  H   UNL A   1      44.048  27.621  27.892  1.00  0.00     0.167 HD
ATOM     45  C   UNL A   1      46.136  31.459  28.245  1.00  0.00     0.037 A 
ATOM     46  C   UNL A   1      43.854  24.896  27.292  1.00  0.00     0.037 A 
ATOM     47  C   UNL A   1      47.142  30.515  27.824  1.00  0.00     0.049 A 
ATOM     48  C   UNL A   1      45.291  25.277  27.065  1.00  0.00     0.074 A 
ATOM     49  C   UNL A   1      48.493  30.732  27.613  1.00  0.00     0.029 A 
ATOM     50  N   UNL A   1      46.909  29.172  27.564  1.00  0.00    -0.354 N 
ATOM     51  N   UNL A   1      45.869  26.444  27.217  1.00  0.00    -0.248 NA
ATOM     52  C   UNL A   1      46.195  24.213  26.604  1.00  0.00     0.031 C 
ATOM     53  C   UNL A   1      49.070  29.529  27.193  1.00  0.00     0.029 A 
ATOM     54  C   UNL A   1      48.088  28.552  27.182  1.00  0.00     0.049 A 
ATOM     55  H   UNL A   1      46.035  28.726  27.638  1.00  0.00     0.167 HD
ATOM     56  C   UNL A   1      47.205  26.253  26.882  1.00  0.00     0.074 A 
ATOM     57  C   UNL A   1      47.354  24.853  26.543  1.00  0.00     0.031 C 
ATOM     58  C   UNL A   1      48.216  27.156  26.849  1.00  0.00     0.037 A 
BRANCH  45  59
ATOM     59  C   UNL A   1      46.559  32.881  28.485  1.00  0.00     0.058 A 
ATOM     60  C   UNL A   1      47.146  33.282  29.695  1.00  0.00     0.135 A 
ATOM     61  C   UNL A   1      46.426  33.843  27.470  1.00  0.00     0.135 A 
ATOM     62  F   UNL A   1      47.280  32.409  30.704  1.00  0.00    -0.206 F 
ATOM     63  C   UNL A   1      47.577  34.592  29.895  1.00  0.00     0.059 A 
ATOM     64  C   UNL A   1      46.871  35.152  27.640  1.00  0.00     0.059 A 
ATOM     65  F   UNL A   1      45.870  33.513  26.295  1.00  0.00    -0.206 F 
ATOM     66  C   UNL A   1      47.438  35.518  28.859  1.00  0.00     0.060 A 
BRANCH  66  67
ATOM     67  S   UNL A   1      48.029  37.204  29.123  1.00  0.00     0.124 S 
ATOM     68  O   UNL A   1      49.466  37.044  28.920  1.00  0.00    -0.237 OA
ATOM     69  O   UNL A   1      47.323  37.950  28.087  1.00  0.00    -0.237 OA
ATOM     70  O   UNL A   1      47.619  37.500  30.492  1.00  0.00    -0.744 OA
ENDBRANCH  66  67
ENDBRANCH  45  59
BRANCH  46  71
ATOM     71  C   UNL A   1      43.387  23.506  27.041  1.00  0.00     0.058 A 
ATOM     72  C   UNL A   1      43.082  22.637  28.099  1.00  0.00     0.135 A 
ATOM     73  C   UNL A   1      43.252  23.015  25.733  1.00  0.00     0.135 A 
ATOM     74  F   UNL A   1      43.205  23.056  29.368  1.00  0.00    -0.206 F 
ATOM     75  C   UNL A   1      42.682  21.324  27.870  1.00  0.00     0.059 A 
ATOM     76  C   UNL A   1      42.827  21.715  25.479  1.00  0.00     0.059 A 
ATOM     77  F   UNL A   1      43.520  23.809  24.685  1.00  0.00    -0.206 F 
ATOM     78  C   UNL A   1      42.561  20.872  26.555  1.00  0.00     0.060 A 
BRANCH  78  79
ATOM     79  S   UNL A   1      42.016  19.175  26.262  1.00  0.00     0.124 S 
ATOM     80  O   UNL A   1      40.631  19.379  25.856  1.00  0.00    -0.237 OA
ATOM     81  O   UNL A   1      42.930  18.732  25.213  1.00  0.00    -0.237 OA
ATOM     82  O   UNL A   1      42.208  18.533  27.559  1.00  0.00    -0.744 OA
ENDBRANCH  78  79
ENDBRANCH  46  71
BRANCH  58  83
ATOM     83  C   UNL A   1      49.573  26.645  26.453  1.00  0.00     0.058 A 
ATOM     84  C   UNL A   1      50.419  26.015  27.380  1.00  0.00     0.135 A 
ATOM     85  C   UNL A   1      50.026  26.772  25.131  1.00  0.00     0.135 A 
ATOM     86  F   UNL A   1      50.035  25.875  28.659  1.00  0.00    -0.206 F 
ATOM     87  C   UNL A   1      51.683  25.562  27.017  1.00  0.00     0.059 A 
ATOM     88  C   UNL A   1      51.276  26.303  24.740  1.00  0.00     0.059 A 
ATOM     89  F   UNL A   1      49.251  27.356  24.203  1.00  0.00    -0.206 F 
ATOM     90  C   UNL A   1      52.106  25.715  25.695  1.00  0.00     0.060 A 
BRANCH  90  91
ATOM     91  S   UNL A   1      53.745  25.119  25.232  1.00  0.00     0.124 S 
ATOM     92  O   UNL A   1      53.587  23.677  25.387  1.00  0.00    -0.237 OA
ATOM     93  O   UNL A   1      53.880  25.598  23.860  1.00  0.00    -0.237 OA
ATOM     94  O   UNL A   1      54.625  25.762  26.202  1.00  0.00    -0.744 OA
ENDBRANCH  90  91
ENDBRANCH  58  83
ENDBRANCH  32  33
ENDBRANCH  25  27
ENDBRANCH  24  25
ENDBRANCH  23  24
ENDBRANCH   1  23
TORSDOF 20
ENDMDL
MODEL 3
REMARK VINA RESULT:     -10.3      1.210      2.556
REMARK SMILES C[C@H](/N=C(\Cc1ccccc1)C(=O)OC(C)(C)C)C(=O)OCCOC(=O)c1ccc(-c2c3nc(c(-c4c(F)cc(S(=O)(=O)[O-])cc4F)c4ccc([nH]4)c(-c4c(F)cc(S(=O)(=O)[O-])cc4F)c4nc(c(-c5c(F)cc(S(=O)(=O)[O-])cc5F)c5ccc2[nH]5)C=C4)C=C3)cc1
REMARK SMILES IDX 22 1 21 2 19 3 20 4 2 5 1 6 3 7 4 8 5 9 6 10 7 11 11 12 8 13
REMARK SMILES IDX 10 14 9 15 12 16 13 17 14 18 15 19 16 20 17 21 18 22 23 23
REMARK SMILES IDX 24 24 25 25 26 26 27 27 28 28 92 29 29 30 91 31 30 32 31 33
REMARK SMILES IDX 32 34 85 35 33 36 90 37 84 38 86 39 34 40 89 41 83 42 82 43
REMARK SMILES IDX 35 45 69 46 48 47 68 48 49 49 52 50 67 51 87 52 50 53 51 54
REMARK SMILES IDX 66 56 88 57 53 58 36 59 37 60 46 61 38 62 39 63 45 64 47 65
REMARK SMILES IDX 40 66 41 67 42 68 43 69 44 70 70 71 71 72 80 73 72 74 73 75
REMARK SMILES IDX 79 76 81 77 74 78 75 79 76 80 77 81 78 82 54 83 55 84 64 85
REMARK SMILES IDX 56 86 57 87 63 88 65 89 58 90 59 91 60 92 61 93 62 94
REMARK H PARENT 86 44 52 55
REMARK Flexibility Score: inf
ROOT
ATOM      1  C   UNL A   1      33.192  30.136  27.371  1.00  0.00     0.274 C 
ENDROOT
BRANCH   1   2
ATOM      2  O   UNL A   1      33.254  30.062  25.934  1.00  0.00    -0.460 OA
BRANCH   2   3
ATOM      3  C   UNL A   1      32.059  29.964  25.285  1.00  0.00     0.330 C 
ATOM      4  O   UNL A   1      31.142  30.770  25.400  1.00  0.00    -0.250 OA
BRANCH   3   5
ATOM      5  C   UNL A   1      31.968  28.734  24.376  1.00  0.00     0.212 C 
ATOM      6  C   UNL A   1      31.471  29.078  22.985  1.00  0.00     0.046 C 
BRANCH   5   7
ATOM      7  N   UNL A   1      31.360  27.576  25.043  1.00  0.00    -0.267 NA
ATOM      8  C   UNL A   1      31.938  26.594  25.637  1.00  0.00     0.125 C 
BRANCH   8   9
ATOM      9  C   UNL A   1      33.419  26.436  25.885  1.00  0.00     0.099 C 
BRANCH   9  10
ATOM     10  C   UNL A   1      34.079  25.358  25.040  1.00  0.00    -0.042 A 
ATOM     11  C   UNL A   1      35.035  24.525  25.637  1.00  0.00     0.004 A 
ATOM     12  C   UNL A   1      33.795  25.170  23.675  1.00  0.00     0.004 A 
ATOM     13  C   UNL A   1      35.690  23.540  24.893  1.00  0.00     0.000 A 
ATOM     14  C   UNL A   1      34.456  24.192  22.931  1.00  0.00     0.000 A 
ATOM     15  C   UNL A   1      35.405  23.378  23.539  1.00  0.00     0.000 A 
ENDBRANCH   9  10
ENDBRANCH   8   9
BRANCH   8  16
ATOM     16  C   UNL A   1      31.024  25.500  26.246  1.00  0.00     0.353 C 
ATOM     17  O   UNL A   1      29.825  25.631  26.390  1.00  0.00    -0.245 OA
BRANCH  16  18
ATOM     18  O   UNL A   1      31.776  24.456  26.648  1.00  0.00    -0.455 OA
BRANCH  18  19
ATOM     19  C   UNL A   1      31.368  23.090  26.400  1.00  0.00     0.104 C 
ATOM     20  C   UNL A   1      30.004  22.796  27.033  1.00  0.00     0.056 C 
ATOM     21  C   UNL A   1      31.392  22.760  24.906  1.00  0.00     0.056 C 
ATOM     22  C   UNL A   1      32.432  22.243  27.116  1.00  0.00     0.056 C 
ENDBRANCH  18  19
ENDBRANCH  16  18
ENDBRANCH   8  16
ENDBRANCH   5   7
ENDBRANCH   3   5
ENDBRANCH   2   3
ENDBRANCH   1   2
BRANCH   1  23
ATOM     23  C   UNL A   1      34.165  31.191  27.897  1.00  0.00     0.275 C 
BRANCH  23  24
ATOM     24  O   UNL A   1      35.519  30.705  27.829  1.00  0.00    -0.458 OA
BRANCH  24  25
ATOM     25  C   UNL A   1      36.265  30.910  28.941  1.00  0.00     0.338 C 
ATOM     26  O   UNL A   1      35.923  31.462  29.971  1.00  0.00    -0.246 OA
BRANCH  25  27
ATOM     27  C   UNL A   1      37.592  30.307  28.752  1.00  0.00     0.060 A 
ATOM     28  C   UNL A   1      38.543  30.469  29.755  1.00  0.00     0.016 A 
ATOM     29  C   UNL A   1      37.935  29.684  27.553  1.00  0.00     0.016 A 
ATOM     30  C   UNL A   1      39.849  30.025  29.571  1.00  0.00     0.010 A 
ATOM     31  C   UNL A   1      39.243  29.212  27.374  1.00  0.00     0.010 A 
ATOM     32  C   UNL A   1      40.214  29.392  28.376  1.00  0.00    -0.014 A 
BRANCH  32  33
ATOM     33  C   UNL A   1      41.624  28.968  28.177  1.00  0.00     0.031 A 
ATOM     34  C   UNL A   1      42.736  29.976  28.284  1.00  0.00     0.074 A 
ATOM     35  C   UNL A   1      41.907  27.671  27.950  1.00  0.00     0.049 A 
ATOM     36  N   UNL A   1      44.018  29.817  28.074  1.00  0.00    -0.248 NA
ATOM     37  C   UNL A   1      42.358  31.343  28.679  1.00  0.00     0.031 C 
ATOM     38  C   UNL A   1      40.919  26.592  27.867  1.00  0.00     0.029 A 
ATOM     39  N   UNL A   1      43.107  27.035  27.753  1.00  0.00    -0.354 N 
ATOM     40  C   UNL A   1      44.598  31.063  28.289  1.00  0.00     0.074 A 
ATOM     41  C   UNL A   1      43.525  31.972  28.629  1.00  0.00     0.031 C 
ATOM     42  C   UNL A   1      41.553  25.430  27.650  1.00  0.00     0.029 A 
ATOM     43  C   UNL A   1      42.985  25.684  27.525  1.00  0.00     0.049 A 
ATOM     44  H   UNL A   1      43.974  27.501  27.774  1.00  0.00     0.167 HD
ATOM     45  C   UNL A   1      45.905  31.411  28.216  1.00  0.00     0.037 A 
ATOM     46  C   UNL A   1      43.915  24.760  27.220  1.00  0.00     0.037 A 
ATOM     47  C   UNL A   1      46.971  30.492  27.902  1.00  0.00     0.049 A 
ATOM     48  C   UNL A   1      45.355  25.183  27.105  1.00  0.00     0.074 A 
ATOM     49  C   UNL A   1      48.328  30.750  27.799  1.00  0.00     0.029 A 
ATOM     50  N   UNL A   1      46.803  29.138  27.652  1.00  0.00    -0.354 N 
ATOM     51  N   UNL A   1      45.881  26.372  27.279  1.00  0.00    -0.248 NA
ATOM     52  C   UNL A   1      46.327  24.141  26.744  1.00  0.00     0.031 C 
ATOM     53  C   UNL A   1      48.976  29.558  27.455  1.00  0.00     0.029 A 
ATOM     54  C   UNL A   1      48.029  28.550  27.384  1.00  0.00     0.049 A 
ATOM     55  H   UNL A   1      45.940  28.665  27.663  1.00  0.00     0.167 HD
ATOM     56  C   UNL A   1      47.246  26.218  27.061  1.00  0.00     0.074 A 
ATOM     57  C   UNL A   1      47.467  24.817  26.767  1.00  0.00     0.031 C 
ATOM     58  C   UNL A   1      48.228  27.152  27.093  1.00  0.00     0.037 A 
BRANCH  45  59
ATOM     59  C   UNL A   1      46.262  32.851  28.459  1.00  0.00     0.058 A 
ATOM     60  C   UNL A   1      46.120  33.826  27.460  1.00  0.00     0.135 A 
ATOM     61  C   UNL A   1      46.698  33.270  29.727  1.00  0.00     0.135 A 
ATOM     62  F   UNL A   1      45.724  33.478  26.227  1.00  0.00    -0.206 F 
ATOM     63  C   UNL A   1      46.409  35.166  27.706  1.00  0.00     0.059 A 
ATOM     64  C   UNL A   1      46.972  34.608  30.002  1.00  0.00     0.059 A 
ATOM     65  F   UNL A   1      46.853  32.378  30.718  1.00  0.00    -0.206 F 
ATOM     66  C   UNL A   1      46.832  35.547  28.981  1.00  0.00     0.060 A 
BRANCH  66  67
ATOM     67  S   UNL A   1      47.174  37.293  29.293  1.00  0.00     0.124 S 
ATOM     68  O   UNL A   1      46.093  37.643  30.209  1.00  0.00    -0.237 OA
ATOM     69  O   UNL A   1      48.510  37.252  29.877  1.00  0.00    -0.237 OA
ATOM     70  O   UNL A   1      47.092  37.898  27.967  1.00  0.00    -0.744 OA
ENDBRANCH  66  67
ENDBRANCH  45  59
BRANCH  46  71
ATOM     71  C   UNL A   1      43.515  23.350  26.960  1.00  0.00     0.058 A 
ATOM     72  C   UNL A   1      43.595  22.795  25.675  1.00  0.00     0.135 A 
ATOM     73  C   UNL A   1      43.027  22.537  27.995  1.00  0.00     0.135 A 
ATOM     74  F   UNL A   1      44.044  23.536  24.651  1.00  0.00    -0.206 F 
ATOM     75  C   UNL A   1      43.184  21.490  25.420  1.00  0.00     0.059 A 
ATOM     76  C   UNL A   1      42.638  21.221  27.770  1.00  0.00     0.059 A 
ATOM     77  F   UNL A   1      42.942  23.017  29.246  1.00  0.00    -0.206 F 
ATOM     78  C   UNL A   1      42.704  20.712  26.475  1.00  0.00     0.060 A 
BRANCH  78  79
ATOM     79  S   UNL A   1      42.198  19.010  26.145  1.00  0.00     0.124 S 
ATOM     80  O   UNL A   1      43.065  18.659  25.026  1.00  0.00    -0.237 OA
ATOM     81  O   UNL A   1      42.490  18.347  27.412  1.00  0.00    -0.237 OA
ATOM     82  O   UNL A   1      40.778  19.139  25.829  1.00  0.00    -0.744 OA
ENDBRANCH  78  79
ENDBRANCH  46  71
BRANCH  58  83
ATOM     83  C   UNL A   1      49.628  26.679  26.824  1.00  0.00     0.058 A 
ATOM     84  C   UNL A   1      50.194  26.752  25.541  1.00  0.00     0.135 A 
ATOM     85  C   UNL A   1      50.419  26.162  27.862  1.00  0.00     0.135 A 
ATOM     86  F   UNL A   1      49.477  27.232  24.513  1.00  0.00    -0.206 F 
ATOM     87  C   UNL A   1      51.483  26.293  25.290  1.00  0.00     0.059 A 
ATOM     88  C   UNL A   1      51.719  25.721  27.638  1.00  0.00     0.059 A 
ATOM     89  F   UNL A   1      49.929  26.081  29.110  1.00  0.00    -0.206 F 
ATOM     90  C   UNL A   1      52.237  25.774  26.344  1.00  0.00     0.060 A 
BRANCH  90  91
ATOM     91  S   UNL A   1      53.910  25.187  26.009  1.00  0.00     0.124 S 
ATOM     92  O   UNL A   1      54.384  26.182  25.053  1.00  0.00    -0.237 OA
ATOM     93  O   UNL A   1      54.531  25.231  27.329  1.00  0.00    -0.237 OA
ATOM     94  O   UNL A   1      53.697  23.848  25.469  1.00  0.00    -0.744 OA
ENDBRANCH  90  91
ENDBRANCH  58  83
ENDBRANCH  32  33
ENDBRANCH  25  27
ENDBRANCH  24  25
ENDBRANCH  23  24
ENDBRANCH   1  23
TORSDOF 20
ENDMDL
