MODEL 1
REMARK VINA RESULT:     -10.7      0.000      0.000
REMARK SMILES C[NH+](C)Cc1noc(C[C@@](C)(C(=O)OCCOC(=O)c2ccc(-c3c4nc(c(-c5c(F)cc(S(=O)(=O)[O-])cc5F)c5ccc([nH]5)c(-c5c(F)cc(S(=O)(=O)[O-])cc5F)c5nc(c(-c6c(F)cc(S(=O)(=O)[O-])cc6F)c6ccc3[nH]6)C=C5)C=C4)cc2)c2ccccc2)n1
REMARK SMILES IDX 15 1 14 2 12 3 13 4 10 5 11 6 9 7 8 8 5 9 6 10 92 11 7 12
REMARK SMILES IDX 4 13 2 14 1 15 3 16 86 18 87 19 91 20 88 21 90 22 89 23
REMARK SMILES IDX 16 24 17 25 18 26 19 27 20 28 21 29 85 30 22 31 84 32 23 33
REMARK SMILES IDX 24 34 25 35 78 36 26 37 83 38 77 39 79 40 27 41 82 42 76 43
REMARK SMILES IDX 75 44 28 46 62 47 41 48 61 49 42 50 45 51 60 52 80 53 43 54
REMARK SMILES IDX 44 55 59 57 81 58 46 59 29 60 30 61 39 62 31 63 32 64 38 65
REMARK SMILES IDX 40 66 33 67 34 68 35 69 36 70 37 71 63 72 64 73 73 74 65 75
REMARK SMILES IDX 66 76 72 77 74 78 67 79 68 80 69 81 70 82 71 83 47 84 48 85
REMARK SMILES IDX 57 86 49 87 50 88 56 89 58 90 51 91 52 92 53 93 54 94 55 95
REMARK H PARENT 2 17 79 45 45 56
REMARK Flexibility Score: inf
ROOT
ATOM      1  C   UNL A   1      35.253  23.600  24.391  1.00  0.00     0.274 C 
ENDROOT
BRANCH   1   2
ATOM      2  O   UNL A   1      34.163  24.529  24.605  1.00  0.00    -0.461 OA
BRANCH   2   3
ATOM      3  C   UNL A   1      33.614  25.144  23.512  1.00  0.00     0.316 C 
ATOM      4  O   UNL A   1      34.126  25.109  22.399  1.00  0.00    -0.251 OA
BRANCH   3   5
ATOM      5  C   UNL A   1      32.365  25.998  23.892  1.00  0.00     0.099 C 
ATOM      6  C   UNL A   1      31.291  24.920  24.171  1.00  0.00     0.029 C 
BRANCH   5   7
ATOM      7  C   UNL A   1      31.983  26.877  22.661  1.00  0.00     0.123 C 
BRANCH   7   8
ATOM      8  C   UNL A   1      30.880  27.844  22.879  1.00  0.00     0.228 A 
ATOM      9  C   UNL A   1      29.612  29.465  23.276  1.00  0.00     0.226 A 
ATOM     10  N   UNL A   1      28.763  28.437  23.112  1.00  0.00    -0.056 NA
ATOM     11  N   UNL A   1      30.934  29.137  23.093  1.00  0.00    -0.190 NA
ATOM     12  O   UNL A   1      29.607  27.354  22.861  1.00  0.00    -0.339 OA
BRANCH   9  13
ATOM     13  C   UNL A   1      29.182  30.880  23.537  1.00  0.00     0.344 C 
BRANCH  13  14
ATOM     14  N   UNL A   1      29.272  31.828  22.405  1.00  0.00    -0.333 N 
ATOM     15  C   UNL A   1      28.547  31.394  21.218  1.00  0.00     0.332 C 
ATOM     16  C   UNL A   1      28.926  33.195  22.778  1.00  0.00     0.332 C 
ATOM     17  H   UNL A   1      30.260  31.829  22.149  1.00  0.00     0.348 HD
ENDBRANCH  13  14
ENDBRANCH   9  13
ENDBRANCH   7   8
ENDBRANCH   5   7
BRANCH   5  18
ATOM     18  C   UNL A   1      32.574  26.892  25.145  1.00  0.00    -0.030 A 
ATOM     19  C   UNL A   1      31.631  26.923  26.193  1.00  0.00     0.005 A 
ATOM     20  C   UNL A   1      33.662  27.764  25.268  1.00  0.00     0.005 A 
ATOM     21  C   UNL A   1      31.750  27.813  27.268  1.00  0.00     0.000 A 
ATOM     22  C   UNL A   1      33.794  28.643  26.351  1.00  0.00     0.000 A 
ATOM     23  C   UNL A   1      32.830  28.680  27.344  1.00  0.00     0.000 A 
ENDBRANCH   5  18
ENDBRANCH   3   5
ENDBRANCH   2   3
ENDBRANCH   1   2
BRANCH   1  24
ATOM     24  C   UNL A   1      36.235  23.666  25.561  1.00  0.00     0.275 C 
BRANCH  24  25
ATOM     25  O   UNL A   1      37.556  23.773  25.013  1.00  0.00    -0.458 OA
BRANCH  25  26
ATOM     26  C   UNL A   1      38.570  23.202  25.707  1.00  0.00     0.338 C 
ATOM     27  O   UNL A   1      38.985  22.064  25.576  1.00  0.00    -0.246 OA
BRANCH  26  28
ATOM     28  C   UNL A   1      39.156  24.218  26.621  1.00  0.00     0.060 A 
ATOM     29  C   UNL A   1      38.913  24.146  27.989  1.00  0.00     0.016 A 
ATOM     30  C   UNL A   1      39.871  25.308  26.123  1.00  0.00     0.016 A 
ATOM     31  C   UNL A   1      39.264  25.207  28.825  1.00  0.00     0.010 A 
ATOM     32  C   UNL A   1      40.321  26.320  26.995  1.00  0.00     0.010 A 
ATOM     33  C   UNL A   1      39.977  26.319  28.360  1.00  0.00    -0.014 A 
BRANCH  33  34
ATOM     34  C   UNL A   1      40.273  27.485  29.268  1.00  0.00     0.031 A 
ATOM     35  C   UNL A   1      41.589  27.554  30.017  1.00  0.00     0.074 A 
ATOM     36  C   UNL A   1      39.435  28.540  29.403  1.00  0.00     0.049 A 
ATOM     37  N   UNL A   1      41.918  28.292  31.050  1.00  0.00    -0.248 NA
ATOM     38  C   UNL A   1      42.668  26.664  29.561  1.00  0.00     0.031 C 
ATOM     39  C   UNL A   1      38.155  28.717  28.716  1.00  0.00     0.029 A 
ATOM     40  N   UNL A   1      39.555  29.693  30.149  1.00  0.00    -0.354 N 
ATOM     41  C   UNL A   1      43.186  27.869  31.437  1.00  0.00     0.074 A 
ATOM     42  C   UNL A   1      43.584  26.837  30.504  1.00  0.00     0.031 C 
ATOM     43  C   UNL A   1      37.670  29.940  28.979  1.00  0.00     0.029 A 
ATOM     44  C   UNL A   1      38.515  30.579  29.980  1.00  0.00     0.049 A 
ATOM     45  H   UNL A   1      40.317  29.868  30.749  1.00  0.00     0.167 HD
ATOM     46  C   UNL A   1      43.941  28.292  32.481  1.00  0.00     0.037 A 
ATOM     47  C   UNL A   1      38.219  31.742  30.598  1.00  0.00     0.037 A 
ATOM     48  C   UNL A   1      43.607  29.406  33.332  1.00  0.00     0.049 A 
ATOM     49  C   UNL A   1      39.072  32.211  31.744  1.00  0.00     0.074 A 
ATOM     50  C   UNL A   1      44.298  29.892  34.429  1.00  0.00     0.029 A 
ATOM     51  N   UNL A   1      42.516  30.241  33.149  1.00  0.00    -0.354 N 
ATOM     52  N   UNL A   1      40.169  31.680  32.225  1.00  0.00    -0.248 NA
ATOM     53  C   UNL A   1      38.610  33.404  32.470  1.00  0.00     0.031 C 
ATOM     54  C   UNL A   1      43.619  31.015  34.917  1.00  0.00     0.029 A 
ATOM     55  C   UNL A   1      42.521  31.244  34.105  1.00  0.00     0.049 A 
ATOM     56  H   UNL A   1      41.838  30.136  32.444  1.00  0.00     0.167 HD
ATOM     57  C   UNL A   1      40.516  32.462  33.321  1.00  0.00     0.074 A 
ATOM     58  C   UNL A   1      39.537  33.524  33.411  1.00  0.00     0.031 C 
ATOM     59  C   UNL A   1      41.544  32.298  34.190  1.00  0.00     0.037 A 
BRANCH  46  60
ATOM     60  C   UNL A   1      45.183  27.508  32.807  1.00  0.00     0.058 A 
ATOM     61  C   UNL A   1      46.448  27.856  32.313  1.00  0.00     0.135 A 
ATOM     62  C   UNL A   1      45.096  26.402  33.670  1.00  0.00     0.135 A 
ATOM     63  F   UNL A   1      46.583  28.894  31.473  1.00  0.00    -0.206 F 
ATOM     64  C   UNL A   1      47.582  27.118  32.642  1.00  0.00     0.059 A 
ATOM     65  C   UNL A   1      46.220  25.665  34.032  1.00  0.00     0.059 A 
ATOM     66  F   UNL A   1      43.910  26.029  34.174  1.00  0.00    -0.206 F 
ATOM     67  C   UNL A   1      47.457  26.022  33.499  1.00  0.00     0.060 A 
BRANCH  67  68
ATOM     68  S   UNL A   1      48.932  25.069  33.919  1.00  0.00     0.124 S 
ATOM     69  O   UNL A   1      49.729  25.219  32.705  1.00  0.00    -0.237 OA
ATOM     70  O   UNL A   1      49.436  25.768  35.096  1.00  0.00    -0.237 OA
ATOM     71  O   UNL A   1      48.412  23.727  34.166  1.00  0.00    -0.744 OA
ENDBRANCH  67  68
ENDBRANCH  46  60
BRANCH  47  72
ATOM     72  C   UNL A   1      37.000  32.505  30.207  1.00  0.00     0.058 A 
ATOM     73  C   UNL A   1      35.778  32.300  30.864  1.00  0.00     0.135 A 
ATOM     74  C   UNL A   1      37.037  33.459  29.178  1.00  0.00     0.135 A 
ATOM     75  F   UNL A   1      35.684  31.381  31.836  1.00  0.00    -0.206 F 
ATOM     76  C   UNL A   1      34.637  33.022  30.522  1.00  0.00     0.059 A 
ATOM     77  C   UNL A   1      35.920  34.215  28.841  1.00  0.00     0.059 A 
ATOM     78  F   UNL A   1      38.181  33.693  28.518  1.00  0.00    -0.206 F 
ATOM     79  C   UNL A   1      34.721  33.983  29.514  1.00  0.00     0.060 A 
BRANCH  79  80
ATOM     80  S   UNL A   1      33.267  34.980  29.122  1.00  0.00     0.124 S 
ATOM     81  O   UNL A   1      33.879  36.227  28.677  1.00  0.00    -0.237 OA
ATOM     82  O   UNL A   1      32.610  34.186  28.088  1.00  0.00    -0.237 OA
ATOM     83  O   UNL A   1      32.557  35.042  30.397  1.00  0.00    -0.744 OA
ENDBRANCH  79  80
ENDBRANCH  47  72
BRANCH  59  84
ATOM     84  C   UNL A   1      41.668  33.291  35.308  1.00  0.00     0.058 A 
ATOM     85  C   UNL A   1      42.477  34.432  35.184  1.00  0.00     0.135 A 
ATOM     86  C   UNL A   1      40.945  33.124  36.499  1.00  0.00     0.135 A 
ATOM     87  F   UNL A   1      43.193  34.633  34.067  1.00  0.00    -0.206 F 
ATOM     88  C   UNL A   1      42.580  35.363  36.211  1.00  0.00     0.059 A 
ATOM     89  C   UNL A   1      41.020  34.052  37.533  1.00  0.00     0.059 A 
ATOM     90  F   UNL A   1      40.152  32.053  36.663  1.00  0.00    -0.206 F 
ATOM     91  C   UNL A   1      41.849  35.163  37.384  1.00  0.00     0.060 A 
BRANCH  91  92
ATOM     92  S   UNL A   1      41.971  36.392  38.704  1.00  0.00     0.124 S 
ATOM     93  O   UNL A   1      42.388  37.577  37.963  1.00  0.00    -0.237 OA
ATOM     94  O   UNL A   1      40.610  36.421  39.233  1.00  0.00    -0.237 OA
ATOM     95  O   UNL A   1      42.973  35.826  39.601  1.00  0.00    -0.744 OA
ENDBRANCH  91  92
ENDBRANCH  59  84
ENDBRANCH  33  34
ENDBRANCH  26  28
ENDBRANCH  25  26
ENDBRANCH  24  25
ENDBRANCH   1  24
TORSDOF 19
ENDMDL
MODEL 2
REMARK VINA RESULT:     -10.7      4.357     10.235
REMARK SMILES C[NH+](C)Cc1noc(C[C@@](C)(C(=O)OCCOC(=O)c2ccc(-c3c4nc(c(-c5c(F)cc(S(=O)(=O)[O-])cc5F)c5ccc([nH]5)c(-c5c(F)cc(S(=O)(=O)[O-])cc5F)c5nc(c(-c6c(F)cc(S(=O)(=O)[O-])cc6F)c6ccc3[nH]6)C=C5)C=C4)cc2)c2ccccc2)n1
REMARK SMILES IDX 15 1 14 2 12 3 13 4 10 5 11 6 9 7 8 8 5 9 6 10 92 11 7 12
REMARK SMILES IDX 4 13 2 14 1 15 3 16 86 18 87 19 91 20 88 21 90 22 89 23
REMARK SMILES IDX 16 24 17 25 18 26 19 27 20 28 21 29 85 30 22 31 84 32 23 33
REMARK SMILES IDX 24 34 25 35 78 36 26 37 83 38 77 39 79 40 27 41 82 42 76 43
REMARK SMILES IDX 75 44 28 46 62 47 41 48 61 49 42 50 45 51 60 52 80 53 43 54
REMARK SMILES IDX 44 55 59 57 81 58 46 59 29 60 30 61 39 62 31 63 32 64 38 65
REMARK SMILES IDX 40 66 33 67 34 68 35 69 36 70 37 71 63 72 64 73 73 74 65 75
REMARK SMILES IDX 66 76 72 77 74 78 67 79 68 80 69 81 70 82 71 83 47 84 48 85
REMARK SMILES IDX 57 86 49 87 50 88 56 89 58 90 51 91 52 92 53 93 54 94 55 95
REMARK H PARENT 2 17 79 45 45 56
REMARK Flexibility Score: inf
ROOT
ATOM      1  C   UNL A   1      32.153  30.092  25.839  1.00  0.00     0.274 C 
ENDROOT
BRANCH   1   2
ATOM      2  O   UNL A   1      32.618  28.727  25.711  1.00  0.00    -0.461 OA
BRANCH   2   3
ATOM      3  C   UNL A   1      31.687  27.723  25.716  1.00  0.00     0.316 C 
ATOM      4  O   UNL A   1      31.218  27.254  26.746  1.00  0.00    -0.251 OA
BRANCH   3   5
ATOM      5  C   UNL A   1      31.422  27.168  24.282  1.00  0.00     0.099 C 
ATOM      6  C   UNL A   1      30.897  25.741  24.565  1.00  0.00     0.029 C 
BRANCH   5   7
ATOM      7  C   UNL A   1      32.780  27.134  23.515  1.00  0.00     0.123 C 
BRANCH   7   8
ATOM      8  C   UNL A   1      33.532  25.858  23.599  1.00  0.00     0.228 A 
ATOM      9  C   UNL A   1      34.747  24.210  24.047  1.00  0.00     0.226 A 
ATOM     10  N   UNL A   1      34.258  23.916  22.831  1.00  0.00    -0.056 NA
ATOM     11  N   UNL A   1      34.279  25.391  24.571  1.00  0.00    -0.190 NA
ATOM     12  O   UNL A   1      33.458  25.019  22.526  1.00  0.00    -0.339 OA
BRANCH   9  13
ATOM     13  C   UNL A   1      35.649  23.304  24.835  1.00  0.00     0.344 C 
BRANCH  13  14
ATOM     14  N   UNL A   1      35.154  21.937  25.108  1.00  0.00    -0.333 N 
ATOM     15  C   UNL A   1      36.190  20.914  25.043  1.00  0.00     0.332 C 
ATOM     16  C   UNL A   1      34.386  21.847  26.345  1.00  0.00     0.332 C 
ATOM     17  H   UNL A   1      34.510  21.739  24.342  1.00  0.00     0.348 HD
ENDBRANCH  13  14
ENDBRANCH   9  13
ENDBRANCH   7   8
ENDBRANCH   5   7
BRANCH   5  18
ATOM     18  C   UNL A   1      30.372  27.983  23.479  1.00  0.00    -0.030 A 
ATOM     19  C   UNL A   1      30.753  29.049  22.639  1.00  0.00     0.005 A 
ATOM     20  C   UNL A   1      28.996  27.757  23.603  1.00  0.00     0.005 A 
ATOM     21  C   UNL A   1      29.808  29.866  22.005  1.00  0.00     0.000 A 
ATOM     22  C   UNL A   1      28.047  28.560  22.957  1.00  0.00     0.000 A 
ATOM     23  C   UNL A   1      28.451  29.626  22.171  1.00  0.00     0.000 A 
ENDBRANCH   5  18
ENDBRANCH   3   5
ENDBRANCH   2   3
ENDBRANCH   1   2
BRANCH   1  24
ATOM     24  C   UNL A   1      32.547  30.655  27.205  1.00  0.00     0.275 C 
BRANCH  24  25
ATOM     25  O   UNL A   1      33.781  30.033  27.590  1.00  0.00    -0.458 OA
BRANCH  25  26
ATOM     26  C   UNL A   1      34.625  30.747  28.372  1.00  0.00     0.338 C 
ATOM     27  O   UNL A   1      34.342  31.734  29.028  1.00  0.00    -0.246 OA
BRANCH  26  28
ATOM     28  C   UNL A   1      35.959  30.089  28.363  1.00  0.00     0.060 A 
ATOM     29  C   UNL A   1      36.498  29.595  29.546  1.00  0.00     0.016 A 
ATOM     30  C   UNL A   1      36.731  30.042  27.202  1.00  0.00     0.016 A 
ATOM     31  C   UNL A   1      37.830  29.181  29.596  1.00  0.00     0.010 A 
ATOM     32  C   UNL A   1      38.037  29.516  27.240  1.00  0.00     0.010 A 
ATOM     33  C   UNL A   1      38.637  29.125  28.453  1.00  0.00    -0.014 A 
BRANCH  33  34
ATOM     34  C   UNL A   1      40.094  28.750  28.549  1.00  0.00     0.031 A 
ATOM     35  C   UNL A   1      41.099  29.731  29.119  1.00  0.00     0.074 A 
ATOM     36  C   UNL A   1      40.559  27.526  28.207  1.00  0.00     0.049 A 
ATOM     37  N   UNL A   1      42.406  29.732  29.020  1.00  0.00    -0.248 NA
ATOM     38  C   UNL A   1      40.565  30.871  29.881  1.00  0.00     0.031 C 
ATOM     39  C   UNL A   1      39.757  26.406  27.710  1.00  0.00     0.029 A 
ATOM     40  N   UNL A   1      41.834  27.002  28.258  1.00  0.00    -0.354 N 
ATOM     41  C   UNL A   1      42.835  30.923  29.597  1.00  0.00     0.074 A 
ATOM     42  C   UNL A   1      41.653  31.604  30.078  1.00  0.00     0.031 C 
ATOM     43  C   UNL A   1      40.526  25.312  27.614  1.00  0.00     0.029 A 
ATOM     44  C   UNL A   1      41.911  25.680  27.884  1.00  0.00     0.049 A 
ATOM     45  H   UNL A   1      42.619  27.527  28.539  1.00  0.00     0.167 HD
ATOM     46  C   UNL A   1      44.097  31.411  29.701  1.00  0.00     0.037 A 
ATOM     47  C   UNL A   1      42.967  24.859  27.704  1.00  0.00     0.037 A 
ATOM     48  C   UNL A   1      45.286  30.682  29.342  1.00  0.00     0.049 A 
ATOM     49  C   UNL A   1      44.362  25.405  27.838  1.00  0.00     0.074 A 
ATOM     50  C   UNL A   1      46.605  31.103  29.390  1.00  0.00     0.029 A 
ATOM     51  N   UNL A   1      45.307  29.362  28.920  1.00  0.00    -0.354 N 
ATOM     52  N   UNL A   1      44.745  26.605  28.197  1.00  0.00    -0.248 NA
ATOM     53  C   UNL A   1      45.465  24.500  27.483  1.00  0.00     0.031 C 
ATOM     54  C   UNL A   1      47.422  30.041  28.986  1.00  0.00     0.029 A 
ATOM     55  C   UNL A   1      46.614  28.950  28.714  1.00  0.00     0.049 A 
ATOM     56  H   UNL A   1      44.510  28.800  28.786  1.00  0.00     0.167 HD
ATOM     57  C   UNL A   1      46.131  26.606  28.090  1.00  0.00     0.074 A 
ATOM     58  C   UNL A   1      46.524  25.277  27.672  1.00  0.00     0.031 C 
ATOM     59  C   UNL A   1      46.999  27.627  28.298  1.00  0.00     0.037 A 
BRANCH  46  60
ATOM     60  C   UNL A   1      44.259  32.831  30.170  1.00  0.00     0.058 A 
ATOM     61  C   UNL A   1      44.129  33.931  29.311  1.00  0.00     0.135 A 
ATOM     62  C   UNL A   1      44.516  33.085  31.529  1.00  0.00     0.135 A 
ATOM     63  F   UNL A   1      43.899  33.742  28.002  1.00  0.00    -0.206 F 
ATOM     64  C   UNL A   1      44.273  35.235  29.777  1.00  0.00     0.059 A 
ATOM     65  C   UNL A   1      44.640  34.381  32.021  1.00  0.00     0.059 A 
ATOM     66  F   UNL A   1      44.647  32.068  32.394  1.00  0.00    -0.206 F 
ATOM     67  C   UNL A   1      44.532  35.450  31.134  1.00  0.00     0.060 A 
BRANCH  67  68
ATOM     68  S   UNL A   1      44.720  37.144  31.729  1.00  0.00     0.124 S 
ATOM     69  O   UNL A   1      45.429  37.766  30.614  1.00  0.00    -0.237 OA
ATOM     70  O   UNL A   1      43.337  37.569  31.915  1.00  0.00    -0.237 OA
ATOM     71  O   UNL A   1      45.495  36.989  32.957  1.00  0.00    -0.744 OA
ENDBRANCH  67  68
ENDBRANCH  46  60
BRANCH  47  72
ATOM     72  C   UNL A   1      42.751  23.447  27.282  1.00  0.00     0.058 A 
ATOM     73  C   UNL A   1      42.809  23.079  25.930  1.00  0.00     0.135 A 
ATOM     74  C   UNL A   1      42.493  22.436  28.223  1.00  0.00     0.135 A 
ATOM     75  F   UNL A   1      43.026  24.011  24.990  1.00  0.00    -0.206 F 
ATOM     76  C   UNL A   1      42.629  21.759  25.526  1.00  0.00     0.059 A 
ATOM     77  C   UNL A   1      42.343  21.107  27.846  1.00  0.00     0.059 A 
ATOM     78  F   UNL A   1      42.427  22.735  29.530  1.00  0.00    -0.206 F 
ATOM     79  C   UNL A   1      42.404  20.779  26.493  1.00  0.00     0.060 A 
BRANCH  79  80
ATOM     80  S   UNL A   1      42.254  19.053  25.983  1.00  0.00     0.124 S 
ATOM     81  O   UNL A   1      42.798  18.357  27.143  1.00  0.00    -0.237 OA
ATOM     82  O   UNL A   1      40.816  18.913  25.770  1.00  0.00    -0.237 OA
ATOM     83  O   UNL A   1      43.065  18.995  24.770  1.00  0.00    -0.744 OA
ENDBRANCH  79  80
ENDBRANCH  47  72
BRANCH  59  84
ATOM     84  C   UNL A   1      48.458  27.346  28.085  1.00  0.00     0.058 A 
ATOM     85  C   UNL A   1      49.283  26.933  29.142  1.00  0.00     0.135 A 
ATOM     86  C   UNL A   1      49.029  27.455  26.808  1.00  0.00     0.135 A 
ATOM     87  F   UNL A   1      48.785  26.822  30.383  1.00  0.00    -0.206 F 
ATOM     88  C   UNL A   1      50.632  26.656  28.945  1.00  0.00     0.059 A 
ATOM     89  C   UNL A   1      50.372  27.166  26.584  1.00  0.00     0.059 A 
ATOM     90  F   UNL A   1      48.280  27.840  25.763  1.00  0.00    -0.206 F 
ATOM     91  C   UNL A   1      51.168  26.778  27.661  1.00  0.00     0.060 A 
BRANCH  91  92
ATOM     92  S   UNL A   1      52.915  26.392  27.409  1.00  0.00     0.124 S 
ATOM     93  O   UNL A   1      52.834  25.191  26.585  1.00  0.00    -0.237 OA
ATOM     94  O   UNL A   1      53.409  27.590  26.737  1.00  0.00    -0.237 OA
ATOM     95  O   UNL A   1      53.416  26.191  28.765  1.00  0.00    -0.744 OA
ENDBRANCH  91  92
ENDBRANCH  59  84
ENDBRANCH  33  34
ENDBRANCH  26  28
ENDBRANCH  25  26
ENDBRANCH  24  25
ENDBRANCH   1  24
TORSDOF 19
ENDMDL
MODEL 3
REMARK VINA RESULT:     -10.7      3.050      4.781
REMARK SMILES C[NH+](C)Cc1noc(C[C@@](C)(C(=O)OCCOC(=O)c2ccc(-c3c4nc(c(-c5c(F)cc(S(=O)(=O)[O-])cc5F)c5ccc([nH]5)c(-c5c(F)cc(S(=O)(=O)[O-])cc5F)c5nc(c(-c6c(F)cc(S(=O)(=O)[O-])cc6F)c6ccc3[nH]6)C=C5)C=C4)cc2)c2ccccc2)n1
REMARK SMILES IDX 15 1 14 2 12 3 13 4 10 5 11 6 9 7 8 8 5 9 6 10 92 11 7 12
REMARK SMILES IDX 4 13 2 14 1 15 3 16 86 18 87 19 91 20 88 21 90 22 89 23
REMARK SMILES IDX 16 24 17 25 18 26 19 27 20 28 21 29 85 30 22 31 84 32 23 33
REMARK SMILES IDX 24 34 25 35 78 36 26 37 83 38 77 39 79 40 27 41 82 42 76 43
REMARK SMILES IDX 75 44 28 46 62 47 41 48 61 49 42 50 45 51 60 52 80 53 43 54
REMARK SMILES IDX 44 55 59 57 81 58 46 59 29 60 30 61 39 62 31 63 32 64 38 65
REMARK SMILES IDX 40 66 33 67 34 68 35 69 36 70 37 71 63 72 64 73 73 74 65 75
REMARK SMILES IDX 66 76 72 77 74 78 67 79 68 80 69 81 70 82 71 83 47 84 48 85
REMARK SMILES IDX 57 86 49 87 50 88 56 89 58 90 51 91 52 92 53 93 54 94 55 95
REMARK H PARENT 2 17 79 45 45 56
REMARK Flexibility Score: inf
ROOT
ATOM      1  C   UNL A   1      37.684  21.882  25.527  1.00  0.00     0.274 C 
ENDROOT
BRANCH   1   2
ATOM      2  O   UNL A   1      36.948  23.114  25.336  1.00  0.00    -0.461 OA
BRANCH   2   3
ATOM      3  C   UNL A   1      36.155  23.228  24.226  1.00  0.00     0.316 C 
ATOM      4  O   UNL A   1      36.604  23.278  23.088  1.00  0.00    -0.251 OA
BRANCH   3   5
ATOM      5  C   UNL A   1      34.654  23.431  24.602  1.00  0.00     0.099 C 
ATOM      6  C   UNL A   1      34.603  22.937  26.067  1.00  0.00     0.029 C 
BRANCH   5   7
ATOM      7  C   UNL A   1      33.791  22.530  23.667  1.00  0.00     0.123 C 
BRANCH   7   8
ATOM      8  C   UNL A   1      33.348  21.239  24.250  1.00  0.00     0.228 A 
ATOM      9  C   UNL A   1      33.089  19.294  24.986  1.00  0.00     0.226 A 
ATOM     10  N   UNL A   1      31.855  19.822  25.054  1.00  0.00    -0.056 NA
ATOM     11  N   UNL A   1      34.049  20.166  24.530  1.00  0.00    -0.190 NA
ATOM     12  O   UNL A   1      32.025  21.113  24.553  1.00  0.00    -0.339 OA
BRANCH   9  13
ATOM     13  C   UNL A   1      33.442  17.910  25.451  1.00  0.00     0.344 C 
BRANCH  13  14
ATOM     14  N   UNL A   1      33.088  16.790  24.551  1.00  0.00    -0.333 N 
ATOM     15  C   UNL A   1      34.026  16.603  23.452  1.00  0.00     0.332 C 
ATOM     16  C   UNL A   1      32.841  15.543  25.266  1.00  0.00     0.332 C 
ATOM     17  H   UNL A   1      32.205  17.071  24.126  1.00  0.00     0.348 HD
ENDBRANCH  13  14
ENDBRANCH   9  13
ENDBRANCH   7   8
ENDBRANCH   5   7
BRANCH   5  18
ATOM     18  C   UNL A   1      34.181  24.908  24.512  1.00  0.00    -0.030 A 
ATOM     19  C   UNL A   1      33.937  25.528  23.269  1.00  0.00     0.005 A 
ATOM     20  C   UNL A   1      34.045  25.720  25.644  1.00  0.00     0.005 A 
ATOM     21  C   UNL A   1      33.627  26.891  23.171  1.00  0.00     0.000 A 
ATOM     22  C   UNL A   1      33.717  27.079  25.551  1.00  0.00     0.000 A 
ATOM     23  C   UNL A   1      33.524  27.670  24.314  1.00  0.00     0.000 A 
ENDBRANCH   5  18
ENDBRANCH   3   5
ENDBRANCH   2   3
ENDBRANCH   1   2
BRANCH   1  24
ATOM     24  C   UNL A   1      39.107  22.188  25.998  1.00  0.00     0.275 C 
BRANCH  24  25
ATOM     25  O   UNL A   1      39.167  23.586  26.312  1.00  0.00    -0.458 OA
BRANCH  25  26
ATOM     26  C   UNL A   1      40.363  24.089  26.703  1.00  0.00     0.338 C 
ATOM     27  O   UNL A   1      41.462  23.682  26.370  1.00  0.00    -0.246 OA
BRANCH  26  28
ATOM     28  C   UNL A   1      40.124  25.280  27.561  1.00  0.00     0.060 A 
ATOM     29  C   UNL A   1      40.834  26.454  27.335  1.00  0.00     0.016 A 
ATOM     30  C   UNL A   1      39.266  25.217  28.660  1.00  0.00     0.016 A 
ATOM     31  C   UNL A   1      40.788  27.498  28.260  1.00  0.00     0.010 A 
ATOM     32  C   UNL A   1      39.140  26.320  29.526  1.00  0.00     0.010 A 
ATOM     33  C   UNL A   1      39.943  27.467  29.376  1.00  0.00    -0.014 A 
BRANCH  33  34
ATOM     34  C   UNL A   1      39.971  28.572  30.401  1.00  0.00     0.031 A 
ATOM     35  C   UNL A   1      41.071  28.620  31.443  1.00  0.00     0.074 A 
ATOM     36  C   UNL A   1      39.080  29.593  30.403  1.00  0.00     0.049 A 
ATOM     37  N   UNL A   1      41.118  29.289  32.569  1.00  0.00    -0.248 NA
ATOM     38  C   UNL A   1      42.263  27.793  31.197  1.00  0.00     0.031 C 
ATOM     39  C   UNL A   1      37.990  29.786  29.447  1.00  0.00     0.029 A 
ATOM     40  N   UNL A   1      38.974  30.691  31.230  1.00  0.00    -0.354 N 
ATOM     41  C   UNL A   1      42.278  28.872  33.216  1.00  0.00     0.074 A 
ATOM     42  C   UNL A   1      42.926  27.921  32.339  1.00  0.00     0.031 C 
ATOM     43  C   UNL A   1      37.406  30.974  29.667  1.00  0.00     0.029 A 
ATOM     44  C   UNL A   1      37.966  31.560  30.878  1.00  0.00     0.049 A 
ATOM     45  H   UNL A   1      39.567  30.841  32.002  1.00  0.00     0.167 HD
ATOM     46  C   UNL A   1      42.750  29.236  34.434  1.00  0.00     0.037 A 
ATOM     47  C   UNL A   1      37.486  32.667  31.483  1.00  0.00     0.037 A 
ATOM     48  C   UNL A   1      42.180  30.276  35.252  1.00  0.00     0.049 A 
ATOM     49  C   UNL A   1      38.027  33.073  32.825  1.00  0.00     0.074 A 
ATOM     50  C   UNL A   1      42.576  30.699  36.510  1.00  0.00     0.029 A 
ATOM     51  N   UNL A   1      41.128  31.094  34.872  1.00  0.00    -0.354 N 
ATOM     52  N   UNL A   1      39.003  32.537  33.515  1.00  0.00    -0.248 NA
ATOM     53  C   UNL A   1      37.359  34.197  33.498  1.00  0.00     0.031 C 
ATOM     54  C   UNL A   1      41.755  31.765  36.896  1.00  0.00     0.029 A 
ATOM     55  C   UNL A   1      40.868  32.025  35.865  1.00  0.00     0.049 A 
ATOM     56  H   UNL A   1      40.638  31.024  34.021  1.00  0.00     0.167 HD
ATOM     57  C   UNL A   1      39.052  33.245  34.711  1.00  0.00     0.074 A 
ATOM     58  C   UNL A   1      38.036  34.273  34.636  1.00  0.00     0.031 C 
ATOM     59  C   UNL A   1      39.855  33.044  35.785  1.00  0.00     0.037 A 
BRANCH  46  60
ATOM     60  C   UNL A   1      43.914  28.463  34.992  1.00  0.00     0.058 A 
ATOM     61  C   UNL A   1      43.751  27.307  35.767  1.00  0.00     0.135 A 
ATOM     62  C   UNL A   1      45.225  28.881  34.702  1.00  0.00     0.135 A 
ATOM     63  F   UNL A   1      42.521  26.874  36.085  1.00  0.00    -0.206 F 
ATOM     64  C   UNL A   1      44.849  26.605  36.260  1.00  0.00     0.059 A 
ATOM     65  C   UNL A   1      46.335  28.181  35.164  1.00  0.00     0.059 A 
ATOM     66  F   UNL A   1      45.436  29.980  33.961  1.00  0.00    -0.206 F 
ATOM     67  C   UNL A   1      46.136  27.053  35.956  1.00  0.00     0.060 A 
BRANCH  67  68
ATOM     68  S   UNL A   1      47.553  26.138  36.601  1.00  0.00     0.124 S 
ATOM     69  O   UNL A   1      47.317  26.215  38.040  1.00  0.00    -0.237 OA
ATOM     70  O   UNL A   1      47.378  24.819  36.002  1.00  0.00    -0.237 OA
ATOM     71  O   UNL A   1      48.700  26.897  36.111  1.00  0.00    -0.744 OA
ENDBRANCH  67  68
ENDBRANCH  46  60
BRANCH  47  72
ATOM     72  C   UNL A   1      36.361  33.424  30.866  1.00  0.00     0.058 A 
ATOM     73  C   UNL A   1      35.082  33.417  31.442  1.00  0.00     0.135 A 
ATOM     74  C   UNL A   1      36.545  34.179  29.696  1.00  0.00     0.135 A 
ATOM     75  F   UNL A   1      34.848  32.690  32.545  1.00  0.00    -0.206 F 
ATOM     76  C   UNL A   1      34.028  34.137  30.886  1.00  0.00     0.059 A 
ATOM     77  C   UNL A   1      35.517  34.933  29.142  1.00  0.00     0.059 A 
ATOM     78  F   UNL A   1      37.750  34.220  29.105  1.00  0.00    -0.206 F 
ATOM     79  C   UNL A   1      34.259  34.899  29.740  1.00  0.00     0.060 A 
BRANCH  79  80
ATOM     80  S   UNL A   1      32.919  35.902  29.063  1.00  0.00     0.124 S 
ATOM     81  O   UNL A   1      32.086  36.111  30.242  1.00  0.00    -0.237 OA
ATOM     82  O   UNL A   1      33.627  37.078  28.565  1.00  0.00    -0.237 OA
ATOM     83  O   UNL A   1      32.351  35.041  28.030  1.00  0.00    -0.744 OA
ENDBRANCH  79  80
ENDBRANCH  47  72
BRANCH  59  84
ATOM     84  C   UNL A   1      39.673  33.957  36.963  1.00  0.00     0.058 A 
ATOM     85  C   UNL A   1      40.242  35.240  36.986  1.00  0.00     0.135 A 
ATOM     86  C   UNL A   1      38.893  33.563  38.061  1.00  0.00     0.135 A 
ATOM     87  F   UNL A   1      41.001  35.660  35.963  1.00  0.00    -0.206 F 
ATOM     88  C   UNL A   1      40.061  36.095  38.068  1.00  0.00     0.059 A 
ATOM     89  C   UNL A   1      38.685  34.408  39.147  1.00  0.00     0.059 A 
ATOM     90  F   UNL A   1      38.322  32.348  38.083  1.00  0.00    -0.206 F 
ATOM     91  C   UNL A   1      39.282  35.668  39.146  1.00  0.00     0.060 A 
BRANCH  91  92
ATOM     92  S   UNL A   1      39.032  36.794  40.537  1.00  0.00     0.124 S 
ATOM     93  O   UNL A   1      40.387  36.916  41.063  1.00  0.00    -0.237 OA
ATOM     94  O   UNL A   1      38.495  37.986  39.885  1.00  0.00    -0.237 OA
ATOM     95  O   UNL A   1      38.089  36.076  41.388  1.00  0.00    -0.744 OA
ENDBRANCH  91  92
ENDBRANCH  59  84
ENDBRANCH  33  34
ENDBRANCH  26  28
ENDBRANCH  25  26
ENDBRANCH  24  25
ENDBRANCH   1  24
TORSDOF 19
ENDMDL
