MODEL 1
REMARK VINA RESULT:     -13.2      0.000      0.000
REMARK SMILES O=C(OCCOC(=O)c1nn(Cc2ccc(F)cc2)c2c1CN(C(=O)[C@H]1CC1(F)F)CC2)c1ccc(-c2c3nc(c(-c4c(F)cc(S(=O)(=O)[O-])cc4F)c4ccc([nH]4)c(-c4c(F)cc(S(=O)(=O)[O-])cc4F)c4nc(c(-c5c(F)cc(S(=O)(=O)[O-])cc5F)c5ccc2[nH]5)C=C4)C=C3)cc1
REMARK SMILES IDX 4 1 3 2 2 3 1 4 33 5 34 6 98 7 35 8 97 9 36 10 37 11 38 12
REMARK SMILES IDX 91 13 39 14 96 15 90 16 92 17 40 18 95 19 89 20 88 21 41 23
REMARK SMILES IDX 75 24 54 25 74 26 55 27 58 28 73 29 93 30 56 31 57 32 72 34
REMARK SMILES IDX 94 35 59 36 42 37 43 38 52 39 44 40 45 41 51 42 53 43 46 44
REMARK SMILES IDX 47 45 48 46 49 47 50 48 76 49 77 50 86 51 78 52 79 53 85 54
REMARK SMILES IDX 87 55 80 56 81 57 82 58 83 59 84 60 60 61 61 62 70 63 62 64
REMARK SMILES IDX 63 65 69 66 71 67 64 68 65 69 66 70 67 71 68 72 5 73 6 74
REMARK SMILES IDX 7 75 8 76 9 77 10 78 21 79 11 80 20 81 22 82 32 83 23 84
REMARK SMILES IDX 31 85 12 86 13 87 14 88 19 89 15 90 18 91 16 92 17 93 24 94
REMARK SMILES IDX 25 95 26 96 27 97 28 98 29 99 30 100
REMARK H PARENT 92 22 58 33
REMARK Flexibility Score: inf
ROOT
ATOM      1  C   UNL A   1      39.497  21.017  25.911  1.00  0.00     0.275 C 
ENDROOT
BRANCH   1   2
ATOM      2  O   UNL A   1      39.928  22.138  26.704  1.00  0.00    -0.458 OA
BRANCH   2   3
ATOM      3  C   UNL A   1      41.078  22.753  26.367  1.00  0.00     0.338 C 
ATOM      4  O   UNL A   1      41.952  22.276  25.668  1.00  0.00    -0.246 OA
BRANCH   3   5
ATOM      5  C   UNL A   1      41.118  24.115  26.941  1.00  0.00     0.060 A 
ATOM      6  C   UNL A   1      40.257  25.127  26.504  1.00  0.00     0.016 A 
ATOM      7  C   UNL A   1      41.976  24.346  28.012  1.00  0.00     0.016 A 
ATOM      8  C   UNL A   1      40.282  26.376  27.117  1.00  0.00     0.010 A 
ATOM      9  C   UNL A   1      41.946  25.574  28.665  1.00  0.00     0.010 A 
ATOM     10  C   UNL A   1      41.135  26.616  28.201  1.00  0.00    -0.014 A 
BRANCH  10  11
ATOM     11  C   UNL A   1      41.126  27.954  28.820  1.00  0.00     0.031 A 
ATOM     12  C   UNL A   1      42.196  28.940  28.412  1.00  0.00     0.074 A 
ATOM     13  C   UNL A   1      40.157  28.375  29.666  1.00  0.00     0.049 A 
ATOM     14  N   UNL A   1      42.973  29.653  29.168  1.00  0.00    -0.248 NA
ATOM     15  C   UNL A   1      42.444  29.160  26.979  1.00  0.00     0.031 C 
ATOM     16  C   UNL A   1      38.907  27.716  30.067  1.00  0.00     0.029 A 
ATOM     17  N   UNL A   1      40.083  29.570  30.319  1.00  0.00    -0.354 N 
ATOM     18  C   UNL A   1      43.695  30.503  28.327  1.00  0.00     0.074 A 
ATOM     19  C   UNL A   1      43.314  30.171  26.981  1.00  0.00     0.031 C 
ATOM     20  C   UNL A   1      38.110  28.598  30.710  1.00  0.00     0.029 A 
ATOM     21  C   UNL A   1      38.867  29.812  30.939  1.00  0.00     0.049 A 
ATOM     22  H   UNL A   1      40.831  30.209  30.346  1.00  0.00     0.167 HD
ATOM     23  C   UNL A   1      44.556  31.459  28.777  1.00  0.00     0.037 A 
ATOM     24  C   UNL A   1      38.499  30.917  31.625  1.00  0.00     0.037 A 
ATOM     25  C   UNL A   1      45.034  31.159  30.095  1.00  0.00     0.049 A 
ATOM     26  C   UNL A   1      39.742  31.577  32.085  1.00  0.00     0.074 A 
ATOM     27  C   UNL A   1      45.782  30.122  30.619  1.00  0.00     0.029 A 
ATOM     28  N   UNL A   1      44.469  31.782  31.177  1.00  0.00    -0.354 N 
ATOM     29  N   UNL A   1      40.563  31.062  32.960  1.00  0.00    -0.248 NA
ATOM     30  C   UNL A   1      40.288  32.646  31.266  1.00  0.00     0.031 C 
ATOM     31  C   UNL A   1      45.190  29.854  31.886  1.00  0.00     0.029 A 
ATOM     32  C   UNL A   1      44.162  30.782  32.067  1.00  0.00     0.049 A 
ATOM     33  H   UNL A   1      44.315  32.747  31.293  1.00  0.00     0.167 HD
ATOM     34  C   UNL A   1      41.824  31.453  32.540  1.00  0.00     0.074 A 
ATOM     35  C   UNL A   1      41.584  32.498  31.548  1.00  0.00     0.031 C 
ATOM     36  C   UNL A   1      42.941  30.727  32.841  1.00  0.00     0.037 A 
BRANCH  23  37
ATOM     37  C   UNL A   1      44.851  32.756  28.075  1.00  0.00     0.058 A 
ATOM     38  C   UNL A   1      43.992  33.870  28.171  1.00  0.00     0.135 A 
ATOM     39  C   UNL A   1      46.125  33.005  27.525  1.00  0.00     0.135 A 
ATOM     40  F   UNL A   1      42.776  33.769  28.729  1.00  0.00    -0.206 F 
ATOM     41  C   UNL A   1      44.376  35.148  27.773  1.00  0.00     0.059 A 
ATOM     42  C   UNL A   1      46.542  34.284  27.146  1.00  0.00     0.059 A 
ATOM     43  F   UNL A   1      47.021  32.013  27.397  1.00  0.00    -0.206 F 
ATOM     44  C   UNL A   1      45.663  35.352  27.288  1.00  0.00     0.060 A 
BRANCH  44  45
ATOM     45  S   UNL A   1      46.182  37.046  26.947  1.00  0.00     0.124 S 
ATOM     46  O   UNL A   1      46.971  37.352  28.137  1.00  0.00    -0.237 OA
ATOM     47  O   UNL A   1      46.937  36.885  25.709  1.00  0.00    -0.237 OA
ATOM     48  O   UNL A   1      44.921  37.770  26.824  1.00  0.00    -0.744 OA
ENDBRANCH  44  45
ENDBRANCH  23  37
BRANCH  24  49
ATOM     49  C   UNL A   1      37.180  31.591  31.604  1.00  0.00     0.058 A 
ATOM     50  C   UNL A   1      36.754  32.325  30.478  1.00  0.00     0.135 A 
ATOM     51  C   UNL A   1      36.444  31.777  32.788  1.00  0.00     0.135 A 
ATOM     52  F   UNL A   1      37.420  32.253  29.314  1.00  0.00    -0.206 F 
ATOM     53  C   UNL A   1      35.702  33.233  30.536  1.00  0.00     0.059 A 
ATOM     54  C   UNL A   1      35.387  32.689  32.871  1.00  0.00     0.059 A 
ATOM     55  F   UNL A   1      36.795  31.126  33.907  1.00  0.00    -0.206 F 
ATOM     56  C   UNL A   1      35.047  33.437  31.747  1.00  0.00     0.060 A 
BRANCH  56  57
ATOM     57  S   UNL A   1      33.834  34.772  31.840  1.00  0.00     0.124 S 
ATOM     58  O   UNL A   1      32.912  34.263  32.851  1.00  0.00    -0.237 OA
ATOM     59  O   UNL A   1      34.659  35.904  32.248  1.00  0.00    -0.237 OA
ATOM     60  O   UNL A   1      33.299  34.842  30.484  1.00  0.00    -0.744 OA
ENDBRANCH  56  57
ENDBRANCH  24  49
BRANCH  36  61
ATOM     61  C   UNL A   1      42.843  29.605  33.845  1.00  0.00     0.058 A 
ATOM     62  C   UNL A   1      42.418  28.345  33.395  1.00  0.00     0.135 A 
ATOM     63  C   UNL A   1      42.943  29.783  35.237  1.00  0.00     0.135 A 
ATOM     64  F   UNL A   1      42.248  28.123  32.080  1.00  0.00    -0.206 F 
ATOM     65  C   UNL A   1      42.084  27.319  34.275  1.00  0.00     0.059 A 
ATOM     66  C   UNL A   1      42.646  28.757  36.139  1.00  0.00     0.059 A 
ATOM     67  F   UNL A   1      43.250  30.977  35.759  1.00  0.00    -0.206 F 
ATOM     68  C   UNL A   1      42.193  27.535  35.647  1.00  0.00     0.060 A 
BRANCH  68  69
ATOM     69  S   UNL A   1      41.688  26.211  36.766  1.00  0.00     0.124 S 
ATOM     70  O   UNL A   1      40.600  26.841  37.508  1.00  0.00    -0.237 OA
ATOM     71  O   UNL A   1      41.289  25.155  35.841  1.00  0.00    -0.237 OA
ATOM     72  O   UNL A   1      42.892  25.933  37.544  1.00  0.00    -0.744 OA
ENDBRANCH  68  69
ENDBRANCH  36  61
ENDBRANCH  10  11
ENDBRANCH   3   5
ENDBRANCH   2   3
ENDBRANCH   1   2
BRANCH   1  73
ATOM     73  C   UNL A   1      38.043  20.978  25.427  1.00  0.00     0.275 C 
BRANCH  73  74
ATOM     74  O   UNL A   1      37.716  22.150  24.658  1.00  0.00    -0.457 OA
BRANCH  74  75
ATOM     75  C   UNL A   1      36.799  23.018  25.201  1.00  0.00     0.359 C 
ATOM     76  O   UNL A   1      37.001  23.739  26.169  1.00  0.00    -0.244 OA
BRANCH  75  77
ATOM     77  C   UNL A   1      35.505  22.951  24.512  1.00  0.00     0.175 A 
ATOM     78  N   UNL A   1      35.117  23.962  23.706  1.00  0.00    -0.165 NA
ATOM     79  C   UNL A   1      34.542  21.899  24.498  1.00  0.00     0.028 A 
ATOM     80  N   UNL A   1      33.926  23.573  23.202  1.00  0.00    -0.264 N 
ATOM     81  C   UNL A   1      33.503  22.395  23.739  1.00  0.00     0.046 A 
ATOM     82  C   UNL A   1      34.515  20.557  25.147  1.00  0.00     0.159 C 
ATOM     83  C   UNL A   1      32.213  21.706  23.523  1.00  0.00     0.078 C 
ATOM     84  N   UNL A   1      33.219  19.870  24.919  1.00  0.00    -0.337 N 
ATOM     85  C   UNL A   1      32.018  20.686  24.658  1.00  0.00     0.126 C 
BRANCH  80  86
ATOM     86  C   UNL A   1      33.370  24.256  22.038  1.00  0.00     0.180 C 
BRANCH  86  87
ATOM     87  C   UNL A   1      32.711  25.570  22.365  1.00  0.00    -0.026 A 
ATOM     88  C   UNL A   1      31.368  25.607  22.780  1.00  0.00     0.008 A 
ATOM     89  C   UNL A   1      33.441  26.769  22.309  1.00  0.00     0.008 A 
ATOM     90  C   UNL A   1      30.770  26.813  23.139  1.00  0.00     0.039 A 
ATOM     91  C   UNL A   1      32.839  27.975  22.675  1.00  0.00     0.039 A 
ATOM     92  C   UNL A   1      31.513  27.985  23.090  1.00  0.00     0.123 A 
ATOM     93  F   UNL A   1      30.943  29.139  23.458  1.00  0.00    -0.207 F 
ENDBRANCH  86  87
ENDBRANCH  80  86
BRANCH  84  94
ATOM     94  C   UNL A   1      33.135  18.530  25.290  1.00  0.00     0.232 C 
ATOM     95  O   UNL A   1      32.354  18.120  26.141  1.00  0.00    -0.274 OA
BRANCH  94  96
ATOM     96  C   UNL A   1      34.014  17.574  24.580  1.00  0.00     0.154 C 
ATOM     97  C   UNL A   1      33.537  16.150  24.319  1.00  0.00     0.097 C 
ATOM     98  C   UNL A   1      33.674  17.124  23.211  1.00  0.00     0.260 C 
ATOM     99  F   UNL A   1      32.539  17.524  22.546  1.00  0.00    -0.206 F 
ATOM    100  F   UNL A   1      34.648  16.907  22.265  1.00  0.00    -0.206 F 
ENDBRANCH  94  96
ENDBRANCH  84  94
ENDBRANCH  75  77
ENDBRANCH  74  75
ENDBRANCH  73  74
ENDBRANCH   1  73
TORSDOF 18
ENDMDL
MODEL 2
REMARK VINA RESULT:     -13.1      1.354      4.269
REMARK SMILES O=C(OCCOC(=O)c1nn(Cc2ccc(F)cc2)c2c1CN(C(=O)[C@H]1CC1(F)F)CC2)c1ccc(-c2c3nc(c(-c4c(F)cc(S(=O)(=O)[O-])cc4F)c4ccc([nH]4)c(-c4c(F)cc(S(=O)(=O)[O-])cc4F)c4nc(c(-c5c(F)cc(S(=O)(=O)[O-])cc5F)c5ccc2[nH]5)C=C4)C=C3)cc1
REMARK SMILES IDX 4 1 3 2 2 3 1 4 33 5 34 6 98 7 35 8 97 9 36 10 37 11 38 12
REMARK SMILES IDX 91 13 39 14 96 15 90 16 92 17 40 18 95 19 89 20 88 21 41 23
REMARK SMILES IDX 75 24 54 25 74 26 55 27 58 28 73 29 93 30 56 31 57 32 72 34
REMARK SMILES IDX 94 35 59 36 42 37 43 38 52 39 44 40 45 41 51 42 53 43 46 44
REMARK SMILES IDX 47 45 48 46 49 47 50 48 76 49 77 50 86 51 78 52 79 53 85 54
REMARK SMILES IDX 87 55 80 56 81 57 82 58 83 59 84 60 60 61 61 62 70 63 62 64
REMARK SMILES IDX 63 65 69 66 71 67 64 68 65 69 66 70 67 71 68 72 5 73 6 74
REMARK SMILES IDX 7 75 8 76 9 77 10 78 21 79 11 80 20 81 22 82 32 83 23 84
REMARK SMILES IDX 31 85 12 86 13 87 14 88 19 89 15 90 18 91 16 92 17 93 24 94
REMARK SMILES IDX 25 95 26 96 27 97 28 98 29 99 30 100
REMARK H PARENT 92 22 58 33
REMARK Flexibility Score: inf
ROOT
ATOM      1  C   UNL A   1      38.423  21.839  25.719  1.00  0.00     0.275 C 
ENDROOT
BRANCH   1   2
ATOM      2  O   UNL A   1      39.347  22.039  26.804  1.00  0.00    -0.458 OA
BRANCH   2   3
ATOM      3  C   UNL A   1      40.519  22.649  26.541  1.00  0.00     0.338 C 
ATOM      4  O   UNL A   1      41.395  22.208  25.821  1.00  0.00    -0.246 OA
BRANCH   3   5
ATOM      5  C   UNL A   1      40.581  23.957  27.227  1.00  0.00     0.060 A 
ATOM      6  C   UNL A   1      41.638  24.294  28.080  1.00  0.00     0.016 A 
ATOM      7  C   UNL A   1      39.604  24.900  26.924  1.00  0.00     0.016 A 
ATOM      8  C   UNL A   1      41.693  25.561  28.653  1.00  0.00     0.010 A 
ATOM      9  C   UNL A   1      39.704  26.186  27.446  1.00  0.00     0.010 A 
ATOM     10  C   UNL A   1      40.720  26.519  28.349  1.00  0.00    -0.014 A 
BRANCH  10  11
ATOM     11  C   UNL A   1      40.820  27.849  28.978  1.00  0.00     0.031 A 
ATOM     12  C   UNL A   1      41.933  28.770  28.536  1.00  0.00     0.074 A 
ATOM     13  C   UNL A   1      39.913  28.321  29.865  1.00  0.00     0.049 A 
ATOM     14  N   UNL A   1      42.782  29.426  29.266  1.00  0.00    -0.248 NA
ATOM     15  C   UNL A   1      42.138  28.989  27.095  1.00  0.00     0.031 C 
ATOM     16  C   UNL A   1      38.640  27.737  30.310  1.00  0.00     0.029 A 
ATOM     17  N   UNL A   1      39.940  29.512  30.530  1.00  0.00    -0.354 N 
ATOM     18  C   UNL A   1      43.524  30.237  28.404  1.00  0.00     0.074 A 
ATOM     19  C   UNL A   1      43.069  29.943  27.071  1.00  0.00     0.031 C 
ATOM     20  C   UNL A   1      37.927  28.661  30.991  1.00  0.00     0.029 A 
ATOM     21  C   UNL A   1      38.768  29.822  31.199  1.00  0.00     0.049 A 
ATOM     22  H   UNL A   1      40.727  30.102  30.532  1.00  0.00     0.167 HD
ATOM     23  C   UNL A   1      44.460  31.132  28.826  1.00  0.00     0.037 A 
ATOM     24  C   UNL A   1      38.497  30.941  31.908  1.00  0.00     0.037 A 
ATOM     25  C   UNL A   1      44.969  30.790  30.122  1.00  0.00     0.049 A 
ATOM     26  C   UNL A   1      39.796  31.518  32.324  1.00  0.00     0.074 A 
ATOM     27  C   UNL A   1      45.670  29.702  30.608  1.00  0.00     0.029 A 
ATOM     28  N   UNL A   1      44.487  31.436  31.230  1.00  0.00    -0.354 N 
ATOM     29  N   UNL A   1      40.616  30.943  33.162  1.00  0.00    -0.248 NA
ATOM     30  C   UNL A   1      40.376  32.559  31.493  1.00  0.00     0.031 C 
ATOM     31  C   UNL A   1      45.113  29.459  31.895  1.00  0.00     0.029 A 
ATOM     32  C   UNL A   1      44.153  30.448  32.124  1.00  0.00     0.049 A 
ATOM     33  H   UNL A   1      44.399  32.407  31.360  1.00  0.00     0.167 HD
ATOM     34  C   UNL A   1      41.882  31.259  32.695  1.00  0.00     0.074 A 
ATOM     35  C   UNL A   1      41.669  32.327  31.721  1.00  0.00     0.031 C 
ATOM     36  C   UNL A   1      42.962  30.461  32.946  1.00  0.00     0.037 A 
BRANCH  23  37
ATOM     37  C   UNL A   1      44.808  32.415  28.123  1.00  0.00     0.058 A 
ATOM     38  C   UNL A   1      44.004  33.569  28.231  1.00  0.00     0.135 A 
ATOM     39  C   UNL A   1      46.087  32.605  27.560  1.00  0.00     0.135 A 
ATOM     40  F   UNL A   1      42.791  33.524  28.803  1.00  0.00    -0.206 F 
ATOM     41  C   UNL A   1      44.444  34.828  27.832  1.00  0.00     0.059 A 
ATOM     42  C   UNL A   1      46.560  33.864  27.178  1.00  0.00     0.059 A 
ATOM     43  F   UNL A   1      46.932  31.572  27.419  1.00  0.00    -0.206 F 
ATOM     44  C   UNL A   1      45.733  34.972  27.332  1.00  0.00     0.060 A 
BRANCH  44  45
ATOM     45  S   UNL A   1      46.329  36.640  26.989  1.00  0.00     0.124 S 
ATOM     46  O   UNL A   1      46.925  36.469  25.667  1.00  0.00    -0.237 OA
ATOM     47  O   UNL A   1      45.094  37.415  27.034  1.00  0.00    -0.237 OA
ATOM     48  O   UNL A   1      47.269  36.895  28.075  1.00  0.00    -0.744 OA
ENDBRANCH  44  45
ENDBRANCH  23  37
BRANCH  24  49
ATOM     49  C   UNL A   1      37.222  31.697  31.946  1.00  0.00     0.058 A 
ATOM     50  C   UNL A   1      36.706  32.311  30.786  1.00  0.00     0.135 A 
ATOM     51  C   UNL A   1      36.645  32.080  33.168  1.00  0.00     0.135 A 
ATOM     52  F   UNL A   1      37.223  32.048  29.575  1.00  0.00    -0.206 F 
ATOM     53  C   UNL A   1      35.718  33.290  30.840  1.00  0.00     0.059 A 
ATOM     54  C   UNL A   1      35.656  33.066  33.247  1.00  0.00     0.059 A 
ATOM     55  F   UNL A   1      37.091  31.553  34.318  1.00  0.00    -0.206 F 
ATOM     56  C   UNL A   1      35.225  33.688  32.078  1.00  0.00     0.060 A 
BRANCH  56  57
ATOM     57  S   UNL A   1      34.105  35.105  32.128  1.00  0.00     0.124 S 
ATOM     58  O   UNL A   1      34.875  36.062  32.915  1.00  0.00    -0.237 OA
ATOM     59  O   UNL A   1      33.957  35.425  30.711  1.00  0.00    -0.237 OA
ATOM     60  O   UNL A   1      32.912  34.574  32.779  1.00  0.00    -0.744 OA
ENDBRANCH  56  57
ENDBRANCH  24  49
BRANCH  36  61
ATOM     61  C   UNL A   1      42.833  29.337  33.944  1.00  0.00     0.058 A 
ATOM     62  C   UNL A   1      42.289  28.119  33.507  1.00  0.00     0.135 A 
ATOM     63  C   UNL A   1      43.022  29.489  35.330  1.00  0.00     0.135 A 
ATOM     64  F   UNL A   1      42.031  27.927  32.202  1.00  0.00    -0.206 F 
ATOM     65  C   UNL A   1      41.925  27.110  34.395  1.00  0.00     0.059 A 
ATOM     66  C   UNL A   1      42.696  28.477  36.238  1.00  0.00     0.059 A 
ATOM     67  F   UNL A   1      43.448  30.650  35.844  1.00  0.00    -0.206 F 
ATOM     68  C   UNL A   1      42.125  27.300  35.761  1.00  0.00     0.060 A 
BRANCH  68  69
ATOM     69  S   UNL A   1      41.582  26.004  36.895  1.00  0.00     0.124 S 
ATOM     70  O   UNL A   1      42.801  25.735  37.652  1.00  0.00    -0.237 OA
ATOM     71  O   UNL A   1      40.514  26.666  37.638  1.00  0.00    -0.237 OA
ATOM     72  O   UNL A   1      41.148  24.926  36.012  1.00  0.00    -0.744 OA
ENDBRANCH  68  69
ENDBRANCH  36  61
ENDBRANCH  10  11
ENDBRANCH   3   5
ENDBRANCH   2   3
ENDBRANCH   1   2
BRANCH   1  73
ATOM     73  C   UNL A   1      37.002  22.399  25.854  1.00  0.00     0.275 C 
BRANCH  73  74
ATOM     74  O   UNL A   1      36.804  23.537  24.995  1.00  0.00    -0.457 OA
BRANCH  74  75
ATOM     75  C   UNL A   1      36.239  23.299  23.765  1.00  0.00     0.359 C 
ATOM     76  O   UNL A   1      36.852  23.248  22.707  1.00  0.00    -0.244 OA
BRANCH  75  77
ATOM     77  C   UNL A   1      34.780  23.162  23.848  1.00  0.00     0.175 A 
ATOM     78  N   UNL A   1      34.227  21.942  24.024  1.00  0.00    -0.165 NA
ATOM     79  C   UNL A   1      33.775  24.172  23.835  1.00  0.00     0.028 A 
ATOM     80  N   UNL A   1      32.898  22.167  24.104  1.00  0.00    -0.264 N 
ATOM     81  C   UNL A   1      32.586  23.475  23.887  1.00  0.00     0.046 A 
ATOM     82  C   UNL A   1      33.850  25.659  23.739  1.00  0.00     0.159 C 
ATOM     83  C   UNL A   1      31.244  24.088  23.787  1.00  0.00     0.078 C 
ATOM     84  N   UNL A   1      32.498  26.265  23.647  1.00  0.00    -0.337 N 
ATOM     85  C   UNL A   1      31.392  25.457  23.100  1.00  0.00     0.126 C 
BRANCH  80  86
ATOM     86  C   UNL A   1      32.015  21.131  24.629  1.00  0.00     0.180 C 
BRANCH  86  87
ATOM     87  C   UNL A   1      32.474  19.730  24.317  1.00  0.00    -0.026 A 
ATOM     88  C   UNL A   1      33.087  18.946  25.309  1.00  0.00     0.008 A 
ATOM     89  C   UNL A   1      32.251  19.173  23.047  1.00  0.00     0.008 A 
ATOM     90  C   UNL A   1      33.461  17.631  25.043  1.00  0.00     0.039 A 
ATOM     91  C   UNL A   1      32.623  17.852  22.786  1.00  0.00     0.039 A 
ATOM     92  C   UNL A   1      33.219  17.094  23.786  1.00  0.00     0.123 A 
ATOM     93  F   UNL A   1      33.559  15.822  23.540  1.00  0.00    -0.207 F 
ENDBRANCH  86  87
ENDBRANCH  80  86
BRANCH  84  94
ATOM     94  C   UNL A   1      32.413  27.651  23.762  1.00  0.00     0.232 C 
ATOM     95  O   UNL A   1      32.089  28.380  22.832  1.00  0.00    -0.274 OA
BRANCH  94  96
ATOM     96  C   UNL A   1      32.693  28.238  25.092  1.00  0.00     0.154 C 
ATOM     97  C   UNL A   1      31.735  29.262  25.690  1.00  0.00     0.097 C 
ATOM     98  C   UNL A   1      31.841  27.896  26.253  1.00  0.00     0.260 C 
ATOM     99  F   UNL A   1      30.749  27.065  26.168  1.00  0.00    -0.206 F 
ATOM    100  F   UNL A   1      32.372  27.746  27.512  1.00  0.00    -0.206 F 
ENDBRANCH  94  96
ENDBRANCH  84  94
ENDBRANCH  75  77
ENDBRANCH  74  75
ENDBRANCH  73  74
ENDBRANCH   1  73
TORSDOF 18
ENDMDL
MODEL 3
REMARK VINA RESULT:     -12.9      3.434     10.155
REMARK SMILES O=C(OCCOC(=O)c1nn(Cc2ccc(F)cc2)c2c1CN(C(=O)[C@H]1CC1(F)F)CC2)c1ccc(-c2c3nc(c(-c4c(F)cc(S(=O)(=O)[O-])cc4F)c4ccc([nH]4)c(-c4c(F)cc(S(=O)(=O)[O-])cc4F)c4nc(c(-c5c(F)cc(S(=O)(=O)[O-])cc5F)c5ccc2[nH]5)C=C4)C=C3)cc1
REMARK SMILES IDX 4 1 3 2 2 3 1 4 33 5 34 6 98 7 35 8 97 9 36 10 37 11 38 12
REMARK SMILES IDX 91 13 39 14 96 15 90 16 92 17 40 18 95 19 89 20 88 21 41 23
REMARK SMILES IDX 75 24 54 25 74 26 55 27 58 28 73 29 93 30 56 31 57 32 72 34
REMARK SMILES IDX 94 35 59 36 42 37 43 38 52 39 44 40 45 41 51 42 53 43 46 44
REMARK SMILES IDX 47 45 48 46 49 47 50 48 76 49 77 50 86 51 78 52 79 53 85 54
REMARK SMILES IDX 87 55 80 56 81 57 82 58 83 59 84 60 60 61 61 62 70 63 62 64
REMARK SMILES IDX 63 65 69 66 71 67 64 68 65 69 66 70 67 71 68 72 5 73 6 74
REMARK SMILES IDX 7 75 8 76 9 77 10 78 21 79 11 80 20 81 22 82 32 83 23 84
REMARK SMILES IDX 31 85 12 86 13 87 14 88 19 89 15 90 18 91 16 92 17 93 24 94
REMARK SMILES IDX 25 95 26 96 27 97 28 98 29 99 30 100
REMARK H PARENT 92 22 58 33
REMARK Flexibility Score: inf
ROOT
ATOM      1  C   UNL A   1      33.151  30.943  27.415  1.00  0.00     0.275 C 
ENDROOT
BRANCH   1   2
ATOM      2  O   UNL A   1      34.435  31.572  27.578  1.00  0.00    -0.458 OA
BRANCH   2   3
ATOM      3  C   UNL A   1      34.879  31.803  28.828  1.00  0.00     0.338 C 
ATOM      4  O   UNL A   1      34.304  32.472  29.666  1.00  0.00    -0.246 OA
BRANCH   3   5
ATOM      5  C   UNL A   1      36.158  31.098  29.057  1.00  0.00     0.060 A 
ATOM      6  C   UNL A   1      36.295  29.724  28.834  1.00  0.00     0.016 A 
ATOM      7  C   UNL A   1      37.269  31.859  29.409  1.00  0.00     0.016 A 
ATOM      8  C   UNL A   1      37.533  29.111  28.997  1.00  0.00     0.010 A 
ATOM      9  C   UNL A   1      38.517  31.253  29.502  1.00  0.00     0.010 A 
ATOM     10  C   UNL A   1      38.658  29.869  29.342  1.00  0.00    -0.014 A 
BRANCH  10  11
ATOM     11  C   UNL A   1      39.951  29.177  29.502  1.00  0.00     0.031 A 
ATOM     12  C   UNL A   1      40.477  28.957  30.901  1.00  0.00     0.074 A 
ATOM     13  C   UNL A   1      40.644  28.649  28.467  1.00  0.00     0.049 A 
ATOM     14  N   UNL A   1      41.656  29.222  31.376  1.00  0.00    -0.248 NA
ATOM     15  C   UNL A   1      39.579  28.375  31.910  1.00  0.00     0.031 C 
ATOM     16  C   UNL A   1      40.275  28.531  27.050  1.00  0.00     0.029 A 
ATOM     17  N   UNL A   1      41.860  28.032  28.508  1.00  0.00    -0.354 N 
ATOM     18  C   UNL A   1      41.696  28.718  32.678  1.00  0.00     0.074 A 
ATOM     19  C   UNL A   1      40.389  28.184  32.953  1.00  0.00     0.031 C 
ATOM     20  C   UNL A   1      41.136  27.701  26.421  1.00  0.00     0.029 A 
ATOM     21  C   UNL A   1      42.219  27.393  27.332  1.00  0.00     0.049 A 
ATOM     22  H   UNL A   1      42.434  28.039  29.307  1.00  0.00     0.167 HD
ATOM     23  C   UNL A   1      42.809  28.740  33.463  1.00  0.00     0.037 A 
ATOM     24  C   UNL A   1      43.341  26.678  27.094  1.00  0.00     0.037 A 
ATOM     25  C   UNL A   1      43.726  29.761  33.048  1.00  0.00     0.049 A 
ATOM     26  C   UNL A   1      44.363  27.137  28.064  1.00  0.00     0.074 A 
ATOM     27  C   UNL A   1      43.644  31.140  32.984  1.00  0.00     0.029 A 
ATOM     28  N   UNL A   1      44.810  29.426  32.279  1.00  0.00    -0.354 N 
ATOM     29  N   UNL A   1      44.884  28.334  28.065  1.00  0.00    -0.248 NA
ATOM     30  C   UNL A   1      44.518  26.384  29.297  1.00  0.00     0.031 C 
ATOM     31  C   UNL A   1      44.313  31.485  31.776  1.00  0.00     0.029 A 
ATOM     32  C   UNL A   1      44.803  30.300  31.220  1.00  0.00     0.049 A 
ATOM     33  H   UNL A   1      45.459  28.706  32.450  1.00  0.00     0.167 HD
ATOM     34  C   UNL A   1      45.075  28.638  29.403  1.00  0.00     0.074 A 
ATOM     35  C   UNL A   1      44.916  27.367  30.105  1.00  0.00     0.031 C 
ATOM     36  C   UNL A   1      45.095  29.927  29.853  1.00  0.00     0.037 A 
BRANCH  23  37
ATOM     37  C   UNL A   1      43.140  27.726  34.523  1.00  0.00     0.058 A 
ATOM     38  C   UNL A   1      43.668  26.457  34.206  1.00  0.00     0.135 A 
ATOM     39  C   UNL A   1      43.199  28.097  35.882  1.00  0.00     0.135 A 
ATOM     40  F   UNL A   1      43.719  26.018  32.940  1.00  0.00    -0.206 F 
ATOM     41  C   UNL A   1      44.239  25.623  35.164  1.00  0.00     0.059 A 
ATOM     42  C   UNL A   1      43.793  27.288  36.856  1.00  0.00     0.059 A 
ATOM     43  F   UNL A   1      42.729  29.287  36.288  1.00  0.00    -0.206 F 
ATOM     44  C   UNL A   1      44.323  26.057  36.482  1.00  0.00     0.060 A 
BRANCH  44  45
ATOM     45  S   UNL A   1      45.223  25.028  37.659  1.00  0.00     0.124 S 
ATOM     46  O   UNL A   1      44.554  25.367  38.912  1.00  0.00    -0.237 OA
ATOM     47  O   UNL A   1      44.967  23.688  37.144  1.00  0.00    -0.237 OA
ATOM     48  O   UNL A   1      46.600  25.495  37.535  1.00  0.00    -0.744 OA
ENDBRANCH  44  45
ENDBRANCH  23  37
BRANCH  24  49
ATOM     49  C   UNL A   1      43.460  25.417  26.324  1.00  0.00     0.058 A 
ATOM     50  C   UNL A   1      42.856  24.227  26.778  1.00  0.00     0.135 A 
ATOM     51  C   UNL A   1      44.407  25.287  25.293  1.00  0.00     0.135 A 
ATOM     52  F   UNL A   1      41.975  24.241  27.791  1.00  0.00    -0.206 F 
ATOM     53  C   UNL A   1      43.212  22.976  26.282  1.00  0.00     0.059 A 
ATOM     54  C   UNL A   1      44.784  24.040  24.784  1.00  0.00     0.059 A 
ATOM     55  F   UNL A   1      45.037  26.370  24.817  1.00  0.00    -0.206 F 
ATOM     56  C   UNL A   1      44.204  22.889  25.311  1.00  0.00     0.060 A 
BRANCH  56  57
ATOM     57  S   UNL A   1      44.791  21.245  24.846  1.00  0.00     0.124 S 
ATOM     58  O   UNL A   1      46.166  21.273  25.337  1.00  0.00    -0.237 OA
ATOM     59  O   UNL A   1      43.876  20.377  25.580  1.00  0.00    -0.237 OA
ATOM     60  O   UNL A   1      44.645  21.227  23.395  1.00  0.00    -0.744 OA
ENDBRANCH  56  57
ENDBRANCH  24  49
BRANCH  36  61
ATOM     61  C   UNL A   1      45.144  31.057  28.854  1.00  0.00     0.058 A 
ATOM     62  C   UNL A   1      43.929  31.591  28.394  1.00  0.00     0.135 A 
ATOM     63  C   UNL A   1      46.313  31.472  28.191  1.00  0.00     0.135 A 
ATOM     64  F   UNL A   1      42.769  31.196  28.946  1.00  0.00    -0.206 F 
ATOM     65  C   UNL A   1      43.869  32.470  27.317  1.00  0.00     0.059 A 
ATOM     66  C   UNL A   1      46.281  32.380  27.128  1.00  0.00     0.059 A 
ATOM     67  F   UNL A   1      47.505  30.944  28.500  1.00  0.00    -0.206 F 
ATOM     68  C   UNL A   1      45.050  32.855  26.684  1.00  0.00     0.060 A 
BRANCH  68  69
ATOM     69  S   UNL A   1      44.936  33.943  25.246  1.00  0.00     0.124 S 
ATOM     70  O   UNL A   1      46.299  34.459  25.150  1.00  0.00    -0.237 OA
ATOM     71  O   UNL A   1      44.537  33.021  24.187  1.00  0.00    -0.237 OA
ATOM     72  O   UNL A   1      43.925  34.924  25.630  1.00  0.00    -0.744 OA
ENDBRANCH  68  69
ENDBRANCH  36  61
ENDBRANCH  10  11
ENDBRANCH   3   5
ENDBRANCH   2   3
ENDBRANCH   1   2
BRANCH   1  73
ATOM     73  C   UNL A   1      32.867  30.185  26.113  1.00  0.00     0.275 C 
BRANCH  73  74
ATOM     74  O   UNL A   1      33.863  29.176  25.867  1.00  0.00    -0.457 OA
BRANCH  74  75
ATOM     75  C   UNL A   1      33.666  28.355  24.782  1.00  0.00     0.359 C 
ATOM     76  O   UNL A   1      34.297  28.410  23.735  1.00  0.00    -0.244 OA
BRANCH  75  77
ATOM     77  C   UNL A   1      32.560  27.416  24.998  1.00  0.00     0.175 A 
ATOM     78  N   UNL A   1      32.751  26.309  25.749  1.00  0.00    -0.165 NA
ATOM     79  C   UNL A   1      31.202  27.504  24.573  1.00  0.00     0.028 A 
ATOM     80  N   UNL A   1      31.548  25.697  25.787  1.00  0.00    -0.264 N 
ATOM     81  C   UNL A   1      30.628  26.328  25.005  1.00  0.00     0.046 A 
ATOM     82  C   UNL A   1      30.462  28.539  23.794  1.00  0.00     0.159 C 
ATOM     83  C   UNL A   1      29.243  25.904  24.705  1.00  0.00     0.078 C 
ATOM     84  N   UNL A   1      29.072  28.108  23.504  1.00  0.00    -0.337 N 
ATOM     85  C   UNL A   1      28.770  26.665  23.455  1.00  0.00     0.126 C 
BRANCH  80  86
ATOM     86  C   UNL A   1      31.291  24.659  26.780  1.00  0.00     0.180 C 
BRANCH  86  87
ATOM     87  C   UNL A   1      31.930  23.335  26.450  1.00  0.00    -0.026 A 
ATOM     88  C   UNL A   1      31.497  22.596  25.335  1.00  0.00     0.008 A 
ATOM     89  C   UNL A   1      32.998  22.846  27.220  1.00  0.00     0.008 A 
ATOM     90  C   UNL A   1      32.123  21.400  24.992  1.00  0.00     0.039 A 
ATOM     91  C   UNL A   1      33.626  21.649  26.869  1.00  0.00     0.039 A 
ATOM     92  C   UNL A   1      33.186  20.941  25.757  1.00  0.00     0.123 A 
ATOM     93  F   UNL A   1      33.801  19.803  25.411  1.00  0.00    -0.207 F 
ENDBRANCH  86  87
ENDBRANCH  80  86
BRANCH  84  94
ATOM     94  C   UNL A   1      28.209  29.062  22.968  1.00  0.00     0.232 C 
ATOM     95  O   UNL A   1      27.003  29.071  23.188  1.00  0.00    -0.274 OA
BRANCH  94  96
ATOM     96  C   UNL A   1      28.809  30.124  22.130  1.00  0.00     0.154 C 
ATOM     97  C   UNL A   1      27.980  30.796  21.042  1.00  0.00     0.097 C 
ATOM     98  C   UNL A   1      28.362  31.528  22.272  1.00  0.00     0.260 C 
ATOM     99  F   UNL A   1      27.368  31.919  23.138  1.00  0.00    -0.206 F 
ATOM    100  F   UNL A   1      29.245  32.576  22.163  1.00  0.00    -0.206 F 
ENDBRANCH  94  96
ENDBRANCH  84  94
ENDBRANCH  75  77
ENDBRANCH  74  75
ENDBRANCH  73  74
ENDBRANCH   1  73
TORSDOF 18
ENDMDL
