MODEL 1
REMARK VINA RESULT:     -10.7      0.000      0.000
REMARK SMILES CC[NH2+][C@@]1(C(=O)OCCOC(=O)c2ccc(-c3c4nc(c(-c5c(F)cc(S(=O)(=O)[O-])cc5F)c5ccc([nH]5)c(-c5c(F)cc(S(=O)(=O)[O-])cc5F)c5nc(c(-c6c(F)cc(S(=O)(=O)[O-])cc6F)c6ccc3[nH]6)C=C5)C=C4)cc2)CC[C@@H](Oc2cccc(OC)c2)C1
REMARK SMILES IDX 8 1 7 2 5 3 6 4 4 5 79 6 91 7 80 8 81 9 3 10 2 13 1 14 82 15
REMARK SMILES IDX 83 16 84 17 90 18 85 19 87 20 86 21 88 22 89 23 9 24 10 25
REMARK SMILES IDX 11 26 12 27 13 28 14 29 78 30 15 31 77 32 16 33 17 34 18 35
REMARK SMILES IDX 71 36 19 37 76 38 70 39 72 40 20 41 75 42 69 43 68 44 21 46
REMARK SMILES IDX 55 47 34 48 54 49 35 50 38 51 53 52 73 53 36 54 37 55 52 57
REMARK SMILES IDX 74 58 39 59 22 60 23 61 32 62 24 63 25 64 31 65 33 66 26 67
REMARK SMILES IDX 27 68 28 69 29 70 30 71 56 72 57 73 66 74 58 75 59 76 65 77
REMARK SMILES IDX 67 78 60 79 61 80 62 81 63 82 64 83 40 84 41 85 50 86 42 87
REMARK SMILES IDX 43 88 49 89 51 90 44 91 45 92 46 93 47 94 48 95
REMARK H PARENT 3 11 3 12 72 45 38 56
REMARK Flexibility Score: inf
ROOT
ATOM      1  C   UNL A   1      31.918  29.877  25.640  1.00  0.00     0.274 C 
ENDROOT
BRANCH   1   2
ATOM      2  O   UNL A   1      31.998  28.479  25.298  1.00  0.00    -0.457 OA
BRANCH   2   3
ATOM      3  C   UNL A   1      32.812  28.161  24.251  1.00  0.00     0.368 C 
ATOM      4  O   UNL A   1      33.918  28.662  24.077  1.00  0.00    -0.245 OA
BRANCH   3   5
ATOM      5  C   UNL A   1      32.164  27.118  23.274  1.00  0.00     0.198 C 
ATOM      6  C   UNL A   1      31.286  26.191  24.136  1.00  0.00     0.085 C 
ATOM      7  C   UNL A   1      33.187  26.167  22.617  1.00  0.00     0.126 C 
ATOM      8  C   UNL A   1      32.269  25.154  24.670  1.00  0.00     0.052 C 
ATOM      9  C   UNL A   1      33.236  24.912  23.504  1.00  0.00     0.180 C 
BRANCH   5  10
ATOM     10  N   UNL A   1      31.488  27.914  22.226  1.00  0.00    -0.332 N 
ATOM     11  H   UNL A   1      31.984  28.801  22.149  1.00  0.00     0.347 HD
ATOM     12  H   UNL A   1      31.514  27.320  21.397  1.00  0.00     0.347 HD
BRANCH  10  13
ATOM     13  C   UNL A   1      30.079  28.220  22.413  1.00  0.00     0.257 C 
ATOM     14  C   UNL A   1      29.873  29.728  22.384  1.00  0.00     0.071 C 
ENDBRANCH  10  13
ENDBRANCH   5  10
BRANCH   9  15
ATOM     15  O   UNL A   1      33.075  23.677  22.780  1.00  0.00    -0.490 OA
BRANCH  15  16
ATOM     16  C   UNL A   1      33.435  22.523  23.420  1.00  0.00     0.123 A 
ATOM     17  C   UNL A   1      32.533  21.461  23.462  1.00  0.00     0.047 A 
ATOM     18  C   UNL A   1      34.628  22.456  24.144  1.00  0.00     0.092 A 
ATOM     19  C   UNL A   1      32.866  20.293  24.144  1.00  0.00     0.008 A 
ATOM     20  C   UNL A   1      34.980  21.279  24.808  1.00  0.00     0.122 A 
ATOM     21  C   UNL A   1      34.093  20.200  24.802  1.00  0.00     0.046 A 
BRANCH  20  22
ATOM     22  O   UNL A   1      36.140  21.061  25.499  1.00  0.00    -0.497 OA
ATOM     23  C   UNL A   1      37.350  21.047  24.748  1.00  0.00     0.278 C 
ENDBRANCH  20  22
ENDBRANCH  15  16
ENDBRANCH   9  15
ENDBRANCH   3   5
ENDBRANCH   2   3
ENDBRANCH   1   2
BRANCH   1  24
ATOM     24  C   UNL A   1      32.481  30.119  27.038  1.00  0.00     0.275 C 
BRANCH  24  25
ATOM     25  O   UNL A   1      33.918  30.069  27.026  1.00  0.00    -0.458 OA
BRANCH  25  26
ATOM     26  C   UNL A   1      34.527  30.687  28.063  1.00  0.00     0.338 C 
ATOM     27  O   UNL A   1      34.079  31.575  28.766  1.00  0.00    -0.246 OA
BRANCH  26  28
ATOM     28  C   UNL A   1      35.867  30.118  28.259  1.00  0.00     0.060 A 
ATOM     29  C   UNL A   1      36.258  29.711  29.533  1.00  0.00     0.016 A 
ATOM     30  C   UNL A   1      36.779  30.120  27.204  1.00  0.00     0.016 A 
ATOM     31  C   UNL A   1      37.593  29.395  29.779  1.00  0.00     0.010 A 
ATOM     32  C   UNL A   1      38.095  29.710  27.437  1.00  0.00     0.010 A 
ATOM     33  C   UNL A   1      38.527  29.375  28.733  1.00  0.00    -0.014 A 
BRANCH  33  34
ATOM     34  C   UNL A   1      39.957  29.034  28.974  1.00  0.00     0.031 A 
ATOM     35  C   UNL A   1      40.897  30.085  29.506  1.00  0.00     0.074 A 
ATOM     36  C   UNL A   1      40.429  27.802  28.699  1.00  0.00     0.049 A 
ATOM     37  N   UNL A   1      42.204  30.100  29.513  1.00  0.00    -0.248 NA
ATOM     38  C   UNL A   1      40.280  31.285  30.094  1.00  0.00     0.031 C 
ATOM     39  C   UNL A   1      39.628  26.664  28.244  1.00  0.00     0.029 A 
ATOM     40  N   UNL A   1      41.709  27.304  28.753  1.00  0.00    -0.354 N 
ATOM     41  C   UNL A   1      42.568  31.333  30.041  1.00  0.00     0.074 A 
ATOM     42  C   UNL A   1      41.342  32.033  30.361  1.00  0.00     0.031 C 
ATOM     43  C   UNL A   1      40.428  25.600  28.079  1.00  0.00     0.029 A 
ATOM     44  C   UNL A   1      41.808  26.000  28.326  1.00  0.00     0.049 A 
ATOM     45  H   UNL A   1      42.480  27.831  29.066  1.00  0.00     0.167 HD
ATOM     46  C   UNL A   1      43.812  31.837  30.225  1.00  0.00     0.037 A 
ATOM     47  C   UNL A   1      42.889  25.230  28.101  1.00  0.00     0.037 A 
ATOM     48  C   UNL A   1      45.025  31.112  29.950  1.00  0.00     0.049 A 
ATOM     49  C   UNL A   1      44.261  25.810  28.298  1.00  0.00     0.074 A 
ATOM     50  C   UNL A   1      46.336  31.543  30.068  1.00  0.00     0.029 A 
ATOM     51  N   UNL A   1      45.075  29.791  29.529  1.00  0.00    -0.354 N 
ATOM     52  N   UNL A   1      44.594  27.017  28.686  1.00  0.00    -0.248 NA
ATOM     53  C   UNL A   1      45.403  24.935  27.999  1.00  0.00     0.031 C 
ATOM     54  C   UNL A   1      47.178  30.485  29.709  1.00  0.00     0.029 A 
ATOM     55  C   UNL A   1      46.391  29.388  29.393  1.00  0.00     0.049 A 
ATOM     56  H   UNL A   1      44.290  29.225  29.354  1.00  0.00     0.167 HD
ATOM     57  C   UNL A   1      45.983  27.045  28.686  1.00  0.00     0.074 A 
ATOM     58  C   UNL A   1      46.429  25.731  28.270  1.00  0.00     0.031 C 
ATOM     59  C   UNL A   1      46.814  28.069  28.997  1.00  0.00     0.037 A 
BRANCH  46  60
ATOM     60  C   UNL A   1      43.924  33.255  30.707  1.00  0.00     0.058 A 
ATOM     61  C   UNL A   1      44.134  33.566  32.058  1.00  0.00     0.135 A 
ATOM     62  C   UNL A   1      43.847  34.319  29.793  1.00  0.00     0.135 A 
ATOM     63  F   UNL A   1      44.197  32.587  32.975  1.00  0.00    -0.206 F 
ATOM     64  C   UNL A   1      44.242  34.884  32.491  1.00  0.00     0.059 A 
ATOM     65  C   UNL A   1      43.970  35.644  30.200  1.00  0.00     0.059 A 
ATOM     66  F   UNL A   1      43.646  34.075  28.488  1.00  0.00    -0.206 F 
ATOM     67  C   UNL A   1      44.152  35.917  31.555  1.00  0.00     0.060 A 
BRANCH  67  68
ATOM     68  S   UNL A   1      44.285  37.626  32.125  1.00  0.00     0.124 S 
ATOM     69  O   UNL A   1      43.959  38.361  30.907  1.00  0.00    -0.237 OA
ATOM     70  O   UNL A   1      43.285  37.685  33.187  1.00  0.00    -0.237 OA
ATOM     71  O   UNL A   1      45.671  37.727  32.569  1.00  0.00    -0.744 OA
ENDBRANCH  67  68
ENDBRANCH  46  60
BRANCH  47  72
ATOM     72  C   UNL A   1      42.710  23.837  27.614  1.00  0.00     0.058 A 
ATOM     73  C   UNL A   1      42.581  22.771  28.514  1.00  0.00     0.135 A 
ATOM     74  C   UNL A   1      42.629  23.552  26.242  1.00  0.00     0.135 A 
ATOM     75  F   UNL A   1      42.663  22.994  29.834  1.00  0.00    -0.206 F 
ATOM     76  C   UNL A   1      42.375  21.468  28.073  1.00  0.00     0.059 A 
ATOM     77  C   UNL A   1      42.401  22.262  25.777  1.00  0.00     0.059 A 
ATOM     78  F   UNL A   1      42.736  24.542  25.342  1.00  0.00    -0.206 F 
ATOM     79  C   UNL A   1      42.283  21.224  26.701  1.00  0.00     0.060 A 
BRANCH  79  80
ATOM     80  S   UNL A   1      41.942  19.544  26.130  1.00  0.00     0.124 S 
ATOM     81  O   UNL A   1      42.328  18.757  27.294  1.00  0.00    -0.237 OA
ATOM     82  O   UNL A   1      40.513  19.595  25.838  1.00  0.00    -0.237 OA
ATOM     83  O   UNL A   1      42.806  19.411  24.960  1.00  0.00    -0.744 OA
ENDBRANCH  79  80
ENDBRANCH  47  72
BRANCH  59  84
ATOM     84  C   UNL A   1      48.288  27.804  28.939  1.00  0.00     0.058 A 
ATOM     85  C   UNL A   1      49.004  27.403  30.078  1.00  0.00     0.135 A 
ATOM     86  C   UNL A   1      48.975  27.881  27.719  1.00  0.00     0.135 A 
ATOM     87  F   UNL A   1      48.389  27.323  31.268  1.00  0.00    -0.206 F 
ATOM     88  C   UNL A   1      50.356  27.090  30.006  1.00  0.00     0.059 A 
ATOM     89  C   UNL A   1      50.324  27.559  27.622  1.00  0.00     0.059 A 
ATOM     90  F   UNL A   1      48.329  28.256  26.603  1.00  0.00    -0.206 F 
ATOM     91  C   UNL A   1      51.008  27.167  28.773  1.00  0.00     0.060 A 
BRANCH  91  92
ATOM     92  S   UNL A   1      52.749  26.702  28.677  1.00  0.00     0.124 S 
ATOM     93  O   UNL A   1      53.395  28.004  28.550  1.00  0.00    -0.237 OA
ATOM     94  O   UNL A   1      52.962  26.009  29.944  1.00  0.00    -0.237 OA
ATOM     95  O   UNL A   1      52.806  25.853  27.490  1.00  0.00    -0.744 OA
ENDBRANCH  91  92
ENDBRANCH  59  84
ENDBRANCH  33  34
ENDBRANCH  26  28
ENDBRANCH  25  26
ENDBRANCH  24  25
ENDBRANCH   1  24
TORSDOF 19
ENDMDL
MODEL 2
REMARK VINA RESULT:     -10.6      0.925      2.011
REMARK SMILES CC[NH2+][C@@]1(C(=O)OCCOC(=O)c2ccc(-c3c4nc(c(-c5c(F)cc(S(=O)(=O)[O-])cc5F)c5ccc([nH]5)c(-c5c(F)cc(S(=O)(=O)[O-])cc5F)c5nc(c(-c6c(F)cc(S(=O)(=O)[O-])cc6F)c6ccc3[nH]6)C=C5)C=C4)cc2)CC[C@@H](Oc2cccc(OC)c2)C1
REMARK SMILES IDX 8 1 7 2 5 3 6 4 4 5 79 6 91 7 80 8 81 9 3 10 2 13 1 14 82 15
REMARK SMILES IDX 83 16 84 17 90 18 85 19 87 20 86 21 88 22 89 23 9 24 10 25
REMARK SMILES IDX 11 26 12 27 13 28 14 29 78 30 15 31 77 32 16 33 17 34 18 35
REMARK SMILES IDX 71 36 19 37 76 38 70 39 72 40 20 41 75 42 69 43 68 44 21 46
REMARK SMILES IDX 55 47 34 48 54 49 35 50 38 51 53 52 73 53 36 54 37 55 52 57
REMARK SMILES IDX 74 58 39 59 22 60 23 61 32 62 24 63 25 64 31 65 33 66 26 67
REMARK SMILES IDX 27 68 28 69 29 70 30 71 56 72 57 73 66 74 58 75 59 76 65 77
REMARK SMILES IDX 67 78 60 79 61 80 62 81 63 82 64 83 40 84 41 85 50 86 42 87
REMARK SMILES IDX 43 88 49 89 51 90 44 91 45 92 46 93 47 94 48 95
REMARK H PARENT 3 11 3 12 72 45 38 56
REMARK Flexibility Score: inf
ROOT
ATOM      1  C   UNL A   1      31.931  29.324  27.079  1.00  0.00     0.274 C 
ENDROOT
BRANCH   1   2
ATOM      2  O   UNL A   1      31.490  29.133  25.720  1.00  0.00    -0.457 OA
BRANCH   2   3
ATOM      3  C   UNL A   1      32.084  28.116  25.033  1.00  0.00     0.368 C 
ATOM      4  O   UNL A   1      33.277  28.096  24.747  1.00  0.00    -0.245 OA
BRANCH   3   5
ATOM      5  C   UNL A   1      31.069  26.995  24.613  1.00  0.00     0.198 C 
ATOM      6  C   UNL A   1      30.595  26.318  25.913  1.00  0.00     0.085 C 
ATOM      7  C   UNL A   1      31.712  25.850  23.802  1.00  0.00     0.126 C 
ATOM      8  C   UNL A   1      31.685  25.291  26.204  1.00  0.00     0.052 C 
ATOM      9  C   UNL A   1      32.088  24.762  24.821  1.00  0.00     0.180 C 
BRANCH   5  10
ATOM     10  N   UNL A   1      30.045  27.669  23.785  1.00  0.00    -0.332 N 
ATOM     11  H   UNL A   1      29.285  27.005  23.639  1.00  0.00     0.347 HD
ATOM     12  H   UNL A   1      29.801  28.509  24.311  1.00  0.00     0.347 HD
BRANCH  10  13
ATOM     13  C   UNL A   1      30.447  28.161  22.478  1.00  0.00     0.257 C 
ATOM     14  C   UNL A   1      29.921  29.576  22.277  1.00  0.00     0.071 C 
ENDBRANCH  10  13
ENDBRANCH   5  10
BRANCH   9  15
ATOM     15  O   UNL A   1      31.615  23.446  24.473  1.00  0.00    -0.490 OA
BRANCH  15  16
ATOM     16  C   UNL A   1      32.453  22.393  24.719  1.00  0.00     0.123 A 
ATOM     17  C   UNL A   1      33.827  22.569  24.561  1.00  0.00     0.047 A 
ATOM     18  C   UNL A   1      31.937  21.122  24.983  1.00  0.00     0.092 A 
ATOM     19  C   UNL A   1      34.693  21.497  24.767  1.00  0.00     0.008 A 
ATOM     20  C   UNL A   1      32.800  20.049  25.215  1.00  0.00     0.122 A 
ATOM     21  C   UNL A   1      34.178  20.246  25.108  1.00  0.00     0.046 A 
BRANCH  20  22
ATOM     22  O   UNL A   1      32.429  18.774  25.543  1.00  0.00    -0.497 OA
ATOM     23  C   UNL A   1      33.142  17.711  24.920  1.00  0.00     0.278 C 
ENDBRANCH  20  22
ENDBRANCH  15  16
ENDBRANCH   9  15
ENDBRANCH   3   5
ENDBRANCH   2   3
ENDBRANCH   1   2
BRANCH   1  24
ATOM     24  C   UNL A   1      32.789  30.582  27.192  1.00  0.00     0.275 C 
BRANCH  24  25
ATOM     25  O   UNL A   1      34.183  30.242  27.285  1.00  0.00    -0.458 OA
BRANCH  25  26
ATOM     26  C   UNL A   1      34.844  30.794  28.327  1.00  0.00     0.338 C 
ATOM     27  O   UNL A   1      34.448  31.666  29.082  1.00  0.00    -0.246 OA
BRANCH  26  28
ATOM     28  C   UNL A   1      36.169  30.174  28.457  1.00  0.00     0.060 A 
ATOM     29  C   UNL A   1      36.608  29.752  29.710  1.00  0.00     0.016 A 
ATOM     30  C   UNL A   1      37.025  30.140  27.357  1.00  0.00     0.016 A 
ATOM     31  C   UNL A   1      37.941  29.384  29.889  1.00  0.00     0.010 A 
ATOM     32  C   UNL A   1      38.334  29.678  27.523  1.00  0.00     0.010 A 
ATOM     33  C   UNL A   1      38.819  29.328  28.796  1.00  0.00    -0.014 A 
BRANCH  33  34
ATOM     34  C   UNL A   1      40.245  28.931  28.966  1.00  0.00     0.031 A 
ATOM     35  C   UNL A   1      41.251  29.945  29.446  1.00  0.00     0.074 A 
ATOM     36  C   UNL A   1      40.654  27.682  28.671  1.00  0.00     0.049 A 
ATOM     37  N   UNL A   1      42.556  29.909  29.386  1.00  0.00    -0.248 NA
ATOM     38  C   UNL A   1      40.712  31.169  30.061  1.00  0.00     0.031 C 
ATOM     39  C   UNL A   1      39.787  26.576  28.260  1.00  0.00     0.029 A 
ATOM     40  N   UNL A   1      41.915  27.134  28.660  1.00  0.00    -0.354 N 
ATOM     41  C   UNL A   1      42.995  31.127  29.891  1.00  0.00     0.074 A 
ATOM     42  C   UNL A   1      41.815  31.875  30.271  1.00  0.00     0.031 C 
ATOM     43  C   UNL A   1      40.536  25.480  28.058  1.00  0.00     0.029 A 
ATOM     44  C   UNL A   1      41.941  25.827  28.233  1.00  0.00     0.049 A 
ATOM     45  H   UNL A   1      42.720  27.630  28.932  1.00  0.00     0.167 HD
ATOM     46  C   UNL A   1      44.265  31.583  30.010  1.00  0.00     0.037 A 
ATOM     47  C   UNL A   1      42.978  25.014  27.956  1.00  0.00     0.037 A 
ATOM     48  C   UNL A   1      45.433  30.811  29.676  1.00  0.00     0.049 A 
ATOM     49  C   UNL A   1      44.380  25.540  28.081  1.00  0.00     0.074 A 
ATOM     50  C   UNL A   1      46.764  31.190  29.726  1.00  0.00     0.029 A 
ATOM     51  N   UNL A   1      45.410  29.488  29.257  1.00  0.00    -0.354 N 
ATOM     52  N   UNL A   1      44.779  26.734  28.448  1.00  0.00    -0.248 NA
ATOM     53  C   UNL A   1      45.470  24.621  27.726  1.00  0.00     0.031 C 
ATOM     54  C   UNL A   1      47.545  30.099  29.327  1.00  0.00     0.029 A 
ATOM     55  C   UNL A   1      46.701  29.033  29.055  1.00  0.00     0.049 A 
ATOM     56  H   UNL A   1      44.595  28.953  29.124  1.00  0.00     0.167 HD
ATOM     57  C   UNL A   1      46.166  26.708  28.377  1.00  0.00     0.074 A 
ATOM     58  C   UNL A   1      46.539  25.377  27.942  1.00  0.00     0.031 C 
ATOM     59  C   UNL A   1      47.051  27.699  28.642  1.00  0.00     0.037 A 
BRANCH  46  60
ATOM     60  C   UNL A   1      44.457  32.996  30.481  1.00  0.00     0.058 A 
ATOM     61  C   UNL A   1      44.428  34.084  29.596  1.00  0.00     0.135 A 
ATOM     62  C   UNL A   1      44.648  33.264  31.846  1.00  0.00     0.135 A 
ATOM     63  F   UNL A   1      44.268  33.880  28.279  1.00  0.00    -0.206 F 
ATOM     64  C   UNL A   1      44.603  35.389  30.046  1.00  0.00     0.059 A 
ATOM     65  C   UNL A   1      44.806  34.563  32.321  1.00  0.00     0.059 A 
ATOM     66  F   UNL A   1      44.684  32.258  32.734  1.00  0.00    -0.206 F 
ATOM     67  C   UNL A   1      44.797  35.618  31.410  1.00  0.00     0.060 A 
BRANCH  67  68
ATOM     68  S   UNL A   1      45.031  37.314  31.986  1.00  0.00     0.124 S 
ATOM     69  O   UNL A   1      45.628  37.938  30.809  1.00  0.00    -0.237 OA
ATOM     70  O   UNL A   1      43.670  37.733  32.303  1.00  0.00    -0.237 OA
ATOM     71  O   UNL A   1      45.919  37.162  33.135  1.00  0.00    -0.744 OA
ENDBRANCH  67  68
ENDBRANCH  46  60
BRANCH  47  72
ATOM     72  C   UNL A   1      42.720  23.629  27.483  1.00  0.00     0.058 A 
ATOM     73  C   UNL A   1      42.709  23.326  26.115  1.00  0.00     0.135 A 
ATOM     74  C   UNL A   1      42.517  22.577  28.390  1.00  0.00     0.135 A 
ATOM     75  F   UNL A   1      42.888  24.301  25.211  1.00  0.00    -0.206 F 
ATOM     76  C   UNL A   1      42.507  22.028  25.659  1.00  0.00     0.059 A 
ATOM     77  C   UNL A   1      42.335  21.267  27.960  1.00  0.00     0.059 A 
ATOM     78  F   UNL A   1      42.530  22.816  29.710  1.00  0.00    -0.206 F 
ATOM     79  C   UNL A   1      42.324  21.004  26.590  1.00  0.00     0.060 A 
BRANCH  79  80
ATOM     80  S   UNL A   1      42.135  19.306  26.001  1.00  0.00     0.124 S 
ATOM     81  O   UNL A   1      43.026  19.297  24.849  1.00  0.00    -0.237 OA
ATOM     82  O   UNL A   1      42.572  18.523  27.154  1.00  0.00    -0.237 OA
ATOM     83  O   UNL A   1      40.709  19.218  25.702  1.00  0.00    -0.744 OA
ENDBRANCH  79  80
ENDBRANCH  47  72
BRANCH  59  84
ATOM     84  C   UNL A   1      48.509  27.376  28.510  1.00  0.00     0.058 A 
ATOM     85  C   UNL A   1      49.209  27.628  27.320  1.00  0.00     0.135 A 
ATOM     86  C   UNL A   1      49.226  26.878  29.608  1.00  0.00     0.135 A 
ATOM     87  F   UNL A   1      48.562  28.097  26.243  1.00  0.00    -0.206 F 
ATOM     88  C   UNL A   1      50.576  27.394  27.224  1.00  0.00     0.059 A 
ATOM     89  C   UNL A   1      50.596  26.649  29.538  1.00  0.00     0.059 A 
ATOM     90  F   UNL A   1      48.598  26.626  30.767  1.00  0.00    -0.206 F 
ATOM     91  C   UNL A   1      51.262  26.907  28.340  1.00  0.00     0.060 A 
BRANCH  91  92
ATOM     92  S   UNL A   1      53.047  26.661  28.225  1.00  0.00     0.124 S 
ATOM     93  O   UNL A   1      53.376  26.259  29.589  1.00  0.00    -0.237 OA
ATOM     94  O   UNL A   1      53.158  25.617  27.212  1.00  0.00    -0.237 OA
ATOM     95  O   UNL A   1      53.543  27.973  27.819  1.00  0.00    -0.744 OA
ENDBRANCH  91  92
ENDBRANCH  59  84
ENDBRANCH  33  34
ENDBRANCH  26  28
ENDBRANCH  25  26
ENDBRANCH  24  25
ENDBRANCH   1  24
TORSDOF 19
ENDMDL
MODEL 3
REMARK VINA RESULT:     -10.6      2.148      3.107
REMARK SMILES CC[NH2+][C@@]1(C(=O)OCCOC(=O)c2ccc(-c3c4nc(c(-c5c(F)cc(S(=O)(=O)[O-])cc5F)c5ccc([nH]5)c(-c5c(F)cc(S(=O)(=O)[O-])cc5F)c5nc(c(-c6c(F)cc(S(=O)(=O)[O-])cc6F)c6ccc3[nH]6)C=C5)C=C4)cc2)CC[C@@H](Oc2cccc(OC)c2)C1
REMARK SMILES IDX 8 1 7 2 5 3 6 4 4 5 79 6 91 7 80 8 81 9 3 10 2 13 1 14 82 15
REMARK SMILES IDX 83 16 84 17 90 18 85 19 87 20 86 21 88 22 89 23 9 24 10 25
REMARK SMILES IDX 11 26 12 27 13 28 14 29 78 30 15 31 77 32 16 33 17 34 18 35
REMARK SMILES IDX 71 36 19 37 76 38 70 39 72 40 20 41 75 42 69 43 68 44 21 46
REMARK SMILES IDX 55 47 34 48 54 49 35 50 38 51 53 52 73 53 36 54 37 55 52 57
REMARK SMILES IDX 74 58 39 59 22 60 23 61 32 62 24 63 25 64 31 65 33 66 26 67
REMARK SMILES IDX 27 68 28 69 29 70 30 71 56 72 57 73 66 74 58 75 59 76 65 77
REMARK SMILES IDX 67 78 60 79 61 80 62 81 63 82 64 83 40 84 41 85 50 86 42 87
REMARK SMILES IDX 43 88 49 89 51 90 44 91 45 92 46 93 47 94 48 95
REMARK H PARENT 3 11 3 12 72 45 38 56
REMARK Flexibility Score: inf
ROOT
ATOM      1  C   UNL A   1      34.147  29.434  26.989  1.00  0.00     0.274 C 
ENDROOT
BRANCH   1   2
ATOM      2  O   UNL A   1      33.728  29.466  25.610  1.00  0.00    -0.457 OA
BRANCH   2   3
ATOM      3  C   UNL A   1      32.407  29.221  25.377  1.00  0.00     0.368 C 
ATOM      4  O   UNL A   1      31.498  29.868  25.887  1.00  0.00    -0.245 OA
BRANCH   3   5
ATOM      5  C   UNL A   1      32.177  27.999  24.420  1.00  0.00     0.198 C 
ATOM      6  C   UNL A   1      31.014  27.184  25.017  1.00  0.00     0.085 C 
ATOM      7  C   UNL A   1      33.358  27.007  24.387  1.00  0.00     0.126 C 
ATOM      8  C   UNL A   1      31.690  26.301  26.061  1.00  0.00     0.052 C 
ATOM      9  C   UNL A   1      33.033  25.920  25.425  1.00  0.00     0.180 C 
BRANCH   5  10
ATOM     10  N   UNL A   1      31.981  28.575  23.072  1.00  0.00    -0.332 N 
ATOM     11  H   UNL A   1      32.139  29.580  23.143  1.00  0.00     0.347 HD
ATOM     12  H   UNL A   1      32.636  28.067  22.477  1.00  0.00     0.347 HD
BRANCH  10  13
ATOM     13  C   UNL A   1      30.688  28.385  22.436  1.00  0.00     0.257 C 
ATOM     14  C   UNL A   1      29.877  29.671  22.523  1.00  0.00     0.071 C 
ENDBRANCH  10  13
ENDBRANCH   5  10
BRANCH   9  15
ATOM     15  O   UNL A   1      33.147  24.575  24.920  1.00  0.00    -0.490 OA
BRANCH  15  16
ATOM     16  C   UNL A   1      34.407  24.085  24.719  1.00  0.00     0.123 A 
ATOM     17  C   UNL A   1      34.704  23.454  23.511  1.00  0.00     0.047 A 
ATOM     18  C   UNL A   1      35.342  24.085  25.756  1.00  0.00     0.092 A 
ATOM     19  C   UNL A   1      35.971  22.911  23.304  1.00  0.00     0.008 A 
ATOM     20  C   UNL A   1      36.622  23.566  25.547  1.00  0.00     0.122 A 
ATOM     21  C   UNL A   1      36.929  22.983  24.316  1.00  0.00     0.046 A 
BRANCH  20  22
ATOM     22  O   UNL A   1      37.646  23.560  26.453  1.00  0.00    -0.497 OA
ATOM     23  C   UNL A   1      38.833  22.864  26.087  1.00  0.00     0.278 C 
ENDBRANCH  20  22
ENDBRANCH  15  16
ENDBRANCH   9  15
ENDBRANCH   3   5
ENDBRANCH   2   3
ENDBRANCH   1   2
BRANCH   1  24
ATOM     24  C   UNL A   1      34.356  30.851  27.518  1.00  0.00     0.275 C 
BRANCH  24  25
ATOM     25  O   UNL A   1      35.755  31.120  27.719  1.00  0.00    -0.458 OA
BRANCH  25  26
ATOM     26  C   UNL A   1      36.228  30.822  28.950  1.00  0.00     0.338 C 
ATOM     27  O   UNL A   1      35.703  31.053  30.025  1.00  0.00    -0.246 OA
BRANCH  26  28
ATOM     28  C   UNL A   1      37.523  30.139  28.830  1.00  0.00     0.060 A 
ATOM     29  C   UNL A   1      38.282  29.903  29.974  1.00  0.00     0.016 A 
ATOM     30  C   UNL A   1      38.041  29.859  27.566  1.00  0.00     0.016 A 
ATOM     31  C   UNL A   1      39.603  29.475  29.853  1.00  0.00     0.010 A 
ATOM     32  C   UNL A   1      39.334  29.339  27.456  1.00  0.00     0.010 A 
ATOM     33  C   UNL A   1      40.143  29.173  28.595  1.00  0.00    -0.014 A 
BRANCH  33  34
ATOM     34  C   UNL A   1      41.550  28.708  28.445  1.00  0.00     0.031 A 
ATOM     35  C   UNL A   1      42.680  29.699  28.554  1.00  0.00     0.074 A 
ATOM     36  C   UNL A   1      41.828  27.415  28.187  1.00  0.00     0.049 A 
ATOM     37  N   UNL A   1      43.926  29.580  28.177  1.00  0.00    -0.248 NA
ATOM     38  C   UNL A   1      42.358  31.004  29.156  1.00  0.00     0.031 C 
ATOM     39  C   UNL A   1      40.847  26.331  28.119  1.00  0.00     0.029 A 
ATOM     40  N   UNL A   1      43.024  26.794  27.920  1.00  0.00    -0.354 N 
ATOM     41  C   UNL A   1      44.521  30.810  28.430  1.00  0.00     0.074 A 
ATOM     42  C   UNL A   1      43.503  31.659  29.013  1.00  0.00     0.031 C 
ATOM     43  C   UNL A   1      41.481  25.179  27.851  1.00  0.00     0.029 A 
ATOM     44  C   UNL A   1      42.896  25.455  27.635  1.00  0.00     0.049 A 
ATOM     45  H   UNL A   1      43.890  27.264  27.931  1.00  0.00     0.167 HD
ATOM     46  C   UNL A   1      45.795  31.198  28.184  1.00  0.00     0.037 A 
ATOM     47  C   UNL A   1      43.800  24.560  27.194  1.00  0.00     0.037 A 
ATOM     48  C   UNL A   1      46.813  30.330  27.651  1.00  0.00     0.049 A 
ATOM     49  C   UNL A   1      45.205  25.010  26.913  1.00  0.00     0.074 A 
ATOM     50  C   UNL A   1      48.126  30.632  27.331  1.00  0.00     0.029 A 
ATOM     51  N   UNL A   1      46.639  28.979  27.388  1.00  0.00    -0.354 N 
ATOM     52  N   UNL A   1      45.727  26.206  27.046  1.00  0.00    -0.248 NA
ATOM     53  C   UNL A   1      46.138  24.000  26.395  1.00  0.00     0.031 C 
ATOM     54  C   UNL A   1      48.742  29.465  26.865  1.00  0.00     0.029 A 
ATOM     55  C   UNL A   1      47.820  28.432  26.920  1.00  0.00     0.049 A 
ATOM     56  H   UNL A   1      45.798  28.484  27.516  1.00  0.00     0.167 HD
ATOM     57  C   UNL A   1      47.049  26.091  26.637  1.00  0.00     0.074 A 
ATOM     58  C   UNL A   1      47.253  24.706  26.261  1.00  0.00     0.031 C 
ATOM     59  C   UNL A   1      48.006  27.047  26.571  1.00  0.00     0.037 A 
BRANCH  46  60
ATOM     60  C   UNL A   1      46.150  32.633  28.446  1.00  0.00     0.058 A 
ATOM     61  C   UNL A   1      45.971  33.631  27.477  1.00  0.00     0.135 A 
ATOM     62  C   UNL A   1      46.654  33.018  29.699  1.00  0.00     0.135 A 
ATOM     63  F   UNL A   1      45.511  33.314  26.257  1.00  0.00    -0.206 F 
ATOM     64  C   UNL A   1      46.299  34.959  27.734  1.00  0.00     0.059 A 
ATOM     65  C   UNL A   1      46.971  34.343  29.985  1.00  0.00     0.059 A 
ATOM     66  F   UNL A   1      46.844  32.101  30.661  1.00  0.00    -0.206 F 
ATOM     67  C   UNL A   1      46.805  35.304  28.989  1.00  0.00     0.060 A 
BRANCH  67  68
ATOM     68  S   UNL A   1      47.236  37.028  29.313  1.00  0.00     0.124 S 
ATOM     69  O   UNL A   1      46.162  37.428  30.217  1.00  0.00    -0.237 OA
ATOM     70  O   UNL A   1      48.561  36.916  29.915  1.00  0.00    -0.237 OA
ATOM     71  O   UNL A   1      47.203  37.639  27.988  1.00  0.00    -0.744 OA
ENDBRANCH  67  68
ENDBRANCH  46  60
BRANCH  47  72
ATOM     72  C   UNL A   1      43.382  23.156  26.944  1.00  0.00     0.058 A 
ATOM     73  C   UNL A   1      43.249  22.667  25.637  1.00  0.00     0.135 A 
ATOM     74  C   UNL A   1      43.144  22.268  28.005  1.00  0.00     0.135 A 
ATOM     75  F   UNL A   1      43.455  23.482  24.592  1.00  0.00    -0.206 F 
ATOM     76  C   UNL A   1      42.896  21.345  25.388  1.00  0.00     0.059 A 
ATOM     77  C   UNL A   1      42.812  20.936  27.781  1.00  0.00     0.059 A 
ATOM     78  F   UNL A   1      43.270  22.687  29.273  1.00  0.00    -0.206 F 
ATOM     79  C   UNL A   1      42.683  20.486  26.468  1.00  0.00     0.060 A 
BRANCH  79  80
ATOM     80  S   UNL A   1      42.295  18.751  26.145  1.00  0.00     0.124 S 
ATOM     81  O   UNL A   1      42.545  18.149  27.449  1.00  0.00    -0.237 OA
ATOM     82  O   UNL A   1      40.898  18.813  25.727  1.00  0.00    -0.237 OA
ATOM     83  O   UNL A   1      43.239  18.393  25.090  1.00  0.00    -0.744 OA
ENDBRANCH  79  80
ENDBRANCH  47  72
BRANCH  59  84
ATOM     84  C   UNL A   1      49.371  26.627  26.116  1.00  0.00     0.058 A 
ATOM     85  C   UNL A   1      49.768  26.758  24.777  1.00  0.00     0.135 A 
ATOM     86  C   UNL A   1      50.314  26.157  27.043  1.00  0.00     0.135 A 
ATOM     87  F   UNL A   1      48.897  27.196  23.855  1.00  0.00    -0.206 F 
ATOM     88  C   UNL A   1      51.057  26.434  24.371  1.00  0.00     0.059 A 
ATOM     89  C   UNL A   1      51.613  25.840  26.661  1.00  0.00     0.059 A 
ATOM     90  F   UNL A   1      49.979  26.020  28.336  1.00  0.00    -0.206 F 
ATOM     91  C   UNL A   1      51.975  25.978  25.321  1.00  0.00     0.060 A 
BRANCH  91  92
ATOM     92  S   UNL A   1      53.664  25.616  24.797  1.00  0.00     0.124 S 
ATOM     93  O   UNL A   1      53.685  24.159  24.861  1.00  0.00    -0.237 OA
ATOM     94  O   UNL A   1      53.710  26.193  23.457  1.00  0.00    -0.237 OA
ATOM     95  O   UNL A   1      54.481  26.302  25.795  1.00  0.00    -0.744 OA
ENDBRANCH  91  92
ENDBRANCH  59  84
ENDBRANCH  33  34
ENDBRANCH  26  28
ENDBRANCH  25  26
ENDBRANCH  24  25
ENDBRANCH   1  24
TORSDOF 19
ENDMDL
