MODEL 1
REMARK VINA RESULT:     -11.8      0.000      0.000
REMARK SMILES O=C(COc1cc(-c2ccccc2)nc(NCc2ccc(Cl)c(Cl)c2)n1)OCCOC(=O)c1ccc(-c2c3nc(c(-c4c(F)cc(S(=O)(=O)[O-])cc4F)c4ccc([nH]4)c(-c4c(F)cc(S(=O)(=O)[O-])cc4F)c4nc(c(-c5c(F)cc(S(=O)(=O)[O-])cc5F)c5ccc2[nH]5)C=C4)C=C3)cc1
REMARK SMILES IDX 28 1 27 2 2 3 1 4 3 5 4 6 5 7 6 8 26 9 7 10 15 11 14 12 8 13
REMARK SMILES IDX 9 14 13 15 10 16 12 17 11 18 16 19 17 21 18 22 19 23 25 24
REMARK SMILES IDX 20 25 23 26 21 27 24 28 22 29 29 30 30 31 31 32 32 33 33 34
REMARK SMILES IDX 34 35 98 36 35 37 97 38 36 39 37 40 38 41 91 42 39 43 96 44
REMARK SMILES IDX 90 45 92 46 40 47 95 48 89 49 88 50 41 52 75 53 54 54 74 55
REMARK SMILES IDX 55 56 58 57 73 58 93 59 56 60 57 61 72 63 94 64 59 65 42 66
REMARK SMILES IDX 43 67 52 68 44 69 45 70 51 71 53 72 46 73 47 74 48 75 49 76
REMARK SMILES IDX 50 77 76 78 77 79 86 80 78 81 79 82 85 83 87 84 80 85 81 86
REMARK SMILES IDX 82 87 83 88 84 89 60 90 61 91 70 92 62 93 63 94 69 95 71 96
REMARK SMILES IDX 64 97 65 98 66 99 67 100 68 101
REMARK H PARENT 16 20 92 51 58 62
REMARK Flexibility Score: inf
ROOT
ATOM      1  C   UNL A   1      34.427  32.259  27.910  1.00  0.00     0.274 C 
ENDROOT
BRANCH   1   2
ATOM      2  O   UNL A   1      33.397  31.274  27.691  1.00  0.00    -0.460 OA
BRANCH   2   3
ATOM      3  C   UNL A   1      33.655  30.030  27.214  1.00  0.00     0.344 C 
ATOM      4  O   UNL A   1      34.811  29.628  27.120  1.00  0.00    -0.248 OA
BRANCH   3   5
ATOM      5  C   UNL A   1      32.469  29.121  26.920  1.00  0.00     0.353 C 
BRANCH   5   6
ATOM      6  O   UNL A   1      32.912  27.797  26.614  1.00  0.00    -0.466 OA
BRANCH   6   7
ATOM      7  C   UNL A   1      32.389  27.451  25.395  1.00  0.00     0.219 A 
ATOM      8  C   UNL A   1      31.559  28.314  24.741  1.00  0.00     0.097 A 
ATOM      9  N   UNL A   1      32.672  26.219  24.980  1.00  0.00    -0.177 NA
ATOM     10  C   UNL A   1      30.918  27.796  23.640  1.00  0.00     0.080 A 
ATOM     11  C   UNL A   1      32.037  25.792  23.885  1.00  0.00     0.226 A 
ATOM     12  N   UNL A   1      31.151  26.534  23.204  1.00  0.00    -0.213 NA
BRANCH  10  13
ATOM     13  C   UNL A   1      29.859  28.573  22.970  1.00  0.00     0.000 A 
ATOM     14  C   UNL A   1      28.504  28.322  23.237  1.00  0.00     0.010 A 
ATOM     15  C   UNL A   1      30.168  29.660  22.127  1.00  0.00     0.010 A 
ATOM     16  C   UNL A   1      27.502  29.147  22.719  1.00  0.00     0.001 A 
ATOM     17  C   UNL A   1      29.168  30.485  21.608  1.00  0.00     0.001 A 
ATOM     18  C   UNL A   1      27.834  30.232  21.912  1.00  0.00     0.000 A 
ENDBRANCH  10  13
BRANCH  11  19
ATOM     19  N   UNL A   1      32.277  24.511  23.451  1.00  0.00    -0.350 N 
ATOM     20  H   UNL A   1      31.606  23.802  23.573  1.00  0.00     0.164 HD
BRANCH  19  21
ATOM     21  C   UNL A   1      33.535  24.239  22.815  1.00  0.00     0.152 C 
BRANCH  21  22
ATOM     22  C   UNL A   1      34.372  23.259  23.598  1.00  0.00    -0.027 A 
ATOM     23  C   UNL A   1      35.754  23.466  23.735  1.00  0.00     0.007 A 
ATOM     24  C   UNL A   1      33.808  22.079  24.098  1.00  0.00     0.027 A 
ATOM     25  C   UNL A   1      36.570  22.455  24.244  1.00  0.00     0.022 A 
ATOM     26  C   UNL A   1      34.624  21.064  24.608  1.00  0.00     0.060 A 
ATOM     27  C   UNL A   1      36.011  21.234  24.634  1.00  0.00     0.059 A 
ATOM     28  Cl  UNL A   1      33.853  19.596  25.095  1.00  0.00    -0.083 Cl
ATOM     29  Cl  UNL A   1      37.085  19.937  25.000  1.00  0.00    -0.083 Cl
ENDBRANCH  21  22
ENDBRANCH  19  21
ENDBRANCH  11  19
ENDBRANCH   6   7
ENDBRANCH   5   6
ENDBRANCH   3   5
ENDBRANCH   2   3
ENDBRANCH   1   2
BRANCH   1  30
ATOM     30  C   UNL A   1      34.679  32.455  29.406  1.00  0.00     0.275 C 
BRANCH  30  31
ATOM     31  O   UNL A   1      35.345  31.299  29.949  1.00  0.00    -0.458 OA
BRANCH  31  32
ATOM     32  C   UNL A   1      36.390  31.556  30.778  1.00  0.00     0.338 C 
ATOM     33  O   UNL A   1      36.344  32.158  31.836  1.00  0.00    -0.246 OA
BRANCH  32  34
ATOM     34  C   UNL A   1      37.580  30.820  30.293  1.00  0.00     0.060 A 
ATOM     35  C   UNL A   1      38.481  30.314  31.239  1.00  0.00     0.016 A 
ATOM     36  C   UNL A   1      37.815  30.627  28.928  1.00  0.00     0.016 A 
ATOM     37  C   UNL A   1      39.637  29.650  30.821  1.00  0.00     0.010 A 
ATOM     38  C   UNL A   1      38.976  29.969  28.511  1.00  0.00     0.010 A 
ATOM     39  C   UNL A   1      39.910  29.506  29.454  1.00  0.00    -0.014 A 
BRANCH  39  40
ATOM     40  C   UNL A   1      41.249  29.047  29.007  1.00  0.00     0.031 A 
ATOM     41  C   UNL A   1      42.387  30.036  29.020  1.00  0.00     0.074 A 
ATOM     42  C   UNL A   1      41.465  27.782  28.604  1.00  0.00     0.049 A 
ATOM     43  N   UNL A   1      43.636  29.873  28.665  1.00  0.00    -0.248 NA
ATOM     44  C   UNL A   1      42.070  31.394  29.493  1.00  0.00     0.031 C 
ATOM     45  C   UNL A   1      40.465  26.714  28.558  1.00  0.00     0.029 A 
ATOM     46  N   UNL A   1      42.614  27.184  28.151  1.00  0.00    -0.354 N 
ATOM     47  C   UNL A   1      44.254  31.101  28.876  1.00  0.00     0.074 A 
ATOM     48  C   UNL A   1      43.235  32.010  29.353  1.00  0.00     0.031 C 
ATOM     49  C   UNL A   1      41.048  25.590  28.100  1.00  0.00     0.029 A 
ATOM     50  C   UNL A   1      42.454  25.862  27.812  1.00  0.00     0.049 A 
ATOM     51  H   UNL A   1      43.474  27.658  28.077  1.00  0.00     0.167 HD
ATOM     52  C   UNL A   1      45.553  31.441  28.702  1.00  0.00     0.037 A 
ATOM     53  C   UNL A   1      43.346  24.981  27.321  1.00  0.00     0.037 A 
ATOM     54  C   UNL A   1      46.573  30.547  28.223  1.00  0.00     0.049 A 
ATOM     55  C   UNL A   1      44.771  25.401  27.075  1.00  0.00     0.074 A 
ATOM     56  C   UNL A   1      47.921  30.799  28.036  1.00  0.00     0.029 A 
ATOM     57  N   UNL A   1      46.357  29.231  27.847  1.00  0.00    -0.354 N 
ATOM     58  N   UNL A   1      45.341  26.562  27.288  1.00  0.00    -0.248 NA
ATOM     59  C   UNL A   1      45.673  24.379  26.522  1.00  0.00     0.031 C 
ATOM     60  C   UNL A   1      48.514  29.648  27.507  1.00  0.00     0.029 A 
ATOM     61  C   UNL A   1      47.542  28.665  27.408  1.00  0.00     0.049 A 
ATOM     62  H   UNL A   1      45.490  28.767  27.885  1.00  0.00     0.167 HD
ATOM     63  C   UNL A   1      46.672  26.402  26.914  1.00  0.00     0.074 A 
ATOM     64  C   UNL A   1      46.824  25.036  26.465  1.00  0.00     0.031 C 
ATOM     65  C   UNL A   1      47.682  27.307  26.949  1.00  0.00     0.037 A 
BRANCH  52  66
ATOM     66  C   UNL A   1      45.942  32.856  29.022  1.00  0.00     0.058 A 
ATOM     67  C   UNL A   1      45.880  33.871  28.054  1.00  0.00     0.135 A 
ATOM     68  C   UNL A   1      46.356  33.207  30.316  1.00  0.00     0.135 A 
ATOM     69  F   UNL A   1      45.508  33.583  26.796  1.00  0.00    -0.206 F 
ATOM     70  C   UNL A   1      46.242  35.180  28.351  1.00  0.00     0.059 A 
ATOM     71  C   UNL A   1      46.700  34.515  30.642  1.00  0.00     0.059 A 
ATOM     72  F   UNL A   1      46.436  32.272  31.277  1.00  0.00    -0.206 F 
ATOM     73  C   UNL A   1      46.654  35.492  29.648  1.00  0.00     0.060 A 
BRANCH  73  74
ATOM     74  S   UNL A   1      47.126  37.194  30.019  1.00  0.00     0.124 S 
ATOM     75  O   UNL A   1      45.862  37.896  29.816  1.00  0.00    -0.237 OA
ATOM     76  O   UNL A   1      47.583  37.098  31.402  1.00  0.00    -0.237 OA
ATOM     77  O   UNL A   1      48.167  37.480  29.036  1.00  0.00    -0.744 OA
ENDBRANCH  73  74
ENDBRANCH  52  66
BRANCH  53  78
ATOM     78  C   UNL A   1      42.946  23.587  27.012  1.00  0.00     0.058 A 
ATOM     79  C   UNL A   1      42.804  22.640  28.036  1.00  0.00     0.135 A 
ATOM     80  C   UNL A   1      42.819  23.155  25.686  1.00  0.00     0.135 A 
ATOM     81  F   UNL A   1      42.948  23.009  29.316  1.00  0.00    -0.206 F 
ATOM     82  C   UNL A   1      42.566  21.300  27.752  1.00  0.00     0.059 A 
ATOM     83  C   UNL A   1      42.593  21.817  25.378  1.00  0.00     0.059 A 
ATOM     84  F   UNL A   1      42.945  24.032  24.678  1.00  0.00    -0.206 F 
ATOM     85  C   UNL A   1      42.466  20.898  26.419  1.00  0.00     0.060 A 
BRANCH  85  86
ATOM     86  S   UNL A   1      42.190  19.146  26.078  1.00  0.00     0.124 S 
ATOM     87  O   UNL A   1      42.540  18.535  27.356  1.00  0.00    -0.237 OA
ATOM     88  O   UNL A   1      40.772  19.137  25.733  1.00  0.00    -0.237 OA
ATOM     89  O   UNL A   1      43.108  18.862  24.981  1.00  0.00    -0.744 OA
ENDBRANCH  85  86
ENDBRANCH  53  78
BRANCH  65  90
ATOM     90  C   UNL A   1      49.043  26.843  26.513  1.00  0.00     0.058 A 
ATOM     91  C   UNL A   1      49.910  26.173  27.390  1.00  0.00     0.135 A 
ATOM     92  C   UNL A   1      49.471  27.042  25.191  1.00  0.00     0.135 A 
ATOM     93  F   UNL A   1      49.551  25.964  28.667  1.00  0.00    -0.206 F 
ATOM     94  C   UNL A   1      51.164  25.735  26.977  1.00  0.00     0.059 A 
ATOM     95  C   UNL A   1      50.712  26.592  24.750  1.00  0.00     0.059 A 
ATOM     96  F   UNL A   1      48.677  27.671  24.311  1.00  0.00    -0.206 F 
ATOM     97  C   UNL A   1      51.557  25.951  25.654  1.00  0.00     0.060 A 
BRANCH  97  98
ATOM     98  S   UNL A   1      53.175  25.352  25.119  1.00  0.00     0.124 S 
ATOM     99  O   UNL A   1      54.073  26.184  25.912  1.00  0.00    -0.237 OA
ATOM    100  O   UNL A   1      53.126  23.940  25.488  1.00  0.00    -0.237 OA
ATOM    101  O   UNL A   1      53.176  25.617  23.683  1.00  0.00    -0.744 OA
ENDBRANCH  97  98
ENDBRANCH  65  90
ENDBRANCH  39  40
ENDBRANCH  32  34
ENDBRANCH  31  32
ENDBRANCH  30  31
ENDBRANCH   1  30
TORSDOF 20
ENDMDL
MODEL 2
REMARK VINA RESULT:     -11.8      6.002     11.936
REMARK SMILES O=C(COc1cc(-c2ccccc2)nc(NCc2ccc(Cl)c(Cl)c2)n1)OCCOC(=O)c1ccc(-c2c3nc(c(-c4c(F)cc(S(=O)(=O)[O-])cc4F)c4ccc([nH]4)c(-c4c(F)cc(S(=O)(=O)[O-])cc4F)c4nc(c(-c5c(F)cc(S(=O)(=O)[O-])cc5F)c5ccc2[nH]5)C=C4)C=C3)cc1
REMARK SMILES IDX 28 1 27 2 2 3 1 4 3 5 4 6 5 7 6 8 26 9 7 10 15 11 14 12 8 13
REMARK SMILES IDX 9 14 13 15 10 16 12 17 11 18 16 19 17 21 18 22 19 23 25 24
REMARK SMILES IDX 20 25 23 26 21 27 24 28 22 29 29 30 30 31 31 32 32 33 33 34
REMARK SMILES IDX 34 35 98 36 35 37 97 38 36 39 37 40 38 41 91 42 39 43 96 44
REMARK SMILES IDX 90 45 92 46 40 47 95 48 89 49 88 50 41 52 75 53 54 54 74 55
REMARK SMILES IDX 55 56 58 57 73 58 93 59 56 60 57 61 72 63 94 64 59 65 42 66
REMARK SMILES IDX 43 67 52 68 44 69 45 70 51 71 53 72 46 73 47 74 48 75 49 76
REMARK SMILES IDX 50 77 76 78 77 79 86 80 78 81 79 82 85 83 87 84 80 85 81 86
REMARK SMILES IDX 82 87 83 88 84 89 60 90 61 91 70 92 62 93 63 94 69 95 71 96
REMARK SMILES IDX 64 97 65 98 66 99 67 100 68 101
REMARK H PARENT 16 20 92 51 58 62
REMARK Flexibility Score: inf
ROOT
ATOM      1  C   UNL A   1      42.497  21.627  26.091  1.00  0.00     0.274 C 
ENDROOT
BRANCH   1   2
ATOM      2  O   UNL A   1      41.289  20.945  25.695  1.00  0.00    -0.460 OA
BRANCH   2   3
ATOM      3  C   UNL A   1      40.092  21.152  26.301  1.00  0.00     0.344 C 
ATOM      4  O   UNL A   1      40.044  21.574  27.453  1.00  0.00    -0.248 OA
BRANCH   3   5
ATOM      5  C   UNL A   1      38.831  20.960  25.469  1.00  0.00     0.353 C 
BRANCH   5   6
ATOM      6  O   UNL A   1      38.084  22.177  25.396  1.00  0.00    -0.466 OA
BRANCH   6   7
ATOM      7  C   UNL A   1      36.764  21.871  25.604  1.00  0.00     0.219 A 
ATOM      8  C   UNL A   1      36.259  20.690  25.145  1.00  0.00     0.097 A 
ATOM      9  N   UNL A   1      36.039  22.829  26.176  1.00  0.00    -0.177 NA
ATOM     10  C   UNL A   1      34.890  20.570  25.208  1.00  0.00     0.080 A 
ATOM     11  C   UNL A   1      34.719  22.632  26.231  1.00  0.00     0.226 A 
ATOM     12  N   UNL A   1      34.111  21.537  25.751  1.00  0.00    -0.213 NA
BRANCH  10  13
ATOM     13  C   UNL A   1      34.222  19.421  24.570  1.00  0.00     0.000 A 
ATOM     14  C   UNL A   1      32.945  19.556  24.002  1.00  0.00     0.010 A 
ATOM     15  C   UNL A   1      34.878  18.184  24.413  1.00  0.00     0.010 A 
ATOM     16  C   UNL A   1      32.367  18.515  23.271  1.00  0.00     0.001 A 
ATOM     17  C   UNL A   1      34.303  17.142  23.682  1.00  0.00     0.001 A 
ATOM     18  C   UNL A   1      33.049  17.312  23.104  1.00  0.00     0.000 A 
ENDBRANCH  10  13
BRANCH  11  19
ATOM     19  N   UNL A   1      33.936  23.618  26.780  1.00  0.00    -0.350 N 
ATOM     20  H   UNL A   1      34.339  24.422  27.177  1.00  0.00     0.164 HD
BRANCH  19  21
ATOM     21  C   UNL A   1      32.511  23.439  26.755  1.00  0.00     0.152 C 
BRANCH  21  22
ATOM     22  C   UNL A   1      31.840  24.333  25.742  1.00  0.00    -0.027 A 
ATOM     23  C   UNL A   1      31.440  23.812  24.501  1.00  0.00     0.007 A 
ATOM     24  C   UNL A   1      31.714  25.707  25.977  1.00  0.00     0.027 A 
ATOM     25  C   UNL A   1      31.044  24.669  23.473  1.00  0.00     0.022 A 
ATOM     26  C   UNL A   1      31.317  26.568  24.948  1.00  0.00     0.060 A 
ATOM     27  C   UNL A   1      31.031  26.052  23.681  1.00  0.00     0.059 A 
ATOM     28  Cl  UNL A   1      31.300  28.261  25.292  1.00  0.00    -0.083 Cl
ATOM     29  Cl  UNL A   1      30.794  27.069  22.310  1.00  0.00    -0.083 Cl
ENDBRANCH  21  22
ENDBRANCH  19  21
ENDBRANCH  11  19
ENDBRANCH   6   7
ENDBRANCH   5   6
ENDBRANCH   3   5
ENDBRANCH   2   3
ENDBRANCH   1   2
BRANCH   1  30
ATOM     30  C   UNL A   1      42.562  23.020  25.465  1.00  0.00     0.275 C 
BRANCH  30  31
ATOM     31  O   UNL A   1      41.897  23.974  26.315  1.00  0.00    -0.458 OA
BRANCH  31  32
ATOM     32  C   UNL A   1      42.077  25.281  25.988  1.00  0.00     0.338 C 
ATOM     33  O   UNL A   1      42.141  25.743  24.863  1.00  0.00    -0.246 OA
BRANCH  32  34
ATOM     34  C   UNL A   1      41.990  26.100  27.219  1.00  0.00     0.060 A 
ATOM     35  C   UNL A   1      40.959  25.829  28.127  1.00  0.00     0.016 A 
ATOM     36  C   UNL A   1      42.905  27.124  27.482  1.00  0.00     0.016 A 
ATOM     37  C   UNL A   1      40.817  26.607  29.279  1.00  0.00     0.010 A 
ATOM     38  C   UNL A   1      42.758  27.906  28.632  1.00  0.00     0.010 A 
ATOM     39  C   UNL A   1      41.693  27.673  29.520  1.00  0.00    -0.014 A 
BRANCH  39  40
ATOM     40  C   UNL A   1      41.389  28.659  30.588  1.00  0.00     0.031 A 
ATOM     41  C   UNL A   1      42.271  28.686  31.811  1.00  0.00     0.074 A 
ATOM     42  C   UNL A   1      40.361  29.520  30.483  1.00  0.00     0.049 A 
ATOM     43  N   UNL A   1      42.196  29.444  32.874  1.00  0.00    -0.248 NA
ATOM     44  C   UNL A   1      43.384  27.722  31.837  1.00  0.00     0.031 C 
ATOM     45  C   UNL A   1      39.439  29.622  29.351  1.00  0.00     0.029 A 
ATOM     46  N   UNL A   1      39.924  30.482  31.358  1.00  0.00    -0.354 N 
ATOM     47  C   UNL A   1      43.250  29.056  33.693  1.00  0.00     0.074 A 
ATOM     48  C   UNL A   1      43.928  27.968  33.020  1.00  0.00     0.031 C 
ATOM     49  C   UNL A   1      38.542  30.594  29.604  1.00  0.00     0.029 A 
ATOM     50  C   UNL A   1      38.822  31.173  30.916  1.00  0.00     0.049 A 
ATOM     51  H   UNL A   1      40.359  30.661  32.223  1.00  0.00     0.167 HD
ATOM     52  C   UNL A   1      43.633  29.564  34.888  1.00  0.00     0.037 A 
ATOM     53  C   UNL A   1      38.121  32.158  31.511  1.00  0.00     0.037 A 
ATOM     54  C   UNL A   1      42.963  30.640  35.568  1.00  0.00     0.049 A 
ATOM     55  C   UNL A   1      38.527  32.661  32.872  1.00  0.00     0.074 A 
ATOM     56  C   UNL A   1      43.293  31.234  36.774  1.00  0.00     0.029 A 
ATOM     57  N   UNL A   1      41.824  31.279  35.106  1.00  0.00    -0.354 N 
ATOM     58  N   UNL A   1      39.531  32.290  33.627  1.00  0.00    -0.248 NA
ATOM     59  C   UNL A   1      37.695  33.726  33.455  1.00  0.00     0.031 C 
ATOM     60  C   UNL A   1      42.328  32.206  37.063  1.00  0.00     0.029 A 
ATOM     61  C   UNL A   1      41.424  32.246  36.014  1.00  0.00     0.049 A 
ATOM     62  H   UNL A   1      41.366  31.075  34.260  1.00  0.00     0.167 HD
ATOM     63  C   UNL A   1      39.464  33.090  34.764  1.00  0.00     0.074 A 
ATOM     64  C   UNL A   1      38.324  33.966  34.597  1.00  0.00     0.031 C 
ATOM     65  C   UNL A   1      40.280  33.104  35.847  1.00  0.00     0.037 A 
BRANCH  52  66
ATOM     66  C   UNL A   1      44.831  28.943  35.549  1.00  0.00     0.058 A 
ATOM     67  C   UNL A   1      46.130  29.418  35.309  1.00  0.00     0.135 A 
ATOM     68  C   UNL A   1      44.675  27.879  36.451  1.00  0.00     0.135 A 
ATOM     69  F   UNL A   1      46.333  30.421  34.441  1.00  0.00    -0.206 F 
ATOM     70  C   UNL A   1      47.237  28.840  35.921  1.00  0.00     0.059 A 
ATOM     71  C   UNL A   1      45.767  27.302  37.092  1.00  0.00     0.059 A 
ATOM     72  F   UNL A   1      43.454  27.386  36.712  1.00  0.00    -0.206 F 
ATOM     73  C   UNL A   1      47.046  27.780  36.808  1.00  0.00     0.060 A 
BRANCH  73  74
ATOM     74  S   UNL A   1      48.493  27.036  37.591  1.00  0.00     0.124 S 
ATOM     75  O   UNL A   1      47.877  25.996  38.409  1.00  0.00    -0.237 OA
ATOM     76  O   UNL A   1      49.263  26.567  36.443  1.00  0.00    -0.237 OA
ATOM     77  O   UNL A   1      49.087  28.146  38.330  1.00  0.00    -0.744 OA
ENDBRANCH  73  74
ENDBRANCH  52  66
BRANCH  53  78
ATOM     78  C   UNL A   1      36.941  32.760  30.847  1.00  0.00     0.058 A 
ATOM     79  C   UNL A   1      37.099  33.777  29.894  1.00  0.00     0.135 A 
ATOM     80  C   UNL A   1      35.642  32.414  31.239  1.00  0.00     0.135 A 
ATOM     81  F   UNL A   1      38.328  34.157  29.515  1.00  0.00    -0.206 F 
ATOM     82  C   UNL A   1      36.002  34.447  29.364  1.00  0.00     0.059 A 
ATOM     83  C   UNL A   1      34.531  33.079  30.731  1.00  0.00     0.059 A 
ATOM     84  F   UNL A   1      35.450  31.444  32.145  1.00  0.00    -0.206 F 
ATOM     85  C   UNL A   1      34.722  34.093  29.793  1.00  0.00     0.060 A 
BRANCH  85  86
ATOM     86  S   UNL A   1      33.317  35.003  29.113  1.00  0.00     0.124 S 
ATOM     87  O   UNL A   1      32.797  34.058  28.131  1.00  0.00    -0.237 OA
ATOM     88  O   UNL A   1      32.497  35.201  30.304  1.00  0.00    -0.237 OA
ATOM     89  O   UNL A   1      33.924  36.207  28.558  1.00  0.00    -0.744 OA
ENDBRANCH  85  86
ENDBRANCH  53  78
BRANCH  65  90
ATOM     90  C   UNL A   1      39.987  34.111  36.922  1.00  0.00     0.058 A 
ATOM     91  C   UNL A   1      40.469  35.427  36.854  1.00  0.00     0.135 A 
ATOM     92  C   UNL A   1      39.183  33.763  38.021  1.00  0.00     0.135 A 
ATOM     93  F   UNL A   1      41.248  35.808  35.828  1.00  0.00    -0.206 F 
ATOM     94  C   UNL A   1      40.184  36.358  37.847  1.00  0.00     0.059 A 
ATOM     95  C   UNL A   1      38.866  34.684  39.014  1.00  0.00     0.059 A 
ATOM     96  F   UNL A   1      38.691  32.519  38.130  1.00  0.00    -0.206 F 
ATOM     97  C   UNL A   1      39.381  35.976  38.925  1.00  0.00     0.060 A 
BRANCH  97  98
ATOM     98  S   UNL A   1      38.991  37.200  40.195  1.00  0.00     0.124 S 
ATOM     99  O   UNL A   1      38.375  38.259  39.402  1.00  0.00    -0.237 OA
ATOM    100  O   UNL A   1      38.092  36.463  41.078  1.00  0.00    -0.237 OA
ATOM    101  O   UNL A   1      40.296  37.521  40.767  1.00  0.00    -0.744 OA
ENDBRANCH  97  98
ENDBRANCH  65  90
ENDBRANCH  39  40
ENDBRANCH  32  34
ENDBRANCH  31  32
ENDBRANCH  30  31
ENDBRANCH   1  30
TORSDOF 20
ENDMDL
MODEL 3
REMARK VINA RESULT:     -11.7      5.744      8.676
REMARK SMILES O=C(COc1cc(-c2ccccc2)nc(NCc2ccc(Cl)c(Cl)c2)n1)OCCOC(=O)c1ccc(-c2c3nc(c(-c4c(F)cc(S(=O)(=O)[O-])cc4F)c4ccc([nH]4)c(-c4c(F)cc(S(=O)(=O)[O-])cc4F)c4nc(c(-c5c(F)cc(S(=O)(=O)[O-])cc5F)c5ccc2[nH]5)C=C4)C=C3)cc1
REMARK SMILES IDX 28 1 27 2 2 3 1 4 3 5 4 6 5 7 6 8 26 9 7 10 15 11 14 12 8 13
REMARK SMILES IDX 9 14 13 15 10 16 12 17 11 18 16 19 17 21 18 22 19 23 25 24
REMARK SMILES IDX 20 25 23 26 21 27 24 28 22 29 29 30 30 31 31 32 32 33 33 34
REMARK SMILES IDX 34 35 98 36 35 37 97 38 36 39 37 40 38 41 91 42 39 43 96 44
REMARK SMILES IDX 90 45 92 46 40 47 95 48 89 49 88 50 41 52 75 53 54 54 74 55
REMARK SMILES IDX 55 56 58 57 73 58 93 59 56 60 57 61 72 63 94 64 59 65 42 66
REMARK SMILES IDX 43 67 52 68 44 69 45 70 51 71 53 72 46 73 47 74 48 75 49 76
REMARK SMILES IDX 50 77 76 78 77 79 86 80 78 81 79 82 85 83 87 84 80 85 81 86
REMARK SMILES IDX 82 87 83 88 84 89 60 90 61 91 70 92 62 93 63 94 69 95 71 96
REMARK SMILES IDX 64 97 65 98 66 99 67 100 68 101
REMARK H PARENT 16 20 92 51 58 62
REMARK Flexibility Score: inf
ROOT
ATOM      1  C   UNL A   1      34.113  34.606  28.102  1.00  0.00     0.274 C 
ENDROOT
BRANCH   1   2
ATOM      2  O   UNL A   1      33.243  34.487  29.245  1.00  0.00    -0.460 OA
BRANCH   2   3
ATOM      3  C   UNL A   1      33.156  35.439  30.209  1.00  0.00     0.344 C 
ATOM      4  O   UNL A   1      32.532  36.477  30.001  1.00  0.00    -0.248 OA
BRANCH   3   5
ATOM      5  C   UNL A   1      33.746  35.124  31.576  1.00  0.00     0.353 C 
BRANCH   5   6
ATOM      6  O   UNL A   1      34.063  33.734  31.682  1.00  0.00    -0.466 OA
BRANCH   6   7
ATOM      7  C   UNL A   1      35.368  33.632  32.088  1.00  0.00     0.219 A 
ATOM      8  C   UNL A   1      35.663  33.057  33.289  1.00  0.00     0.097 A 
ATOM      9  N   UNL A   1      36.262  34.207  31.288  1.00  0.00    -0.177 NA
ATOM     10  C   UNL A   1      36.968  33.194  33.704  1.00  0.00     0.080 A 
ATOM     11  C   UNL A   1      37.517  34.278  31.741  1.00  0.00     0.226 A 
ATOM     12  N   UNL A   1      37.903  33.805  32.935  1.00  0.00    -0.213 NA
BRANCH  10  13
ATOM     13  C   UNL A   1      37.355  32.780  35.064  1.00  0.00     0.000 A 
ATOM     14  C   UNL A   1      37.101  33.609  36.169  1.00  0.00     0.010 A 
ATOM     15  C   UNL A   1      37.893  31.502  35.318  1.00  0.00     0.010 A 
ATOM     16  C   UNL A   1      37.333  33.165  37.473  1.00  0.00     0.001 A 
ATOM     17  C   UNL A   1      38.125  31.055  36.621  1.00  0.00     0.001 A 
ATOM     18  C   UNL A   1      37.837  31.886  37.699  1.00  0.00     0.000 A 
ENDBRANCH  10  13
BRANCH  11  19
ATOM     19  N   UNL A   1      38.458  34.900  30.958  1.00  0.00    -0.350 N 
ATOM     20  H   UNL A   1      38.796  35.795  31.188  1.00  0.00     0.164 HD
BRANCH  19  21
ATOM     21  C   UNL A   1      38.932  34.206  29.793  1.00  0.00     0.152 C 
BRANCH  21  22
ATOM     22  C   UNL A   1      40.419  34.363  29.600  1.00  0.00    -0.027 A 
ATOM     23  C   UNL A   1      40.924  35.461  28.885  1.00  0.00     0.007 A 
ATOM     24  C   UNL A   1      41.303  33.365  30.027  1.00  0.00     0.027 A 
ATOM     25  C   UNL A   1      42.263  35.492  28.495  1.00  0.00     0.022 A 
ATOM     26  C   UNL A   1      42.646  33.393  29.637  1.00  0.00     0.060 A 
ATOM     27  C   UNL A   1      43.113  34.433  28.827  1.00  0.00     0.059 A 
ATOM     28  Cl  UNL A   1      43.639  32.061  30.112  1.00  0.00    -0.083 Cl
ATOM     29  Cl  UNL A   1      44.674  34.394  28.098  1.00  0.00    -0.083 Cl
ENDBRANCH  21  22
ENDBRANCH  19  21
ENDBRANCH  11  19
ENDBRANCH   6   7
ENDBRANCH   5   6
ENDBRANCH   3   5
ENDBRANCH   2   3
ENDBRANCH   1   2
BRANCH   1  30
ATOM     30  C   UNL A   1      35.077  33.420  28.029  1.00  0.00     0.275 C 
BRANCH  30  31
ATOM     31  O   UNL A   1      34.561  32.319  28.801  1.00  0.00    -0.458 OA
BRANCH  31  32
ATOM     32  C   UNL A   1      34.603  31.104  28.195  1.00  0.00     0.338 C 
ATOM     33  O   UNL A   1      33.804  30.673  27.382  1.00  0.00    -0.246 OA
BRANCH  32  34
ATOM     34  C   UNL A   1      35.886  30.445  28.528  1.00  0.00     0.060 A 
ATOM     35  C   UNL A   1      36.020  29.844  29.786  1.00  0.00     0.016 A 
ATOM     36  C   UNL A   1      36.950  30.415  27.620  1.00  0.00     0.016 A 
ATOM     37  C   UNL A   1      37.230  29.249  30.154  1.00  0.00     0.010 A 
ATOM     38  C   UNL A   1      38.162  29.825  27.993  1.00  0.00     0.010 A 
ATOM     39  C   UNL A   1      38.319  29.268  29.274  1.00  0.00    -0.014 A 
BRANCH  39  40
ATOM     40  C   UNL A   1      39.670  28.883  29.754  1.00  0.00     0.031 A 
ATOM     41  C   UNL A   1      40.265  29.645  30.911  1.00  0.00     0.074 A 
ATOM     42  C   UNL A   1      40.360  27.875  29.188  1.00  0.00     0.049 A 
ATOM     43  N   UNL A   1      41.427  29.500  31.493  1.00  0.00    -0.248 NA
ATOM     44  C   UNL A   1      39.436  30.719  31.483  1.00  0.00     0.031 C 
ATOM     45  C   UNL A   1      39.902  27.039  28.078  1.00  0.00     0.029 A 
ATOM     46  N   UNL A   1      41.608  27.387  29.483  1.00  0.00    -0.354 N 
ATOM     47  C   UNL A   1      41.469  30.457  32.501  1.00  0.00     0.074 A 
ATOM     48  C   UNL A   1      40.231  31.202  32.426  1.00  0.00     0.031 C 
ATOM     49  C   UNL A   1      40.861  26.140  27.784  1.00  0.00     0.029 A 
ATOM     50  C   UNL A   1      42.000  26.345  28.677  1.00  0.00     0.049 A 
ATOM     51  H   UNL A   1      42.171  27.749  30.204  1.00  0.00     0.167 HD
ATOM     52  C   UNL A   1      42.440  30.688  33.416  1.00  0.00     0.037 A 
ATOM     53  C   UNL A   1      43.150  25.644  28.665  1.00  0.00     0.037 A 
ATOM     54  C   UNL A   1      43.676  29.958  33.495  1.00  0.00     0.049 A 
ATOM     55  C   UNL A   1      44.242  25.965  29.652  1.00  0.00     0.074 A 
ATOM     56  C   UNL A   1      44.709  30.110  34.404  1.00  0.00     0.029 A 
ATOM     57  N   UNL A   1      44.051  28.942  32.631  1.00  0.00    -0.354 N 
ATOM     58  N   UNL A   1      44.262  26.866  30.603  1.00  0.00    -0.248 NA
ATOM     59  C   UNL A   1      45.471  25.161  29.557  1.00  0.00     0.031 C 
ATOM     60  C   UNL A   1      45.729  29.214  34.063  1.00  0.00     0.029 A 
ATOM     61  C   UNL A   1      45.309  28.474  32.969  1.00  0.00     0.049 A 
ATOM     62  H   UNL A   1      43.505  28.605  31.885  1.00  0.00     0.167 HD
ATOM     63  C   UNL A   1      45.495  26.722  31.232  1.00  0.00     0.074 A 
ATOM     64  C   UNL A   1      46.192  25.649  30.558  1.00  0.00     0.031 C 
ATOM     65  C   UNL A   1      46.001  27.414  32.283  1.00  0.00     0.037 A 
BRANCH  52  66
ATOM     66  C   UNL A   1      42.206  31.798  34.402  1.00  0.00     0.058 A 
ATOM     67  C   UNL A   1      41.641  31.552  35.663  1.00  0.00     0.135 A 
ATOM     68  C   UNL A   1      42.575  33.116  34.092  1.00  0.00     0.135 A 
ATOM     69  F   UNL A   1      41.255  30.312  36.001  1.00  0.00    -0.206 F 
ATOM     70  C   UNL A   1      41.425  32.581  36.574  1.00  0.00     0.059 A 
ATOM     71  C   UNL A   1      42.389  34.157  34.997  1.00  0.00     0.059 A 
ATOM     72  F   UNL A   1      43.116  33.404  32.897  1.00  0.00    -0.206 F 
ATOM     73  C   UNL A   1      41.799  33.881  36.230  1.00  0.00     0.060 A 
BRANCH  73  74
ATOM     74  S   UNL A   1      41.507  35.207  37.418  1.00  0.00     0.124 S 
ATOM     75  O   UNL A   1      42.546  34.943  38.408  1.00  0.00    -0.237 OA
ATOM     76  O   UNL A   1      41.697  36.404  36.604  1.00  0.00    -0.237 OA
ATOM     77  O   UNL A   1      40.138  34.967  37.866  1.00  0.00    -0.744 OA
ENDBRANCH  73  74
ENDBRANCH  52  66
BRANCH  53  78
ATOM     78  C   UNL A   1      43.365  24.553  27.686  1.00  0.00     0.058 A 
ATOM     79  C   UNL A   1      43.074  23.223  28.023  1.00  0.00     0.135 A 
ATOM     80  C   UNL A   1      43.974  24.807  26.451  1.00  0.00     0.135 A 
ATOM     81  F   UNL A   1      42.518  22.937  29.209  1.00  0.00    -0.206 F 
ATOM     82  C   UNL A   1      43.399  22.174  27.170  1.00  0.00     0.059 A 
ATOM     83  C   UNL A   1      44.318  23.772  25.587  1.00  0.00     0.059 A 
ATOM     84  F   UNL A   1      44.265  26.066  26.092  1.00  0.00    -0.206 F 
ATOM     85  C   UNL A   1      44.025  22.459  25.955  1.00  0.00     0.060 A 
BRANCH  85  86
ATOM     86  S   UNL A   1      44.466  21.076  24.881  1.00  0.00     0.124 S 
ATOM     87  O   UNL A   1      44.495  21.714  23.570  1.00  0.00    -0.237 OA
ATOM     88  O   UNL A   1      45.761  20.684  25.429  1.00  0.00    -0.237 OA
ATOM     89  O   UNL A   1      43.381  20.124  25.086  1.00  0.00    -0.744 OA
ENDBRANCH  85  86
ENDBRANCH  53  78
BRANCH  65  90
ATOM     90  C   UNL A   1      47.361  27.016  32.783  1.00  0.00     0.058 A 
ATOM     91  C   UNL A   1      48.529  27.650  32.332  1.00  0.00     0.135 A 
ATOM     92  C   UNL A   1      47.495  26.008  33.752  1.00  0.00     0.135 A 
ATOM     93  F   UNL A   1      48.456  28.615  31.400  1.00  0.00    -0.206 F 
ATOM     94  C   UNL A   1      49.784  27.286  32.808  1.00  0.00     0.059 A 
ATOM     95  C   UNL A   1      48.738  25.643  34.259  1.00  0.00     0.059 A 
ATOM     96  F   UNL A   1      46.409  25.375  34.222  1.00  0.00    -0.206 F 
ATOM     97  C   UNL A   1      49.879  26.279  33.771  1.00  0.00     0.060 A 
BRANCH  97  98
ATOM     98  S   UNL A   1      51.510  25.833  34.405  1.00  0.00     0.124 S 
ATOM     99  O   UNL A   1      52.322  25.893  33.194  1.00  0.00    -0.237 OA
ATOM    100  O   UNL A   1      51.762  26.880  35.391  1.00  0.00    -0.237 OA
ATOM    101  O   UNL A   1      51.304  24.497  34.959  1.00  0.00    -0.744 OA
ENDBRANCH  97  98
ENDBRANCH  65  90
ENDBRANCH  39  40
ENDBRANCH  32  34
ENDBRANCH  31  32
ENDBRANCH  30  31
ENDBRANCH   1  30
TORSDOF 20
ENDMDL
