MODEL 1
REMARK VINA RESULT:     -10.8      0.000      0.000
REMARK SMILES C[C@]([NH3+])(C(=O)N1[C@@H](C(=O)OCCOC(=O)c2ccc(-c3c4nc(c(-c5c(F)cc(S(=O)(=O)[O-])cc5F)c5ccc([nH]5)c(-c5c(F)cc(S(=O)(=O)[O-])cc5F)c5nc(c(-c6c(F)cc(S(=O)(=O)[O-])cc6F)c6ccc3[nH]6)C=C5)C=C4)cc2)C[C@H]2CCCC[C@@H]21)C(F)(F)F
REMARK SMILES IDX 11 1 10 2 8 3 9 4 7 5 6 6 88 7 82 8 83 9 87 10 84 11 86 12
REMARK SMILES IDX 85 13 4 14 5 15 2 16 1 17 89 18 90 19 91 20 92 21 3 22 12 26
REMARK SMILES IDX 13 27 14 28 15 29 16 30 17 31 81 32 18 33 80 34 19 35 20 36
REMARK SMILES IDX 21 37 74 38 22 39 79 40 73 41 75 42 23 43 78 44 72 45 71 46
REMARK SMILES IDX 24 48 58 49 37 50 57 51 38 52 41 53 56 54 76 55 39 56 40 57
REMARK SMILES IDX 55 59 77 60 42 61 25 62 26 63 35 64 27 65 28 66 34 67 36 68
REMARK SMILES IDX 29 69 30 70 31 71 32 72 33 73 59 74 60 75 69 76 61 77 62 78
REMARK SMILES IDX 68 79 70 80 63 81 64 82 65 83 66 84 67 85 43 86 44 87 53 88
REMARK SMILES IDX 45 89 46 90 52 91 54 92 47 93 48 94 49 95 50 96 51 97
REMARK H PARENT 3 23 3 24 3 25 75 47 41 58
REMARK Flexibility Score: inf
ROOT
ATOM      1  C   UNL A   1      36.003  23.042  23.381  1.00  0.00     0.274 C 
ENDROOT
BRANCH   1   2
ATOM      2  O   UNL A   1      34.573  22.890  23.297  1.00  0.00    -0.461 OA
BRANCH   2   3
ATOM      3  C   UNL A   1      33.849  23.907  22.755  1.00  0.00     0.329 C 
ATOM      4  O   UNL A   1      33.508  23.943  21.578  1.00  0.00    -0.250 OA
BRANCH   3   5
ATOM      5  C   UNL A   1      33.509  25.015  23.793  1.00  0.00     0.196 C 
ATOM      6  N   UNL A   1      32.082  24.918  24.166  1.00  0.00    -0.320 N 
ATOM      7  C   UNL A   1      31.349  25.970  23.495  1.00  0.00     0.089 C 
ATOM      8  C   UNL A   1      33.677  26.453  23.244  1.00  0.00     0.043 C 
ATOM      9  C   UNL A   1      32.356  27.120  23.593  1.00  0.00     0.014 C 
ATOM     10  C   UNL A   1      30.023  26.446  24.082  1.00  0.00     0.025 C 
ATOM     11  C   UNL A   1      31.935  28.296  22.735  1.00  0.00     0.006 C 
ATOM     12  C   UNL A   1      29.526  27.670  23.302  1.00  0.00     0.002 C 
ATOM     13  C   UNL A   1      30.567  28.794  23.210  1.00  0.00     0.000 C 
BRANCH   6  14
ATOM     14  C   UNL A   1      31.470  23.862  24.824  1.00  0.00     0.294 C 
ATOM     15  O   UNL A   1      30.732  23.106  24.185  1.00  0.00    -0.267 OA
BRANCH  14  16
ATOM     16  C   UNL A   1      31.503  23.826  26.377  1.00  0.00     0.267 C 
ATOM     17  C   UNL A   1      30.299  22.988  26.843  1.00  0.00     0.100 C 
BRANCH  16  18
ATOM     18  C   UNL A   1      32.809  23.095  26.796  1.00  0.00     0.453 C 
ATOM     19  F   UNL A   1      32.707  22.526  28.017  1.00  0.00    -0.164 F 
ATOM     20  F   UNL A   1      33.052  22.079  25.921  1.00  0.00    -0.164 F 
ATOM     21  F   UNL A   1      33.901  23.888  26.772  1.00  0.00    -0.164 F 
ENDBRANCH  16  18
BRANCH  16  22
ATOM     22  N   UNL A   1      31.344  25.189  26.999  1.00  0.00    -0.337 N 
ATOM     23  H   UNL A   1      30.418  25.556  26.780  1.00  0.00     0.345 HD
ATOM     24  H   UNL A   1      32.056  25.817  26.627  1.00  0.00     0.345 HD
ATOM     25  H   UNL A   1      31.449  25.116  28.011  1.00  0.00     0.345 HD
ENDBRANCH  16  22
ENDBRANCH  14  16
ENDBRANCH   6  14
ENDBRANCH   3   5
ENDBRANCH   2   3
ENDBRANCH   1   2
BRANCH   1  26
ATOM     26  C   UNL A   1      36.463  22.885  24.834  1.00  0.00     0.275 C 
BRANCH  26  27
ATOM     27  O   UNL A   1      37.528  23.803  25.141  1.00  0.00    -0.458 OA
BRANCH  27  28
ATOM     28  C   UNL A   1      38.501  23.295  25.935  1.00  0.00     0.338 C 
ATOM     29  O   UNL A   1      38.953  22.163  25.919  1.00  0.00    -0.246 OA
BRANCH  28  30
ATOM     30  C   UNL A   1      39.109  24.379  26.719  1.00  0.00     0.060 A 
ATOM     31  C   UNL A   1      38.735  24.469  28.059  1.00  0.00     0.016 A 
ATOM     32  C   UNL A   1      39.954  25.335  26.158  1.00  0.00     0.016 A 
ATOM     33  C   UNL A   1      39.184  25.516  28.850  1.00  0.00     0.010 A 
ATOM     34  C   UNL A   1      40.419  26.388  26.959  1.00  0.00     0.010 A 
ATOM     35  C   UNL A   1      40.028  26.487  28.307  1.00  0.00    -0.014 A 
BRANCH  35  36
ATOM     36  C   UNL A   1      40.426  27.632  29.159  1.00  0.00     0.031 A 
ATOM     37  C   UNL A   1      41.775  27.634  29.817  1.00  0.00     0.074 A 
ATOM     38  C   UNL A   1      39.618  28.705  29.261  1.00  0.00     0.049 A 
ATOM     39  N   UNL A   1      42.285  28.501  30.651  1.00  0.00    -0.248 NA
ATOM     40  C   UNL A   1      42.674  26.518  29.481  1.00  0.00     0.031 C 
ATOM     41  C   UNL A   1      38.329  28.862  28.584  1.00  0.00     0.029 A 
ATOM     42  N   UNL A   1      39.771  29.876  29.959  1.00  0.00    -0.354 N 
ATOM     43  C   UNL A   1      43.546  28.019  30.973  1.00  0.00     0.074 A 
ATOM     44  C   UNL A   1      43.729  26.786  30.236  1.00  0.00     0.031 C 
ATOM     45  C   UNL A   1      37.819  30.067  28.885  1.00  0.00     0.029 A 
ATOM     46  C   UNL A   1      38.709  30.739  29.826  1.00  0.00     0.049 A 
ATOM     47  H   UNL A   1      40.566  30.079  30.503  1.00  0.00     0.167 HD
ATOM     48  C   UNL A   1      44.464  28.555  31.811  1.00  0.00     0.037 A 
ATOM     49  C   UNL A   1      38.468  31.922  30.424  1.00  0.00     0.037 A 
ATOM     50  C   UNL A   1      44.283  29.796  32.518  1.00  0.00     0.049 A 
ATOM     51  C   UNL A   1      39.466  32.455  31.415  1.00  0.00     0.074 A 
ATOM     52  C   UNL A   1      45.147  30.418  33.401  1.00  0.00     0.029 A 
ATOM     53  N   UNL A   1      43.161  30.607  32.416  1.00  0.00    -0.354 N 
ATOM     54  N   UNL A   1      40.631  31.959  31.760  1.00  0.00    -0.248 NA
ATOM     55  C   UNL A   1      39.109  33.698  32.115  1.00  0.00     0.031 C 
ATOM     56  C   UNL A   1      44.532  31.589  33.862  1.00  0.00     0.029 A 
ATOM     57  C   UNL A   1      43.302  31.714  33.234  1.00  0.00     0.049 A 
ATOM     58  H   UNL A   1      42.380  30.422  31.846  1.00  0.00     0.167 HD
ATOM     59  C   UNL A   1      41.152  32.835  32.705  1.00  0.00     0.074 A 
ATOM     60  C   UNL A   1      40.182  33.899  32.868  1.00  0.00     0.031 C 
ATOM     61  C   UNL A   1      42.327  32.765  33.378  1.00  0.00     0.037 A 
BRANCH  48  62
ATOM     62  C   UNL A   1      45.723  27.773  32.050  1.00  0.00     0.058 A 
ATOM     63  C   UNL A   1      46.895  28.005  31.316  1.00  0.00     0.135 A 
ATOM     64  C   UNL A   1      45.756  26.784  33.046  1.00  0.00     0.135 A 
ATOM     65  F   UNL A   1      46.909  28.924  30.337  1.00  0.00    -0.206 F 
ATOM     66  C   UNL A   1      48.053  27.267  31.546  1.00  0.00     0.059 A 
ATOM     67  C   UNL A   1      46.907  26.049  33.308  1.00  0.00     0.059 A 
ATOM     68  F   UNL A   1      44.658  26.520  33.773  1.00  0.00    -0.206 F 
ATOM     69  C   UNL A   1      48.047  26.288  32.541  1.00  0.00     0.060 A 
BRANCH  69  70
ATOM     70  S   UNL A   1      49.551  25.331  32.826  1.00  0.00     0.124 S 
ATOM     71  O   UNL A   1      50.424  26.334  33.428  1.00  0.00    -0.237 OA
ATOM     72  O   UNL A   1      49.087  24.276  33.721  1.00  0.00    -0.237 OA
ATOM     73  O   UNL A   1      49.931  24.889  31.487  1.00  0.00    -0.744 OA
ENDBRANCH  69  70
ENDBRANCH  48  62
BRANCH  49  74
ATOM     74  C   UNL A   1      37.209  32.660  30.139  1.00  0.00     0.058 A 
ATOM     75  C   UNL A   1      36.032  32.384  30.847  1.00  0.00     0.135 A 
ATOM     76  C   UNL A   1      37.159  33.655  29.149  1.00  0.00     0.135 A 
ATOM     77  F   UNL A   1      36.026  31.432  31.793  1.00  0.00    -0.206 F 
ATOM     78  C   UNL A   1      34.845  33.060  30.580  1.00  0.00     0.059 A 
ATOM     79  C   UNL A   1      35.993  34.362  28.880  1.00  0.00     0.059 A 
ATOM     80  F   UNL A   1      38.262  33.962  28.448  1.00  0.00    -0.206 F 
ATOM     81  C   UNL A   1      34.836  34.048  29.594  1.00  0.00     0.060 A 
BRANCH  81  82
ATOM     82  S   UNL A   1      33.304  34.950  29.278  1.00  0.00     0.124 S 
ATOM     83  O   UNL A   1      33.811  36.219  28.770  1.00  0.00    -0.237 OA
ATOM     84  O   UNL A   1      32.635  34.094  28.303  1.00  0.00    -0.237 OA
ATOM     85  O   UNL A   1      32.671  35.004  30.593  1.00  0.00    -0.744 OA
ENDBRANCH  81  82
ENDBRANCH  49  74
BRANCH  61  86
ATOM     86  C   UNL A   1      42.643  33.884  34.329  1.00  0.00     0.058 A 
ATOM     87  C   UNL A   1      42.335  33.795  35.695  1.00  0.00     0.135 A 
ATOM     88  C   UNL A   1      43.309  35.034  33.877  1.00  0.00     0.135 A 
ATOM     89  F   UNL A   1      41.692  32.718  36.175  1.00  0.00    -0.206 F 
ATOM     90  C   UNL A   1      42.664  34.816  36.581  1.00  0.00     0.059 A 
ATOM     91  C   UNL A   1      43.666  36.058  34.748  1.00  0.00     0.059 A 
ATOM     92  F   UNL A   1      43.632  35.162  32.582  1.00  0.00    -0.206 F 
ATOM     93  C   UNL A   1      43.330  35.944  36.097  1.00  0.00     0.060 A 
BRANCH  93  94
ATOM     94  S   UNL A   1      43.789  37.247  37.260  1.00  0.00     0.124 S 
ATOM     95  O   UNL A   1      44.049  38.365  36.359  1.00  0.00    -0.237 OA
ATOM     96  O   UNL A   1      42.593  37.365  38.088  1.00  0.00    -0.237 OA
ATOM     97  O   UNL A   1      44.961  36.700  37.937  1.00  0.00    -0.744 OA
ENDBRANCH  93  94
ENDBRANCH  61  86
ENDBRANCH  35  36
ENDBRANCH  28  30
ENDBRANCH  27  28
ENDBRANCH  26  27
ENDBRANCH   1  26
TORSDOF 18
ENDMDL
MODEL 2
REMARK VINA RESULT:     -10.5      3.421      9.343
REMARK SMILES C[C@]([NH3+])(C(=O)N1[C@@H](C(=O)OCCOC(=O)c2ccc(-c3c4nc(c(-c5c(F)cc(S(=O)(=O)[O-])cc5F)c5ccc([nH]5)c(-c5c(F)cc(S(=O)(=O)[O-])cc5F)c5nc(c(-c6c(F)cc(S(=O)(=O)[O-])cc6F)c6ccc3[nH]6)C=C5)C=C4)cc2)C[C@H]2CCCC[C@@H]21)C(F)(F)F
REMARK SMILES IDX 11 1 10 2 8 3 9 4 7 5 6 6 88 7 82 8 83 9 87 10 84 11 86 12
REMARK SMILES IDX 85 13 4 14 5 15 2 16 1 17 89 18 90 19 91 20 92 21 3 22 12 26
REMARK SMILES IDX 13 27 14 28 15 29 16 30 17 31 81 32 18 33 80 34 19 35 20 36
REMARK SMILES IDX 21 37 74 38 22 39 79 40 73 41 75 42 23 43 78 44 72 45 71 46
REMARK SMILES IDX 24 48 58 49 37 50 57 51 38 52 41 53 56 54 76 55 39 56 40 57
REMARK SMILES IDX 55 59 77 60 42 61 25 62 26 63 35 64 27 65 28 66 34 67 36 68
REMARK SMILES IDX 29 69 30 70 31 71 32 72 33 73 59 74 60 75 69 76 61 77 62 78
REMARK SMILES IDX 68 79 70 80 63 81 64 82 65 83 66 84 67 85 43 86 44 87 53 88
REMARK SMILES IDX 45 89 46 90 52 91 54 92 47 93 48 94 49 95 50 96 51 97
REMARK H PARENT 3 23 3 24 3 25 75 47 41 58
REMARK Flexibility Score: inf
ROOT
ATOM      1  C   UNL A   1      32.080  27.587  26.331  1.00  0.00     0.274 C 
ENDROOT
BRANCH   1   2
ATOM      2  O   UNL A   1      31.175  26.677  26.986  1.00  0.00    -0.461 OA
BRANCH   2   3
ATOM      3  C   UNL A   1      31.001  25.441  26.443  1.00  0.00     0.329 C 
ATOM      4  O   UNL A   1      29.918  24.870  26.391  1.00  0.00    -0.250 OA
BRANCH   3   5
ATOM      5  C   UNL A   1      32.329  24.837  25.903  1.00  0.00     0.196 C 
ATOM      6  N   UNL A   1      32.132  24.382  24.510  1.00  0.00    -0.320 N 
ATOM      7  C   UNL A   1      32.012  22.940  24.500  1.00  0.00     0.089 C 
ATOM      8  C   UNL A   1      32.794  23.573  26.668  1.00  0.00     0.043 C 
ATOM      9  C   UNL A   1      33.051  22.565  25.561  1.00  0.00     0.014 C 
ATOM     10  C   UNL A   1      32.338  22.175  23.221  1.00  0.00     0.025 C 
ATOM     11  C   UNL A   1      32.954  21.098  25.933  1.00  0.00     0.006 C 
ATOM     12  C   UNL A   1      32.306  20.666  23.502  1.00  0.00     0.002 C 
ATOM     13  C   UNL A   1      33.196  20.250  24.681  1.00  0.00     0.000 C 
BRANCH   6  14
ATOM     14  C   UNL A   1      31.839  25.180  23.415  1.00  0.00     0.294 C 
ATOM     15  O   UNL A   1      30.670  25.255  23.025  1.00  0.00    -0.267 OA
BRANCH  14  16
ATOM     16  C   UNL A   1      33.009  25.724  22.548  1.00  0.00     0.267 C 
ATOM     17  C   UNL A   1      32.595  25.579  21.073  1.00  0.00     0.100 C 
BRANCH  16  18
ATOM     18  C   UNL A   1      33.163  27.235  22.875  1.00  0.00     0.453 C 
ATOM     19  F   UNL A   1      34.076  27.457  23.847  1.00  0.00    -0.164 F 
ATOM     20  F   UNL A   1      33.619  27.887  21.769  1.00  0.00    -0.164 F 
ATOM     21  F   UNL A   1      32.004  27.834  23.219  1.00  0.00    -0.164 F 
ENDBRANCH  16  18
BRANCH  16  22
ATOM     22  N   UNL A   1      34.280  24.933  22.717  1.00  0.00    -0.337 N 
ATOM     23  H   UNL A   1      34.091  24.101  23.275  1.00  0.00     0.345 HD
ATOM     24  H   UNL A   1      34.977  25.508  23.190  1.00  0.00     0.345 HD
ATOM     25  H   UNL A   1      34.632  24.655  21.801  1.00  0.00     0.345 HD
ENDBRANCH  16  22
ENDBRANCH  14  16
ENDBRANCH   6  14
ENDBRANCH   3   5
ENDBRANCH   2   3
ENDBRANCH   1   2
BRANCH   1  26
ATOM     26  C   UNL A   1      32.444  28.735  27.277  1.00  0.00     0.275 C 
BRANCH  26  27
ATOM     27  O   UNL A   1      33.852  28.733  27.575  1.00  0.00    -0.458 OA
BRANCH  27  28
ATOM     28  C   UNL A   1      34.364  29.946  27.896  1.00  0.00     0.338 C 
ATOM     29  O   UNL A   1      33.753  30.989  28.051  1.00  0.00    -0.246 OA
BRANCH  28  30
ATOM     30  C   UNL A   1      35.785  29.800  28.245  1.00  0.00     0.060 A 
ATOM     31  C   UNL A   1      36.702  29.950  27.207  1.00  0.00     0.016 A 
ATOM     32  C   UNL A   1      36.218  29.448  29.523  1.00  0.00     0.016 A 
ATOM     33  C   UNL A   1      38.056  29.735  27.423  1.00  0.00     0.010 A 
ATOM     34  C   UNL A   1      37.586  29.243  29.747  1.00  0.00     0.010 A 
ATOM     35  C   UNL A   1      38.510  29.378  28.694  1.00  0.00    -0.014 A 
BRANCH  35  36
ATOM     36  C   UNL A   1      39.951  29.082  28.871  1.00  0.00     0.031 A 
ATOM     37  C   UNL A   1      40.852  30.118  29.477  1.00  0.00     0.074 A 
ATOM     38  C   UNL A   1      40.426  27.856  28.577  1.00  0.00     0.049 A 
ATOM     39  N   UNL A   1      42.147  30.085  29.653  1.00  0.00    -0.248 NA
ATOM     40  C   UNL A   1      40.208  31.350  29.961  1.00  0.00     0.031 C 
ATOM     41  C   UNL A   1      39.626  26.736  28.079  1.00  0.00     0.029 A 
ATOM     42  N   UNL A   1      41.694  27.342  28.673  1.00  0.00    -0.354 N 
ATOM     43  C   UNL A   1      42.481  31.302  30.231  1.00  0.00     0.074 A 
ATOM     44  C   UNL A   1      41.251  32.051  30.384  1.00  0.00     0.031 C 
ATOM     45  C   UNL A   1      40.419  25.662  27.932  1.00  0.00     0.029 A 
ATOM     46  C   UNL A   1      41.791  26.034  28.260  1.00  0.00     0.049 A 
ATOM     47  H   UNL A   1      42.462  27.861  29.006  1.00  0.00     0.167 HD
ATOM     48  C   UNL A   1      43.704  31.754  30.594  1.00  0.00     0.037 A 
ATOM     49  C   UNL A   1      42.871  25.240  28.128  1.00  0.00     0.037 A 
ATOM     50  C   UNL A   1      44.917  30.992  30.462  1.00  0.00     0.049 A 
ATOM     51  C   UNL A   1      44.229  25.795  28.459  1.00  0.00     0.074 A 
ATOM     52  C   UNL A   1      46.209  31.365  30.787  1.00  0.00     0.029 A 
ATOM     53  N   UNL A   1      44.988  29.696  29.969  1.00  0.00    -0.354 N 
ATOM     54  N   UNL A   1      44.542  26.972  28.947  1.00  0.00    -0.248 NA
ATOM     55  C   UNL A   1      45.385  24.922  28.203  1.00  0.00     0.031 C 
ATOM     56  C   UNL A   1      47.066  30.307  30.458  1.00  0.00     0.029 A 
ATOM     57  C   UNL A   1      46.301  29.262  29.964  1.00  0.00     0.049 A 
ATOM     58  H   UNL A   1      44.215  29.165  29.667  1.00  0.00     0.167 HD
ATOM     59  C   UNL A   1      45.927  26.977  29.069  1.00  0.00     0.074 A 
ATOM     60  C   UNL A   1      46.391  25.681  28.617  1.00  0.00     0.031 C 
ATOM     61  C   UNL A   1      46.741  27.965  29.514  1.00  0.00     0.037 A 
BRANCH  48  62
ATOM     62  C   UNL A   1      43.795  33.158  31.117  1.00  0.00     0.058 A 
ATOM     63  C   UNL A   1      43.817  33.443  32.490  1.00  0.00     0.135 A 
ATOM     64  C   UNL A   1      43.879  34.237  30.221  1.00  0.00     0.135 A 
ATOM     65  F   UNL A   1      43.717  32.449  33.387  1.00  0.00    -0.206 F 
ATOM     66  C   UNL A   1      43.896  34.751  32.959  1.00  0.00     0.059 A 
ATOM     67  C   UNL A   1      43.979  35.551  30.667  1.00  0.00     0.059 A 
ATOM     68  F   UNL A   1      43.855  34.019  28.897  1.00  0.00    -0.206 F 
ATOM     69  C   UNL A   1      43.972  35.798  32.039  1.00  0.00     0.060 A 
BRANCH  69  70
ATOM     70  S   UNL A   1      44.065  37.492  32.657  1.00  0.00     0.124 S 
ATOM     71  O   UNL A   1      42.951  37.518  33.601  1.00  0.00    -0.237 OA
ATOM     72  O   UNL A   1      45.398  37.536  33.251  1.00  0.00    -0.237 OA
ATOM     73  O   UNL A   1      43.891  38.303  31.457  1.00  0.00    -0.744 OA
ENDBRANCH  69  70
ENDBRANCH  48  62
BRANCH  49  74
ATOM     74  C   UNL A   1      42.719  23.852  27.618  1.00  0.00     0.058 A 
ATOM     75  C   UNL A   1      42.723  23.582  26.242  1.00  0.00     0.135 A 
ATOM     76  C   UNL A   1      42.565  22.768  28.496  1.00  0.00     0.135 A 
ATOM     77  F   UNL A   1      42.853  24.587  25.362  1.00  0.00    -0.206 F 
ATOM     78  C   UNL A   1      42.569  22.289  25.753  1.00  0.00     0.059 A 
ATOM     79  C   UNL A   1      42.435  21.464  28.034  1.00  0.00     0.059 A 
ATOM     80  F   UNL A   1      42.563  22.973  29.823  1.00  0.00    -0.206 F 
ATOM     81  C   UNL A   1      42.426  21.235  26.658  1.00  0.00     0.060 A 
BRANCH  81  82
ATOM     82  S   UNL A   1      42.267  19.553  26.020  1.00  0.00     0.124 S 
ATOM     83  O   UNL A   1      43.182  19.584  24.885  1.00  0.00    -0.237 OA
ATOM     84  O   UNL A   1      42.692  18.747  27.160  1.00  0.00    -0.237 OA
ATOM     85  O   UNL A   1      40.849  19.456  25.686  1.00  0.00    -0.744 OA
ENDBRANCH  81  82
ENDBRANCH  49  74
BRANCH  61  86
ATOM     86  C   UNL A   1      48.214  27.674  29.564  1.00  0.00     0.058 A 
ATOM     87  C   UNL A   1      48.778  26.919  30.604  1.00  0.00     0.135 A 
ATOM     88  C   UNL A   1      49.060  28.110  28.532  1.00  0.00     0.135 A 
ATOM     89  F   UNL A   1      48.012  26.486  31.617  1.00  0.00    -0.206 F 
ATOM     90  C   UNL A   1      50.136  26.618  30.627  1.00  0.00     0.059 A 
ATOM     91  C   UNL A   1      50.416  27.803  28.524  1.00  0.00     0.059 A 
ATOM     92  F   UNL A   1      48.566  28.828  27.512  1.00  0.00    -0.206 F 
ATOM     93  C   UNL A   1      50.947  27.065  29.581  1.00  0.00     0.060 A 
BRANCH  93  94
ATOM     94  S   UNL A   1      52.701  26.636  29.598  1.00  0.00     0.124 S 
ATOM     95  O   UNL A   1      53.324  27.954  29.642  1.00  0.00    -0.237 OA
ATOM     96  O   UNL A   1      52.818  25.838  30.815  1.00  0.00    -0.237 OA
ATOM     97  O   UNL A   1      52.881  25.897  28.352  1.00  0.00    -0.744 OA
ENDBRANCH  93  94
ENDBRANCH  61  86
ENDBRANCH  35  36
ENDBRANCH  28  30
ENDBRANCH  27  28
ENDBRANCH  26  27
ENDBRANCH   1  26
TORSDOF 18
ENDMDL
MODEL 3
REMARK VINA RESULT:     -10.3      2.591      3.264
REMARK SMILES C[C@]([NH3+])(C(=O)N1[C@@H](C(=O)OCCOC(=O)c2ccc(-c3c4nc(c(-c5c(F)cc(S(=O)(=O)[O-])cc5F)c5ccc([nH]5)c(-c5c(F)cc(S(=O)(=O)[O-])cc5F)c5nc(c(-c6c(F)cc(S(=O)(=O)[O-])cc6F)c6ccc3[nH]6)C=C5)C=C4)cc2)C[C@H]2CCCC[C@@H]21)C(F)(F)F
REMARK SMILES IDX 11 1 10 2 8 3 9 4 7 5 6 6 88 7 82 8 83 9 87 10 84 11 86 12
REMARK SMILES IDX 85 13 4 14 5 15 2 16 1 17 89 18 90 19 91 20 92 21 3 22 12 26
REMARK SMILES IDX 13 27 14 28 15 29 16 30 17 31 81 32 18 33 80 34 19 35 20 36
REMARK SMILES IDX 21 37 74 38 22 39 79 40 73 41 75 42 23 43 78 44 72 45 71 46
REMARK SMILES IDX 24 48 58 49 37 50 57 51 38 52 41 53 56 54 76 55 39 56 40 57
REMARK SMILES IDX 55 59 77 60 42 61 25 62 26 63 35 64 27 65 28 66 34 67 36 68
REMARK SMILES IDX 29 69 30 70 31 71 32 72 33 73 59 74 60 75 69 76 61 77 62 78
REMARK SMILES IDX 68 79 70 80 63 81 64 82 65 83 66 84 67 85 43 86 44 87 53 88
REMARK SMILES IDX 45 89 46 90 52 91 54 92 47 93 48 94 49 95 50 96 51 97
REMARK H PARENT 3 23 3 24 3 25 75 47 41 58
REMARK Flexibility Score: inf
ROOT
ATOM      1  C   UNL A   1      36.276  23.267  23.552  1.00  0.00     0.274 C 
ENDROOT
BRANCH   1   2
ATOM      2  O   UNL A   1      34.870  22.953  23.498  1.00  0.00    -0.461 OA
BRANCH   2   3
ATOM      3  C   UNL A   1      34.026  23.872  22.955  1.00  0.00     0.329 C 
ATOM      4  O   UNL A   1      33.648  23.838  21.789  1.00  0.00    -0.250 OA
BRANCH   3   5
ATOM      5  C   UNL A   1      33.603  24.967  23.975  1.00  0.00     0.196 C 
ATOM      6  N   UNL A   1      32.162  24.828  24.276  1.00  0.00    -0.320 N 
ATOM      7  C   UNL A   1      31.433  25.859  23.570  1.00  0.00     0.089 C 
ATOM      8  C   UNL A   1      33.755  26.411  23.436  1.00  0.00     0.043 C 
ATOM      9  C   UNL A   1      32.399  27.038  23.719  1.00  0.00     0.014 C 
ATOM     10  C   UNL A   1      30.066  26.294  24.091  1.00  0.00     0.025 C 
ATOM     11  C   UNL A   1      31.986  28.203  22.841  1.00  0.00     0.006 C 
ATOM     12  C   UNL A   1      29.572  27.505  23.288  1.00  0.00     0.002 C 
ATOM     13  C   UNL A   1      30.582  28.659  23.248  1.00  0.00     0.000 C 
BRANCH   6  14
ATOM     14  C   UNL A   1      31.551  23.753  24.903  1.00  0.00     0.294 C 
ATOM     15  O   UNL A   1      30.861  22.982  24.229  1.00  0.00    -0.267 OA
BRANCH  14  16
ATOM     16  C   UNL A   1      31.517  23.710  26.456  1.00  0.00     0.267 C 
ATOM     17  C   UNL A   1      30.236  22.962  26.868  1.00  0.00     0.100 C 
BRANCH  16  18
ATOM     18  C   UNL A   1      32.746  22.882  26.923  1.00  0.00     0.453 C 
ATOM     19  F   UNL A   1      33.036  21.874  26.071  1.00  0.00    -0.164 F 
ATOM     20  F   UNL A   1      33.844  23.688  26.947  1.00  0.00    -0.164 F 
ATOM     21  F   UNL A   1      32.616  22.379  28.168  1.00  0.00    -0.164 F 
ENDBRANCH  16  18
BRANCH  16  22
ATOM     22  N   UNL A   1      31.434  25.078  27.079  1.00  0.00    -0.337 N 
ATOM     23  H   UNL A   1      30.881  25.030  27.934  1.00  0.00     0.345 HD
ATOM     24  H   UNL A   1      30.993  25.724  26.424  1.00  0.00     0.345 HD
ATOM     25  H   UNL A   1      32.374  25.408  27.301  1.00  0.00     0.345 HD
ENDBRANCH  16  22
ENDBRANCH  14  16
ENDBRANCH   6  14
ENDBRANCH   3   5
ENDBRANCH   2   3
ENDBRANCH   1   2
BRANCH   1  26
ATOM     26  C   UNL A   1      37.002  22.265  24.454  1.00  0.00     0.275 C 
BRANCH  26  27
ATOM     27  O   UNL A   1      37.324  22.854  25.728  1.00  0.00    -0.458 OA
BRANCH  27  28
ATOM     28  C   UNL A   1      38.620  22.721  26.101  1.00  0.00     0.338 C 
ATOM     29  O   UNL A   1      39.366  21.787  25.862  1.00  0.00    -0.246 OA
BRANCH  28  30
ATOM     30  C   UNL A   1      39.094  23.984  26.684  1.00  0.00     0.060 A 
ATOM     31  C   UNL A   1      39.826  24.824  25.847  1.00  0.00     0.016 A 
ATOM     32  C   UNL A   1      38.907  24.314  28.026  1.00  0.00     0.016 A 
ATOM     33  C   UNL A   1      40.393  25.991  26.337  1.00  0.00     0.010 A 
ATOM     34  C   UNL A   1      39.470  25.500  28.520  1.00  0.00     0.010 A 
ATOM     35  C   UNL A   1      40.223  26.339  27.678  1.00  0.00    -0.014 A 
BRANCH  35  36
ATOM     36  C   UNL A   1      40.906  27.551  28.185  1.00  0.00     0.031 A 
ATOM     37  C   UNL A   1      42.395  27.677  28.044  1.00  0.00     0.074 A 
ATOM     38  C   UNL A   1      40.182  28.574  28.680  1.00  0.00     0.049 A 
ATOM     39  N   UNL A   1      43.189  28.619  28.481  1.00  0.00    -0.248 NA
ATOM     40  C   UNL A   1      43.081  26.607  27.303  1.00  0.00     0.031 C 
ATOM     41  C   UNL A   1      38.721  28.608  28.772  1.00  0.00     0.029 A 
ATOM     42  N   UNL A   1      40.575  29.788  29.183  1.00  0.00    -0.354 N 
ATOM     43  C   UNL A   1      44.470  28.239  28.104  1.00  0.00     0.074 A 
ATOM     44  C   UNL A   1      44.348  26.983  27.395  1.00  0.00     0.031 C 
ATOM     45  C   UNL A   1      38.342  29.792  29.280  1.00  0.00     0.029 A 
ATOM     46  C   UNL A   1      39.530  30.571  29.612  1.00  0.00     0.049 A 
ATOM     47  H   UNL A   1      41.517  30.071  29.232  1.00  0.00     0.167 HD
ATOM     48  C   UNL A   1      45.640  28.879  28.336  1.00  0.00     0.037 A 
ATOM     49  C   UNL A   1      39.535  31.766  30.235  1.00  0.00     0.037 A 
ATOM     50  C   UNL A   1      45.748  30.141  29.020  1.00  0.00     0.049 A 
ATOM     51  C   UNL A   1      40.853  32.415  30.555  1.00  0.00     0.074 A 
ATOM     52  C   UNL A   1      46.889  30.864  29.317  1.00  0.00     0.029 A 
ATOM     53  N   UNL A   1      44.673  30.870  29.507  1.00  0.00    -0.354 N 
ATOM     54  N   UNL A   1      42.065  32.016  30.249  1.00  0.00    -0.248 NA
ATOM     55  C   UNL A   1      40.807  33.668  31.324  1.00  0.00     0.031 C 
ATOM     56  C   UNL A   1      46.506  32.016  30.017  1.00  0.00     0.029 A 
ATOM     57  C   UNL A   1      45.124  32.026  30.120  1.00  0.00     0.049 A 
ATOM     58  H   UNL A   1      43.728  30.603  29.429  1.00  0.00     0.167 HD
ATOM     59  C   UNL A   1      42.925  32.974  30.775  1.00  0.00     0.074 A 
ATOM     60  C   UNL A   1      42.094  33.979  31.407  1.00  0.00     0.031 C 
ATOM     61  C   UNL A   1      44.279  33.017  30.738  1.00  0.00     0.037 A 
BRANCH  48  62
ATOM     62  C   UNL A   1      46.901  28.195  27.894  1.00  0.00     0.058 A 
ATOM     63  C   UNL A   1      47.506  28.471  26.659  1.00  0.00     0.135 A 
ATOM     64  C   UNL A   1      47.523  27.257  28.734  1.00  0.00     0.135 A 
ATOM     65  F   UNL A   1      46.939  29.343  25.809  1.00  0.00    -0.206 F 
ATOM     66  C   UNL A   1      48.672  27.824  26.261  1.00  0.00     0.059 A 
ATOM     67  C   UNL A   1      48.700  26.613  28.367  1.00  0.00     0.059 A 
ATOM     68  F   UNL A   1      46.981  26.953  29.925  1.00  0.00    -0.206 F 
ATOM     69  C   UNL A   1      49.259  26.894  27.121  1.00  0.00     0.060 A 
BRANCH  69  70
ATOM     70  S   UNL A   1      50.767  26.053  26.591  1.00  0.00     0.124 S 
ATOM     71  O   UNL A   1      50.677  24.800  27.335  1.00  0.00    -0.237 OA
ATOM     72  O   UNL A   1      50.576  25.947  25.148  1.00  0.00    -0.237 OA
ATOM     73  O   UNL A   1      51.829  26.961  27.014  1.00  0.00    -0.744 OA
ENDBRANCH  69  70
ENDBRANCH  48  62
BRANCH  49  74
ATOM     74  C   UNL A   1      38.254  32.403  30.638  1.00  0.00     0.058 A 
ATOM     75  C   UNL A   1      37.561  33.251  29.763  1.00  0.00     0.135 A 
ATOM     76  C   UNL A   1      37.698  32.176  31.907  1.00  0.00     0.135 A 
ATOM     77  F   UNL A   1      38.060  33.509  28.544  1.00  0.00    -0.206 F 
ATOM     78  C   UNL A   1      36.367  33.862  30.134  1.00  0.00     0.059 A 
ATOM     79  C   UNL A   1      36.494  32.755  32.293  1.00  0.00     0.059 A 
ATOM     80  F   UNL A   1      38.319  31.365  32.778  1.00  0.00    -0.206 F 
ATOM     81  C   UNL A   1      35.841  33.607  31.402  1.00  0.00     0.060 A 
BRANCH  81  82
ATOM     82  S   UNL A   1      34.271  34.371  31.864  1.00  0.00     0.124 S 
ATOM     83  O   UNL A   1      34.722  35.606  32.493  1.00  0.00    -0.237 OA
ATOM     84  O   UNL A   1      33.605  34.517  30.574  1.00  0.00    -0.237 OA
ATOM     85  O   UNL A   1      33.673  33.387  32.762  1.00  0.00    -0.744 OA
ENDBRANCH  81  82
ENDBRANCH  49  74
BRANCH  61  86
ATOM     86  C   UNL A   1      44.948  34.203  31.373  1.00  0.00     0.058 A 
ATOM     87  C   UNL A   1      45.373  34.178  32.709  1.00  0.00     0.135 A 
ATOM     88  C   UNL A   1      45.212  35.357  30.619  1.00  0.00     0.135 A 
ATOM     89  F   UNL A   1      45.137  33.099  33.474  1.00  0.00    -0.206 F 
ATOM     90  C   UNL A   1      46.026  35.264  33.283  1.00  0.00     0.059 A 
ATOM     91  C   UNL A   1      45.881  36.447  31.165  1.00  0.00     0.059 A 
ATOM     92  F   UNL A   1      44.832  35.427  29.334  1.00  0.00    -0.206 F 
ATOM     93  C   UNL A   1      46.276  36.394  32.502  1.00  0.00     0.060 A 
BRANCH  93  94
ATOM     94  S   UNL A   1      47.159  37.784  33.243  1.00  0.00     0.124 S 
ATOM     95  O   UNL A   1      47.968  37.112  34.254  1.00  0.00    -0.237 OA
ATOM     96  O   UNL A   1      47.893  38.333  32.106  1.00  0.00    -0.237 OA
ATOM     97  O   UNL A   1      46.087  38.631  33.757  1.00  0.00    -0.744 OA
ENDBRANCH  93  94
ENDBRANCH  61  86
ENDBRANCH  35  36
ENDBRANCH  28  30
ENDBRANCH  27  28
ENDBRANCH  26  27
ENDBRANCH   1  26
TORSDOF 18
ENDMDL
