MODEL 1
REMARK VINA RESULT:     -12.2      0.000      0.000
REMARK SMILES C[C@H]1CN(C(=O)Nc2ccc(C(=O)OCCOC(=O)c3ccc(-c4c5nc(c(-c6c(F)cc(S(=O)(=O)[O-])cc6F)c6ccc([nH]6)c(-c6c(F)cc(S(=O)(=O)[O-])cc6F)c6nc(c(-c7c(F)cc(S(=O)(=O)[O-])cc7F)c7ccc4[nH]7)C=C6)C=C5)cc3)cc2Br)C[C@@H]1C
REMARK SMILES IDX 16 1 15 2 14 3 12 4 13 5 11 6 8 7 9 8 87 9 10 10 86 11 88 12
REMARK SMILES IDX 7 13 1 14 2 15 3 16 90 17 4 18 89 19 91 20 5 21 6 22 17 24
REMARK SMILES IDX 18 25 19 26 20 27 21 28 85 29 22 30 84 31 23 32 24 33 25 34
REMARK SMILES IDX 78 35 26 36 83 37 77 38 79 39 27 40 82 41 76 42 75 43 28 45
REMARK SMILES IDX 62 46 41 47 61 48 42 49 45 50 60 51 80 52 43 53 44 54 59 56
REMARK SMILES IDX 81 57 46 58 29 59 30 60 39 61 31 62 32 63 38 64 40 65 33 66
REMARK SMILES IDX 34 67 35 68 36 69 37 70 63 71 64 72 73 73 65 74 66 75 72 76
REMARK SMILES IDX 74 77 67 78 68 79 69 80 70 81 71 82 47 83 48 84 57 85 49 86
REMARK SMILES IDX 50 87 56 88 58 89 51 90 52 91 53 92 54 93 55 94
REMARK H PARENT 7 23 79 44 45 55
REMARK Flexibility Score: inf
ROOT
ATOM      1  C   UNL A   1      40.404  22.280  26.735  1.00  0.00     0.275 C 
ENDROOT
BRANCH   1   2
ATOM      2  C   UNL A   1      39.421  21.287  26.113  1.00  0.00     0.275 C 
BRANCH   2   3
ATOM      3  O   UNL A   1      38.158  21.925  25.842  1.00  0.00    -0.458 OA
BRANCH   3   4
ATOM      4  C   UNL A   1      37.237  21.145  25.231  1.00  0.00     0.338 C 
ATOM      5  O   UNL A   1      37.460  20.104  24.630  1.00  0.00    -0.246 OA
BRANCH   4   6
ATOM      6  C   UNL A   1      35.862  21.681  25.397  1.00  0.00     0.061 A 
ATOM      7  C   UNL A   1      33.246  22.394  26.032  1.00  0.00     0.057 A 
ATOM      8  C   UNL A   1      34.280  22.787  26.878  1.00  0.00     0.028 A 
ATOM      9  C   UNL A   1      33.531  21.797  24.790  1.00  0.00     0.042 A 
ATOM     10  C   UNL A   1      35.576  22.379  26.584  1.00  0.00     0.018 A 
ATOM     11  C   UNL A   1      34.847  21.453  24.463  1.00  0.00     0.033 A 
ATOM     12  Br  UNL A   1      32.153  21.319  23.572  1.00  0.00    -0.049 Br
BRANCH   7  13
ATOM     13  N   UNL A   1      31.956  22.447  26.563  1.00  0.00    -0.307 N 
ATOM     14  C   UNL A   1      33.062  27.395  26.012  1.00  0.00     0.010 C 
ATOM     15  C   UNL A   1      32.311  26.605  24.935  1.00  0.00     0.010 C 
ATOM     16  C   UNL A   1      32.474  25.105  25.160  1.00  0.00     0.125 C 
ATOM     17  C   UNL A   1      30.792  26.781  25.024  1.00  0.00     0.010 C 
ATOM     18  N   UNL A   1      31.386  24.713  26.051  1.00  0.00    -0.324 N 
ATOM     19  C   UNL A   1      30.399  25.786  26.124  1.00  0.00     0.125 C 
ATOM     20  C   UNL A   1      30.118  26.433  23.692  1.00  0.00     0.010 C 
ATOM     21  C   UNL A   1      31.111  23.513  26.660  1.00  0.00     0.321 C 
ATOM     22  O   UNL A   1      30.048  23.331  27.261  1.00  0.00    -0.248 OA
ATOM     23  H   UNL A   1      31.608  21.597  26.917  1.00  0.00     0.171 HD
ENDBRANCH   7  13
ENDBRANCH   4   6
ENDBRANCH   3   4
ENDBRANCH   2   3
ENDBRANCH   1   2
BRANCH   1  24
ATOM     24  O   UNL A   1      39.974  23.640  26.529  1.00  0.00    -0.458 OA
BRANCH  24  25
ATOM     25  C   UNL A   1      40.963  24.564  26.545  1.00  0.00     0.338 C 
ATOM     26  O   UNL A   1      41.980  24.568  25.872  1.00  0.00    -0.246 OA
BRANCH  25  27
ATOM     27  C   UNL A   1      40.603  25.678  27.436  1.00  0.00     0.060 A 
ATOM     28  C   UNL A   1      41.390  26.823  27.392  1.00  0.00     0.016 A 
ATOM     29  C   UNL A   1      39.631  25.538  28.422  1.00  0.00     0.016 A 
ATOM     30  C   UNL A   1      41.282  27.798  28.377  1.00  0.00     0.010 A 
ATOM     31  C   UNL A   1      39.464  26.561  29.368  1.00  0.00     0.010 A 
ATOM     32  C   UNL A   1      40.314  27.684  29.382  1.00  0.00    -0.014 A 
BRANCH  32  33
ATOM     33  C   UNL A   1      40.252  28.702  30.469  1.00  0.00     0.031 A 
ATOM     34  C   UNL A   1      41.224  28.638  31.622  1.00  0.00     0.074 A 
ATOM     35  C   UNL A   1      39.361  29.714  30.411  1.00  0.00     0.049 A 
ATOM     36  N   UNL A   1      41.248  29.342  32.725  1.00  0.00    -0.248 NA
ATOM     37  C   UNL A   1      42.302  27.642  31.526  1.00  0.00     0.031 C 
ATOM     38  C   UNL A   1      38.394  29.932  29.333  1.00  0.00     0.029 A 
ATOM     39  N   UNL A   1      39.130  30.758  31.274  1.00  0.00    -0.354 N 
ATOM     40  C   UNL A   1      42.304  28.837  33.478  1.00  0.00     0.074 A 
ATOM     41  C   UNL A   1      42.891  27.762  32.708  1.00  0.00     0.031 C 
ATOM     42  C   UNL A   1      37.701  31.054  29.581  1.00  0.00     0.029 A 
ATOM     43  C   UNL A   1      38.114  31.594  30.871  1.00  0.00     0.049 A 
ATOM     44  H   UNL A   1      39.643  30.895  32.103  1.00  0.00     0.167 HD
ATOM     45  C   UNL A   1      42.743  29.233  34.698  1.00  0.00     0.037 A 
ATOM     46  C   UNL A   1      37.550  32.653  31.485  1.00  0.00     0.037 A 
ATOM     47  C   UNL A   1      42.193  30.342  35.435  1.00  0.00     0.049 A 
ATOM     48  C   UNL A   1      38.047  33.068  32.841  1.00  0.00     0.074 A 
ATOM     49  C   UNL A   1      42.578  30.828  36.674  1.00  0.00     0.029 A 
ATOM     50  N   UNL A   1      41.154  31.151  34.997  1.00  0.00    -0.354 N 
ATOM     51  N   UNL A   1      39.007  32.541  33.563  1.00  0.00    -0.248 NA
ATOM     52  C   UNL A   1      37.375  34.211  33.473  1.00  0.00     0.031 C 
ATOM     53  C   UNL A   1      41.750  31.909  36.998  1.00  0.00     0.029 A 
ATOM     54  C   UNL A   1      40.881  32.127  35.942  1.00  0.00     0.049 A 
ATOM     55  H   UNL A   1      40.681  31.046  34.140  1.00  0.00     0.167 HD
ATOM     56  C   UNL A   1      39.065  33.300  34.728  1.00  0.00     0.074 A 
ATOM     57  C   UNL A   1      38.057  34.333  34.603  1.00  0.00     0.031 C 
ATOM     58  C   UNL A   1      39.877  33.151  35.804  1.00  0.00     0.037 A 
BRANCH  45  59
ATOM     59  C   UNL A   1      43.855  28.441  35.330  1.00  0.00     0.058 A 
ATOM     60  C   UNL A   1      45.208  28.753  35.123  1.00  0.00     0.135 A 
ATOM     61  C   UNL A   1      43.556  27.366  36.185  1.00  0.00     0.135 A 
ATOM     62  F   UNL A   1      45.552  29.758  34.303  1.00  0.00    -0.206 F 
ATOM     63  C   UNL A   1      46.225  28.011  35.718  1.00  0.00     0.059 A 
ATOM     64  C   UNL A   1      44.556  26.628  36.811  1.00  0.00     0.059 A 
ATOM     65  F   UNL A   1      42.280  27.024  36.420  1.00  0.00    -0.206 F 
ATOM     66  C   UNL A   1      45.889  26.947  36.558  1.00  0.00     0.060 A 
BRANCH  66  67
ATOM     67  S   UNL A   1      47.217  25.992  37.321  1.00  0.00     0.124 S 
ATOM     68  O   UNL A   1      48.397  26.593  36.707  1.00  0.00    -0.237 OA
ATOM     69  O   UNL A   1      47.030  26.272  38.741  1.00  0.00    -0.237 OA
ATOM     70  O   UNL A   1      46.927  24.621  36.914  1.00  0.00    -0.744 OA
ENDBRANCH  66  67
ENDBRANCH  45  59
BRANCH  46  71
ATOM     71  C   UNL A   1      36.424  33.375  30.832  1.00  0.00     0.058 A 
ATOM     72  C   UNL A   1      35.108  33.243  31.301  1.00  0.00     0.135 A 
ATOM     73  C   UNL A   1      36.644  34.221  29.734  1.00  0.00     0.135 A 
ATOM     74  F   UNL A   1      34.845  32.436  32.340  1.00  0.00    -0.206 F 
ATOM     75  C   UNL A   1      34.049  33.914  30.698  1.00  0.00     0.059 A 
ATOM     76  C   UNL A   1      35.606  34.927  29.135  1.00  0.00     0.059 A 
ATOM     77  F   UNL A   1      37.885  34.392  29.254  1.00  0.00    -0.206 F 
ATOM     78  C   UNL A   1      34.309  34.759  29.617  1.00  0.00     0.060 A 
BRANCH  78  79
ATOM     79  S   UNL A   1      32.940  35.675  28.879  1.00  0.00     0.124 S 
ATOM     80  O   UNL A   1      32.348  34.666  28.008  1.00  0.00    -0.237 OA
ATOM     81  O   UNL A   1      32.152  36.049  30.050  1.00  0.00    -0.237 OA
ATOM     82  O   UNL A   1      33.606  36.783  28.203  1.00  0.00    -0.744 OA
ENDBRANCH  78  79
ENDBRANCH  46  71
BRANCH  58  83
ATOM     83  C   UNL A   1      39.733  34.155  36.914  1.00  0.00     0.058 A 
ATOM     84  C   UNL A   1      38.934  33.903  38.040  1.00  0.00     0.135 A 
ATOM     85  C   UNL A   1      40.417  35.380  36.855  1.00  0.00     0.135 A 
ATOM     86  F   UNL A   1      38.255  32.749  38.142  1.00  0.00    -0.206 F 
ATOM     87  C   UNL A   1      38.788  34.845  39.053  1.00  0.00     0.059 A 
ATOM     88  C   UNL A   1      40.306  36.327  37.870  1.00  0.00     0.059 A 
ATOM     89  F   UNL A   1      41.203  35.666  35.806  1.00  0.00    -0.206 F 
ATOM     90  C   UNL A   1      39.474  36.058  38.955  1.00  0.00     0.060 A 
BRANCH  90  91
ATOM     91  S   UNL A   1      39.280  37.275  40.275  1.00  0.00     0.124 S 
ATOM     92  O   UNL A   1      40.670  37.600  40.579  1.00  0.00    -0.237 OA
ATOM     93  O   UNL A   1      38.510  38.328  39.621  1.00  0.00    -0.237 OA
ATOM     94  O   UNL A   1      38.566  36.538  41.313  1.00  0.00    -0.744 OA
ENDBRANCH  90  91
ENDBRANCH  58  83
ENDBRANCH  32  33
ENDBRANCH  25  27
ENDBRANCH  24  25
ENDBRANCH   1  24
TORSDOF 15
ENDMDL
MODEL 2
REMARK VINA RESULT:     -12.1      6.641     12.329
REMARK SMILES C[C@H]1CN(C(=O)Nc2ccc(C(=O)OCCOC(=O)c3ccc(-c4c5nc(c(-c6c(F)cc(S(=O)(=O)[O-])cc6F)c6ccc([nH]6)c(-c6c(F)cc(S(=O)(=O)[O-])cc6F)c6nc(c(-c7c(F)cc(S(=O)(=O)[O-])cc7F)c7ccc4[nH]7)C=C6)C=C5)cc3)cc2Br)C[C@@H]1C
REMARK SMILES IDX 16 1 15 2 14 3 12 4 13 5 11 6 8 7 9 8 87 9 10 10 86 11 88 12
REMARK SMILES IDX 7 13 1 14 2 15 3 16 90 17 4 18 89 19 91 20 5 21 6 22 17 24
REMARK SMILES IDX 18 25 19 26 20 27 21 28 85 29 22 30 84 31 23 32 24 33 25 34
REMARK SMILES IDX 78 35 26 36 83 37 77 38 79 39 27 40 82 41 76 42 75 43 28 45
REMARK SMILES IDX 62 46 41 47 61 48 42 49 45 50 60 51 80 52 43 53 44 54 59 56
REMARK SMILES IDX 81 57 46 58 29 59 30 60 39 61 31 62 32 63 38 64 40 65 33 66
REMARK SMILES IDX 34 67 35 68 36 69 37 70 63 71 64 72 73 73 65 74 66 75 72 76
REMARK SMILES IDX 74 77 67 78 68 79 69 80 70 81 71 82 47 83 48 84 57 85 49 86
REMARK SMILES IDX 50 87 56 88 58 89 51 90 52 91 53 92 54 93 55 94
REMARK H PARENT 7 23 79 44 45 55
REMARK Flexibility Score: inf
ROOT
ATOM      1  C   UNL A   1      34.405  31.877  28.791  1.00  0.00     0.275 C 
ENDROOT
BRANCH   1   2
ATOM      2  C   UNL A   1      33.559  31.918  27.517  1.00  0.00     0.275 C 
BRANCH   2   3
ATOM      3  O   UNL A   1      32.867  30.670  27.326  1.00  0.00    -0.458 OA
BRANCH   3   4
ATOM      4  C   UNL A   1      31.996  30.645  26.291  1.00  0.00     0.338 C 
ATOM      5  O   UNL A   1      31.153  31.494  26.040  1.00  0.00    -0.246 OA
BRANCH   4   6
ATOM      6  C   UNL A   1      32.194  29.451  25.431  1.00  0.00     0.061 A 
ATOM      7  C   UNL A   1      32.559  27.494  23.483  1.00  0.00     0.057 A 
ATOM      8  C   UNL A   1      33.622  28.330  23.810  1.00  0.00     0.028 A 
ATOM      9  C   UNL A   1      31.373  27.519  24.242  1.00  0.00     0.042 A 
ATOM     10  C   UNL A   1      33.416  29.342  24.742  1.00  0.00     0.018 A 
ATOM     11  C   UNL A   1      31.196  28.492  25.232  1.00  0.00     0.033 A 
ATOM     12  Br  UNL A   1      29.930  26.339  23.880  1.00  0.00    -0.049 Br
BRANCH   7  13
ATOM     13  N   UNL A   1      32.666  26.797  22.279  1.00  0.00    -0.307 N 
ATOM     14  C   UNL A   1      35.693  24.063  25.340  1.00  0.00     0.010 C 
ATOM     15  C   UNL A   1      34.220  23.703  25.122  1.00  0.00     0.010 C 
ATOM     16  C   UNL A   1      33.466  24.882  24.514  1.00  0.00     0.125 C 
ATOM     17  C   UNL A   1      34.027  22.616  24.061  1.00  0.00     0.010 C 
ATOM     18  N   UNL A   1      33.600  24.741  23.067  1.00  0.00    -0.324 N 
ATOM     19  C   UNL A   1      34.098  23.406  22.748  1.00  0.00     0.125 C 
ATOM     20  C   UNL A   1      32.668  21.925  24.221  1.00  0.00     0.010 C 
ATOM     21  C   UNL A   1      33.211  25.569  22.043  1.00  0.00     0.321 C 
ATOM     22  O   UNL A   1      33.275  25.202  20.866  1.00  0.00    -0.248 OA
ATOM     23  H   UNL A   1      32.296  27.255  21.490  1.00  0.00     0.171 HD
ENDBRANCH   7  13
ENDBRANCH   4   6
ENDBRANCH   3   4
ENDBRANCH   2   3
ENDBRANCH   1   2
BRANCH   1  24
ATOM     24  O   UNL A   1      35.344  30.784  28.759  1.00  0.00    -0.458 OA
BRANCH  24  25
ATOM     25  C   UNL A   1      36.239  30.766  29.775  1.00  0.00     0.338 C 
ATOM     26  O   UNL A   1      36.074  31.183  30.910  1.00  0.00    -0.246 OA
BRANCH  25  27
ATOM     27  C   UNL A   1      37.458  30.053  29.366  1.00  0.00     0.060 A 
ATOM     28  C   UNL A   1      38.329  29.633  30.365  1.00  0.00     0.016 A 
ATOM     29  C   UNL A   1      37.833  29.957  28.029  1.00  0.00     0.016 A 
ATOM     30  C   UNL A   1      39.612  29.198  30.053  1.00  0.00     0.010 A 
ATOM     31  C   UNL A   1      39.098  29.440  27.708  1.00  0.00     0.010 A 
ATOM     32  C   UNL A   1      40.018  29.093  28.717  1.00  0.00    -0.014 A 
BRANCH  32  33
ATOM     33  C   UNL A   1      41.417  28.690  28.398  1.00  0.00     0.031 A 
ATOM     34  C   UNL A   1      42.530  29.707  28.456  1.00  0.00     0.074 A 
ATOM     35  C   UNL A   1      41.710  27.406  28.099  1.00  0.00     0.049 A 
ATOM     36  N   UNL A   1      43.780  29.589  28.087  1.00  0.00    -0.248 NA
ATOM     37  C   UNL A   1      42.187  31.035  28.988  1.00  0.00     0.031 C 
ATOM     38  C   UNL A   1      40.746  26.304  28.053  1.00  0.00     0.029 A 
ATOM     39  N   UNL A   1      42.906  26.806  27.789  1.00  0.00    -0.354 N 
ATOM     40  C   UNL A   1      44.357  30.840  28.288  1.00  0.00     0.074 A 
ATOM     41  C   UNL A   1      43.317  31.703  28.804  1.00  0.00     0.031 C 
ATOM     42  C   UNL A   1      41.391  25.163  27.769  1.00  0.00     0.029 A 
ATOM     43  C   UNL A   1      42.799  25.459  27.532  1.00  0.00     0.049 A 
ATOM     44  H   UNL A   1      43.760  27.295  27.753  1.00  0.00     0.167 HD
ATOM     45  C   UNL A   1      45.636  31.231  28.062  1.00  0.00     0.037 A 
ATOM     46  C   UNL A   1      43.720  24.566  27.116  1.00  0.00     0.037 A 
ATOM     47  C   UNL A   1      46.682  30.353  27.603  1.00  0.00     0.049 A 
ATOM     48  C   UNL A   1      45.128  25.026  26.862  1.00  0.00     0.074 A 
ATOM     49  C   UNL A   1      48.011  30.654  27.356  1.00  0.00     0.029 A 
ATOM     50  N   UNL A   1      46.525  29.000  27.340  1.00  0.00    -0.354 N 
ATOM     51  N   UNL A   1      45.641  26.226  27.001  1.00  0.00    -0.248 NA
ATOM     52  C   UNL A   1      46.080  24.014  26.383  1.00  0.00     0.031 C 
ATOM     53  C   UNL A   1      48.650  29.490  26.912  1.00  0.00     0.029 A 
ATOM     54  C   UNL A   1      47.731  28.454  26.928  1.00  0.00     0.049 A 
ATOM     55  H   UNL A   1      45.682  28.501  27.434  1.00  0.00     0.167 HD
ATOM     56  C   UNL A   1      46.979  26.108  26.641  1.00  0.00     0.074 A 
ATOM     57  C   UNL A   1      47.200  24.718  26.299  1.00  0.00     0.031 C 
ATOM     58  C   UNL A   1      47.937  27.067  26.594  1.00  0.00     0.037 A 
BRANCH  45  59
ATOM     59  C   UNL A   1      45.968  32.683  28.276  1.00  0.00     0.058 A 
ATOM     60  C   UNL A   1      45.834  33.640  27.257  1.00  0.00     0.135 A 
ATOM     61  C   UNL A   1      46.401  33.128  29.536  1.00  0.00     0.135 A 
ATOM     62  F   UNL A   1      45.440  33.268  26.028  1.00  0.00    -0.206 F 
ATOM     63  C   UNL A   1      46.144  34.980  27.472  1.00  0.00     0.059 A 
ATOM     64  C   UNL A   1      46.690  34.467  29.781  1.00  0.00     0.059 A 
ATOM     65  F   UNL A   1      46.546  32.258  30.547  1.00  0.00    -0.206 F 
ATOM     66  C   UNL A   1      46.575  35.384  28.737  1.00  0.00     0.060 A 
BRANCH  66  67
ATOM     67  S   UNL A   1      46.975  37.124  29.002  1.00  0.00     0.124 S 
ATOM     68  O   UNL A   1      47.599  37.082  30.321  1.00  0.00    -0.237 OA
ATOM     69  O   UNL A   1      47.869  37.414  27.886  1.00  0.00    -0.237 OA
ATOM     70  O   UNL A   1      45.674  37.784  28.945  1.00  0.00    -0.744 OA
ENDBRANCH  66  67
ENDBRANCH  45  59
BRANCH  46  71
ATOM     71  C   UNL A   1      43.325  23.150  26.879  1.00  0.00     0.058 A 
ATOM     72  C   UNL A   1      43.173  22.647  25.578  1.00  0.00     0.135 A 
ATOM     73  C   UNL A   1      43.105  22.270  27.950  1.00  0.00     0.135 A 
ATOM     74  F   UNL A   1      43.361  23.453  24.522  1.00  0.00    -0.206 F 
ATOM     75  C   UNL A   1      42.806  21.325  25.347  1.00  0.00     0.059 A 
ATOM     76  C   UNL A   1      42.768  20.937  27.743  1.00  0.00     0.059 A 
ATOM     77  F   UNL A   1      43.249  22.698  29.214  1.00  0.00    -0.206 F 
ATOM     78  C   UNL A   1      42.610  20.476  26.438  1.00  0.00     0.060 A 
BRANCH  78  79
ATOM     79  S   UNL A   1      42.194  18.746  26.130  1.00  0.00     0.124 S 
ATOM     80  O   UNL A   1      42.472  18.142  27.428  1.00  0.00    -0.237 OA
ATOM     81  O   UNL A   1      40.786  18.830  25.752  1.00  0.00    -0.237 OA
ATOM     82  O   UNL A   1      43.102  18.371  25.050  1.00  0.00    -0.744 OA
ENDBRANCH  78  79
ENDBRANCH  46  71
BRANCH  58  83
ATOM     83  C   UNL A   1      49.321  26.634  26.195  1.00  0.00     0.058 A 
ATOM     84  C   UNL A   1      50.192  26.014  27.104  1.00  0.00     0.135 A 
ATOM     85  C   UNL A   1      49.774  26.831  24.881  1.00  0.00     0.135 A 
ATOM     86  F   UNL A   1      49.809  25.808  28.374  1.00  0.00    -0.206 F 
ATOM     87  C   UNL A   1      51.478  25.636  26.733  1.00  0.00     0.059 A 
ATOM     88  C   UNL A   1      51.048  26.437  24.481  1.00  0.00     0.059 A 
ATOM     89  F   UNL A   1      48.976  27.409  23.969  1.00  0.00    -0.206 F 
ATOM     90  C   UNL A   1      51.899  25.857  25.420  1.00  0.00     0.060 A 
BRANCH  90  91
ATOM     91  S   UNL A   1      53.570  25.362  24.948  1.00  0.00     0.124 S 
ATOM     92  O   UNL A   1      54.382  26.271  25.751  1.00  0.00    -0.237 OA
ATOM     93  O   UNL A   1      53.607  23.958  25.346  1.00  0.00    -0.237 OA
ATOM     94  O   UNL A   1      53.600  25.599  23.508  1.00  0.00    -0.744 OA
ENDBRANCH  90  91
ENDBRANCH  58  83
ENDBRANCH  32  33
ENDBRANCH  25  27
ENDBRANCH  24  25
ENDBRANCH   1  24
TORSDOF 15
ENDMDL
MODEL 3
REMARK VINA RESULT:     -12.0      6.727     12.273
REMARK SMILES C[C@H]1CN(C(=O)Nc2ccc(C(=O)OCCOC(=O)c3ccc(-c4c5nc(c(-c6c(F)cc(S(=O)(=O)[O-])cc6F)c6ccc([nH]6)c(-c6c(F)cc(S(=O)(=O)[O-])cc6F)c6nc(c(-c7c(F)cc(S(=O)(=O)[O-])cc7F)c7ccc4[nH]7)C=C6)C=C5)cc3)cc2Br)C[C@@H]1C
REMARK SMILES IDX 16 1 15 2 14 3 12 4 13 5 11 6 8 7 9 8 87 9 10 10 86 11 88 12
REMARK SMILES IDX 7 13 1 14 2 15 3 16 90 17 4 18 89 19 91 20 5 21 6 22 17 24
REMARK SMILES IDX 18 25 19 26 20 27 21 28 85 29 22 30 84 31 23 32 24 33 25 34
REMARK SMILES IDX 78 35 26 36 83 37 77 38 79 39 27 40 82 41 76 42 75 43 28 45
REMARK SMILES IDX 62 46 41 47 61 48 42 49 45 50 60 51 80 52 43 53 44 54 59 56
REMARK SMILES IDX 81 57 46 58 29 59 30 60 39 61 31 62 32 63 38 64 40 65 33 66
REMARK SMILES IDX 34 67 35 68 36 69 37 70 63 71 64 72 73 73 65 74 66 75 72 76
REMARK SMILES IDX 74 77 67 78 68 79 69 80 70 81 71 82 47 83 48 84 57 85 49 86
REMARK SMILES IDX 50 87 56 88 58 89 51 90 52 91 53 92 54 93 55 94
REMARK H PARENT 7 23 79 44 45 55
REMARK Flexibility Score: inf
ROOT
ATOM      1  C   UNL A   1      34.800  31.795  28.844  1.00  0.00     0.275 C 
ENDROOT
BRANCH   1   2
ATOM      2  C   UNL A   1      33.894  31.902  27.617  1.00  0.00     0.275 C 
BRANCH   2   3
ATOM      3  O   UNL A   1      33.537  30.593  27.133  1.00  0.00    -0.458 OA
BRANCH   3   4
ATOM      4  C   UNL A   1      32.396  30.537  26.406  1.00  0.00     0.338 C 
ATOM      5  O   UNL A   1      31.450  31.306  26.493  1.00  0.00    -0.246 OA
BRANCH   4   6
ATOM      6  C   UNL A   1      32.421  29.422  25.426  1.00  0.00     0.061 A 
ATOM      7  C   UNL A   1      32.493  27.645  23.283  1.00  0.00     0.057 A 
ATOM      8  C   UNL A   1      33.663  28.296  23.663  1.00  0.00     0.028 A 
ATOM      9  C   UNL A   1      31.332  27.748  24.074  1.00  0.00     0.042 A 
ATOM     10  C   UNL A   1      33.607  29.225  24.696  1.00  0.00     0.018 A 
ATOM     11  C   UNL A   1      31.301  28.629  25.161  1.00  0.00     0.033 A 
ATOM     12  Br  UNL A   1      29.739  26.811  23.636  1.00  0.00    -0.049 Br
BRANCH   7  13
ATOM     13  N   UNL A   1      32.489  27.068  22.013  1.00  0.00    -0.307 N 
ATOM     14  C   UNL A   1      35.378  23.788  24.640  1.00  0.00     0.010 C 
ATOM     15  C   UNL A   1      33.871  23.580  24.461  1.00  0.00     0.010 C 
ATOM     16  C   UNL A   1      33.202  24.874  24.009  1.00  0.00     0.125 C 
ATOM     17  C   UNL A   1      33.539  22.626  23.309  1.00  0.00     0.010 C 
ATOM     18  N   UNL A   1      33.266  24.870  22.550  1.00  0.00    -0.324 N 
ATOM     19  C   UNL A   1      33.628  23.537  22.077  1.00  0.00     0.125 C 
ATOM     20  C   UNL A   1      32.131  22.040  23.467  1.00  0.00     0.010 C 
ATOM     21  C   UNL A   1      32.911  25.828  21.632  1.00  0.00     0.321 C 
ATOM     22  O   UNL A   1      32.895  25.578  20.423  1.00  0.00    -0.248 OA
ATOM     23  H   UNL A   1      32.130  27.633  21.291  1.00  0.00     0.171 HD
ENDBRANCH   7  13
ENDBRANCH   4   6
ENDBRANCH   3   4
ENDBRANCH   2   3
ENDBRANCH   1   2
BRANCH   1  24
ATOM     24  O   UNL A   1      35.572  30.578  28.819  1.00  0.00    -0.458 OA
BRANCH  24  25
ATOM     25  C   UNL A   1      36.275  30.321  29.946  1.00  0.00     0.338 C 
ATOM     26  O   UNL A   1      35.828  30.105  31.061  1.00  0.00    -0.246 OA
BRANCH  25  27
ATOM     27  C   UNL A   1      37.709  30.219  29.640  1.00  0.00     0.060 A 
ATOM     28  C   UNL A   1      38.076  30.004  28.316  1.00  0.00     0.016 A 
ATOM     29  C   UNL A   1      38.667  30.152  30.647  1.00  0.00     0.016 A 
ATOM     30  C   UNL A   1      39.375  29.633  27.989  1.00  0.00     0.010 A 
ATOM     31  C   UNL A   1      39.998  29.859  30.309  1.00  0.00     0.010 A 
ATOM     32  C   UNL A   1      40.360  29.555  28.981  1.00  0.00    -0.014 A 
BRANCH  32  33
ATOM     33  C   UNL A   1      41.732  29.091  28.629  1.00  0.00     0.031 A 
ATOM     34  C   UNL A   1      42.895  30.051  28.690  1.00  0.00     0.074 A 
ATOM     35  C   UNL A   1      41.955  27.802  28.297  1.00  0.00     0.049 A 
ATOM     36  N   UNL A   1      44.131  29.880  28.297  1.00  0.00    -0.248 NA
ATOM     37  C   UNL A   1      42.627  31.382  29.257  1.00  0.00     0.031 C 
ATOM     38  C   UNL A   1      40.937  26.750  28.244  1.00  0.00     0.029 A 
ATOM     39  N   UNL A   1      43.116  27.151  27.953  1.00  0.00    -0.354 N 
ATOM     40  C   UNL A   1      44.773  31.096  28.515  1.00  0.00     0.074 A 
ATOM     41  C   UNL A   1      43.785  31.998  29.068  1.00  0.00     0.031 C 
ATOM     42  C   UNL A   1      41.521  25.586  27.923  1.00  0.00     0.029 A 
ATOM     43  C   UNL A   1      42.938  25.817  27.668  1.00  0.00     0.049 A 
ATOM     44  H   UNL A   1      43.992  27.598  27.913  1.00  0.00     0.167 HD
ATOM     45  C   UNL A   1      46.065  31.429  28.276  1.00  0.00     0.037 A 
ATOM     46  C   UNL A   1      43.806  24.890  27.217  1.00  0.00     0.037 A 
ATOM     47  C   UNL A   1      47.059  30.511  27.780  1.00  0.00     0.049 A 
ATOM     48  C   UNL A   1      45.231  25.285  26.949  1.00  0.00     0.074 A 
ATOM     49  C   UNL A   1      48.397  30.752  27.516  1.00  0.00     0.029 A 
ATOM     50  N   UNL A   1      46.831  29.174  27.490  1.00  0.00    -0.354 N 
ATOM     51  N   UNL A   1      45.804  26.455  27.105  1.00  0.00    -0.248 NA
ATOM     52  C   UNL A   1      46.123  24.239  26.431  1.00  0.00     0.031 C 
ATOM     53  C   UNL A   1      48.970  29.568  27.036  1.00  0.00     0.029 A 
ATOM     54  C   UNL A   1      48.001  28.578  27.045  1.00  0.00     0.049 A 
ATOM     55  H   UNL A   1      45.966  28.715  27.587  1.00  0.00     0.167 HD
ATOM     56  C   UNL A   1      47.130  26.280  26.719  1.00  0.00     0.074 A 
ATOM     57  C   UNL A   1      47.275  24.889  26.343  1.00  0.00     0.031 C 
ATOM     58  C   UNL A   1      48.133  27.191  26.677  1.00  0.00     0.037 A 
BRANCH  45  59
ATOM     59  C   UNL A   1      46.473  32.858  28.515  1.00  0.00     0.058 A 
ATOM     60  C   UNL A   1      46.959  33.299  29.756  1.00  0.00     0.135 A 
ATOM     61  C   UNL A   1      46.403  33.795  27.470  1.00  0.00     0.135 A 
ATOM     62  F   UNL A   1      47.031  32.451  30.794  1.00  0.00    -0.206 F 
ATOM     63  C   UNL A   1      47.335  34.624  29.961  1.00  0.00     0.059 A 
ATOM     64  C   UNL A   1      46.798  35.118  27.645  1.00  0.00     0.059 A 
ATOM     65  F   UNL A   1      45.947  33.428  26.263  1.00  0.00    -0.206 F 
ATOM     66  C   UNL A   1      47.247  35.527  28.899  1.00  0.00     0.060 A 
BRANCH  66  67
ATOM     67  S   UNL A   1      47.736  37.242  29.178  1.00  0.00     0.124 S 
ATOM     68  O   UNL A   1      49.184  37.114  29.314  1.00  0.00    -0.237 OA
ATOM     69  O   UNL A   1      47.270  37.904  27.964  1.00  0.00    -0.237 OA
ATOM     70  O   UNL A   1      47.021  37.605  30.398  1.00  0.00    -0.744 OA
ENDBRANCH  66  67
ENDBRANCH  45  59
BRANCH  46  71
ATOM     71  C   UNL A   1      43.338  23.501  26.956  1.00  0.00     0.058 A 
ATOM     72  C   UNL A   1      43.088  23.052  25.650  1.00  0.00     0.135 A 
ATOM     73  C   UNL A   1      43.143  22.592  28.007  1.00  0.00     0.135 A 
ATOM     74  F   UNL A   1      43.247  23.889  24.613  1.00  0.00    -0.206 F 
ATOM     75  C   UNL A   1      42.652  21.756  25.397  1.00  0.00     0.059 A 
ATOM     76  C   UNL A   1      42.738  21.282  27.776  1.00  0.00     0.059 A 
ATOM     77  F   UNL A   1      43.380  22.966  29.274  1.00  0.00    -0.206 F 
ATOM     78  C   UNL A   1      42.484  20.876  26.467  1.00  0.00     0.060 A 
BRANCH  78  79
ATOM     79  S   UNL A   1      41.977  19.177  26.126  1.00  0.00     0.124 S 
ATOM     80  O   UNL A   1      42.841  18.833  25.003  1.00  0.00    -0.237 OA
ATOM     81  O   UNL A   1      42.273  18.507  27.389  1.00  0.00    -0.237 OA
ATOM     82  O   UNL A   1      40.557  19.308  25.814  1.00  0.00    -0.744 OA
ENDBRANCH  78  79
ENDBRANCH  46  71
BRANCH  58  83
ATOM     83  C   UNL A   1      49.487  26.700  26.245  1.00  0.00     0.058 A 
ATOM     84  C   UNL A   1      50.363  26.064  27.138  1.00  0.00     0.135 A 
ATOM     85  C   UNL A   1      49.906  26.856  24.914  1.00  0.00     0.135 A 
ATOM     86  F   UNL A   1      50.012  25.896  28.423  1.00  0.00    -0.206 F 
ATOM     87  C   UNL A   1      51.622  25.632  26.736  1.00  0.00     0.059 A 
ATOM     88  C   UNL A   1      51.151  26.407  24.483  1.00  0.00     0.059 A 
ATOM     89  F   UNL A   1      49.101  27.447  24.016  1.00  0.00    -0.206 F 
ATOM     90  C   UNL A   1      52.010  25.813  25.407  1.00  0.00     0.060 A 
BRANCH  90  91
ATOM     91  S   UNL A   1      53.646  25.248  24.894  1.00  0.00     0.124 S 
ATOM     92  O   UNL A   1      54.509  25.971  25.821  1.00  0.00    -0.237 OA
ATOM     93  O   UNL A   1      53.559  23.805  25.101  1.00  0.00    -0.237 OA
ATOM     94  O   UNL A   1      53.729  25.670  23.499  1.00  0.00    -0.744 OA
ENDBRANCH  90  91
ENDBRANCH  58  83
ENDBRANCH  32  33
ENDBRANCH  25  27
ENDBRANCH  24  25
ENDBRANCH   1  24
TORSDOF 15
ENDMDL
