MODEL 1
REMARK VINA RESULT:     -11.2      0.000      0.000
REMARK SMILES CCNC(=O)c1ccc(NC(=O)CC2(C(=O)OCCOC(=O)c3ccc(-c4c5nc(c(-c6c(F)cc(S(=O)(=O)[O-])cc6F)c6ccc([nH]6)c(-c6c(F)cc(S(=O)(=O)[O-])cc6F)c6nc(c(-c7c(F)cc(S(=O)(=O)[O-])cc7F)c7ccc4[nH]7)C=C6)C=C5)cc3)CCCC2)cc1
REMARK SMILES IDX 18 1 17 2 15 3 16 4 14 5 89 6 92 7 90 8 91 9 13 10 11 11
REMARK SMILES IDX 10 12 12 14 9 15 6 16 7 17 94 18 8 19 93 20 4 21 3 22 5 24
REMARK SMILES IDX 2 25 1 26 19 27 20 28 21 29 22 30 23 31 24 32 88 33 25 34
REMARK SMILES IDX 87 35 26 36 27 37 28 38 81 39 29 40 86 41 80 42 82 43 30 44
REMARK SMILES IDX 85 45 79 46 78 47 31 49 65 50 44 51 64 52 45 53 48 54 63 55
REMARK SMILES IDX 83 56 46 57 47 58 62 60 84 61 49 62 32 63 33 64 42 65 34 66
REMARK SMILES IDX 35 67 41 68 43 69 36 70 37 71 38 72 39 73 40 74 66 75 67 76
REMARK SMILES IDX 76 77 68 78 69 79 75 80 77 81 70 82 71 83 72 84 73 85 74 86
REMARK SMILES IDX 50 87 51 88 60 89 52 90 53 91 59 92 61 93 54 94 55 95 56 96
REMARK SMILES IDX 57 97 58 98
REMARK H PARENT 10 13 3 23 82 48 48 59
REMARK Flexibility Score: inf
ROOT
ATOM      1  C   UNL A   1      31.894  30.424  25.766  1.00  0.00     0.274 C 
ENDROOT
BRANCH   1   2
ATOM      2  O   UNL A   1      31.439  29.228  25.087  1.00  0.00    -0.462 OA
BRANCH   2   3
ATOM      3  C   UNL A   1      32.385  28.585  24.345  1.00  0.00     0.312 C 
ATOM      4  O   UNL A   1      33.317  29.161  23.792  1.00  0.00    -0.252 OA
BRANCH   3   5
ATOM      5  C   UNL A   1      32.226  27.040  24.291  1.00  0.00     0.077 C 
ATOM      6  C   UNL A   1      31.927  26.615  25.747  1.00  0.00     0.019 C 
ATOM      7  C   UNL A   1      33.486  26.205  24.003  1.00  0.00     0.019 C 
ATOM      8  C   UNL A   1      33.305  26.604  26.400  1.00  0.00     0.001 C 
ATOM      9  C   UNL A   1      34.229  26.044  25.330  1.00  0.00     0.001 C 
BRANCH   5  10
ATOM     10  C   UNL A   1      31.037  26.766  23.332  1.00  0.00     0.119 C 
BRANCH  10  11
ATOM     11  C   UNL A   1      29.875  25.840  23.683  1.00  0.00     0.225 C 
ATOM     12  N   UNL A   1      29.959  24.479  23.815  1.00  0.00    -0.326 N 
ATOM     13  H   UNL A   1      29.084  24.036  23.716  1.00  0.00     0.169 HD
ATOM     14  O   UNL A   1      28.741  26.330  23.769  1.00  0.00    -0.275 OA
BRANCH  12  15
ATOM     15  C   UNL A   1      30.999  23.562  24.057  1.00  0.00     0.041 A 
ATOM     16  C   UNL A   1      33.249  21.936  24.615  1.00  0.00     0.039 A 
ATOM     17  C   UNL A   1      32.953  22.322  23.321  1.00  0.00     0.016 A 
ATOM     18  C   UNL A   1      32.438  22.386  25.657  1.00  0.00     0.016 A 
ATOM     19  C   UNL A   1      31.805  23.062  23.059  1.00  0.00     0.027 A 
ATOM     20  C   UNL A   1      31.326  23.212  25.376  1.00  0.00     0.027 A 
BRANCH  16  21
ATOM     21  C   UNL A   1      34.430  21.060  24.768  1.00  0.00     0.251 C 
ATOM     22  N   UNL A   1      34.274  19.710  24.925  1.00  0.00    -0.352 N 
ATOM     23  H   UNL A   1      35.110  19.193  24.976  1.00  0.00     0.163 HD
ATOM     24  O   UNL A   1      35.555  21.544  24.659  1.00  0.00    -0.269 OA
BRANCH  22  25
ATOM     25  C   UNL A   1      33.056  18.932  25.024  1.00  0.00     0.112 C 
ATOM     26  C   UNL A   1      32.762  18.172  23.744  1.00  0.00     0.027 C 
ENDBRANCH  22  25
ENDBRANCH  16  21
ENDBRANCH  12  15
ENDBRANCH  10  11
ENDBRANCH   5  10
ENDBRANCH   3   5
ENDBRANCH   2   3
ENDBRANCH   1   2
BRANCH   1  27
ATOM     27  C   UNL A   1      32.426  30.171  27.188  1.00  0.00     0.275 C 
BRANCH  27  28
ATOM     28  O   UNL A   1      33.854  30.041  27.186  1.00  0.00    -0.458 OA
BRANCH  28  29
ATOM     29  C   UNL A   1      34.526  30.791  28.105  1.00  0.00     0.338 C 
ATOM     30  O   UNL A   1      34.079  31.739  28.713  1.00  0.00    -0.246 OA
BRANCH  29  31
ATOM     31  C   UNL A   1      35.890  30.220  28.327  1.00  0.00     0.060 A 
ATOM     32  C   UNL A   1      36.819  30.150  27.289  1.00  0.00     0.016 A 
ATOM     33  C   UNL A   1      36.252  29.735  29.590  1.00  0.00     0.016 A 
ATOM     34  C   UNL A   1      38.068  29.558  27.483  1.00  0.00     0.010 A 
ATOM     35  C   UNL A   1      37.550  29.247  29.816  1.00  0.00     0.010 A 
ATOM     36  C   UNL A   1      38.482  29.182  28.769  1.00  0.00    -0.014 A 
BRANCH  36  37
ATOM     37  C   UNL A   1      39.931  28.942  29.041  1.00  0.00     0.031 A 
ATOM     38  C   UNL A   1      40.843  30.017  29.562  1.00  0.00     0.074 A 
ATOM     39  C   UNL A   1      40.442  27.730  28.735  1.00  0.00     0.049 A 
ATOM     40  N   UNL A   1      42.149  30.008  29.670  1.00  0.00    -0.248 NA
ATOM     41  C   UNL A   1      40.215  31.269  30.008  1.00  0.00     0.031 C 
ATOM     42  C   UNL A   1      39.672  26.594  28.214  1.00  0.00     0.029 A 
ATOM     43  N   UNL A   1      41.725  27.244  28.808  1.00  0.00    -0.354 N 
ATOM     44  C   UNL A   1      42.507  31.261  30.152  1.00  0.00     0.074 A 
ATOM     45  C   UNL A   1      41.275  32.006  30.323  1.00  0.00     0.031 C 
ATOM     46  C   UNL A   1      40.482  25.541  28.055  1.00  0.00     0.029 A 
ATOM     47  C   UNL A   1      41.844  25.946  28.366  1.00  0.00     0.049 A 
ATOM     48  H   UNL A   1      42.484  27.772  29.144  1.00  0.00     0.167 HD
ATOM     49  C   UNL A   1      43.749  31.743  30.414  1.00  0.00     0.037 A 
ATOM     50  C   UNL A   1      42.928  25.170  28.178  1.00  0.00     0.037 A 
ATOM     51  C   UNL A   1      44.968  30.982  30.271  1.00  0.00     0.049 A 
ATOM     52  C   UNL A   1      44.287  25.732  28.463  1.00  0.00     0.074 A 
ATOM     53  C   UNL A   1      46.268  31.376  30.548  1.00  0.00     0.029 A 
ATOM     54  N   UNL A   1      45.043  29.673  29.816  1.00  0.00    -0.354 N 
ATOM     55  N   UNL A   1      44.605  26.927  28.895  1.00  0.00    -0.248 NA
ATOM     56  C   UNL A   1      45.432  24.849  28.216  1.00  0.00     0.031 C 
ATOM     57  C   UNL A   1      47.130  30.321  30.226  1.00  0.00     0.029 A 
ATOM     58  C   UNL A   1      46.365  29.252  29.789  1.00  0.00     0.049 A 
ATOM     59  H   UNL A   1      44.271  29.122  29.551  1.00  0.00     0.167 HD
ATOM     60  C   UNL A   1      45.991  26.935  28.987  1.00  0.00     0.074 A 
ATOM     61  C   UNL A   1      46.446  25.622  28.579  1.00  0.00     0.031 C 
ATOM     62  C   UNL A   1      46.809  27.945  29.376  1.00  0.00     0.037 A 
BRANCH  49  63
ATOM     63  C   UNL A   1      43.868  33.180  30.849  1.00  0.00     0.058 A 
ATOM     64  C   UNL A   1      43.940  34.237  29.929  1.00  0.00     0.135 A 
ATOM     65  C   UNL A   1      43.856  33.506  32.217  1.00  0.00     0.135 A 
ATOM     66  F   UNL A   1      43.962  33.984  28.611  1.00  0.00    -0.206 F 
ATOM     67  C   UNL A   1      44.027  35.563  30.347  1.00  0.00     0.059 A 
ATOM     68  C   UNL A   1      43.920  34.826  32.658  1.00  0.00     0.059 A 
ATOM     69  F   UNL A   1      43.783  32.537  33.142  1.00  0.00    -0.206 F 
ATOM     70  C   UNL A   1      44.023  35.846  31.715  1.00  0.00     0.060 A 
BRANCH  70  71
ATOM     71  S   UNL A   1      44.156  37.568  32.247  1.00  0.00     0.124 S 
ATOM     72  O   UNL A   1      45.568  37.649  32.606  1.00  0.00    -0.237 OA
ATOM     73  O   UNL A   1      43.765  38.299  31.045  1.00  0.00    -0.237 OA
ATOM     74  O   UNL A   1      43.218  37.653  33.362  1.00  0.00    -0.744 OA
ENDBRANCH  70  71
ENDBRANCH  49  63
BRANCH  50  75
ATOM     75  C   UNL A   1      42.758  23.785  27.668  1.00  0.00     0.058 A 
ATOM     76  C   UNL A   1      42.603  22.711  28.553  1.00  0.00     0.135 A 
ATOM     77  C   UNL A   1      42.690  23.519  26.292  1.00  0.00     0.135 A 
ATOM     78  F   UNL A   1      42.666  22.917  29.878  1.00  0.00    -0.206 F 
ATOM     79  C   UNL A   1      42.389  21.416  28.093  1.00  0.00     0.059 A 
ATOM     80  C   UNL A   1      42.450  22.238  25.807  1.00  0.00     0.059 A 
ATOM     81  F   UNL A   1      42.812  24.520  25.405  1.00  0.00    -0.206 F 
ATOM     82  C   UNL A   1      42.307  21.191  26.717  1.00  0.00     0.060 A 
BRANCH  82  83
ATOM     83  S   UNL A   1      41.956  19.521  26.129  1.00  0.00     0.124 S 
ATOM     84  O   UNL A   1      42.337  18.718  27.285  1.00  0.00    -0.237 OA
ATOM     85  O   UNL A   1      40.527  19.588  25.841  1.00  0.00    -0.237 OA
ATOM     86  O   UNL A   1      42.817  19.392  24.957  1.00  0.00    -0.744 OA
ENDBRANCH  82  83
ENDBRANCH  50  75
BRANCH  62  87
ATOM     87  C   UNL A   1      48.281  27.646  29.407  1.00  0.00     0.058 A 
ATOM     88  C   UNL A   1      48.906  27.135  30.555  1.00  0.00     0.135 A 
ATOM     89  C   UNL A   1      49.075  27.875  28.272  1.00  0.00     0.135 A 
ATOM     90  F   UNL A   1      48.192  26.913  31.670  1.00  0.00    -0.206 F 
ATOM     91  C   UNL A   1      50.274  26.887  30.586  1.00  0.00     0.059 A 
ATOM     92  C   UNL A   1      50.441  27.611  28.274  1.00  0.00     0.059 A 
ATOM     93  F   UNL A   1      48.525  28.359  27.147  1.00  0.00    -0.206 F 
ATOM     94  C   UNL A   1      51.035  27.132  29.441  1.00  0.00     0.060 A 
BRANCH  94  95
ATOM     95  S   UNL A   1      52.808  26.796  29.486  1.00  0.00     0.124 S 
ATOM     96  O   UNL A   1      53.358  28.142  29.616  1.00  0.00    -0.237 OA
ATOM     97  O   UNL A   1      52.937  25.944  30.664  1.00  0.00    -0.237 OA
ATOM     98  O   UNL A   1      53.060  26.134  28.210  1.00  0.00    -0.744 OA
ENDBRANCH  94  95
ENDBRANCH  62  87
ENDBRANCH  36  37
ENDBRANCH  29  31
ENDBRANCH  28  29
ENDBRANCH  27  28
ENDBRANCH   1  27
TORSDOF 19
ENDMDL
MODEL 2
REMARK VINA RESULT:     -10.9      2.254      3.050
REMARK SMILES CCNC(=O)c1ccc(NC(=O)CC2(C(=O)OCCOC(=O)c3ccc(-c4c5nc(c(-c6c(F)cc(S(=O)(=O)[O-])cc6F)c6ccc([nH]6)c(-c6c(F)cc(S(=O)(=O)[O-])cc6F)c6nc(c(-c7c(F)cc(S(=O)(=O)[O-])cc7F)c7ccc4[nH]7)C=C6)C=C5)cc3)CCCC2)cc1
REMARK SMILES IDX 18 1 17 2 15 3 16 4 14 5 89 6 92 7 90 8 91 9 13 10 11 11
REMARK SMILES IDX 10 12 12 14 9 15 6 16 7 17 94 18 8 19 93 20 4 21 3 22 5 24
REMARK SMILES IDX 2 25 1 26 19 27 20 28 21 29 22 30 23 31 24 32 88 33 25 34
REMARK SMILES IDX 87 35 26 36 27 37 28 38 81 39 29 40 86 41 80 42 82 43 30 44
REMARK SMILES IDX 85 45 79 46 78 47 31 49 65 50 44 51 64 52 45 53 48 54 63 55
REMARK SMILES IDX 83 56 46 57 47 58 62 60 84 61 49 62 32 63 33 64 42 65 34 66
REMARK SMILES IDX 35 67 41 68 43 69 36 70 37 71 38 72 39 73 40 74 66 75 67 76
REMARK SMILES IDX 76 77 68 78 69 79 75 80 77 81 70 82 71 83 72 84 73 85 74 86
REMARK SMILES IDX 50 87 51 88 60 89 52 90 53 91 59 92 61 93 54 94 55 95 56 96
REMARK SMILES IDX 57 97 58 98
REMARK H PARENT 10 13 3 23 82 48 48 59
REMARK Flexibility Score: inf
ROOT
ATOM      1  C   UNL A   1      33.734  29.814  26.294  1.00  0.00     0.274 C 
ENDROOT
BRANCH   1   2
ATOM      2  O   UNL A   1      33.993  28.669  25.446  1.00  0.00    -0.462 OA
BRANCH   2   3
ATOM      3  C   UNL A   1      33.058  28.437  24.481  1.00  0.00     0.312 C 
ATOM      4  O   UNL A   1      32.538  29.328  23.815  1.00  0.00    -0.252 OA
BRANCH   3   5
ATOM      5  C   UNL A   1      32.728  26.937  24.245  1.00  0.00     0.077 C 
ATOM      6  C   UNL A   1      31.199  26.825  24.439  1.00  0.00     0.019 C 
ATOM      7  C   UNL A   1      33.222  25.926  25.295  1.00  0.00     0.019 C 
ATOM      8  C   UNL A   1      31.039  26.781  25.955  1.00  0.00     0.001 C 
ATOM      9  C   UNL A   1      32.204  25.932  26.436  1.00  0.00     0.001 C 
BRANCH   5  10
ATOM     10  C   UNL A   1      33.171  26.626  22.791  1.00  0.00     0.119 C 
BRANCH  10  11
ATOM     11  C   UNL A   1      32.413  25.670  21.871  1.00  0.00     0.225 C 
ATOM     12  N   UNL A   1      32.369  24.308  22.009  1.00  0.00    -0.326 N 
ATOM     13  H   UNL A   1      32.123  23.853  21.171  1.00  0.00     0.169 HD
ATOM     14  O   UNL A   1      31.866  26.138  20.864  1.00  0.00    -0.275 OA
BRANCH  12  15
ATOM     15  C   UNL A   1      32.591  23.403  23.065  1.00  0.00     0.041 A 
ATOM     16  C   UNL A   1      33.046  21.805  25.357  1.00  0.00     0.039 A 
ATOM     17  C   UNL A   1      34.087  22.166  24.524  1.00  0.00     0.016 A 
ATOM     18  C   UNL A   1      31.760  22.267  25.072  1.00  0.00     0.016 A 
ATOM     19  C   UNL A   1      33.833  22.893  23.365  1.00  0.00     0.027 A 
ATOM     20  C   UNL A   1      31.541  23.078  23.937  1.00  0.00     0.027 A 
BRANCH  16  21
ATOM     21  C   UNL A   1      33.410  20.941  26.500  1.00  0.00     0.251 C 
ATOM     22  N   UNL A   1      33.284  19.582  26.408  1.00  0.00    -0.352 N 
ATOM     23  H   UNL A   1      33.588  19.076  27.195  1.00  0.00     0.163 HD
ATOM     24  O   UNL A   1      33.915  21.448  27.499  1.00  0.00    -0.269 OA
BRANCH  22  25
ATOM     25  C   UNL A   1      32.768  18.780  25.317  1.00  0.00     0.112 C 
ATOM     26  C   UNL A   1      33.860  18.379  24.342  1.00  0.00     0.027 C 
ENDBRANCH  22  25
ENDBRANCH  16  21
ENDBRANCH  12  15
ENDBRANCH  10  11
ENDBRANCH   5  10
ENDBRANCH   3   5
ENDBRANCH   2   3
ENDBRANCH   1   2
BRANCH   1  27
ATOM     27  C   UNL A   1      34.447  29.754  27.657  1.00  0.00     0.275 C 
BRANCH  27  28
ATOM     28  O   UNL A   1      35.514  30.710  27.721  1.00  0.00    -0.458 OA
BRANCH  28  29
ATOM     29  C   UNL A   1      36.186  30.781  28.905  1.00  0.00     0.338 C 
ATOM     30  O   UNL A   1      35.753  31.233  29.943  1.00  0.00    -0.246 OA
BRANCH  29  31
ATOM     31  C   UNL A   1      37.528  30.135  28.767  1.00  0.00     0.060 A 
ATOM     32  C   UNL A   1      38.075  29.873  27.512  1.00  0.00     0.016 A 
ATOM     33  C   UNL A   1      38.254  29.772  29.908  1.00  0.00     0.016 A 
ATOM     34  C   UNL A   1      39.298  29.212  27.386  1.00  0.00     0.010 A 
ATOM     35  C   UNL A   1      39.537  29.215  29.784  1.00  0.00     0.010 A 
ATOM     36  C   UNL A   1      40.085  28.956  28.517  1.00  0.00    -0.014 A 
BRANCH  36  37
ATOM     37  C   UNL A   1      41.535  28.637  28.356  1.00  0.00     0.031 A 
ATOM     38  C   UNL A   1      42.605  29.692  28.416  1.00  0.00     0.074 A 
ATOM     39  C   UNL A   1      41.876  27.361  28.075  1.00  0.00     0.049 A 
ATOM     40  N   UNL A   1      43.875  29.593  28.112  1.00  0.00    -0.248 NA
ATOM     41  C   UNL A   1      42.198  31.033  28.859  1.00  0.00     0.031 C 
ATOM     42  C   UNL A   1      40.940  26.236  27.979  1.00  0.00     0.029 A 
ATOM     43  N   UNL A   1      43.097  26.788  27.812  1.00  0.00    -0.354 N 
ATOM     44  C   UNL A   1      44.415  30.862  28.283  1.00  0.00     0.074 A 
ATOM     45  C   UNL A   1      43.330  31.716  28.725  1.00  0.00     0.031 C 
ATOM     46  C   UNL A   1      41.617  25.111  27.723  1.00  0.00     0.029 A 
ATOM     47  C   UNL A   1      43.022  25.442  27.536  1.00  0.00     0.049 A 
ATOM     48  H   UNL A   1      43.942  27.291  27.820  1.00  0.00     0.167 HD
ATOM     49  C   UNL A   1      45.693  31.273  28.078  1.00  0.00     0.037 A 
ATOM     50  C   UNL A   1      43.959  24.567  27.129  1.00  0.00     0.037 A 
ATOM     51  C   UNL A   1      46.774  30.407  27.668  1.00  0.00     0.049 A 
ATOM     52  C   UNL A   1      45.358  25.050  26.898  1.00  0.00     0.074 A 
ATOM     53  C   UNL A   1      48.108  30.728  27.471  1.00  0.00     0.029 A 
ATOM     54  N   UNL A   1      46.652  29.052  27.396  1.00  0.00    -0.354 N 
ATOM     55  N   UNL A   1      45.841  26.259  27.042  1.00  0.00    -0.248 NA
ATOM     56  C   UNL A   1      46.332  24.057  26.431  1.00  0.00     0.031 C 
ATOM     57  C   UNL A   1      48.782  29.578  27.044  1.00  0.00     0.029 A 
ATOM     58  C   UNL A   1      47.879  28.528  27.017  1.00  0.00     0.049 A 
ATOM     59  H   UNL A   1      45.815  28.536  27.462  1.00  0.00     0.167 HD
ATOM     60  C   UNL A   1      47.183  26.170  26.697  1.00  0.00     0.074 A 
ATOM     61  C   UNL A   1      47.436  24.786  26.351  1.00  0.00     0.031 C 
ATOM     62  C   UNL A   1      48.120  27.151  26.670  1.00  0.00     0.037 A 
BRANCH  49  63
ATOM     63  C   UNL A   1      45.997  32.737  28.254  1.00  0.00     0.058 A 
ATOM     64  C   UNL A   1      46.496  33.258  29.457  1.00  0.00     0.135 A 
ATOM     65  C   UNL A   1      45.834  33.627  27.177  1.00  0.00     0.135 A 
ATOM     66  F   UNL A   1      46.666  32.457  30.521  1.00  0.00    -0.206 F 
ATOM     67  C   UNL A   1      46.795  34.611  29.598  1.00  0.00     0.059 A 
ATOM     68  C   UNL A   1      46.147  34.979  27.288  1.00  0.00     0.059 A 
ATOM     69  F   UNL A   1      45.366  33.184  26.000  1.00  0.00    -0.206 F 
ATOM     70  C   UNL A   1      46.610  35.465  28.509  1.00  0.00     0.060 A 
BRANCH  70  71
ATOM     71  S   UNL A   1      46.981  37.222  28.707  1.00  0.00     0.124 S 
ATOM     72  O   UNL A   1      46.255  37.799  27.579  1.00  0.00    -0.237 OA
ATOM     73  O   UNL A   1      46.431  37.513  30.028  1.00  0.00    -0.237 OA
ATOM     74  O   UNL A   1      48.436  37.276  28.611  1.00  0.00    -0.744 OA
ENDBRANCH  70  71
ENDBRANCH  49  63
BRANCH  50  75
ATOM     75  C   UNL A   1      43.585  23.149  26.892  1.00  0.00     0.058 A 
ATOM     76  C   UNL A   1      43.290  22.297  27.964  1.00  0.00     0.135 A 
ATOM     77  C   UNL A   1      43.460  22.636  25.591  1.00  0.00     0.135 A 
ATOM     78  F   UNL A   1      43.401  22.743  29.225  1.00  0.00    -0.206 F 
ATOM     79  C   UNL A   1      42.886  20.983  27.758  1.00  0.00     0.059 A 
ATOM     80  C   UNL A   1      43.031  21.335  25.358  1.00  0.00     0.059 A 
ATOM     81  F   UNL A   1      43.711  23.421  24.531  1.00  0.00    -0.206 F 
ATOM     82  C   UNL A   1      42.753  20.513  26.449  1.00  0.00     0.060 A 
BRANCH  82  83
ATOM     83  S   UNL A   1      42.156  18.829  26.188  1.00  0.00     0.124 S 
ATOM     84  O   UNL A   1      40.786  19.069  25.751  1.00  0.00    -0.237 OA
ATOM     85  O   UNL A   1      43.074  18.330  25.168  1.00  0.00    -0.237 OA
ATOM     86  O   UNL A   1      42.303  18.216  27.505  1.00  0.00    -0.744 OA
ENDBRANCH  82  83
ENDBRANCH  50  75
BRANCH  62  87
ATOM     87  C   UNL A   1      49.513  26.743  26.282  1.00  0.00     0.058 A 
ATOM     88  C   UNL A   1      49.978  26.870  24.963  1.00  0.00     0.135 A 
ATOM     89  C   UNL A   1      50.393  26.222  27.243  1.00  0.00     0.135 A 
ATOM     90  F   UNL A   1      49.169  27.350  24.005  1.00  0.00    -0.206 F 
ATOM     91  C   UNL A   1      51.259  26.465  24.605  1.00  0.00     0.059 A 
ATOM     92  C   UNL A   1      51.687  25.833  26.911  1.00  0.00     0.059 A 
ATOM     93  F   UNL A   1      49.998  26.085  28.519  1.00  0.00    -0.206 F 
ATOM     94  C   UNL A   1      52.106  25.944  25.585  1.00  0.00     0.060 A 
BRANCH  94  95
ATOM     95  S   UNL A   1      53.771  25.432  25.113  1.00  0.00     0.124 S 
ATOM     96  O   UNL A   1      54.101  26.416  24.087  1.00  0.00    -0.237 OA
ATOM     97  O   UNL A   1      54.507  25.557  26.368  1.00  0.00    -0.237 OA
ATOM     98  O   UNL A   1      53.584  24.065  24.638  1.00  0.00    -0.744 OA
ENDBRANCH  94  95
ENDBRANCH  62  87
ENDBRANCH  36  37
ENDBRANCH  29  31
ENDBRANCH  28  29
ENDBRANCH  27  28
ENDBRANCH   1  27
TORSDOF 19
ENDMDL
MODEL 3
REMARK VINA RESULT:     -10.7      2.842      7.720
REMARK SMILES CCNC(=O)c1ccc(NC(=O)CC2(C(=O)OCCOC(=O)c3ccc(-c4c5nc(c(-c6c(F)cc(S(=O)(=O)[O-])cc6F)c6ccc([nH]6)c(-c6c(F)cc(S(=O)(=O)[O-])cc6F)c6nc(c(-c7c(F)cc(S(=O)(=O)[O-])cc7F)c7ccc4[nH]7)C=C6)C=C5)cc3)CCCC2)cc1
REMARK SMILES IDX 18 1 17 2 15 3 16 4 14 5 89 6 92 7 90 8 91 9 13 10 11 11
REMARK SMILES IDX 10 12 12 14 9 15 6 16 7 17 94 18 8 19 93 20 4 21 3 22 5 24
REMARK SMILES IDX 2 25 1 26 19 27 20 28 21 29 22 30 23 31 24 32 88 33 25 34
REMARK SMILES IDX 87 35 26 36 27 37 28 38 81 39 29 40 86 41 80 42 82 43 30 44
REMARK SMILES IDX 85 45 79 46 78 47 31 49 65 50 44 51 64 52 45 53 48 54 63 55
REMARK SMILES IDX 83 56 46 57 47 58 62 60 84 61 49 62 32 63 33 64 42 65 34 66
REMARK SMILES IDX 35 67 41 68 43 69 36 70 37 71 38 72 39 73 40 74 66 75 67 76
REMARK SMILES IDX 76 77 68 78 69 79 75 80 77 81 70 82 71 83 72 84 73 85 74 86
REMARK SMILES IDX 50 87 51 88 60 89 52 90 53 91 59 92 61 93 54 94 55 95 56 96
REMARK SMILES IDX 57 97 58 98
REMARK H PARENT 10 13 3 23 82 48 48 59
REMARK Flexibility Score: inf
ROOT
ATOM      1  C   UNL A   1      35.958  21.102  25.280  1.00  0.00     0.274 C 
ENDROOT
BRANCH   1   2
ATOM      2  O   UNL A   1      35.115  22.212  25.674  1.00  0.00    -0.462 OA
BRANCH   2   3
ATOM      3  C   UNL A   1      33.939  21.866  26.270  1.00  0.00     0.312 C 
ATOM      4  O   UNL A   1      33.864  21.086  27.215  1.00  0.00    -0.252 OA
BRANCH   3   5
ATOM      5  C   UNL A   1      32.685  22.579  25.693  1.00  0.00     0.077 C 
ATOM      6  C   UNL A   1      31.807  21.445  25.116  1.00  0.00     0.019 C 
ATOM      7  C   UNL A   1      32.877  23.455  24.442  1.00  0.00     0.019 C 
ATOM      8  C   UNL A   1      32.452  21.153  23.766  1.00  0.00     0.001 C 
ATOM      9  C   UNL A   1      32.855  22.519  23.233  1.00  0.00     0.001 C 
BRANCH   5  10
ATOM     10  C   UNL A   1      32.016  23.303  26.891  1.00  0.00     0.119 C 
BRANCH  10  11
ATOM     11  C   UNL A   1      30.530  23.656  26.932  1.00  0.00     0.225 C 
ATOM     12  N   UNL A   1      29.981  24.822  26.471  1.00  0.00    -0.326 N 
ATOM     13  H   UNL A   1      29.098  25.006  26.868  1.00  0.00     0.169 HD
ATOM     14  O   UNL A   1      29.760  22.876  27.508  1.00  0.00    -0.275 OA
BRANCH  12  15
ATOM     15  C   UNL A   1      30.377  25.822  25.562  1.00  0.00     0.041 A 
ATOM     16  C   UNL A   1      30.965  27.987  23.835  1.00  0.00     0.039 A 
ATOM     17  C   UNL A   1      30.220  26.909  23.396  1.00  0.00     0.016 A 
ATOM     18  C   UNL A   1      31.402  28.012  25.159  1.00  0.00     0.016 A 
ATOM     19  C   UNL A   1      30.001  25.823  24.238  1.00  0.00     0.027 A 
ATOM     20  C   UNL A   1      31.092  26.938  26.023  1.00  0.00     0.027 A 
BRANCH  16  21
ATOM     21  C   UNL A   1      31.231  29.035  22.827  1.00  0.00     0.251 C 
ATOM     22  N   UNL A   1      30.294  29.998  22.567  1.00  0.00    -0.352 N 
ATOM     23  H   UNL A   1      30.564  30.684  21.915  1.00  0.00     0.163 HD
ATOM     24  O   UNL A   1      32.336  29.089  22.293  1.00  0.00    -0.269 OA
BRANCH  22  25
ATOM     25  C   UNL A   1      28.961  30.154  23.115  1.00  0.00     0.112 C 
ATOM     26  C   UNL A   1      28.770  31.513  23.762  1.00  0.00     0.027 C 
ENDBRANCH  22  25
ENDBRANCH  16  21
ENDBRANCH  12  15
ENDBRANCH  10  11
ENDBRANCH   5  10
ENDBRANCH   3   5
ENDBRANCH   2   3
ENDBRANCH   1   2
BRANCH   1  27
ATOM     27  C   UNL A   1      37.420  21.497  25.003  1.00  0.00     0.275 C 
BRANCH  27  28
ATOM     28  O   UNL A   1      37.904  22.408  25.999  1.00  0.00    -0.458 OA
BRANCH  28  29
ATOM     29  C   UNL A   1      39.233  22.325  26.294  1.00  0.00     0.338 C 
ATOM     30  O   UNL A   1      39.970  21.410  26.000  1.00  0.00    -0.246 OA
BRANCH  29  31
ATOM     31  C   UNL A   1      39.682  23.582  26.967  1.00  0.00     0.060 A 
ATOM     32  C   UNL A   1      40.700  23.565  27.920  1.00  0.00     0.016 A 
ATOM     33  C   UNL A   1      39.074  24.804  26.652  1.00  0.00     0.016 A 
ATOM     34  C   UNL A   1      41.073  24.729  28.592  1.00  0.00     0.010 A 
ATOM     35  C   UNL A   1      39.529  25.995  27.242  1.00  0.00     0.010 A 
ATOM     36  C   UNL A   1      40.556  25.972  28.199  1.00  0.00    -0.014 A 
BRANCH  36  37
ATOM     37  C   UNL A   1      41.244  27.228  28.622  1.00  0.00     0.031 A 
ATOM     38  C   UNL A   1      40.502  28.395  29.211  1.00  0.00     0.074 A 
ATOM     39  C   UNL A   1      42.572  27.331  28.395  1.00  0.00     0.049 A 
ATOM     40  N   UNL A   1      40.935  29.608  29.451  1.00  0.00    -0.248 NA
ATOM     41  C   UNL A   1      39.092  28.182  29.565  1.00  0.00     0.031 C 
ATOM     42  C   UNL A   1      43.416  26.278  27.822  1.00  0.00     0.029 A 
ATOM     43  N   UNL A   1      43.447  28.368  28.608  1.00  0.00    -0.354 N 
ATOM     44  C   UNL A   1      39.846  30.319  29.941  1.00  0.00     0.074 A 
ATOM     45  C   UNL A   1      38.729  29.394  29.971  1.00  0.00     0.031 C 
ATOM     46  C   UNL A   1      44.685  26.702  27.768  1.00  0.00     0.029 A 
ATOM     47  C   UNL A   1      44.734  28.088  28.207  1.00  0.00     0.049 A 
ATOM     48  H   UNL A   1      43.181  29.226  29.009  1.00  0.00     0.167 HD
ATOM     49  C   UNL A   1      39.785  31.622  30.318  1.00  0.00     0.037 A 
ATOM     50  C   UNL A   1      45.832  28.865  28.146  1.00  0.00     0.037 A 
ATOM     51  C   UNL A   1      40.912  32.526  30.315  1.00  0.00     0.049 A 
ATOM     52  C   UNL A   1      45.734  30.302  28.556  1.00  0.00     0.074 A 
ATOM     53  C   UNL A   1      40.953  33.853  30.715  1.00  0.00     0.029 A 
ATOM     54  N   UNL A   1      42.195  32.202  29.898  1.00  0.00    -0.354 N 
ATOM     55  N   UNL A   1      44.688  30.959  28.994  1.00  0.00    -0.248 NA
ATOM     56  C   UNL A   1      46.956  31.105  28.446  1.00  0.00     0.031 C 
ATOM     57  C   UNL A   1      42.248  34.340  30.504  1.00  0.00     0.029 A 
ATOM     58  C   UNL A   1      43.028  33.305  30.013  1.00  0.00     0.049 A 
ATOM     59  H   UNL A   1      42.474  31.317  29.567  1.00  0.00     0.167 HD
ATOM     60  C   UNL A   1      45.131  32.255  29.226  1.00  0.00     0.074 A 
ATOM     61  C   UNL A   1      46.541  32.282  28.894  1.00  0.00     0.031 C 
ATOM     62  C   UNL A   1      44.429  33.324  29.675  1.00  0.00     0.037 A 
BRANCH  49  63
ATOM     63  C   UNL A   1      38.447  32.172  30.734  1.00  0.00     0.058 A 
ATOM     64  C   UNL A   1      37.975  32.076  32.052  1.00  0.00     0.135 A 
ATOM     65  C   UNL A   1      37.645  32.856  29.803  1.00  0.00     0.135 A 
ATOM     66  F   UNL A   1      38.696  31.428  32.981  1.00  0.00    -0.206 F 
ATOM     67  C   UNL A   1      36.744  32.610  32.426  1.00  0.00     0.059 A 
ATOM     68  C   UNL A   1      36.422  33.417  30.160  1.00  0.00     0.059 A 
ATOM     69  F   UNL A   1      38.048  32.984  28.529  1.00  0.00    -0.206 F 
ATOM     70  C   UNL A   1      35.972  33.273  31.471  1.00  0.00     0.060 A 
BRANCH  70  71
ATOM     71  S   UNL A   1      34.368  33.945  31.962  1.00  0.00     0.124 S 
ATOM     72  O   UNL A   1      33.733  34.151  30.663  1.00  0.00    -0.237 OA
ATOM     73  O   UNL A   1      33.812  32.869  32.775  1.00  0.00    -0.237 OA
ATOM     74  O   UNL A   1      34.717  35.161  32.689  1.00  0.00    -0.744 OA
ENDBRANCH  70  71
ENDBRANCH  49  63
BRANCH  50  75
ATOM     75  C   UNL A   1      47.109  28.290  27.651  1.00  0.00     0.058 A 
ATOM     76  C   UNL A   1      48.015  27.690  28.535  1.00  0.00     0.135 A 
ATOM     77  C   UNL A   1      47.420  28.279  26.282  1.00  0.00     0.135 A 
ATOM     78  F   UNL A   1      47.762  27.682  29.852  1.00  0.00    -0.206 F 
ATOM     79  C   UNL A   1      49.190  27.100  28.081  1.00  0.00     0.059 A 
ATOM     80  C   UNL A   1      48.574  27.671  25.801  1.00  0.00     0.059 A 
ATOM     81  F   UNL A   1      46.572  28.822  25.394  1.00  0.00    -0.206 F 
ATOM     82  C   UNL A   1      49.457  27.089  26.710  1.00  0.00     0.060 A 
BRANCH  82  83
ATOM     83  S   UNL A   1      50.946  26.257  26.122  1.00  0.00     0.124 S 
ATOM     84  O   UNL A   1      50.829  24.955  26.769  1.00  0.00    -0.237 OA
ATOM     85  O   UNL A   1      50.758  26.270  24.675  1.00  0.00    -0.237 OA
ATOM     86  O   UNL A   1      52.023  27.112  26.613  1.00  0.00    -0.744 OA
ENDBRANCH  82  83
ENDBRANCH  50  75
BRANCH  62  87
ATOM     87  C   UNL A   1      45.192  34.604  29.861  1.00  0.00     0.058 A 
ATOM     88  C   UNL A   1      45.831  34.912  31.073  1.00  0.00     0.135 A 
ATOM     89  C   UNL A   1      45.286  35.533  28.813  1.00  0.00     0.135 A 
ATOM     90  F   UNL A   1      45.759  34.062  32.109  1.00  0.00    -0.206 F 
ATOM     91  C   UNL A   1      46.513  36.111  31.248  1.00  0.00     0.059 A 
ATOM     92  C   UNL A   1      45.983  36.728  28.960  1.00  0.00     0.059 A 
ATOM     93  F   UNL A   1      44.696  35.285  27.633  1.00  0.00    -0.206 F 
ATOM     94  C   UNL A   1      46.581  37.016  30.186  1.00  0.00     0.060 A 
BRANCH  94  95
ATOM     95  S   UNL A   1      47.478  38.565  30.419  1.00  0.00     0.124 S 
ATOM     96  O   UNL A   1      47.283  38.805  31.845  1.00  0.00    -0.237 OA
ATOM     97  O   UNL A   1      48.834  38.207  30.017  1.00  0.00    -0.237 OA
ATOM     98  O   UNL A   1      46.790  39.492  29.525  1.00  0.00    -0.744 OA
ENDBRANCH  94  95
ENDBRANCH  62  87
ENDBRANCH  36  37
ENDBRANCH  29  31
ENDBRANCH  28  29
ENDBRANCH  27  28
ENDBRANCH   1  27
TORSDOF 19
ENDMDL
