MODEL 1
REMARK VINA RESULT:     -12.3      0.000      0.000
REMARK SMILES Cc1cccc([C@H]([NH3+])[C@H](O)C(=O)OCCOC(=O)c2ccc(-c3c4nc(c(-c5c(F)cc(S(=O)(=O)[O-])cc5F)c5ccc([nH]5)c(-c5c(F)cc(S(=O)(=O)[O-])cc5F)c5nc(c(-c6c(F)cc(S(=O)(=O)[O-])cc6F)c6ccc3[nH]6)C=C5)C=C4)cc2)c1
REMARK SMILES IDX 15 1 14 2 13 3 11 4 12 5 9 6 7 7 6 8 1 9 2 10 3 11 85 12
REMARK SMILES IDX 4 13 5 14 8 15 10 19 16 21 17 22 18 23 19 24 20 25 84 26
REMARK SMILES IDX 21 27 83 28 22 29 23 30 24 31 77 32 25 33 82 34 76 35 78 36
REMARK SMILES IDX 26 37 81 38 75 39 74 40 27 42 61 43 40 44 60 45 41 46 44 47
REMARK SMILES IDX 59 48 79 49 42 50 43 51 58 53 80 54 45 55 28 56 29 57 38 58
REMARK SMILES IDX 30 59 31 60 37 61 39 62 32 63 33 64 34 65 35 66 36 67 62 68
REMARK SMILES IDX 63 69 72 70 64 71 65 72 71 73 73 74 66 75 67 76 68 77 69 78
REMARK SMILES IDX 70 79 46 80 47 81 56 82 48 83 49 84 55 85 57 86 50 87 51 88
REMARK SMILES IDX 52 89 53 90 54 91
REMARK H PARENT 8 16 8 17 8 18 10 20 78 41 44 52
REMARK Flexibility Score: inf
ROOT
ATOM      1  C   UNL A   1      33.527  29.565  27.516  1.00  0.00     0.275 C 
ENDROOT
BRANCH   1   2
ATOM      2  C   UNL A   1      32.734  28.649  26.571  1.00  0.00     0.274 C 
BRANCH   2   3
ATOM      3  O   UNL A   1      32.716  29.210  25.251  1.00  0.00    -0.460 OA
BRANCH   3   4
ATOM      4  C   UNL A   1      33.134  28.365  24.264  1.00  0.00     0.341 C 
ATOM      5  O   UNL A   1      33.986  27.505  24.442  1.00  0.00    -0.249 OA
BRANCH   4   6
ATOM      6  C   UNL A   1      32.294  28.567  22.990  1.00  0.00     0.287 C 
BRANCH   6   7
ATOM      7  C   UNL A   1      30.990  27.708  22.978  1.00  0.00     0.252 C 
BRANCH   7   8
ATOM      8  C   UNL A   1      29.742  28.566  23.156  1.00  0.00     0.013 A 
ATOM      9  C   UNL A   1      28.792  32.254  23.394  1.00  0.00     0.044 C 
ATOM     10  C   UNL A   1      28.675  30.763  23.306  1.00  0.00    -0.051 A 
ATOM     11  C   UNL A   1      27.421  30.154  23.207  1.00  0.00     0.003 A 
ATOM     12  C   UNL A   1      29.824  29.965  23.267  1.00  0.00     0.013 A 
ATOM     13  C   UNL A   1      27.318  28.768  23.129  1.00  0.00     0.001 A 
ATOM     14  C   UNL A   1      28.469  27.980  23.124  1.00  0.00     0.010 A 
ENDBRANCH   7   8
BRANCH   7  15
ATOM     15  N   UNL A   1      31.057  26.662  24.033  1.00  0.00    -0.349 N 
ATOM     16  H   UNL A   1      31.351  27.086  24.913  1.00  0.00     0.345 HD
ATOM     17  H   UNL A   1      31.731  25.947  23.759  1.00  0.00     0.345 HD
ATOM     18  H   UNL A   1      30.138  26.237  24.151  1.00  0.00     0.345 HD
ENDBRANCH   7  15
ENDBRANCH   6   7
BRANCH   6  19
ATOM     19  O   UNL A   1      33.026  28.451  21.771  1.00  0.00    -0.376 OA
ATOM     20  H   UNL A   1      33.764  27.832  21.894  1.00  0.00     0.212 HD
ENDBRANCH   6  19
ENDBRANCH   4   6
ENDBRANCH   3   4
ENDBRANCH   2   3
ENDBRANCH   1   2
BRANCH   1  21
ATOM     21  O   UNL A   1      34.960  29.365  27.546  1.00  0.00    -0.458 OA
BRANCH  21  22
ATOM     22  C   UNL A   1      35.736  30.466  27.732  1.00  0.00     0.338 C 
ATOM     23  O   UNL A   1      35.315  31.618  27.698  1.00  0.00    -0.246 OA
BRANCH  22  24
ATOM     24  C   UNL A   1      37.052  30.020  28.270  1.00  0.00     0.060 A 
ATOM     25  C   UNL A   1      37.117  29.264  29.449  1.00  0.00     0.016 A 
ATOM     26  C   UNL A   1      38.172  30.107  27.437  1.00  0.00     0.016 A 
ATOM     27  C   UNL A   1      38.242  28.473  29.715  1.00  0.00     0.010 A 
ATOM     28  C   UNL A   1      39.248  29.279  27.662  1.00  0.00     0.010 A 
ATOM     29  C   UNL A   1      39.284  28.444  28.788  1.00  0.00    -0.014 A 
BRANCH  29  30
ATOM     30  C   UNL A   1      40.544  27.721  28.954  1.00  0.00     0.031 A 
ATOM     31  C   UNL A   1      40.780  26.326  28.522  1.00  0.00     0.074 A 
ATOM     32  C   UNL A   1      41.548  28.480  29.431  1.00  0.00     0.049 A 
ATOM     33  N   UNL A   1      41.759  25.583  28.916  1.00  0.00    -0.248 NA
ATOM     34  C   UNL A   1      39.881  25.628  27.619  1.00  0.00     0.031 C 
ATOM     35  C   UNL A   1      42.978  28.238  29.429  1.00  0.00     0.029 A 
ATOM     36  N   UNL A   1      41.384  29.609  30.227  1.00  0.00    -0.354 N 
ATOM     37  C   UNL A   1      41.764  24.424  28.156  1.00  0.00     0.074 A 
ATOM     38  C   UNL A   1      40.514  24.463  27.437  1.00  0.00     0.031 C 
ATOM     39  C   UNL A   1      43.541  29.026  30.365  1.00  0.00     0.029 A 
ATOM     40  C   UNL A   1      42.452  29.644  31.116  1.00  0.00     0.049 A 
ATOM     41  H   UNL A   1      40.648  30.261  30.171  1.00  0.00     0.167 HD
ATOM     42  C   UNL A   1      42.888  23.644  28.114  1.00  0.00     0.037 A 
ATOM     43  C   UNL A   1      42.207  29.428  32.444  1.00  0.00     0.037 A 
ATOM     44  C   UNL A   1      43.899  24.187  29.020  1.00  0.00     0.049 A 
ATOM     45  C   UNL A   1      42.941  28.216  32.955  1.00  0.00     0.074 A 
ATOM     46  C   UNL A   1      44.940  25.074  28.804  1.00  0.00     0.029 A 
ATOM     47  N   UNL A   1      43.721  24.104  30.397  1.00  0.00    -0.354 N 
ATOM     48  N   UNL A   1      43.185  27.145  32.250  1.00  0.00    -0.248 NA
ATOM     49  C   UNL A   1      43.524  28.171  34.290  1.00  0.00     0.031 C 
ATOM     50  C   UNL A   1      45.311  25.618  30.056  1.00  0.00     0.029 A 
ATOM     51  C   UNL A   1      44.529  25.025  31.036  1.00  0.00     0.049 A 
ATOM     52  H   UNL A   1      43.109  23.481  30.850  1.00  0.00     0.167 HD
ATOM     53  C   UNL A   1      43.999  26.316  32.977  1.00  0.00     0.074 A 
ATOM     54  C   UNL A   1      44.167  26.994  34.253  1.00  0.00     0.031 C 
ATOM     55  C   UNL A   1      44.528  25.159  32.482  1.00  0.00     0.037 A 
BRANCH  42  56
ATOM     56  C   UNL A   1      43.219  22.603  27.044  1.00  0.00     0.058 A 
ATOM     57  C   UNL A   1      42.549  21.354  27.025  1.00  0.00     0.135 A 
ATOM     58  C   UNL A   1      44.218  22.727  26.058  1.00  0.00     0.135 A 
ATOM     59  F   UNL A   1      41.494  21.113  27.816  1.00  0.00    -0.206 F 
ATOM     60  C   UNL A   1      42.929  20.285  26.204  1.00  0.00     0.059 A 
ATOM     61  C   UNL A   1      44.645  21.661  25.252  1.00  0.00     0.059 A 
ATOM     62  F   UNL A   1      44.792  23.905  25.789  1.00  0.00    -0.206 F 
ATOM     63  C   UNL A   1      44.010  20.432  25.350  1.00  0.00     0.060 A 
BRANCH  63  64
ATOM     64  S   UNL A   1      44.554  19.017  24.371  1.00  0.00     0.124 S 
ATOM     65  O   UNL A   1      45.928  18.837  24.832  1.00  0.00    -0.237 OA
ATOM     66  O   UNL A   1      43.609  17.980  24.769  1.00  0.00    -0.237 OA
ATOM     67  O   UNL A   1      44.421  19.484  22.993  1.00  0.00    -0.744 OA
ENDBRANCH  63  64
ENDBRANCH  42  56
BRANCH  43  68
ATOM     68  C   UNL A   1      40.846  29.859  32.897  1.00  0.00     0.058 A 
ATOM     69  C   UNL A   1      40.598  31.239  33.066  1.00  0.00     0.135 A 
ATOM     70  C   UNL A   1      39.726  29.016  32.836  1.00  0.00     0.135 A 
ATOM     71  F   UNL A   1      41.628  32.100  33.132  1.00  0.00    -0.206 F 
ATOM     72  C   UNL A   1      39.312  31.770  33.048  1.00  0.00     0.059 A 
ATOM     73  C   UNL A   1      38.423  29.527  32.833  1.00  0.00     0.059 A 
ATOM     74  F   UNL A   1      39.878  27.693  32.680  1.00  0.00    -0.206 F 
ATOM     75  C   UNL A   1      38.230  30.908  32.890  1.00  0.00     0.060 A 
BRANCH  75  76
ATOM     76  S   UNL A   1      36.599  31.634  32.592  1.00  0.00     0.124 S 
ATOM     77  O   UNL A   1      36.875  32.544  31.485  1.00  0.00    -0.237 OA
ATOM     78  O   UNL A   1      35.802  30.457  32.262  1.00  0.00    -0.237 OA
ATOM     79  O   UNL A   1      36.278  32.265  33.869  1.00  0.00    -0.744 OA
ENDBRANCH  75  76
ENDBRANCH  43  68
BRANCH  55  80
ATOM     80  C   UNL A   1      45.232  24.119  33.314  1.00  0.00     0.058 A 
ATOM     81  C   UNL A   1      46.532  24.293  33.820  1.00  0.00     0.135 A 
ATOM     82  C   UNL A   1      44.555  22.956  33.748  1.00  0.00     0.135 A 
ATOM     83  F   UNL A   1      47.226  25.416  33.583  1.00  0.00    -0.206 F 
ATOM     84  C   UNL A   1      47.154  23.341  34.624  1.00  0.00     0.059 A 
ATOM     85  C   UNL A   1      45.137  22.018  34.598  1.00  0.00     0.059 A 
ATOM     86  F   UNL A   1      43.295  22.693  33.371  1.00  0.00    -0.206 F 
ATOM     87  C   UNL A   1      46.451  22.203  35.005  1.00  0.00     0.060 A 
BRANCH  87  88
ATOM     88  S   UNL A   1      47.230  20.991  36.083  1.00  0.00     0.124 S 
ATOM     89  O   UNL A   1      48.106  20.293  35.148  1.00  0.00    -0.237 OA
ATOM     90  O   UNL A   1      47.905  21.824  37.075  1.00  0.00    -0.237 OA
ATOM     91  O   UNL A   1      46.099  20.221  36.589  1.00  0.00    -0.744 OA
ENDBRANCH  87  88
ENDBRANCH  55  80
ENDBRANCH  29  30
ENDBRANCH  22  24
ENDBRANCH  21  22
ENDBRANCH   1  21
TORSDOF 18
ENDMDL
MODEL 2
REMARK VINA RESULT:     -12.1      5.687     11.819
REMARK SMILES Cc1cccc([C@H]([NH3+])[C@H](O)C(=O)OCCOC(=O)c2ccc(-c3c4nc(c(-c5c(F)cc(S(=O)(=O)[O-])cc5F)c5ccc([nH]5)c(-c5c(F)cc(S(=O)(=O)[O-])cc5F)c5nc(c(-c6c(F)cc(S(=O)(=O)[O-])cc6F)c6ccc3[nH]6)C=C5)C=C4)cc2)c1
REMARK SMILES IDX 15 1 14 2 13 3 11 4 12 5 9 6 7 7 6 8 1 9 2 10 3 11 85 12
REMARK SMILES IDX 4 13 5 14 8 15 10 19 16 21 17 22 18 23 19 24 20 25 84 26
REMARK SMILES IDX 21 27 83 28 22 29 23 30 24 31 77 32 25 33 82 34 76 35 78 36
REMARK SMILES IDX 26 37 81 38 75 39 74 40 27 42 61 43 40 44 60 45 41 46 44 47
REMARK SMILES IDX 59 48 79 49 42 50 43 51 58 53 80 54 45 55 28 56 29 57 38 58
REMARK SMILES IDX 30 59 31 60 37 61 39 62 32 63 33 64 34 65 35 66 36 67 62 68
REMARK SMILES IDX 63 69 72 70 64 71 65 72 71 73 73 74 66 75 67 76 68 77 69 78
REMARK SMILES IDX 70 79 46 80 47 81 56 82 48 83 49 84 55 85 57 86 50 87 51 88
REMARK SMILES IDX 52 89 53 90 54 91
REMARK H PARENT 8 16 8 17 8 18 10 20 78 41 44 52
REMARK Flexibility Score: inf
ROOT
ATOM      1  C   UNL A   1      37.396  22.985  25.641  1.00  0.00     0.275 C 
ENDROOT
BRANCH   1   2
ATOM      2  C   UNL A   1      36.669  23.164  24.299  1.00  0.00     0.274 C 
BRANCH   2   3
ATOM      3  O   UNL A   1      35.477  22.365  24.282  1.00  0.00    -0.460 OA
BRANCH   3   4
ATOM      4  C   UNL A   1      34.614  22.605  25.312  1.00  0.00     0.341 C 
ATOM      5  O   UNL A   1      33.989  23.651  25.426  1.00  0.00    -0.249 OA
BRANCH   4   6
ATOM      6  C   UNL A   1      34.456  21.348  26.186  1.00  0.00     0.287 C 
BRANCH   6   7
ATOM      7  C   UNL A   1      33.072  20.648  26.001  1.00  0.00     0.252 C 
BRANCH   7   8
ATOM      8  C   UNL A   1      33.018  19.825  24.718  1.00  0.00     0.013 A 
ATOM      9  C   UNL A   1      34.066  16.379  23.460  1.00  0.00     0.044 C 
ATOM     10  C   UNL A   1      33.453  17.745  23.505  1.00  0.00    -0.051 A 
ATOM     11  C   UNL A   1      32.675  18.209  22.441  1.00  0.00     0.003 A 
ATOM     12  C   UNL A   1      33.607  18.551  24.638  1.00  0.00     0.013 A 
ATOM     13  C   UNL A   1      32.111  19.481  22.487  1.00  0.00     0.001 A 
ATOM     14  C   UNL A   1      32.299  20.289  23.608  1.00  0.00     0.010 A 
ENDBRANCH   7   8
BRANCH   7  15
ATOM     15  N   UNL A   1      31.982  21.659  26.017  1.00  0.00    -0.349 N 
ATOM     16  H   UNL A   1      31.392  21.535  25.194  1.00  0.00     0.345 HD
ATOM     17  H   UNL A   1      32.387  22.595  26.007  1.00  0.00     0.345 HD
ATOM     18  H   UNL A   1      31.420  21.540  26.860  1.00  0.00     0.345 HD
ENDBRANCH   7  15
ENDBRANCH   6   7
BRANCH   6  19
ATOM     19  O   UNL A   1      34.784  21.535  27.562  1.00  0.00    -0.376 OA
ATOM     20  H   UNL A   1      34.130  21.079  28.116  1.00  0.00     0.212 HD
ENDBRANCH   6  19
ENDBRANCH   4   6
ENDBRANCH   3   4
ENDBRANCH   2   3
ENDBRANCH   1   2
BRANCH   1  21
ATOM     21  O   UNL A   1      38.228  24.088  26.069  1.00  0.00    -0.458 OA
BRANCH  21  22
ATOM     22  C   UNL A   1      39.299  23.789  26.853  1.00  0.00     0.338 C 
ATOM     23  O   UNL A   1      39.871  22.704  26.851  1.00  0.00    -0.246 OA
BRANCH  22  24
ATOM     24  C   UNL A   1      39.810  25.059  27.442  1.00  0.00     0.060 A 
ATOM     25  C   UNL A   1      40.274  26.090  26.613  1.00  0.00     0.016 A 
ATOM     26  C   UNL A   1      39.544  25.318  28.790  1.00  0.00     0.016 A 
ATOM     27  C   UNL A   1      40.322  27.406  27.089  1.00  0.00     0.010 A 
ATOM     28  C   UNL A   1      39.525  26.619  29.238  1.00  0.00     0.010 A 
ATOM     29  C   UNL A   1      39.894  27.673  28.390  1.00  0.00    -0.014 A 
BRANCH  29  30
ATOM     30  C   UNL A   1      39.945  28.978  29.046  1.00  0.00     0.031 A 
ATOM     31  C   UNL A   1      38.883  30.005  28.964  1.00  0.00     0.074 A 
ATOM     32  C   UNL A   1      41.005  29.137  29.860  1.00  0.00     0.049 A 
ATOM     33  N   UNL A   1      39.029  31.250  29.277  1.00  0.00    -0.248 NA
ATOM     34  C   UNL A   1      37.550  29.710  28.470  1.00  0.00     0.031 C 
ATOM     35  C   UNL A   1      41.236  30.117  30.904  1.00  0.00     0.029 A 
ATOM     36  N   UNL A   1      42.221  28.478  29.721  1.00  0.00    -0.354 N 
ATOM     37  C   UNL A   1      37.783  31.855  29.262  1.00  0.00     0.074 A 
ATOM     38  C   UNL A   1      36.917  30.874  28.654  1.00  0.00     0.031 C 
ATOM     39  C   UNL A   1      42.559  30.169  31.148  1.00  0.00     0.029 A 
ATOM     40  C   UNL A   1      43.216  29.361  30.125  1.00  0.00     0.049 A 
ATOM     41  H   UNL A   1      42.353  27.557  29.397  1.00  0.00     0.167 HD
ATOM     42  C   UNL A   1      37.603  33.054  29.897  1.00  0.00     0.037 A 
ATOM     43  C   UNL A   1      44.077  29.853  29.184  1.00  0.00     0.037 A 
ATOM     44  C   UNL A   1      38.880  33.530  30.423  1.00  0.00     0.049 A 
ATOM     45  C   UNL A   1      43.989  31.354  29.080  1.00  0.00     0.074 A 
ATOM     46  C   UNL A   1      39.476  33.370  31.664  1.00  0.00     0.029 A 
ATOM     47  N   UNL A   1      39.872  33.977  29.557  1.00  0.00    -0.354 N 
ATOM     48  N   UNL A   1      42.896  32.046  29.256  1.00  0.00    -0.248 NA
ATOM     49  C   UNL A   1      45.164  32.183  28.847  1.00  0.00     0.031 C 
ATOM     50  C   UNL A   1      40.862  33.608  31.511  1.00  0.00     0.029 A 
ATOM     51  C   UNL A   1      41.099  33.962  30.191  1.00  0.00     0.049 A 
ATOM     52  H   UNL A   1      39.721  34.263  28.627  1.00  0.00     0.167 HD
ATOM     53  C   UNL A   1      43.213  33.380  29.240  1.00  0.00     0.074 A 
ATOM     54  C   UNL A   1      44.640  33.413  28.962  1.00  0.00     0.031 C 
ATOM     55  C   UNL A   1      42.311  34.370  29.504  1.00  0.00     0.037 A 
BRANCH  42  56
ATOM     56  C   UNL A   1      36.263  33.644  30.337  1.00  0.00     0.058 A 
ATOM     57  C   UNL A   1      35.371  34.194  29.382  1.00  0.00     0.135 A 
ATOM     58  C   UNL A   1      35.817  33.769  31.668  1.00  0.00     0.135 A 
ATOM     59  F   UNL A   1      35.583  34.056  28.065  1.00  0.00    -0.206 F 
ATOM     60  C   UNL A   1      34.223  34.919  29.724  1.00  0.00     0.059 A 
ATOM     61  C   UNL A   1      34.695  34.525  32.039  1.00  0.00     0.059 A 
ATOM     62  F   UNL A   1      36.417  33.118  32.670  1.00  0.00    -0.206 F 
ATOM     63  C   UNL A   1      33.915  35.120  31.059  1.00  0.00     0.060 A 
BRANCH  63  64
ATOM     64  S   UNL A   1      32.490  36.142  31.489  1.00  0.00     0.124 S 
ATOM     65  O   UNL A   1      31.746  35.265  32.388  1.00  0.00    -0.237 OA
ATOM     66  O   UNL A   1      33.116  37.304  32.109  1.00  0.00    -0.237 OA
ATOM     67  O   UNL A   1      31.851  36.394  30.200  1.00  0.00    -0.744 OA
ENDBRANCH  63  64
ENDBRANCH  42  56
BRANCH  43  68
ATOM     68  C   UNL A   1      44.324  28.929  28.031  1.00  0.00     0.058 A 
ATOM     69  C   UNL A   1      45.116  27.781  28.247  1.00  0.00     0.135 A 
ATOM     70  C   UNL A   1      43.550  28.955  26.860  1.00  0.00     0.135 A 
ATOM     71  F   UNL A   1      45.880  27.692  29.350  1.00  0.00    -0.206 F 
ATOM     72  C   UNL A   1      45.050  26.665  27.417  1.00  0.00     0.059 A 
ATOM     73  C   UNL A   1      43.482  27.851  26.002  1.00  0.00     0.059 A 
ATOM     74  F   UNL A   1      42.774  30.011  26.582  1.00  0.00    -0.206 F 
ATOM     75  C   UNL A   1      44.197  26.695  26.316  1.00  0.00     0.060 A 
BRANCH  75  76
ATOM     76  S   UNL A   1      43.917  25.151  25.415  1.00  0.00     0.124 S 
ATOM     77  O   UNL A   1      42.775  25.497  24.576  1.00  0.00    -0.237 OA
ATOM     78  O   UNL A   1      45.188  24.976  24.718  1.00  0.00    -0.237 OA
ATOM     79  O   UNL A   1      43.655  24.187  26.480  1.00  0.00    -0.744 OA
ENDBRANCH  75  76
ENDBRANCH  43  68
BRANCH  55  80
ATOM     80  C   UNL A   1      42.565  35.837  29.274  1.00  0.00     0.058 A 
ATOM     81  C   UNL A   1      43.437  36.598  30.071  1.00  0.00     0.135 A 
ATOM     82  C   UNL A   1      42.034  36.497  28.142  1.00  0.00     0.135 A 
ATOM     83  F   UNL A   1      44.101  36.047  31.098  1.00  0.00    -0.206 F 
ATOM     84  C   UNL A   1      43.695  37.944  29.820  1.00  0.00     0.059 A 
ATOM     85  C   UNL A   1      42.323  37.826  27.840  1.00  0.00     0.059 A 
ATOM     86  F   UNL A   1      41.222  35.869  27.278  1.00  0.00    -0.206 F 
ATOM     87  C   UNL A   1      43.129  38.552  28.705  1.00  0.00     0.060 A 
BRANCH  87  88
ATOM     88  S   UNL A   1      43.496  40.277  28.346  1.00  0.00     0.124 S 
ATOM     89  O   UNL A   1      42.934  40.941  29.517  1.00  0.00    -0.237 OA
ATOM     90  O   UNL A   1      44.953  40.288  28.256  1.00  0.00    -0.237 OA
ATOM     91  O   UNL A   1      42.796  40.510  27.087  1.00  0.00    -0.744 OA
ENDBRANCH  87  88
ENDBRANCH  55  80
ENDBRANCH  29  30
ENDBRANCH  22  24
ENDBRANCH  21  22
ENDBRANCH   1  21
TORSDOF 18
ENDMDL
MODEL 3
REMARK VINA RESULT:     -11.8      1.405      2.681
REMARK SMILES Cc1cccc([C@H]([NH3+])[C@H](O)C(=O)OCCOC(=O)c2ccc(-c3c4nc(c(-c5c(F)cc(S(=O)(=O)[O-])cc5F)c5ccc([nH]5)c(-c5c(F)cc(S(=O)(=O)[O-])cc5F)c5nc(c(-c6c(F)cc(S(=O)(=O)[O-])cc6F)c6ccc3[nH]6)C=C5)C=C4)cc2)c1
REMARK SMILES IDX 15 1 14 2 13 3 11 4 12 5 9 6 7 7 6 8 1 9 2 10 3 11 85 12
REMARK SMILES IDX 4 13 5 14 8 15 10 19 16 21 17 22 18 23 19 24 20 25 84 26
REMARK SMILES IDX 21 27 83 28 22 29 23 30 24 31 77 32 25 33 82 34 76 35 78 36
REMARK SMILES IDX 26 37 81 38 75 39 74 40 27 42 61 43 40 44 60 45 41 46 44 47
REMARK SMILES IDX 59 48 79 49 42 50 43 51 58 53 80 54 45 55 28 56 29 57 38 58
REMARK SMILES IDX 30 59 31 60 37 61 39 62 32 63 33 64 34 65 35 66 36 67 62 68
REMARK SMILES IDX 63 69 72 70 64 71 65 72 71 73 73 74 66 75 67 76 68 77 69 78
REMARK SMILES IDX 70 79 46 80 47 81 56 82 48 83 49 84 55 85 57 86 50 87 51 88
REMARK SMILES IDX 52 89 53 90 54 91
REMARK H PARENT 8 16 8 17 8 18 10 20 78 41 44 52
REMARK Flexibility Score: inf
ROOT
ATOM      1  C   UNL A   1      33.857  28.874  27.439  1.00  0.00     0.275 C 
ENDROOT
BRANCH   1   2
ATOM      2  C   UNL A   1      32.918  28.220  26.413  1.00  0.00     0.274 C 
BRANCH   2   3
ATOM      3  O   UNL A   1      32.574  29.170  25.394  1.00  0.00    -0.460 OA
BRANCH   3   4
ATOM      4  C   UNL A   1      31.538  28.794  24.588  1.00  0.00     0.341 C 
ATOM      5  O   UNL A   1      30.829  29.599  23.999  1.00  0.00    -0.249 OA
BRANCH   4   6
ATOM      6  C   UNL A   1      31.501  27.263  24.436  1.00  0.00     0.287 C 
BRANCH   6   7
ATOM      7  C   UNL A   1      31.951  26.781  23.020  1.00  0.00     0.252 C 
BRANCH   7   8
ATOM      8  C   UNL A   1      32.909  25.598  23.099  1.00  0.00     0.013 A 
ATOM      9  C   UNL A   1      35.419  24.082  25.541  1.00  0.00     0.044 C 
ATOM     10  C   UNL A   1      34.546  24.267  24.338  1.00  0.00    -0.051 A 
ATOM     11  C   UNL A   1      34.468  23.270  23.360  1.00  0.00     0.003 A 
ATOM     12  C   UNL A   1      33.758  25.414  24.205  1.00  0.00     0.013 A 
ATOM     13  C   UNL A   1      33.658  23.448  22.241  1.00  0.00     0.001 A 
ATOM     14  C   UNL A   1      32.901  24.611  22.103  1.00  0.00     0.010 A 
ENDBRANCH   7   8
BRANCH   7  15
ATOM     15  N   UNL A   1      32.573  27.905  22.271  1.00  0.00    -0.349 N 
ATOM     16  H   UNL A   1      32.501  28.761  22.822  1.00  0.00     0.345 HD
ATOM     17  H   UNL A   1      32.088  28.031  21.383  1.00  0.00     0.345 HD
ATOM     18  H   UNL A   1      33.555  27.695  22.095  1.00  0.00     0.345 HD
ENDBRANCH   7  15
ENDBRANCH   6   7
BRANCH   6  19
ATOM     19  O   UNL A   1      30.279  26.654  24.849  1.00  0.00    -0.376 OA
ATOM     20  H   UNL A   1      30.456  25.752  25.160  1.00  0.00     0.212 HD
ENDBRANCH   6  19
ENDBRANCH   4   6
ENDBRANCH   3   4
ENDBRANCH   2   3
ENDBRANCH   1   2
BRANCH   1  21
ATOM     21  O   UNL A   1      35.135  29.329  26.936  1.00  0.00    -0.458 OA
BRANCH  21  22
ATOM     22  C   UNL A   1      35.691  30.411  27.544  1.00  0.00     0.338 C 
ATOM     23  O   UNL A   1      35.085  31.448  27.791  1.00  0.00    -0.246 OA
BRANCH  22  24
ATOM     24  C   UNL A   1      37.008  30.000  28.106  1.00  0.00     0.060 A 
ATOM     25  C   UNL A   1      37.072  29.252  29.291  1.00  0.00     0.016 A 
ATOM     26  C   UNL A   1      38.140  30.110  27.292  1.00  0.00     0.016 A 
ATOM     27  C   UNL A   1      38.211  28.491  29.580  1.00  0.00     0.010 A 
ATOM     28  C   UNL A   1      39.232  29.310  27.540  1.00  0.00     0.010 A 
ATOM     29  C   UNL A   1      39.270  28.482  28.671  1.00  0.00    -0.014 A 
BRANCH  29  30
ATOM     30  C   UNL A   1      40.544  27.791  28.863  1.00  0.00     0.031 A 
ATOM     31  C   UNL A   1      40.828  26.408  28.423  1.00  0.00     0.074 A 
ATOM     32  C   UNL A   1      41.515  28.572  29.374  1.00  0.00     0.049 A 
ATOM     33  N   UNL A   1      41.817  25.687  28.835  1.00  0.00    -0.248 NA
ATOM     34  C   UNL A   1      39.972  25.696  27.491  1.00  0.00     0.031 C 
ATOM     35  C   UNL A   1      42.950  28.368  29.406  1.00  0.00     0.029 A 
ATOM     36  N   UNL A   1      41.299  29.687  30.176  1.00  0.00    -0.354 N 
ATOM     37  C   UNL A   1      41.872  24.537  28.064  1.00  0.00     0.074 A 
ATOM     38  C   UNL A   1      40.640  24.550  27.314  1.00  0.00     0.031 C 
ATOM     39  C   UNL A   1      43.467  29.160  30.364  1.00  0.00     0.029 A 
ATOM     40  C   UNL A   1      42.343  29.742  31.093  1.00  0.00     0.049 A 
ATOM     41  H   UNL A   1      40.548  30.321  30.108  1.00  0.00     0.167 HD
ATOM     42  C   UNL A   1      43.018  23.788  28.044  1.00  0.00     0.037 A 
ATOM     43  C   UNL A   1      42.071  29.505  32.412  1.00  0.00     0.037 A 
ATOM     44  C   UNL A   1      43.990  24.347  28.981  1.00  0.00     0.049 A 
ATOM     45  C   UNL A   1      42.823  28.308  32.930  1.00  0.00     0.074 A 
ATOM     46  C   UNL A   1      45.012  25.264  28.801  1.00  0.00     0.029 A 
ATOM     47  N   UNL A   1      43.779  24.245  30.352  1.00  0.00    -0.354 N 
ATOM     48  N   UNL A   1      43.114  27.251  32.220  1.00  0.00    -0.248 NA
ATOM     49  C   UNL A   1      43.373  28.264  34.278  1.00  0.00     0.031 C 
ATOM     50  C   UNL A   1      45.335  25.805  30.067  1.00  0.00     0.029 A 
ATOM     51  C   UNL A   1      44.545  25.181  31.021  1.00  0.00     0.049 A 
ATOM     52  H   UNL A   1      43.173  23.601  30.783  1.00  0.00     0.167 HD
ATOM     53  C   UNL A   1      43.931  26.436  32.960  1.00  0.00     0.074 A 
ATOM     54  C   UNL A   1      44.048  27.105  34.246  1.00  0.00     0.031 C 
ATOM     55  C   UNL A   1      44.503  25.299  32.467  1.00  0.00     0.037 A 
BRANCH  42  56
ATOM     56  C   UNL A   1      43.404  22.767  26.972  1.00  0.00     0.058 A 
ATOM     57  C   UNL A   1      42.712  21.534  26.872  1.00  0.00     0.135 A 
ATOM     58  C   UNL A   1      44.473  22.895  26.064  1.00  0.00     0.135 A 
ATOM     59  F   UNL A   1      41.598  21.296  27.579  1.00  0.00    -0.206 F 
ATOM     60  C   UNL A   1      43.129  20.479  26.051  1.00  0.00     0.059 A 
ATOM     61  C   UNL A   1      44.936  21.840  25.262  1.00  0.00     0.059 A 
ATOM     62  F   UNL A   1      45.089  24.066  25.868  1.00  0.00    -0.206 F 
ATOM     63  C   UNL A   1      44.271  20.623  25.281  1.00  0.00     0.060 A 
BRANCH  63  64
ATOM     64  S   UNL A   1      44.856  19.222  24.305  1.00  0.00     0.124 S 
ATOM     65  O   UNL A   1      44.422  19.585  22.959  1.00  0.00    -0.237 OA
ATOM     66  O   UNL A   1      46.295  19.257  24.540  1.00  0.00    -0.237 OA
ATOM     67  O   UNL A   1      44.157  18.082  24.893  1.00  0.00    -0.744 OA
ENDBRANCH  63  64
ENDBRANCH  42  56
BRANCH  43  68
ATOM     68  C   UNL A   1      40.687  29.895  32.833  1.00  0.00     0.058 A 
ATOM     69  C   UNL A   1      40.407  31.263  33.044  1.00  0.00     0.135 A 
ATOM     70  C   UNL A   1      39.585  29.035  32.704  1.00  0.00     0.135 A 
ATOM     71  F   UNL A   1      41.418  32.139  33.176  1.00  0.00    -0.206 F 
ATOM     72  C   UNL A   1      39.112  31.772  33.002  1.00  0.00     0.059 A 
ATOM     73  C   UNL A   1      38.274  29.522  32.675  1.00  0.00     0.059 A 
ATOM     74  F   UNL A   1      39.768  27.721  32.505  1.00  0.00    -0.206 F 
ATOM     75  C   UNL A   1      38.053  30.896  32.776  1.00  0.00     0.060 A 
BRANCH  75  76
ATOM     76  S   UNL A   1      36.420  31.604  32.449  1.00  0.00     0.124 S 
ATOM     77  O   UNL A   1      35.657  30.427  32.049  1.00  0.00    -0.237 OA
ATOM     78  O   UNL A   1      36.074  32.173  33.748  1.00  0.00    -0.237 OA
ATOM     79  O   UNL A   1      36.685  32.579  31.394  1.00  0.00    -0.744 OA
ENDBRANCH  75  76
ENDBRANCH  43  68
BRANCH  55  80
ATOM     80  C   UNL A   1      45.214  24.269  33.307  1.00  0.00     0.058 A 
ATOM     81  C   UNL A   1      44.637  23.038  33.661  1.00  0.00     0.135 A 
ATOM     82  C   UNL A   1      46.571  24.438  33.668  1.00  0.00     0.135 A 
ATOM     83  F   UNL A   1      43.399  22.710  33.264  1.00  0.00    -0.206 F 
ATOM     84  C   UNL A   1      45.323  22.078  34.401  1.00  0.00     0.059 A 
ATOM     85  C   UNL A   1      47.293  23.468  34.358  1.00  0.00     0.059 A 
ATOM     86  F   UNL A   1      47.250  25.550  33.350  1.00  0.00    -0.206 F 
ATOM     87  C   UNL A   1      46.650  22.303  34.750  1.00  0.00     0.060 A 
BRANCH  87  88
ATOM     88  S   UNL A   1      47.558  21.046  35.664  1.00  0.00     0.124 S 
ATOM     89  O   UNL A   1      48.490  20.567  34.649  1.00  0.00    -0.237 OA
ATOM     90  O   UNL A   1      48.155  21.807  36.758  1.00  0.00    -0.237 OA
ATOM     91  O   UNL A   1      46.515  20.106  36.063  1.00  0.00    -0.744 OA
ENDBRANCH  87  88
ENDBRANCH  55  80
ENDBRANCH  29  30
ENDBRANCH  22  24
ENDBRANCH  21  22
ENDBRANCH   1  21
TORSDOF 18
ENDMDL
