MODEL 1
REMARK VINA RESULT:     -12.4      0.000      0.000
REMARK SMILES O=C(OCCOC(=O)c1ccc(-c2c3nc(c(-c4c(F)cc(S(=O)(=O)[O-])cc4F)c4ccc([nH]4)c(-c4c(F)cc(S(=O)(=O)[O-])cc4F)c4nc(c(-c5c(F)cc(S(=O)(=O)[O-])cc5F)c5ccc2[nH]5)C=C4)C=C3)cc1)C1=NN(c2ccc(S(=O)(=O)[O-])cc2)C(=O)/C1=C/Nc1ccccc1
REMARK SMILES IDX 5 1 4 2 3 3 2 4 1 5 75 6 76 7 90 8 77 9 88 10 91 11 89 12
REMARK SMILES IDX 78 13 79 14 87 15 80 16 86 17 81 18 82 19 83 20 84 21 85 22
REMARK SMILES IDX 92 23 93 25 94 26 98 27 95 28 97 29 96 30 6 31 7 32 8 33
REMARK SMILES IDX 9 34 10 35 74 36 11 37 73 38 12 39 13 40 14 41 67 42 15 43
REMARK SMILES IDX 72 44 66 45 68 46 16 47 71 48 65 49 64 50 17 52 51 53 30 54
REMARK SMILES IDX 50 55 31 56 34 57 49 58 69 59 32 60 33 61 48 63 70 64 35 65
REMARK SMILES IDX 18 66 19 67 28 68 20 69 21 70 27 71 29 72 22 73 23 74 24 75
REMARK SMILES IDX 25 76 26 77 52 78 53 79 62 80 54 81 55 82 61 83 63 84 56 85
REMARK SMILES IDX 57 86 58 87 59 88 60 89 36 90 37 91 46 92 38 93 39 94 45 95
REMARK SMILES IDX 47 96 40 97 41 98 42 99 43 100 44 101
REMARK H PARENT 92 24 68 51 34 62
REMARK Flexibility Score: inf
ROOT
ATOM      1  C   UNL A   1      36.154  22.307  25.566  1.00  0.00     0.275 C 
ENDROOT
BRANCH   1   2
ATOM      2  C   UNL A   1      35.110  21.977  26.662  1.00  0.00     0.275 C 
BRANCH   2   3
ATOM      3  O   UNL A   1      34.390  23.089  27.222  1.00  0.00    -0.457 OA
BRANCH   3   4
ATOM      4  C   UNL A   1      33.074  23.128  26.969  1.00  0.00     0.359 C 
ATOM      5  O   UNL A   1      32.221  22.761  27.762  1.00  0.00    -0.244 OA
BRANCH   4   6
ATOM      6  C   UNL A   1      32.716  23.818  25.672  1.00  0.00     0.183 C 
ATOM      7  N   UNL A   1      32.369  25.081  25.706  1.00  0.00    -0.157 NA
ATOM      8  C   UNL A   1      32.718  23.270  24.284  1.00  0.00     0.093 C 
ATOM      9  N   UNL A   1      32.126  25.434  24.400  1.00  0.00    -0.196 N 
ATOM     10  C   UNL A   1      32.477  24.473  23.452  1.00  0.00     0.282 C 
ATOM     11  C   UNL A   1      32.585  22.126  23.587  1.00  0.00     0.099 C 
ATOM     12  O   UNL A   1      32.465  24.519  22.236  1.00  0.00    -0.267 OA
BRANCH   9  13
ATOM     13  C   UNL A   1      31.244  26.496  24.156  1.00  0.00     0.069 A 
ATOM     14  C   UNL A   1      31.648  27.820  24.304  1.00  0.00     0.030 A 
ATOM     15  C   UNL A   1      29.924  26.209  23.781  1.00  0.00     0.030 A 
ATOM     16  C   UNL A   1      30.772  28.844  23.928  1.00  0.00     0.021 A 
ATOM     17  C   UNL A   1      29.020  27.228  23.515  1.00  0.00     0.021 A 
ATOM     18  C   UNL A   1      29.457  28.549  23.545  1.00  0.00     0.054 A 
BRANCH  18  19
ATOM     19  S   UNL A   1      28.367  29.804  22.912  1.00  0.00     0.124 S 
ATOM     20  O   UNL A   1      26.989  29.428  23.117  1.00  0.00    -0.237 OA
ATOM     21  O   UNL A   1      28.902  31.074  23.346  1.00  0.00    -0.237 OA
ATOM     22  O   UNL A   1      28.538  29.723  21.308  1.00  0.00    -0.744 OA
ENDBRANCH  18  19
ENDBRANCH   9  13
BRANCH  11  23
ATOM     23  N   UNL A   1      32.153  20.887  23.976  1.00  0.00    -0.361 N 
ATOM     24  H   UNL A   1      31.263  20.884  24.398  1.00  0.00     0.166 HD
BRANCH  23  25
ATOM     25  C   UNL A   1      32.750  19.620  23.882  1.00  0.00     0.038 A 
ATOM     26  C   UNL A   1      33.922  19.379  24.620  1.00  0.00     0.026 A 
ATOM     27  C   UNL A   1      32.277  18.610  23.044  1.00  0.00     0.026 A 
ATOM     28  C   UNL A   1      34.653  18.200  24.457  1.00  0.00     0.002 A 
ATOM     29  C   UNL A   1      33.009  17.427  22.877  1.00  0.00     0.002 A 
ATOM     30  C   UNL A   1      34.205  17.233  23.566  1.00  0.00     0.000 A 
ENDBRANCH  23  25
ENDBRANCH  11  23
ENDBRANCH   4   6
ENDBRANCH   3   4
ENDBRANCH   2   3
ENDBRANCH   1   2
BRANCH   1  31
ATOM     31  O   UNL A   1      37.068  23.331  26.047  1.00  0.00    -0.458 OA
BRANCH  31  32
ATOM     32  C   UNL A   1      38.370  22.994  26.214  1.00  0.00     0.338 C 
ATOM     33  O   UNL A   1      38.868  21.925  25.923  1.00  0.00    -0.246 OA
BRANCH  32  34
ATOM     34  C   UNL A   1      39.102  24.196  26.704  1.00  0.00     0.060 A 
ATOM     35  C   UNL A   1      39.008  24.505  28.062  1.00  0.00     0.016 A 
ATOM     36  C   UNL A   1      39.873  25.015  25.870  1.00  0.00     0.016 A 
ATOM     37  C   UNL A   1      39.634  25.651  28.580  1.00  0.00     0.010 A 
ATOM     38  C   UNL A   1      40.530  26.142  26.403  1.00  0.00     0.010 A 
ATOM     39  C   UNL A   1      40.391  26.502  27.760  1.00  0.00    -0.014 A 
BRANCH  39  40
ATOM     40  C   UNL A   1      40.912  27.818  28.283  1.00  0.00     0.031 A 
ATOM     41  C   UNL A   1      42.410  28.063  28.296  1.00  0.00     0.074 A 
ATOM     42  C   UNL A   1      40.085  28.812  28.690  1.00  0.00     0.049 A 
ATOM     43  N   UNL A   1      43.086  29.096  28.735  1.00  0.00    -0.248 NA
ATOM     44  C   UNL A   1      43.262  26.999  27.737  1.00  0.00     0.031 C 
ATOM     45  C   UNL A   1      38.623  28.746  28.684  1.00  0.00     0.029 A 
ATOM     46  N   UNL A   1      40.345  30.073  29.194  1.00  0.00    -0.354 N 
ATOM     47  C   UNL A   1      44.427  28.821  28.468  1.00  0.00     0.074 A 
ATOM     48  C   UNL A   1      44.481  27.482  27.931  1.00  0.00     0.031 C 
ATOM     49  C   UNL A   1      38.121  29.899  29.162  1.00  0.00     0.029 A 
ATOM     50  C   UNL A   1      39.214  30.775  29.578  1.00  0.00     0.049 A 
ATOM     51  H   UNL A   1      41.256  30.440  29.273  1.00  0.00     0.167 HD
ATOM     52  C   UNL A   1      45.511  29.627  28.595  1.00  0.00     0.037 A 
ATOM     53  C   UNL A   1      39.072  31.953  30.238  1.00  0.00     0.037 A 
ATOM     54  C   UNL A   1      45.456  30.972  29.103  1.00  0.00     0.049 A 
ATOM     55  C   UNL A   1      40.339  32.707  30.622  1.00  0.00     0.074 A 
ATOM     56  C   UNL A   1      46.479  31.899  29.206  1.00  0.00     0.029 A 
ATOM     57  N   UNL A   1      44.313  31.581  29.599  1.00  0.00    -0.354 N 
ATOM     58  N   UNL A   1      41.588  32.447  30.304  1.00  0.00    -0.248 NA
ATOM     59  C   UNL A   1      40.189  33.909  31.459  1.00  0.00     0.031 C 
ATOM     60  C   UNL A   1      45.968  33.044  29.822  1.00  0.00     0.029 A 
ATOM     61  C   UNL A   1      44.615  32.851  30.055  1.00  0.00     0.049 A 
ATOM     62  H   UNL A   1      43.419  31.169  29.623  1.00  0.00     0.167 HD
ATOM     63  C   UNL A   1      42.346  33.506  30.809  1.00  0.00     0.074 A 
ATOM     64  C   UNL A   1      41.429  34.378  31.506  1.00  0.00     0.031 C 
ATOM     65  C   UNL A   1      43.674  33.749  30.678  1.00  0.00     0.037 A 
BRANCH  52  66
ATOM     66  C   UNL A   1      46.849  29.090  28.148  1.00  0.00     0.058 A 
ATOM     67  C   UNL A   1      47.710  28.432  29.042  1.00  0.00     0.135 A 
ATOM     68  C   UNL A   1      47.262  29.195  26.808  1.00  0.00     0.135 A 
ATOM     69  F   UNL A   1      47.371  28.301  30.335  1.00  0.00    -0.206 F 
ATOM     70  C   UNL A   1      48.949  27.943  28.639  1.00  0.00     0.059 A 
ATOM     71  C   UNL A   1      48.485  28.685  26.375  1.00  0.00     0.059 A 
ATOM     72  F   UNL A   1      46.476  29.801  25.905  1.00  0.00    -0.206 F 
ATOM     73  C   UNL A   1      49.331  28.081  27.304  1.00  0.00     0.060 A 
BRANCH  73  74
ATOM     74  S   UNL A   1      50.956  27.469  26.805  1.00  0.00     0.124 S 
ATOM     75  O   UNL A   1      51.650  27.416  28.089  1.00  0.00    -0.237 OA
ATOM     76  O   UNL A   1      50.635  26.178  26.207  1.00  0.00    -0.237 OA
ATOM     77  O   UNL A   1      51.434  28.488  25.876  1.00  0.00    -0.744 OA
ENDBRANCH  73  74
ENDBRANCH  52  66
BRANCH  53  78
ATOM     78  C   UNL A   1      37.723  32.442  30.727  1.00  0.00     0.058 A 
ATOM     79  C   UNL A   1      36.924  33.360  30.029  1.00  0.00     0.135 A 
ATOM     80  C   UNL A   1      37.246  32.074  31.995  1.00  0.00     0.135 A 
ATOM     81  F   UNL A   1      37.287  33.767  28.803  1.00  0.00    -0.206 F 
ATOM     82  C   UNL A   1      35.763  33.917  30.590  1.00  0.00     0.059 A 
ATOM     83  C   UNL A   1      36.100  32.600  32.578  1.00  0.00     0.059 A 
ATOM     84  F   UNL A   1      37.884  31.147  32.703  1.00  0.00    -0.206 F 
ATOM     85  C   UNL A   1      35.364  33.533  31.872  1.00  0.00     0.060 A 
BRANCH  85  86
ATOM     86  S   UNL A   1      33.889  34.256  32.624  1.00  0.00     0.124 S 
ATOM     87  O   UNL A   1      34.461  35.198  33.579  1.00  0.00    -0.237 OA
ATOM     88  O   UNL A   1      33.225  34.841  31.465  1.00  0.00    -0.237 OA
ATOM     89  O   UNL A   1      33.210  33.105  33.215  1.00  0.00    -0.744 OA
ENDBRANCH  85  86
ENDBRANCH  53  78
BRANCH  65  90
ATOM     90  C   UNL A   1      44.209  35.077  31.147  1.00  0.00     0.058 A 
ATOM     91  C   UNL A   1      44.135  36.243  30.372  1.00  0.00     0.135 A 
ATOM     92  C   UNL A   1      44.708  35.194  32.458  1.00  0.00     0.135 A 
ATOM     93  F   UNL A   1      43.670  36.188  29.114  1.00  0.00    -0.206 F 
ATOM     94  C   UNL A   1      44.538  37.478  30.878  1.00  0.00     0.059 A 
ATOM     95  C   UNL A   1      45.093  36.420  32.991  1.00  0.00     0.059 A 
ATOM     96  F   UNL A   1      44.787  34.111  33.249  1.00  0.00    -0.206 F 
ATOM     97  C   UNL A   1      45.008  37.558  32.192  1.00  0.00     0.060 A 
BRANCH  97  98
ATOM     98  S   UNL A   1      45.457  39.175  32.864  1.00  0.00     0.124 S 
ATOM     99  O   UNL A   1      44.329  39.452  33.746  1.00  0.00    -0.237 OA
ATOM    100  O   UNL A   1      46.727  38.897  33.527  1.00  0.00    -0.237 OA
ATOM    101  O   UNL A   1      45.549  40.022  31.678  1.00  0.00    -0.744 OA
ENDBRANCH  97  98
ENDBRANCH  65  90
ENDBRANCH  39  40
ENDBRANCH  32  34
ENDBRANCH  31  32
ENDBRANCH   1  31
TORSDOF 18
ENDMDL
MODEL 2
REMARK VINA RESULT:     -12.3      0.619      1.602
REMARK SMILES O=C(OCCOC(=O)c1ccc(-c2c3nc(c(-c4c(F)cc(S(=O)(=O)[O-])cc4F)c4ccc([nH]4)c(-c4c(F)cc(S(=O)(=O)[O-])cc4F)c4nc(c(-c5c(F)cc(S(=O)(=O)[O-])cc5F)c5ccc2[nH]5)C=C4)C=C3)cc1)C1=NN(c2ccc(S(=O)(=O)[O-])cc2)C(=O)/C1=C/Nc1ccccc1
REMARK SMILES IDX 5 1 4 2 3 3 2 4 1 5 75 6 76 7 90 8 77 9 88 10 91 11 89 12
REMARK SMILES IDX 78 13 79 14 87 15 80 16 86 17 81 18 82 19 83 20 84 21 85 22
REMARK SMILES IDX 92 23 93 25 94 26 98 27 95 28 97 29 96 30 6 31 7 32 8 33
REMARK SMILES IDX 9 34 10 35 74 36 11 37 73 38 12 39 13 40 14 41 67 42 15 43
REMARK SMILES IDX 72 44 66 45 68 46 16 47 71 48 65 49 64 50 17 52 51 53 30 54
REMARK SMILES IDX 50 55 31 56 34 57 49 58 69 59 32 60 33 61 48 63 70 64 35 65
REMARK SMILES IDX 18 66 19 67 28 68 20 69 21 70 27 71 29 72 22 73 23 74 24 75
REMARK SMILES IDX 25 76 26 77 52 78 53 79 62 80 54 81 55 82 61 83 63 84 56 85
REMARK SMILES IDX 57 86 58 87 59 88 60 89 36 90 37 91 46 92 38 93 39 94 45 95
REMARK SMILES IDX 47 96 40 97 41 98 42 99 43 100 44 101
REMARK H PARENT 92 24 68 51 34 62
REMARK Flexibility Score: inf
ROOT
ATOM      1  C   UNL A   1      35.856  22.380  25.812  1.00  0.00     0.275 C 
ENDROOT
BRANCH   1   2
ATOM      2  C   UNL A   1      34.813  22.861  26.850  1.00  0.00     0.275 C 
BRANCH   2   3
ATOM      3  O   UNL A   1      33.560  22.157  26.878  1.00  0.00    -0.457 OA
BRANCH   3   4
ATOM      4  C   UNL A   1      32.456  22.912  26.786  1.00  0.00     0.359 C 
ATOM      5  O   UNL A   1      31.728  23.167  27.732  1.00  0.00    -0.244 OA
BRANCH   4   6
ATOM      6  C   UNL A   1      32.266  23.561  25.433  1.00  0.00     0.183 C 
ATOM      7  N   UNL A   1      31.833  24.797  25.385  1.00  0.00    -0.157 NA
ATOM      8  C   UNL A   1      32.528  23.001  24.076  1.00  0.00     0.093 C 
ATOM      9  N   UNL A   1      31.780  25.119  24.049  1.00  0.00    -0.196 N 
ATOM     10  C   UNL A   1      32.343  24.176  23.191  1.00  0.00     0.282 C 
ATOM     11  C   UNL A   1      32.587  21.844  23.391  1.00  0.00     0.099 C 
ATOM     12  O   UNL A   1      32.524  24.209  21.987  1.00  0.00    -0.267 OA
BRANCH   9  13
ATOM     13  C   UNL A   1      30.879  26.115  23.645  1.00  0.00     0.069 A 
ATOM     14  C   UNL A   1      29.525  26.034  23.956  1.00  0.00     0.030 A 
ATOM     15  C   UNL A   1      31.358  27.197  22.892  1.00  0.00     0.030 A 
ATOM     16  C   UNL A   1      28.690  27.112  23.642  1.00  0.00     0.021 A 
ATOM     17  C   UNL A   1      30.506  28.214  22.484  1.00  0.00     0.021 A 
ATOM     18  C   UNL A   1      29.178  28.194  22.897  1.00  0.00     0.054 A 
BRANCH  18  19
ATOM     19  S   UNL A   1      28.193  29.648  22.614  1.00  0.00     0.124 S 
ATOM     20  O   UNL A   1      28.286  30.061  21.235  1.00  0.00    -0.237 OA
ATOM     21  O   UNL A   1      26.930  29.429  23.280  1.00  0.00    -0.237 OA
ATOM     22  O   UNL A   1      28.966  30.825  23.405  1.00  0.00    -0.744 OA
ENDBRANCH  18  19
ENDBRANCH   9  13
BRANCH  11  23
ATOM     23  N   UNL A   1      32.183  20.581  23.732  1.00  0.00    -0.361 N 
ATOM     24  H   UNL A   1      31.225  20.509  23.949  1.00  0.00     0.166 HD
BRANCH  23  25
ATOM     25  C   UNL A   1      32.887  19.372  23.827  1.00  0.00     0.038 A 
ATOM     26  C   UNL A   1      34.059  19.341  24.604  1.00  0.00     0.026 A 
ATOM     27  C   UNL A   1      32.521  18.215  23.138  1.00  0.00     0.026 A 
ATOM     28  C   UNL A   1      34.891  18.219  24.619  1.00  0.00     0.002 A 
ATOM     29  C   UNL A   1      33.355  17.089  23.149  1.00  0.00     0.002 A 
ATOM     30  C   UNL A   1      34.547  17.100  23.872  1.00  0.00     0.000 A 
ENDBRANCH  23  25
ENDBRANCH  11  23
ENDBRANCH   4   6
ENDBRANCH   3   4
ENDBRANCH   2   3
ENDBRANCH   1   2
BRANCH   1  31
ATOM     31  O   UNL A   1      36.958  23.326  25.742  1.00  0.00    -0.458 OA
BRANCH  31  32
ATOM     32  C   UNL A   1      38.193  22.894  26.093  1.00  0.00     0.338 C 
ATOM     33  O   UNL A   1      38.622  21.768  25.931  1.00  0.00    -0.246 OA
BRANCH  32  34
ATOM     34  C   UNL A   1      38.968  24.060  26.601  1.00  0.00     0.060 A 
ATOM     35  C   UNL A   1      38.844  24.384  27.953  1.00  0.00     0.016 A 
ATOM     36  C   UNL A   1      39.808  24.833  25.790  1.00  0.00     0.016 A 
ATOM     37  C   UNL A   1      39.509  25.500  28.486  1.00  0.00     0.010 A 
ATOM     38  C   UNL A   1      40.503  25.930  26.339  1.00  0.00     0.010 A 
ATOM     39  C   UNL A   1      40.336  26.306  27.688  1.00  0.00    -0.014 A 
BRANCH  39  40
ATOM     40  C   UNL A   1      40.904  27.598  28.221  1.00  0.00     0.031 A 
ATOM     41  C   UNL A   1      42.412  27.771  28.273  1.00  0.00     0.074 A 
ATOM     42  C   UNL A   1      40.116  28.631  28.605  1.00  0.00     0.049 A 
ATOM     43  N   UNL A   1      43.124  28.773  28.727  1.00  0.00    -0.248 NA
ATOM     44  C   UNL A   1      43.227  26.666  27.738  1.00  0.00     0.031 C 
ATOM     45  C   UNL A   1      38.653  28.634  28.561  1.00  0.00     0.029 A 
ATOM     46  N   UNL A   1      40.422  29.880  29.113  1.00  0.00    -0.354 N 
ATOM     47  C   UNL A   1      44.458  28.434  28.495  1.00  0.00     0.074 A 
ATOM     48  C   UNL A   1      44.461  27.092  27.963  1.00  0.00     0.031 C 
ATOM     49  C   UNL A   1      38.194  29.811  29.022  1.00  0.00     0.029 A 
ATOM     50  C   UNL A   1      39.316  30.636  29.465  1.00  0.00     0.049 A 
ATOM     51  H   UNL A   1      41.347  30.204  29.214  1.00  0.00     0.167 HD
ATOM     52  C   UNL A   1      45.575  29.188  28.649  1.00  0.00     0.037 A 
ATOM     53  C   UNL A   1      39.212  31.822  30.119  1.00  0.00     0.037 A 
ATOM     54  C   UNL A   1      45.570  30.536  29.152  1.00  0.00     0.049 A 
ATOM     55  C   UNL A   1      40.503  32.517  30.534  1.00  0.00     0.074 A 
ATOM     56  C   UNL A   1      46.633  31.414  29.279  1.00  0.00     0.029 A 
ATOM     57  N   UNL A   1      44.445  31.200  29.616  1.00  0.00    -0.354 N 
ATOM     58  N   UNL A   1      41.747  32.196  30.248  1.00  0.00    -0.248 NA
ATOM     59  C   UNL A   1      40.389  33.727  31.364  1.00  0.00     0.031 C 
ATOM     60  C   UNL A   1      46.161  32.585  29.879  1.00  0.00     0.029 A 
ATOM     61  C   UNL A   1      44.795  32.456  30.077  1.00  0.00     0.049 A 
ATOM     62  H   UNL A   1      43.532  30.831  29.619  1.00  0.00     0.167 HD
ATOM     63  C   UNL A   1      42.540  33.220  30.770  1.00  0.00     0.074 A 
ATOM     64  C   UNL A   1      41.649  34.138  31.441  1.00  0.00     0.031 C 
ATOM     65  C   UNL A   1      43.882  33.400  30.674  1.00  0.00     0.037 A 
BRANCH  52  66
ATOM     66  C   UNL A   1      46.897  28.587  28.238  1.00  0.00     0.058 A 
ATOM     67  C   UNL A   1      47.387  28.721  26.928  1.00  0.00     0.135 A 
ATOM     68  C   UNL A   1      47.703  27.907  29.166  1.00  0.00     0.135 A 
ATOM     69  F   UNL A   1      46.661  29.360  25.997  1.00  0.00    -0.206 F 
ATOM     70  C   UNL A   1      48.601  28.161  26.540  1.00  0.00     0.059 A 
ATOM     71  C   UNL A   1      48.937  27.365  28.808  1.00  0.00     0.059 A 
ATOM     72  F   UNL A   1      47.296  27.760  30.436  1.00  0.00    -0.206 F 
ATOM     73  C   UNL A   1      49.366  27.477  27.486  1.00  0.00     0.060 A 
BRANCH  73  74
ATOM     74  S   UNL A   1      50.922  26.730  26.957  1.00  0.00     0.124 S 
ATOM     75  O   UNL A   1      51.896  27.669  27.510  1.00  0.00    -0.237 OA
ATOM     76  O   UNL A   1      50.876  25.420  27.596  1.00  0.00    -0.237 OA
ATOM     77  O   UNL A   1      50.818  26.720  25.501  1.00  0.00    -0.744 OA
ENDBRANCH  73  74
ENDBRANCH  52  66
BRANCH  53  78
ATOM     78  C   UNL A   1      37.876  32.376  30.570  1.00  0.00     0.058 A 
ATOM     79  C   UNL A   1      37.117  33.292  29.828  1.00  0.00     0.135 A 
ATOM     80  C   UNL A   1      37.373  32.075  31.846  1.00  0.00     0.135 A 
ATOM     81  F   UNL A   1      37.507  33.638  28.591  1.00  0.00    -0.206 F 
ATOM     82  C   UNL A   1      35.970  33.911  30.351  1.00  0.00     0.059 A 
ATOM     83  C   UNL A   1      36.239  32.663  32.394  1.00  0.00     0.059 A 
ATOM     84  F   UNL A   1      37.970  31.156  32.599  1.00  0.00    -0.206 F 
ATOM     85  C   UNL A   1      35.544  33.592  31.643  1.00  0.00     0.060 A 
BRANCH  85  86
ATOM     86  S   UNL A   1      34.087  34.394  32.348  1.00  0.00     0.124 S 
ATOM     87  O   UNL A   1      33.329  34.757  31.157  1.00  0.00    -0.237 OA
ATOM     88  O   UNL A   1      33.527  33.322  33.163  1.00  0.00    -0.237 OA
ATOM     89  O   UNL A   1      34.647  35.517  33.096  1.00  0.00    -0.744 OA
ENDBRANCH  85  86
ENDBRANCH  53  78
BRANCH  65  90
ATOM     90  C   UNL A   1      44.467  34.703  31.154  1.00  0.00     0.058 A 
ATOM     91  C   UNL A   1      45.038  34.856  32.424  1.00  0.00     0.135 A 
ATOM     92  C   UNL A   1      44.549  35.790  30.263  1.00  0.00     0.135 A 
ATOM     93  F   UNL A   1      44.986  33.853  33.314  1.00  0.00    -0.206 F 
ATOM     94  C   UNL A   1      45.671  36.041  32.797  1.00  0.00     0.059 A 
ATOM     95  C   UNL A   1      45.197  36.973  30.606  1.00  0.00     0.059 A 
ATOM     96  F   UNL A   1      44.031  35.691  29.029  1.00  0.00    -0.206 F 
ATOM     97  C   UNL A   1      45.753  37.092  31.878  1.00  0.00     0.060 A 
BRANCH  97  98
ATOM     98  S   UNL A   1      46.640  38.596  32.344  1.00  0.00     0.124 S 
ATOM     99  O   UNL A   1      46.832  39.239  31.049  1.00  0.00    -0.237 OA
ATOM    100  O   UNL A   1      45.695  39.250  33.244  1.00  0.00    -0.237 OA
ATOM    101  O   UNL A   1      47.854  38.092  32.980  1.00  0.00    -0.744 OA
ENDBRANCH  97  98
ENDBRANCH  65  90
ENDBRANCH  39  40
ENDBRANCH  32  34
ENDBRANCH  31  32
ENDBRANCH   1  31
TORSDOF 18
ENDMDL
MODEL 3
REMARK VINA RESULT:     -12.1      4.764     10.988
REMARK SMILES O=C(OCCOC(=O)c1ccc(-c2c3nc(c(-c4c(F)cc(S(=O)(=O)[O-])cc4F)c4ccc([nH]4)c(-c4c(F)cc(S(=O)(=O)[O-])cc4F)c4nc(c(-c5c(F)cc(S(=O)(=O)[O-])cc5F)c5ccc2[nH]5)C=C4)C=C3)cc1)C1=NN(c2ccc(S(=O)(=O)[O-])cc2)C(=O)/C1=C/Nc1ccccc1
REMARK SMILES IDX 5 1 4 2 3 3 2 4 1 5 75 6 76 7 90 8 77 9 88 10 91 11 89 12
REMARK SMILES IDX 78 13 79 14 87 15 80 16 86 17 81 18 82 19 83 20 84 21 85 22
REMARK SMILES IDX 92 23 93 25 94 26 98 27 95 28 97 29 96 30 6 31 7 32 8 33
REMARK SMILES IDX 9 34 10 35 74 36 11 37 73 38 12 39 13 40 14 41 67 42 15 43
REMARK SMILES IDX 72 44 66 45 68 46 16 47 71 48 65 49 64 50 17 52 51 53 30 54
REMARK SMILES IDX 50 55 31 56 34 57 49 58 69 59 32 60 33 61 48 63 70 64 35 65
REMARK SMILES IDX 18 66 19 67 28 68 20 69 21 70 27 71 29 72 22 73 23 74 24 75
REMARK SMILES IDX 25 76 26 77 52 78 53 79 62 80 54 81 55 82 61 83 63 84 56 85
REMARK SMILES IDX 57 86 58 87 59 88 60 89 36 90 37 91 46 92 38 93 39 94 45 95
REMARK SMILES IDX 47 96 40 97 41 98 42 99 43 100 44 101
REMARK H PARENT 92 24 68 51 34 62
REMARK Flexibility Score: inf
ROOT
ATOM      1  C   UNL A   1      37.223  32.188  33.884  1.00  0.00     0.275 C 
ENDROOT
BRANCH   1   2
ATOM      2  C   UNL A   1      36.229  33.375  33.921  1.00  0.00     0.275 C 
BRANCH   2   3
ATOM      3  O   UNL A   1      35.895  33.976  32.658  1.00  0.00    -0.457 OA
BRANCH   3   4
ATOM      4  C   UNL A   1      34.775  33.532  32.071  1.00  0.00     0.359 C 
ATOM      5  O   UNL A   1      33.687  33.499  32.624  1.00  0.00    -0.244 OA
BRANCH   4   6
ATOM      6  C   UNL A   1      34.934  33.219  30.600  1.00  0.00     0.183 C 
ATOM      7  N   UNL A   1      34.063  32.423  30.029  1.00  0.00    -0.157 NA
ATOM      8  C   UNL A   1      35.960  33.715  29.638  1.00  0.00     0.093 C 
ATOM      9  N   UNL A   1      34.444  32.343  28.710  1.00  0.00    -0.196 N 
ATOM     10  C   UNL A   1      35.461  33.218  28.333  1.00  0.00     0.282 C 
ATOM     11  C   UNL A   1      37.225  34.170  29.566  1.00  0.00     0.099 C 
ATOM     12  O   UNL A   1      35.949  33.443  27.241  1.00  0.00    -0.267 OA
BRANCH   9  13
ATOM     13  C   UNL A   1      34.081  31.197  27.987  1.00  0.00     0.069 A 
ATOM     14  C   UNL A   1      34.917  30.087  27.923  1.00  0.00     0.030 A 
ATOM     15  C   UNL A   1      32.860  31.190  27.297  1.00  0.00     0.030 A 
ATOM     16  C   UNL A   1      34.456  28.924  27.297  1.00  0.00     0.021 A 
ATOM     17  C   UNL A   1      32.452  30.073  26.581  1.00  0.00     0.021 A 
ATOM     18  C   UNL A   1      33.231  28.921  26.617  1.00  0.00     0.054 A 
BRANCH  18  19
ATOM     19  S   UNL A   1      32.542  27.425  25.946  1.00  0.00     0.124 S 
ATOM     20  O   UNL A   1      33.584  26.589  25.401  1.00  0.00    -0.237 OA
ATOM     21  O   UNL A   1      31.579  26.943  26.909  1.00  0.00    -0.237 OA
ATOM     22  O   UNL A   1      31.728  27.902  24.635  1.00  0.00    -0.744 OA
ENDBRANCH  18  19
ENDBRANCH   9  13
BRANCH  11  23
ATOM     23  N   UNL A   1      38.231  34.166  30.494  1.00  0.00    -0.361 N 
ATOM     24  H   UNL A   1      37.929  33.999  31.416  1.00  0.00     0.166 HD
BRANCH  23  25
ATOM     25  C   UNL A   1      39.616  34.356  30.369  1.00  0.00     0.038 A 
ATOM     26  C   UNL A   1      40.439  33.998  31.451  1.00  0.00     0.026 A 
ATOM     27  C   UNL A   1      40.212  34.943  29.253  1.00  0.00     0.026 A 
ATOM     28  C   UNL A   1      41.802  34.300  31.458  1.00  0.00     0.002 A 
ATOM     29  C   UNL A   1      41.578  35.251  29.257  1.00  0.00     0.002 A 
ATOM     30  C   UNL A   1      42.367  34.948  30.367  1.00  0.00     0.000 A 
ENDBRANCH  23  25
ENDBRANCH  11  23
ENDBRANCH   4   6
ENDBRANCH   3   4
ENDBRANCH   2   3
ENDBRANCH   1   2
BRANCH   1  31
ATOM     31  O   UNL A   1      37.752  32.028  32.539  1.00  0.00    -0.458 OA
BRANCH  31  32
ATOM     32  C   UNL A   1      37.405  30.918  31.846  1.00  0.00     0.338 C 
ATOM     33  O   UNL A   1      36.284  30.454  31.766  1.00  0.00    -0.246 OA
BRANCH  32  34
ATOM     34  C   UNL A   1      38.606  30.435  31.108  1.00  0.00     0.060 A 
ATOM     35  C   UNL A   1      39.628  29.839  31.849  1.00  0.00     0.016 A 
ATOM     36  C   UNL A   1      38.748  30.548  29.719  1.00  0.00     0.016 A 
ATOM     37  C   UNL A   1      40.808  29.406  31.223  1.00  0.00     0.010 A 
ATOM     38  C   UNL A   1      39.919  30.077  29.091  1.00  0.00     0.010 A 
ATOM     39  C   UNL A   1      40.986  29.533  29.835  1.00  0.00    -0.014 A 
BRANCH  39  40
ATOM     40  C   UNL A   1      42.318  29.229  29.196  1.00  0.00     0.031 A 
ATOM     41  C   UNL A   1      42.604  27.812  28.732  1.00  0.00     0.074 A 
ATOM     42  C   UNL A   1      43.248  30.188  28.971  1.00  0.00     0.049 A 
ATOM     43  N   UNL A   1      43.688  27.309  28.195  1.00  0.00    -0.248 NA
ATOM     44  C   UNL A   1      41.519  26.828  28.893  1.00  0.00     0.031 C 
ATOM     45  C   UNL A   1      43.095  31.604  29.311  1.00  0.00     0.029 A 
ATOM     46  N   UNL A   1      44.510  30.130  28.409  1.00  0.00    -0.354 N 
ATOM     47  C   UNL A   1      43.399  25.972  27.921  1.00  0.00     0.074 A 
ATOM     48  C   UNL A   1      42.081  25.713  28.450  1.00  0.00     0.031 C 
ATOM     49  C   UNL A   1      44.209  32.271  28.960  1.00  0.00     0.029 A 
ATOM     50  C   UNL A   1      45.196  31.333  28.430  1.00  0.00     0.049 A 
ATOM     51  H   UNL A   1      44.887  29.304  28.028  1.00  0.00     0.167 HD
ATOM     52  C   UNL A   1      44.132  25.057  27.238  1.00  0.00     0.037 A 
ATOM     53  C   UNL A   1      46.482  31.637  28.116  1.00  0.00     0.037 A 
ATOM     54  C   UNL A   1      45.434  25.323  26.686  1.00  0.00     0.049 A 
ATOM     55  C   UNL A   1      47.373  30.508  27.611  1.00  0.00     0.074 A 
ATOM     56  C   UNL A   1      46.230  24.493  25.915  1.00  0.00     0.029 A 
ATOM     57  N   UNL A   1      46.133  26.508  26.851  1.00  0.00    -0.354 N 
ATOM     58  N   UNL A   1      47.051  29.268  27.310  1.00  0.00    -0.248 NA
ATOM     59  C   UNL A   1      48.800  30.806  27.406  1.00  0.00     0.031 C 
ATOM     60  C   UNL A   1      47.437  25.154  25.669  1.00  0.00     0.029 A 
ATOM     61  C   UNL A   1      47.371  26.415  26.241  1.00  0.00     0.049 A 
ATOM     62  H   UNL A   1      45.799  27.299  27.332  1.00  0.00     0.167 HD
ATOM     63  C   UNL A   1      48.206  28.685  26.785  1.00  0.00     0.074 A 
ATOM     64  C   UNL A   1      49.249  29.681  26.864  1.00  0.00     0.031 C 
ATOM     65  C   UNL A   1      48.378  27.448  26.256  1.00  0.00     0.037 A 
BRANCH  52  66
ATOM     66  C   UNL A   1      43.532  23.690  27.018  1.00  0.00     0.058 A 
ATOM     67  C   UNL A   1      43.432  22.757  28.064  1.00  0.00     0.135 A 
ATOM     68  C   UNL A   1      43.013  23.319  25.766  1.00  0.00     0.135 A 
ATOM     69  F   UNL A   1      43.911  23.054  29.283  1.00  0.00    -0.206 F 
ATOM     70  C   UNL A   1      42.888  21.491  27.866  1.00  0.00     0.059 A 
ATOM     71  C   UNL A   1      42.435  22.068  25.553  1.00  0.00     0.059 A 
ATOM     72  F   UNL A   1      43.066  24.173  24.733  1.00  0.00    -0.206 F 
ATOM     73  C   UNL A   1      42.399  21.153  26.604  1.00  0.00     0.060 A 
BRANCH  73  74
ATOM     74  S   UNL A   1      41.725  19.496  26.357  1.00  0.00     0.124 S 
ATOM     75  O   UNL A   1      42.404  19.088  25.130  1.00  0.00    -0.237 OA
ATOM     76  O   UNL A   1      42.145  18.802  27.571  1.00  0.00    -0.237 OA
ATOM     77  O   UNL A   1      40.290  19.725  26.233  1.00  0.00    -0.744 OA
ENDBRANCH  73  74
ENDBRANCH  52  66
BRANCH  53  78
ATOM     78  C   UNL A   1      47.077  33.000  28.400  1.00  0.00     0.058 A 
ATOM     79  C   UNL A   1      47.181  34.023  27.445  1.00  0.00     0.135 A 
ATOM     80  C   UNL A   1      47.676  33.275  29.640  1.00  0.00     0.135 A 
ATOM     81  F   UNL A   1      46.632  33.864  26.231  1.00  0.00    -0.206 F 
ATOM     82  C   UNL A   1      47.889  35.211  27.695  1.00  0.00     0.059 A 
ATOM     83  C   UNL A   1      48.378  34.440  29.925  1.00  0.00     0.059 A 
ATOM     84  F   UNL A   1      47.563  32.407  30.641  1.00  0.00    -0.206 F 
ATOM     85  C   UNL A   1      48.491  35.405  28.941  1.00  0.00     0.060 A 
BRANCH  85  86
ATOM     86  S   UNL A   1      49.428  36.911  29.277  1.00  0.00     0.124 S 
ATOM     87  O   UNL A   1      50.126  37.128  28.015  1.00  0.00    -0.237 OA
ATOM     88  O   UNL A   1      48.363  37.857  29.591  1.00  0.00    -0.237 OA
ATOM     89  O   UNL A   1      50.280  36.538  30.403  1.00  0.00    -0.744 OA
ENDBRANCH  85  86
ENDBRANCH  53  78
BRANCH  65  90
ATOM     90  C   UNL A   1      49.682  27.137  25.567  1.00  0.00     0.058 A 
ATOM     91  C   UNL A   1      49.888  27.353  24.198  1.00  0.00     0.135 A 
ATOM     92  C   UNL A   1      50.782  26.714  26.336  1.00  0.00     0.135 A 
ATOM     93  F   UNL A   1      48.872  27.753  23.417  1.00  0.00    -0.206 F 
ATOM     94  C   UNL A   1      51.139  27.161  23.613  1.00  0.00     0.059 A 
ATOM     95  C   UNL A   1      52.045  26.539  25.778  1.00  0.00     0.059 A 
ATOM     96  F   UNL A   1      50.644  26.507  27.655  1.00  0.00    -0.206 F 
ATOM     97  C   UNL A   1      52.214  26.762  24.413  1.00  0.00     0.060 A 
BRANCH  97  98
ATOM     98  S   UNL A   1      53.847  26.587  23.660  1.00  0.00     0.124 S 
ATOM     99  O   UNL A   1      53.505  26.202  22.296  1.00  0.00    -0.237 OA
ATOM    100  O   UNL A   1      54.410  27.924  23.820  1.00  0.00    -0.237 OA
ATOM    101  O   UNL A   1      54.483  25.547  24.464  1.00  0.00    -0.744 OA
ENDBRANCH  97  98
ENDBRANCH  65  90
ENDBRANCH  39  40
ENDBRANCH  32  34
ENDBRANCH  31  32
ENDBRANCH   1  31
TORSDOF 18
ENDMDL
