MODEL 1
REMARK VINA RESULT:     -11.7      0.000      0.000
REMARK SMILES O=C(OCCOC(=O)[C@H]1CC(=O)N(Cc2ccc(OCc3ccccc3)cc2)C1)c1ccc(-c2c3nc(c(-c4c(F)cc(S(=O)(=O)[O-])cc4F)c4ccc([nH]4)c(-c4c(F)cc(S(=O)(=O)[O-])cc4F)c4nc(c(-c5c(F)cc(S(=O)(=O)[O-])cc5F)c5ccc2[nH]5)C=C4)C=C3)cc1
REMARK SMILES IDX 5 1 4 2 3 3 2 4 1 5 30 6 31 7 95 8 32 9 94 10 33 11 34 12
REMARK SMILES IDX 35 13 88 14 36 15 93 16 87 17 89 18 37 19 92 20 86 21 85 22
REMARK SMILES IDX 38 24 72 25 51 26 71 27 52 28 55 29 70 30 90 31 53 32 54 33
REMARK SMILES IDX 69 35 91 36 56 37 39 38 40 39 49 40 41 41 42 42 48 43 50 44
REMARK SMILES IDX 43 45 44 46 45 47 46 48 47 49 73 50 74 51 83 52 75 53 76 54
REMARK SMILES IDX 82 55 84 56 77 57 78 58 79 59 80 60 81 61 57 62 58 63 67 64
REMARK SMILES IDX 59 65 60 66 66 67 68 68 61 69 62 70 63 71 64 72 65 73 6 74
REMARK SMILES IDX 7 75 8 76 9 77 10 78 29 79 11 80 13 81 12 82 14 83 15 84
REMARK SMILES IDX 16 85 28 86 17 87 27 88 18 89 19 90 20 91 21 92 22 93 26 94
REMARK SMILES IDX 23 95 25 96 24 97
REMARK H PARENT 89 23 55 34
REMARK Flexibility Score: inf
ROOT
ATOM      1  C   UNL A   1      38.632  22.747  26.124  1.00  0.00     0.274 C 
ENDROOT
BRANCH   1   2
ATOM      2  C   UNL A   1      39.834  22.840  27.072  1.00  0.00     0.275 C 
BRANCH   2   3
ATOM      3  O   UNL A   1      41.022  23.400  26.492  1.00  0.00    -0.458 OA
BRANCH   3   4
ATOM      4  C   UNL A   1      41.455  24.683  26.461  1.00  0.00     0.338 C 
ATOM      5  O   UNL A   1      41.989  25.082  25.426  1.00  0.00    -0.246 OA
BRANCH   4   6
ATOM      6  C   UNL A   1      41.460  25.601  27.652  1.00  0.00     0.060 A 
ATOM      7  C   UNL A   1      42.497  26.452  28.049  1.00  0.00     0.016 A 
ATOM      8  C   UNL A   1      40.254  25.670  28.373  1.00  0.00     0.016 A 
ATOM      9  C   UNL A   1      42.288  27.461  28.998  1.00  0.00     0.010 A 
ATOM     10  C   UNL A   1      40.037  26.679  29.317  1.00  0.00     0.010 A 
ATOM     11  C   UNL A   1      41.043  27.614  29.601  1.00  0.00    -0.014 A 
BRANCH  11  12
ATOM     12  C   UNL A   1      40.815  28.660  30.623  1.00  0.00     0.031 A 
ATOM     13  C   UNL A   1      41.554  28.516  31.919  1.00  0.00     0.074 A 
ATOM     14  C   UNL A   1      39.969  29.692  30.417  1.00  0.00     0.049 A 
ATOM     15  N   UNL A   1      41.505  29.267  32.984  1.00  0.00    -0.248 NA
ATOM     16  C   UNL A   1      42.487  27.378  32.023  1.00  0.00     0.031 C 
ATOM     17  C   UNL A   1      39.237  29.976  29.181  1.00  0.00     0.029 A 
ATOM     18  N   UNL A   1      39.556  30.692  31.268  1.00  0.00    -0.354 N 
ATOM     19  C   UNL A   1      42.415  28.708  33.869  1.00  0.00     0.074 A 
ATOM     20  C   UNL A   1      42.944  27.514  33.256  1.00  0.00     0.031 C 
ATOM     21  C   UNL A   1      38.406  31.015  29.383  1.00  0.00     0.029 A 
ATOM     22  C   UNL A   1      38.548  31.482  30.754  1.00  0.00     0.049 A 
ATOM     23  H   UNL A   1      39.944  30.831  32.162  1.00  0.00     0.167 HD
ATOM     24  C   UNL A   1      42.811  29.182  35.069  1.00  0.00     0.037 A 
ATOM     25  C   UNL A   1      37.825  32.457  31.340  1.00  0.00     0.037 A 
ATOM     26  C   UNL A   1      42.279  30.370  35.669  1.00  0.00     0.049 A 
ATOM     27  C   UNL A   1      38.202  32.887  32.730  1.00  0.00     0.074 A 
ATOM     28  C   UNL A   1      42.643  30.970  36.858  1.00  0.00     0.029 A 
ATOM     29  N   UNL A   1      41.250  31.127  35.128  1.00  0.00    -0.354 N 
ATOM     30  N   UNL A   1      39.137  32.410  33.515  1.00  0.00    -0.248 NA
ATOM     31  C   UNL A   1      37.461  34.026  33.292  1.00  0.00     0.031 C 
ATOM     32  C   UNL A   1      41.792  32.060  37.068  1.00  0.00     0.029 A 
ATOM     33  C   UNL A   1      40.937  32.168  35.982  1.00  0.00     0.049 A 
ATOM     34  H   UNL A   1      40.809  30.951  34.266  1.00  0.00     0.167 HD
ATOM     35  C   UNL A   1      39.123  33.213  34.647  1.00  0.00     0.074 A 
ATOM     36  C   UNL A   1      38.092  34.209  34.443  1.00  0.00     0.031 C 
ATOM     37  C   UNL A   1      39.903  33.143  35.751  1.00  0.00     0.037 A 
BRANCH  24  38
ATOM     38  C   UNL A   1      43.872  28.413  35.791  1.00  0.00     0.058 A 
ATOM     39  C   UNL A   1      43.544  27.398  36.705  1.00  0.00     0.135 A 
ATOM     40  C   UNL A   1      45.229  28.684  35.561  1.00  0.00     0.135 A 
ATOM     41  F   UNL A   1      42.259  27.128  36.987  1.00  0.00    -0.206 F 
ATOM     42  C   UNL A   1      44.528  26.681  37.373  1.00  0.00     0.059 A 
ATOM     43  C   UNL A   1      46.230  27.962  36.200  1.00  0.00     0.059 A 
ATOM     44  F   UNL A   1      45.589  29.660  34.714  1.00  0.00    -0.206 F 
ATOM     45  C   UNL A   1      45.869  26.965  37.107  1.00  0.00     0.060 A 
BRANCH  45  46
ATOM     46  S   UNL A   1      47.132  25.991  37.948  1.00  0.00     0.124 S 
ATOM     47  O   UNL A   1      46.864  26.310  39.347  1.00  0.00    -0.237 OA
ATOM     48  O   UNL A   1      46.799  24.631  37.534  1.00  0.00    -0.237 OA
ATOM     49  O   UNL A   1      48.382  26.519  37.412  1.00  0.00    -0.744 OA
ENDBRANCH  45  46
ENDBRANCH  24  38
BRANCH  25  50
ATOM     50  C   UNL A   1      36.673  33.119  30.667  1.00  0.00     0.058 A 
ATOM     51  C   UNL A   1      36.863  34.098  29.682  1.00  0.00     0.135 A 
ATOM     52  C   UNL A   1      35.359  32.874  31.095  1.00  0.00     0.135 A 
ATOM     53  F   UNL A   1      38.103  34.405  29.273  1.00  0.00    -0.206 F 
ATOM     54  C   UNL A   1      35.793  34.811  29.143  1.00  0.00     0.059 A 
ATOM     55  C   UNL A   1      34.271  33.564  30.561  1.00  0.00     0.059 A 
ATOM     56  F   UNL A   1      35.121  31.944  32.032  1.00  0.00    -0.206 F 
ATOM     57  C   UNL A   1      34.499  34.536  29.588  1.00  0.00     0.060 A 
BRANCH  57  58
ATOM     58  S   UNL A   1      33.103  35.406  28.834  1.00  0.00     0.124 S 
ATOM     59  O   UNL A   1      32.462  34.335  28.081  1.00  0.00    -0.237 OA
ATOM     60  O   UNL A   1      32.370  35.890  30.000  1.00  0.00    -0.237 OA
ATOM     61  O   UNL A   1      33.752  36.442  28.036  1.00  0.00    -0.744 OA
ENDBRANCH  57  58
ENDBRANCH  25  50
BRANCH  37  62
ATOM     62  C   UNL A   1      39.688  34.184  36.807  1.00  0.00     0.058 A 
ATOM     63  C   UNL A   1      38.932  33.914  37.957  1.00  0.00     0.135 A 
ATOM     64  C   UNL A   1      40.303  35.440  36.695  1.00  0.00     0.135 A 
ATOM     65  F   UNL A   1      38.315  32.731  38.099  1.00  0.00    -0.206 F 
ATOM     66  C   UNL A   1      38.781  34.864  38.958  1.00  0.00     0.059 A 
ATOM     67  C   UNL A   1      40.193  36.393  37.699  1.00  0.00     0.059 A 
ATOM     68  F   UNL A   1      41.039  35.741  35.614  1.00  0.00    -0.206 F 
ATOM     69  C   UNL A   1      39.423  36.097  38.824  1.00  0.00     0.060 A 
BRANCH  69  70
ATOM     70  S   UNL A   1      39.272  37.297  40.163  1.00  0.00     0.124 S 
ATOM     71  O   UNL A   1      38.589  36.511  41.184  1.00  0.00    -0.237 OA
ATOM     72  O   UNL A   1      40.665  37.628  40.442  1.00  0.00    -0.237 OA
ATOM     73  O   UNL A   1      38.485  38.373  39.567  1.00  0.00    -0.744 OA
ENDBRANCH  69  70
ENDBRANCH  37  62
ENDBRANCH  11  12
ENDBRANCH   4   6
ENDBRANCH   3   4
ENDBRANCH   2   3
ENDBRANCH   1   2
BRANCH   1  74
ATOM     74  O   UNL A   1      38.591  21.529  25.357  1.00  0.00    -0.462 OA
BRANCH  74  75
ATOM     75  C   UNL A   1      37.355  21.074  25.029  1.00  0.00     0.311 C 
ATOM     76  O   UNL A   1      37.077  19.886  24.892  1.00  0.00    -0.252 OA
BRANCH  75  77
ATOM     77  C   UNL A   1      36.344  22.160  24.754  1.00  0.00     0.128 C 
ATOM     78  C   UNL A   1      36.292  22.788  23.379  1.00  0.00     0.117 C 
ATOM     79  C   UNL A   1      34.954  21.586  24.915  1.00  0.00     0.135 C 
ATOM     80  C   UNL A   1      34.849  23.174  23.198  1.00  0.00     0.223 C 
ATOM     81  N   UNL A   1      34.112  22.409  24.081  1.00  0.00    -0.337 N 
ATOM     82  O   UNL A   1      34.439  23.996  22.402  1.00  0.00    -0.275 OA
BRANCH  81  83
ATOM     83  C   UNL A   1      32.654  22.439  24.166  1.00  0.00     0.155 C 
BRANCH  83  84
ATOM     84  C   UNL A   1      32.139  23.712  24.793  1.00  0.00    -0.028 A 
ATOM     85  C   UNL A   1      32.713  24.209  25.964  1.00  0.00     0.009 A 
ATOM     86  C   UNL A   1      31.126  24.462  24.189  1.00  0.00     0.009 A 
ATOM     87  C   UNL A   1      32.384  25.479  26.442  1.00  0.00     0.047 A 
ATOM     88  C   UNL A   1      30.814  25.742  24.649  1.00  0.00     0.047 A 
ATOM     89  C   UNL A   1      31.495  26.283  25.735  1.00  0.00     0.119 A 
BRANCH  89  90
ATOM     90  O   UNL A   1      31.372  27.567  26.186  1.00  0.00    -0.489 OA
BRANCH  90  91
ATOM     91  C   UNL A   1      32.113  28.582  25.505  1.00  0.00     0.265 C 
BRANCH  91  92
ATOM     92  C   UNL A   1      33.112  29.300  26.392  1.00  0.00    -0.011 A 
ATOM     93  C   UNL A   1      32.836  30.573  26.914  1.00  0.00     0.007 A 
ATOM     94  C   UNL A   1      34.351  28.712  26.681  1.00  0.00     0.007 A 
ATOM     95  C   UNL A   1      33.778  31.248  27.692  1.00  0.00     0.000 A 
ATOM     96  C   UNL A   1      35.286  29.379  27.475  1.00  0.00     0.000 A 
ATOM     97  C   UNL A   1      35.003  30.648  27.975  1.00  0.00     0.000 A 
ENDBRANCH  91  92
ENDBRANCH  90  91
ENDBRANCH  89  90
ENDBRANCH  83  84
ENDBRANCH  81  83
ENDBRANCH  75  77
ENDBRANCH  74  75
ENDBRANCH   1  74
TORSDOF 19
ENDMDL
MODEL 2
REMARK VINA RESULT:     -11.2      6.468     12.286
REMARK SMILES O=C(OCCOC(=O)[C@H]1CC(=O)N(Cc2ccc(OCc3ccccc3)cc2)C1)c1ccc(-c2c3nc(c(-c4c(F)cc(S(=O)(=O)[O-])cc4F)c4ccc([nH]4)c(-c4c(F)cc(S(=O)(=O)[O-])cc4F)c4nc(c(-c5c(F)cc(S(=O)(=O)[O-])cc5F)c5ccc2[nH]5)C=C4)C=C3)cc1
REMARK SMILES IDX 5 1 4 2 3 3 2 4 1 5 30 6 31 7 95 8 32 9 94 10 33 11 34 12
REMARK SMILES IDX 35 13 88 14 36 15 93 16 87 17 89 18 37 19 92 20 86 21 85 22
REMARK SMILES IDX 38 24 72 25 51 26 71 27 52 28 55 29 70 30 90 31 53 32 54 33
REMARK SMILES IDX 69 35 91 36 56 37 39 38 40 39 49 40 41 41 42 42 48 43 50 44
REMARK SMILES IDX 43 45 44 46 45 47 46 48 47 49 73 50 74 51 83 52 75 53 76 54
REMARK SMILES IDX 82 55 84 56 77 57 78 58 79 59 80 60 81 61 57 62 58 63 67 64
REMARK SMILES IDX 59 65 60 66 66 67 68 68 61 69 62 70 63 71 64 72 65 73 6 74
REMARK SMILES IDX 7 75 8 76 9 77 10 78 29 79 11 80 13 81 12 82 14 83 15 84
REMARK SMILES IDX 16 85 28 86 17 87 27 88 18 89 19 90 20 91 21 92 22 93 26 94
REMARK SMILES IDX 23 95 25 96 24 97
REMARK H PARENT 89 23 55 34
REMARK Flexibility Score: inf
ROOT
ATOM      1  C   UNL A   1      33.520  30.973  27.589  1.00  0.00     0.274 C 
ENDROOT
BRANCH   1   2
ATOM      2  C   UNL A   1      35.000  31.206  27.917  1.00  0.00     0.275 C 
BRANCH   2   3
ATOM      3  O   UNL A   1      35.495  30.467  29.043  1.00  0.00    -0.458 OA
BRANCH   3   4
ATOM      4  C   UNL A   1      36.480  30.773  29.921  1.00  0.00     0.338 C 
ATOM      5  O   UNL A   1      36.165  31.377  30.946  1.00  0.00    -0.246 OA
BRANCH   4   6
ATOM      6  C   UNL A   1      37.944  30.556  29.657  1.00  0.00     0.060 A 
ATOM      7  C   UNL A   1      38.977  30.572  30.602  1.00  0.00     0.016 A 
ATOM      8  C   UNL A   1      38.280  30.207  28.337  1.00  0.00     0.016 A 
ATOM      9  C   UNL A   1      40.252  30.082  30.294  1.00  0.00     0.010 A 
ATOM     10  C   UNL A   1      39.550  29.711  28.024  1.00  0.00     0.010 A 
ATOM     11  C   UNL A   1      40.533  29.600  29.018  1.00  0.00    -0.014 A 
BRANCH  11  12
ATOM     12  C   UNL A   1      41.883  29.101  28.673  1.00  0.00     0.031 A 
ATOM     13  C   UNL A   1      42.967  30.126  28.518  1.00  0.00     0.074 A 
ATOM     14  C   UNL A   1      42.137  27.789  28.484  1.00  0.00     0.049 A 
ATOM     15  N   UNL A   1      44.216  29.960  28.186  1.00  0.00    -0.248 NA
ATOM     16  C   UNL A   1      42.593  31.527  28.790  1.00  0.00     0.031 C 
ATOM     17  C   UNL A   1      41.184  26.691  28.661  1.00  0.00     0.029 A 
ATOM     18  N   UNL A   1      43.283  27.151  28.069  1.00  0.00    -0.354 N 
ATOM     19  C   UNL A   1      44.780  31.226  28.234  1.00  0.00     0.074 A 
ATOM     20  C   UNL A   1      43.727  32.162  28.547  1.00  0.00     0.031 C 
ATOM     21  C   UNL A   1      41.757  25.536  28.274  1.00  0.00     0.029 A 
ATOM     22  C   UNL A   1      43.117  25.802  27.831  1.00  0.00     0.049 A 
ATOM     23  H   UNL A   1      44.143  27.615  27.951  1.00  0.00     0.167 HD
ATOM     24  C   UNL A   1      46.076  31.570  28.079  1.00  0.00     0.037 A 
ATOM     25  C   UNL A   1      43.971  24.902  27.303  1.00  0.00     0.037 A 
ATOM     26  C   UNL A   1      47.115  30.632  27.768  1.00  0.00     0.049 A 
ATOM     27  C   UNL A   1      45.382  25.338  27.020  1.00  0.00     0.074 A 
ATOM     28  C   UNL A   1      48.470  30.862  27.639  1.00  0.00     0.029 A 
ATOM     29  N   UNL A   1      46.903  29.284  27.517  1.00  0.00    -0.354 N 
ATOM     30  N   UNL A   1      45.924  26.522  27.168  1.00  0.00    -0.248 NA
ATOM     31  C   UNL A   1      46.311  24.300  26.549  1.00  0.00     0.031 C 
ATOM     32  C   UNL A   1      49.074  29.662  27.249  1.00  0.00     0.029 A 
ATOM     33  C   UNL A   1      48.102  28.676  27.191  1.00  0.00     0.049 A 
ATOM     34  H   UNL A   1      46.032  28.829  27.563  1.00  0.00     0.167 HD
ATOM     35  C   UNL A   1      47.264  26.364  26.846  1.00  0.00     0.074 A 
ATOM     36  C   UNL A   1      47.453  24.970  26.501  1.00  0.00     0.031 C 
ATOM     37  C   UNL A   1      48.256  27.286  26.850  1.00  0.00     0.037 A 
BRANCH  24  38
ATOM     38  C   UNL A   1      46.426  33.013  28.256  1.00  0.00     0.058 A 
ATOM     39  C   UNL A   1      46.831  33.520  29.502  1.00  0.00     0.135 A 
ATOM     40  C   UNL A   1      46.369  33.898  27.169  1.00  0.00     0.135 A 
ATOM     41  F   UNL A   1      46.865  32.720  30.580  1.00  0.00    -0.206 F 
ATOM     42  C   UNL A   1      47.161  34.858  29.666  1.00  0.00     0.059 A 
ATOM     43  C   UNL A   1      46.718  35.237  27.306  1.00  0.00     0.059 A 
ATOM     44  F   UNL A   1      45.965  33.464  25.965  1.00  0.00    -0.206 F 
ATOM     45  C   UNL A   1      47.109  35.707  28.559  1.00  0.00     0.060 A 
BRANCH  45  46
ATOM     46  S   UNL A   1      47.586  37.432  28.782  1.00  0.00     0.124 S 
ATOM     47  O   UNL A   1      47.584  37.551  30.237  1.00  0.00    -0.237 OA
ATOM     48  O   UNL A   1      48.899  37.474  28.145  1.00  0.00    -0.237 OA
ATOM     49  O   UNL A   1      46.533  38.169  28.091  1.00  0.00    -0.744 OA
ENDBRANCH  45  46
ENDBRANCH  24  38
BRANCH  25  50
ATOM     50  C   UNL A   1      43.572  23.501  26.993  1.00  0.00     0.058 A 
ATOM     51  C   UNL A   1      43.257  23.100  25.687  1.00  0.00     0.135 A 
ATOM     52  C   UNL A   1      43.375  22.570  28.024  1.00  0.00     0.135 A 
ATOM     53  F   UNL A   1      43.382  23.967  24.671  1.00  0.00    -0.206 F 
ATOM     54  C   UNL A   1      42.761  21.827  25.412  1.00  0.00     0.059 A 
ATOM     55  C   UNL A   1      42.893  21.286  27.774  1.00  0.00     0.059 A 
ATOM     56  F   UNL A   1      43.665  22.901  29.291  1.00  0.00    -0.206 F 
ATOM     57  C   UNL A   1      42.582  20.924  26.463  1.00  0.00     0.060 A 
BRANCH  57  58
ATOM     58  S   UNL A   1      42.010  19.247  26.099  1.00  0.00     0.124 S 
ATOM     59  O   UNL A   1      42.764  18.937  24.889  1.00  0.00    -0.237 OA
ATOM     60  O   UNL A   1      42.404  18.515  27.298  1.00  0.00    -0.237 OA
ATOM     61  O   UNL A   1      40.571  19.420  25.922  1.00  0.00    -0.744 OA
ENDBRANCH  57  58
ENDBRANCH  25  50
BRANCH  37  62
ATOM     62  C   UNL A   1      49.632  26.812  26.495  1.00  0.00     0.058 A 
ATOM     63  C   UNL A   1      50.419  26.098  27.410  1.00  0.00     0.135 A 
ATOM     64  C   UNL A   1      50.138  27.018  25.202  1.00  0.00     0.135 A 
ATOM     65  F   UNL A   1      49.982  25.890  28.661  1.00  0.00    -0.206 F 
ATOM     66  C   UNL A   1      51.672  25.614  27.058  1.00  0.00     0.059 A 
ATOM     67  C   UNL A   1      51.373  26.515  24.818  1.00  0.00     0.059 A 
ATOM     68  F   UNL A   1      49.418  27.693  24.292  1.00  0.00    -0.206 F 
ATOM     69  C   UNL A   1      52.136  25.820  25.757  1.00  0.00     0.060 A 
BRANCH  69  70
ATOM     70  S   UNL A   1      53.737  25.129  25.295  1.00  0.00     0.124 S 
ATOM     71  O   UNL A   1      53.831  25.521  23.893  1.00  0.00    -0.237 OA
ATOM     72  O   UNL A   1      54.645  25.813  26.208  1.00  0.00    -0.237 OA
ATOM     73  O   UNL A   1      53.572  23.699  25.538  1.00  0.00    -0.744 OA
ENDBRANCH  69  70
ENDBRANCH  37  62
ENDBRANCH  11  12
ENDBRANCH   4   6
ENDBRANCH   3   4
ENDBRANCH   2   3
ENDBRANCH   1   2
BRANCH   1  74
ATOM     74  O   UNL A   1      33.304  30.052  26.504  1.00  0.00    -0.462 OA
BRANCH  74  75
ATOM     75  C   UNL A   1      32.131  30.186  25.834  1.00  0.00     0.311 C 
ATOM     76  O   UNL A   1      31.385  31.154  25.944  1.00  0.00    -0.252 OA
BRANCH  75  77
ATOM     77  C   UNL A   1      31.758  28.991  24.989  1.00  0.00     0.128 C 
ATOM     78  C   UNL A   1      30.756  29.165  23.869  1.00  0.00     0.117 C 
ATOM     79  C   UNL A   1      32.992  28.499  24.266  1.00  0.00     0.135 C 
ATOM     80  C   UNL A   1      31.170  28.150  22.837  1.00  0.00     0.223 C 
ATOM     81  N   UNL A   1      32.491  27.836  23.086  1.00  0.00    -0.337 N 
ATOM     82  O   UNL A   1      30.455  27.721  21.953  1.00  0.00    -0.275 OA
BRANCH  81  83
ATOM     83  C   UNL A   1      33.284  26.931  22.257  1.00  0.00     0.155 C 
BRANCH  83  84
ATOM     84  C   UNL A   1      33.285  25.517  22.786  1.00  0.00    -0.028 A 
ATOM     85  C   UNL A   1      34.411  25.001  23.430  1.00  0.00     0.009 A 
ATOM     86  C   UNL A   1      32.145  24.711  22.709  1.00  0.00     0.009 A 
ATOM     87  C   UNL A   1      34.358  23.774  24.096  1.00  0.00     0.047 A 
ATOM     88  C   UNL A   1      32.081  23.497  23.395  1.00  0.00     0.047 A 
ATOM     89  C   UNL A   1      33.165  23.060  24.151  1.00  0.00     0.119 A 
BRANCH  89  90
ATOM     90  O   UNL A   1      33.169  21.965  24.968  1.00  0.00    -0.489 OA
BRANCH  90  91
ATOM     91  C   UNL A   1      32.160  20.976  24.754  1.00  0.00     0.265 C 
BRANCH  91  92
ATOM     92  C   UNL A   1      32.701  19.667  24.210  1.00  0.00    -0.011 A 
ATOM     93  C   UNL A   1      33.726  18.974  24.872  1.00  0.00     0.007 A 
ATOM     94  C   UNL A   1      32.204  19.141  23.010  1.00  0.00     0.007 A 
ATOM     95  C   UNL A   1      34.251  17.794  24.343  1.00  0.00     0.000 A 
ATOM     96  C   UNL A   1      32.716  17.951  22.490  1.00  0.00     0.000 A 
ATOM     97  C   UNL A   1      33.743  17.281  23.152  1.00  0.00     0.000 A 
ENDBRANCH  91  92
ENDBRANCH  90  91
ENDBRANCH  89  90
ENDBRANCH  83  84
ENDBRANCH  81  83
ENDBRANCH  75  77
ENDBRANCH  74  75
ENDBRANCH   1  74
TORSDOF 19
ENDMDL
MODEL 3
REMARK VINA RESULT:     -11.2      1.412      2.469
REMARK SMILES O=C(OCCOC(=O)[C@H]1CC(=O)N(Cc2ccc(OCc3ccccc3)cc2)C1)c1ccc(-c2c3nc(c(-c4c(F)cc(S(=O)(=O)[O-])cc4F)c4ccc([nH]4)c(-c4c(F)cc(S(=O)(=O)[O-])cc4F)c4nc(c(-c5c(F)cc(S(=O)(=O)[O-])cc5F)c5ccc2[nH]5)C=C4)C=C3)cc1
REMARK SMILES IDX 5 1 4 2 3 3 2 4 1 5 30 6 31 7 95 8 32 9 94 10 33 11 34 12
REMARK SMILES IDX 35 13 88 14 36 15 93 16 87 17 89 18 37 19 92 20 86 21 85 22
REMARK SMILES IDX 38 24 72 25 51 26 71 27 52 28 55 29 70 30 90 31 53 32 54 33
REMARK SMILES IDX 69 35 91 36 56 37 39 38 40 39 49 40 41 41 42 42 48 43 50 44
REMARK SMILES IDX 43 45 44 46 45 47 46 48 47 49 73 50 74 51 83 52 75 53 76 54
REMARK SMILES IDX 82 55 84 56 77 57 78 58 79 59 80 60 81 61 57 62 58 63 67 64
REMARK SMILES IDX 59 65 60 66 66 67 68 68 61 69 62 70 63 71 64 72 65 73 6 74
REMARK SMILES IDX 7 75 8 76 9 77 10 78 29 79 11 80 13 81 12 82 14 83 15 84
REMARK SMILES IDX 16 85 28 86 17 87 27 88 18 89 19 90 20 91 21 92 22 93 26 94
REMARK SMILES IDX 23 95 25 96 24 97
REMARK H PARENT 89 23 55 34
REMARK Flexibility Score: inf
ROOT
ATOM      1  C   UNL A   1      40.051  21.561  26.903  1.00  0.00     0.274 C 
ENDROOT
BRANCH   1   2
ATOM      2  C   UNL A   1      41.478  22.120  26.925  1.00  0.00     0.275 C 
BRANCH   2   3
ATOM      3  O   UNL A   1      41.647  23.379  26.257  1.00  0.00    -0.458 OA
BRANCH   3   4
ATOM      4  C   UNL A   1      42.365  24.469  26.620  1.00  0.00     0.338 C 
ATOM      5  O   UNL A   1      43.555  24.499  26.308  1.00  0.00    -0.246 OA
BRANCH   4   6
ATOM      6  C   UNL A   1      41.842  25.569  27.501  1.00  0.00     0.060 A 
ATOM      7  C   UNL A   1      40.661  25.551  28.252  1.00  0.00     0.016 A 
ATOM      8  C   UNL A   1      42.687  26.684  27.649  1.00  0.00     0.016 A 
ATOM      9  C   UNL A   1      40.418  26.506  29.248  1.00  0.00     0.010 A 
ATOM     10  C   UNL A   1      42.452  27.638  28.645  1.00  0.00     0.010 A 
ATOM     11  C   UNL A   1      41.336  27.526  29.486  1.00  0.00    -0.014 A 
BRANCH  11  12
ATOM     12  C   UNL A   1      41.079  28.555  30.519  1.00  0.00     0.031 A 
ATOM     13  C   UNL A   1      41.831  28.424  31.810  1.00  0.00     0.074 A 
ATOM     14  C   UNL A   1      40.198  29.560  30.327  1.00  0.00     0.049 A 
ATOM     15  N   UNL A   1      41.763  29.163  32.881  1.00  0.00    -0.248 NA
ATOM     16  C   UNL A   1      42.801  27.317  31.898  1.00  0.00     0.031 C 
ATOM     17  C   UNL A   1      39.450  29.829  29.098  1.00  0.00     0.029 A 
ATOM     18  N   UNL A   1      39.758  30.538  31.189  1.00  0.00    -0.354 N 
ATOM     19  C   UNL A   1      42.696  28.628  33.756  1.00  0.00     0.074 A 
ATOM     20  C   UNL A   1      43.261  27.457  33.129  1.00  0.00     0.031 C 
ATOM     21  C   UNL A   1      38.586  30.839  29.314  1.00  0.00     0.029 A 
ATOM     22  C   UNL A   1      38.721  31.298  30.688  1.00  0.00     0.049 A 
ATOM     23  H   UNL A   1      40.146  30.682  32.082  1.00  0.00     0.167 HD
ATOM     24  C   UNL A   1      43.083  29.104  34.958  1.00  0.00     0.037 A 
ATOM     25  C   UNL A   1      37.969  32.243  31.287  1.00  0.00     0.037 A 
ATOM     26  C   UNL A   1      42.515  30.269  35.572  1.00  0.00     0.049 A 
ATOM     27  C   UNL A   1      38.340  32.674  32.679  1.00  0.00     0.074 A 
ATOM     28  C   UNL A   1      42.866  30.870  36.764  1.00  0.00     0.029 A 
ATOM     29  N   UNL A   1      41.459  30.996  35.043  1.00  0.00    -0.354 N 
ATOM     30  N   UNL A   1      39.295  32.221  33.454  1.00  0.00    -0.248 NA
ATOM     31  C   UNL A   1      37.564  33.783  33.255  1.00  0.00     0.031 C 
ATOM     32  C   UNL A   1      41.981  31.929  36.988  1.00  0.00     0.029 A 
ATOM     33  C   UNL A   1      41.116  32.018  35.909  1.00  0.00     0.049 A 
ATOM     34  H   UNL A   1      41.019  30.812  34.183  1.00  0.00     0.167 HD
ATOM     35  C   UNL A   1      39.261  33.014  34.593  1.00  0.00     0.074 A 
ATOM     36  C   UNL A   1      38.196  33.977  34.403  1.00  0.00     0.031 C 
ATOM     37  C   UNL A   1      40.049  32.960  35.692  1.00  0.00     0.037 A 
BRANCH  24  38
ATOM     38  C   UNL A   1      44.173  28.364  35.668  1.00  0.00     0.058 A 
ATOM     39  C   UNL A   1      45.527  28.628  35.402  1.00  0.00     0.135 A 
ATOM     40  C   UNL A   1      43.864  27.392  36.629  1.00  0.00     0.135 A 
ATOM     41  F   UNL A   1      45.872  29.523  34.463  1.00  0.00    -0.206 F 
ATOM     42  C   UNL A   1      46.540  27.945  36.064  1.00  0.00     0.059 A 
ATOM     43  C   UNL A   1      44.862  26.714  37.321  1.00  0.00     0.059 A 
ATOM     44  F   UNL A   1      42.585  27.090  36.899  1.00  0.00    -0.206 F 
ATOM     45  C   UNL A   1      46.196  26.996  37.027  1.00  0.00     0.060 A 
BRANCH  45  46
ATOM     46  S   UNL A   1      47.525  26.154  37.909  1.00  0.00     0.124 S 
ATOM     47  O   UNL A   1      47.877  25.096  36.967  1.00  0.00    -0.237 OA
ATOM     48  O   UNL A   1      48.513  27.217  38.066  1.00  0.00    -0.237 OA
ATOM     49  O   UNL A   1      46.886  25.708  39.143  1.00  0.00    -0.744 OA
ENDBRANCH  45  46
ENDBRANCH  24  38
BRANCH  25  50
ATOM     50  C   UNL A   1      36.792  32.873  30.626  1.00  0.00     0.058 A 
ATOM     51  C   UNL A   1      36.943  33.850  29.633  1.00  0.00     0.135 A 
ATOM     52  C   UNL A   1      35.491  32.598  31.074  1.00  0.00     0.135 A 
ATOM     53  F   UNL A   1      38.170  34.185  29.205  1.00  0.00    -0.206 F 
ATOM     54  C   UNL A   1      35.849  34.533  29.104  1.00  0.00     0.059 A 
ATOM     55  C   UNL A   1      34.378  33.257  30.551  1.00  0.00     0.059 A 
ATOM     56  F   UNL A   1      35.288  31.668  32.019  1.00  0.00    -0.206 F 
ATOM     57  C   UNL A   1      34.568  34.229  29.569  1.00  0.00     0.060 A 
BRANCH  57  58
ATOM     58  S   UNL A   1      33.141  35.059  28.830  1.00  0.00     0.124 S 
ATOM     59  O   UNL A   1      32.311  35.314  30.002  1.00  0.00    -0.237 OA
ATOM     60  O   UNL A   1      33.748  36.234  28.213  1.00  0.00    -0.237 OA
ATOM     61  O   UNL A   1      32.627  34.063  27.895  1.00  0.00    -0.744 OA
ENDBRANCH  57  58
ENDBRANCH  25  50
BRANCH  37  62
ATOM     62  C   UNL A   1      39.806  33.983  36.759  1.00  0.00     0.058 A 
ATOM     63  C   UNL A   1      38.954  33.724  37.842  1.00  0.00     0.135 A 
ATOM     64  C   UNL A   1      40.487  35.210  36.728  1.00  0.00     0.135 A 
ATOM     65  F   UNL A   1      38.271  32.571  37.904  1.00  0.00    -0.206 F 
ATOM     66  C   UNL A   1      38.774  34.655  38.855  1.00  0.00     0.059 A 
ATOM     67  C   UNL A   1      40.348  36.142  37.748  1.00  0.00     0.059 A 
ATOM     68  F   UNL A   1      41.316  35.500  35.713  1.00  0.00    -0.206 F 
ATOM     69  C   UNL A   1      39.483  35.857  38.804  1.00  0.00     0.060 A 
BRANCH  69  70
ATOM     70  S   UNL A   1      39.289  37.029  40.161  1.00  0.00     0.124 S 
ATOM     71  O   UNL A   1      38.558  36.229  41.137  1.00  0.00    -0.237 OA
ATOM     72  O   UNL A   1      40.674  37.340  40.503  1.00  0.00    -0.237 OA
ATOM     73  O   UNL A   1      38.538  38.126  39.558  1.00  0.00    -0.744 OA
ENDBRANCH  69  70
ENDBRANCH  37  62
ENDBRANCH  11  12
ENDBRANCH   4   6
ENDBRANCH   3   4
ENDBRANCH   2   3
ENDBRANCH   1   2
BRANCH   1  74
ATOM     74  O   UNL A   1      39.291  21.957  25.747  1.00  0.00    -0.462 OA
BRANCH  74  75
ATOM     75  C   UNL A   1      38.279  22.834  25.972  1.00  0.00     0.311 C 
ATOM     76  O   UNL A   1      38.335  23.751  26.787  1.00  0.00    -0.252 OA
BRANCH  75  77
ATOM     77  C   UNL A   1      37.019  22.545  25.191  1.00  0.00     0.128 C 
ATOM     78  C   UNL A   1      36.475  21.134  25.167  1.00  0.00     0.117 C 
ATOM     79  C   UNL A   1      35.879  23.336  25.794  1.00  0.00     0.135 C 
ATOM     80  C   UNL A   1      34.986  21.310  25.034  1.00  0.00     0.223 C 
ATOM     81  N   UNL A   1      34.691  22.591  25.458  1.00  0.00    -0.337 N 
ATOM     82  O   UNL A   1      34.214  20.458  24.639  1.00  0.00    -0.275 OA
BRANCH  81  83
ATOM     83  C   UNL A   1      33.335  23.128  25.545  1.00  0.00     0.155 C 
BRANCH  83  84
ATOM     84  C   UNL A   1      33.195  24.457  24.842  1.00  0.00    -0.028 A 
ATOM     85  C   UNL A   1      33.110  24.518  23.451  1.00  0.00     0.009 A 
ATOM     86  C   UNL A   1      33.078  25.651  25.561  1.00  0.00     0.009 A 
ATOM     87  C   UNL A   1      32.782  25.712  22.803  1.00  0.00     0.047 A 
ATOM     88  C   UNL A   1      32.725  26.839  24.919  1.00  0.00     0.047 A 
ATOM     89  C   UNL A   1      32.505  26.856  23.545  1.00  0.00     0.119 A 
BRANCH  89  90
ATOM     90  O   UNL A   1      32.026  27.920  22.834  1.00  0.00    -0.489 OA
BRANCH  90  91
ATOM     91  C   UNL A   1      31.552  29.049  23.570  1.00  0.00     0.265 C 
BRANCH  91  92
ATOM     92  C   UNL A   1      30.060  29.280  23.429  1.00  0.00    -0.011 A 
ATOM     93  C   UNL A   1      29.187  28.226  23.120  1.00  0.00     0.007 A 
ATOM     94  C   UNL A   1      29.527  30.568  23.577  1.00  0.00     0.007 A 
ATOM     95  C   UNL A   1      27.821  28.453  22.946  1.00  0.00     0.000 A 
ATOM     96  C   UNL A   1      28.158  30.793  23.422  1.00  0.00     0.000 A 
ATOM     97  C   UNL A   1      27.306  29.738  23.101  1.00  0.00     0.000 A 
ENDBRANCH  91  92
ENDBRANCH  90  91
ENDBRANCH  89  90
ENDBRANCH  83  84
ENDBRANCH  81  83
ENDBRANCH  75  77
ENDBRANCH  74  75
ENDBRANCH   1  74
TORSDOF 19
ENDMDL
