MODEL 1
REMARK VINA RESULT:     -13.5      0.000      0.000
REMARK SMILES O=C1C[C@@H](c2cccc(O)c2)c2c(c(C(=O)OCCOC(=O)c3ccc(-c4c5nc(c(-c6c(F)cc(S(=O)(=O)[O-])cc6F)c6ccc([nH]6)c(-c6c(F)cc(S(=O)(=O)[O-])cc6F)c6nc(c(-c7c(F)cc(S(=O)(=O)[O-])cc7F)c7ccc4[nH]7)C=C6)C=C5)cc3)cn2-c2cccc(C(F)(F)F)c2)N1
REMARK SMILES IDX 19 1 18 2 17 3 15 4 16 5 14 6 1 7 2 8 3 9 101 10 4 11 13 12
REMARK SMILES IDX 12 14 90 15 89 16 5 17 6 18 11 19 7 20 9 21 8 22 10 23 91 25
REMARK SMILES IDX 92 26 100 27 93 28 95 29 94 30 96 31 97 32 98 33 99 34 20 35
REMARK SMILES IDX 21 36 22 37 23 38 24 39 88 40 25 41 87 42 26 43 27 44 28 45
REMARK SMILES IDX 81 46 29 47 86 48 80 49 82 50 30 51 85 52 79 53 78 54 31 56
REMARK SMILES IDX 65 57 44 58 64 59 45 60 48 61 63 62 83 63 46 64 47 65 62 67
REMARK SMILES IDX 84 68 49 69 32 70 33 71 42 72 34 73 35 74 41 75 43 76 36 77
REMARK SMILES IDX 37 78 38 79 39 80 40 81 66 82 67 83 76 84 68 85 69 86 75 87
REMARK SMILES IDX 77 88 70 89 71 90 72 91 73 92 74 93 50 94 51 95 60 96 52 97
REMARK SMILES IDX 53 98 59 99 61 100 54 101 55 102 56 103 57 104 58 105
REMARK H PARENT 101 13 10 24 82 55 48 66
REMARK Flexibility Score: inf
ROOT
ATOM      1  C   UNL A   1      32.377  30.516  27.064  1.00  0.00     0.275 C 
ENDROOT
BRANCH   1   2
ATOM      2  C   UNL A   1      32.114  29.016  26.989  1.00  0.00     0.275 C 
BRANCH   2   3
ATOM      3  O   UNL A   1      32.513  28.466  25.724  1.00  0.00    -0.458 OA
BRANCH   3   4
ATOM      4  C   UNL A   1      31.786  27.384  25.297  1.00  0.00     0.341 C 
ATOM      5  O   UNL A   1      30.691  27.449  24.773  1.00  0.00    -0.246 OA
BRANCH   4   6
ATOM      6  C   UNL A   1      32.505  26.129  25.475  1.00  0.00     0.102 A 
ATOM      7  O   UNL A   1      29.294  23.145  27.384  1.00  0.00    -0.275 OA
ATOM      8  C   UNL A   1      30.450  23.434  27.080  1.00  0.00     0.225 C 
ATOM      9  C   UNL A   1      31.635  22.594  27.539  1.00  0.00     0.115 C 
ATOM     10  N   UNL A   1      30.740  24.618  26.451  1.00  0.00    -0.324 N 
ATOM     11  C   UNL A   1      32.842  22.597  26.579  1.00  0.00     0.078 C 
ATOM     12  C   UNL A   1      31.999  24.916  25.989  1.00  0.00     0.078 A 
ATOM     13  H   UNL A   1      30.020  25.278  26.325  1.00  0.00     0.170 HD
ATOM     14  C   UNL A   1      32.992  23.962  25.966  1.00  0.00     0.055 A 
ATOM     15  N   UNL A   1      34.121  24.546  25.416  1.00  0.00    -0.317 N 
ATOM     16  C   UNL A   1      33.827  25.874  25.161  1.00  0.00     0.109 A 
BRANCH  11  17
ATOM     17  C   UNL A   1      32.732  21.449  25.593  1.00  0.00    -0.035 A 
ATOM     18  C   UNL A   1      32.276  21.622  24.277  1.00  0.00     0.005 A 
ATOM     19  C   UNL A   1      33.107  20.159  26.010  1.00  0.00     0.050 A 
ATOM     20  C   UNL A   1      32.233  20.540  23.395  1.00  0.00     0.004 A 
ATOM     21  C   UNL A   1      33.087  19.096  25.115  1.00  0.00     0.115 A 
ATOM     22  C   UNL A   1      32.651  19.275  23.808  1.00  0.00     0.046 A 
BRANCH  21  23
ATOM     23  O   UNL A   1      33.547  17.890  25.555  1.00  0.00    -0.508 OA
ATOM     24  H   UNL A   1      32.941  17.236  25.845  1.00  0.00     0.293 HD
ENDBRANCH  21  23
ENDBRANCH  11  17
BRANCH  15  25
ATOM     25  C   UNL A   1      35.391  23.972  25.166  1.00  0.00     0.046 A 
ATOM     26  C   UNL A   1      35.523  23.035  24.136  1.00  0.00     0.026 A 
ATOM     27  C   UNL A   1      36.486  24.277  25.980  1.00  0.00     0.039 A 
ATOM     28  C   UNL A   1      36.767  22.461  23.875  1.00  0.00     0.003 A 
ATOM     29  C   UNL A   1      37.740  23.695  25.732  1.00  0.00     0.058 A 
ATOM     30  C   UNL A   1      37.870  22.797  24.661  1.00  0.00     0.013 A 
BRANCH  29  31
ATOM     31  C   UNL A   1      38.939  24.004  26.598  1.00  0.00     0.416 C 
ATOM     32  F   UNL A   1      39.817  22.961  26.645  1.00  0.00    -0.166 F 
ATOM     33  F   UNL A   1      39.657  25.061  26.127  1.00  0.00    -0.166 F 
ATOM     34  F   UNL A   1      38.642  24.291  27.893  1.00  0.00    -0.166 F 
ENDBRANCH  29  31
ENDBRANCH  15  25
ENDBRANCH   4   6
ENDBRANCH   3   4
ENDBRANCH   2   3
ENDBRANCH   1   2
BRANCH   1  35
ATOM     35  O   UNL A   1      33.756  30.838  26.881  1.00  0.00    -0.458 OA
BRANCH  35  36
ATOM     36  C   UNL A   1      34.352  31.411  27.952  1.00  0.00     0.338 C 
ATOM     37  O   UNL A   1      33.854  32.213  28.725  1.00  0.00    -0.246 OA
BRANCH  36  38
ATOM     38  C   UNL A   1      35.778  31.075  27.959  1.00  0.00     0.060 A 
ATOM     39  C   UNL A   1      36.142  29.756  27.671  1.00  0.00     0.016 A 
ATOM     40  C   UNL A   1      36.703  31.998  28.470  1.00  0.00     0.016 A 
ATOM     41  C   UNL A   1      37.413  29.332  28.003  1.00  0.00     0.010 A 
ATOM     42  C   UNL A   1      37.966  31.570  28.810  1.00  0.00     0.010 A 
ATOM     43  C   UNL A   1      38.294  30.228  28.622  1.00  0.00    -0.014 A 
BRANCH  43  44
ATOM     44  C   UNL A   1      39.642  29.774  28.918  1.00  0.00     0.031 A 
ATOM     45  C   UNL A   1      39.934  29.761  30.375  1.00  0.00     0.074 A 
ATOM     46  C   UNL A   1      40.466  29.274  27.976  1.00  0.00     0.049 A 
ATOM     47  N   UNL A   1      40.832  30.435  31.012  1.00  0.00    -0.248 NA
ATOM     48  C   UNL A   1      38.999  29.034  31.254  1.00  0.00     0.031 C 
ATOM     49  C   UNL A   1      40.148  28.988  26.574  1.00  0.00     0.029 A 
ATOM     50  N   UNL A   1      41.737  28.801  28.098  1.00  0.00    -0.354 N 
ATOM     51  C   UNL A   1      40.730  30.029  32.339  1.00  0.00     0.074 A 
ATOM     52  C   UNL A   1      39.476  29.338  32.461  1.00  0.00     0.031 C 
ATOM     53  C   UNL A   1      41.103  28.182  26.055  1.00  0.00     0.029 A 
ATOM     54  C   UNL A   1      42.152  27.992  27.043  1.00  0.00     0.049 A 
ATOM     55  H   UNL A   1      42.314  29.014  28.866  1.00  0.00     0.167 HD
ATOM     56  C   UNL A   1      41.814  30.045  33.161  1.00  0.00     0.037 A 
ATOM     57  C   UNL A   1      43.233  27.165  27.026  1.00  0.00     0.037 A 
ATOM     58  C   UNL A   1      42.825  30.944  32.666  1.00  0.00     0.049 A 
ATOM     59  C   UNL A   1      44.143  27.610  28.115  1.00  0.00     0.074 A 
ATOM     60  C   UNL A   1      42.849  32.291  32.352  1.00  0.00     0.029 A 
ATOM     61  N   UNL A   1      43.928  30.398  32.058  1.00  0.00    -0.354 N 
ATOM     62  N   UNL A   1      44.785  28.745  28.112  1.00  0.00    -0.248 NA
ATOM     63  C   UNL A   1      43.981  26.992  29.423  1.00  0.00     0.031 C 
ATOM     64  C   UNL A   1      43.672  32.384  31.192  1.00  0.00     0.029 A 
ATOM     65  C   UNL A   1      44.163  31.109  30.910  1.00  0.00     0.049 A 
ATOM     66  H   UNL A   1      44.455  29.634  32.388  1.00  0.00     0.167 HD
ATOM     67  C   UNL A   1      44.710  29.197  29.422  1.00  0.00     0.074 A 
ATOM     68  C   UNL A   1      44.284  28.036  30.200  1.00  0.00     0.031 C 
ATOM     69  C   UNL A   1      44.723  30.532  29.709  1.00  0.00     0.037 A 
BRANCH  56  70
ATOM     70  C   UNL A   1      42.112  28.948  34.158  1.00  0.00     0.058 A 
ATOM     71  C   UNL A   1      42.273  27.625  33.698  1.00  0.00     0.135 A 
ATOM     72  C   UNL A   1      41.957  29.088  35.557  1.00  0.00     0.135 A 
ATOM     73  F   UNL A   1      42.415  27.370  32.388  1.00  0.00    -0.206 F 
ATOM     74  C   UNL A   1      42.205  26.524  34.552  1.00  0.00     0.059 A 
ATOM     75  C   UNL A   1      41.943  28.009  36.431  1.00  0.00     0.059 A 
ATOM     76  F   UNL A   1      41.709  30.265  36.143  1.00  0.00    -0.206 F 
ATOM     77  C   UNL A   1      42.025  26.728  35.916  1.00  0.00     0.060 A 
BRANCH  77  78
ATOM     78  S   UNL A   1      41.840  25.311  37.011  1.00  0.00     0.124 S 
ATOM     79  O   UNL A   1      43.131  25.299  37.688  1.00  0.00    -0.237 OA
ATOM     80  O   UNL A   1      40.694  25.705  37.822  1.00  0.00    -0.237 OA
ATOM     81  O   UNL A   1      41.598  24.205  36.089  1.00  0.00    -0.744 OA
ENDBRANCH  77  78
ENDBRANCH  56  70
BRANCH  57  82
ATOM     82  C   UNL A   1      43.364  25.825  26.385  1.00  0.00     0.058 A 
ATOM     83  C   UNL A   1      44.312  25.592  25.369  1.00  0.00     0.135 A 
ATOM     84  C   UNL A   1      42.773  24.675  26.947  1.00  0.00     0.135 A 
ATOM     85  F   UNL A   1      44.943  26.624  24.786  1.00  0.00    -0.206 F 
ATOM     86  C   UNL A   1      44.691  24.302  24.977  1.00  0.00     0.059 A 
ATOM     87  C   UNL A   1      43.124  23.382  26.563  1.00  0.00     0.059 A 
ATOM     88  F   UNL A   1      41.899  24.768  27.959  1.00  0.00    -0.206 F 
ATOM     89  C   UNL A   1      44.105  23.200  25.599  1.00  0.00     0.060 A 
BRANCH  89  90
ATOM     90  S   UNL A   1      44.719  21.536  25.239  1.00  0.00     0.124 S 
ATOM     91  O   UNL A   1      46.066  21.583  25.797  1.00  0.00    -0.237 OA
ATOM     92  O   UNL A   1      43.764  20.693  25.947  1.00  0.00    -0.237 OA
ATOM     93  O   UNL A   1      44.652  21.459  23.781  1.00  0.00    -0.744 OA
ENDBRANCH  89  90
ENDBRANCH  57  82
BRANCH  69  94
ATOM     94  C   UNL A   1      45.162  31.491  28.633  1.00  0.00     0.058 A 
ATOM     95  C   UNL A   1      44.379  31.894  27.537  1.00  0.00     0.135 A 
ATOM     96  C   UNL A   1      46.404  32.127  28.800  1.00  0.00     0.135 A 
ATOM     97  F   UNL A   1      43.136  31.422  27.363  1.00  0.00    -0.206 F 
ATOM     98  C   UNL A   1      44.836  32.842  26.618  1.00  0.00     0.059 A 
ATOM     99  C   UNL A   1      46.863  33.099  27.918  1.00  0.00     0.059 A 
ATOM    100  F   UNL A   1      47.173  31.833  29.861  1.00  0.00    -0.206 F 
ATOM    101  C   UNL A   1      46.082  33.437  26.816  1.00  0.00     0.060 A 
BRANCH 101 102
ATOM    102  S   UNL A   1      46.658  34.694  25.655  1.00  0.00     0.124 S 
ATOM    103  O   UNL A   1      48.049  34.309  25.451  1.00  0.00    -0.237 OA
ATOM    104  O   UNL A   1      45.772  34.500  24.511  1.00  0.00    -0.237 OA
ATOM    105  O   UNL A   1      46.457  35.947  26.380  1.00  0.00    -0.744 OA
ENDBRANCH 101 102
ENDBRANCH  69  94
ENDBRANCH  43  44
ENDBRANCH  36  38
ENDBRANCH  35  36
ENDBRANCH   1  35
TORSDOF 18
ENDMDL
MODEL 2
REMARK VINA RESULT:     -13.4      3.001      9.179
REMARK SMILES O=C1C[C@@H](c2cccc(O)c2)c2c(c(C(=O)OCCOC(=O)c3ccc(-c4c5nc(c(-c6c(F)cc(S(=O)(=O)[O-])cc6F)c6ccc([nH]6)c(-c6c(F)cc(S(=O)(=O)[O-])cc6F)c6nc(c(-c7c(F)cc(S(=O)(=O)[O-])cc7F)c7ccc4[nH]7)C=C6)C=C5)cc3)cn2-c2cccc(C(F)(F)F)c2)N1
REMARK SMILES IDX 19 1 18 2 17 3 15 4 16 5 14 6 1 7 2 8 3 9 101 10 4 11 13 12
REMARK SMILES IDX 12 14 90 15 89 16 5 17 6 18 11 19 7 20 9 21 8 22 10 23 91 25
REMARK SMILES IDX 92 26 100 27 93 28 95 29 94 30 96 31 97 32 98 33 99 34 20 35
REMARK SMILES IDX 21 36 22 37 23 38 24 39 88 40 25 41 87 42 26 43 27 44 28 45
REMARK SMILES IDX 81 46 29 47 86 48 80 49 82 50 30 51 85 52 79 53 78 54 31 56
REMARK SMILES IDX 65 57 44 58 64 59 45 60 48 61 63 62 83 63 46 64 47 65 62 67
REMARK SMILES IDX 84 68 49 69 32 70 33 71 42 72 34 73 35 74 41 75 43 76 36 77
REMARK SMILES IDX 37 78 38 79 39 80 40 81 66 82 67 83 76 84 68 85 69 86 75 87
REMARK SMILES IDX 77 88 70 89 71 90 72 91 73 92 74 93 50 94 51 95 60 96 52 97
REMARK SMILES IDX 53 98 59 99 61 100 54 101 55 102 56 103 57 104 58 105
REMARK H PARENT 101 13 10 24 82 55 48 66
REMARK Flexibility Score: inf
ROOT
ATOM      1  C   UNL A   1      37.436  21.521  25.139  1.00  0.00     0.275 C 
ENDROOT
BRANCH   1   2
ATOM      2  C   UNL A   1      35.966  21.355  25.507  1.00  0.00     0.275 C 
BRANCH   2   3
ATOM      3  O   UNL A   1      35.347  22.615  25.814  1.00  0.00    -0.458 OA
BRANCH   3   4
ATOM      4  C   UNL A   1      34.115  22.819  25.246  1.00  0.00     0.341 C 
ATOM      5  O   UNL A   1      33.317  21.939  24.989  1.00  0.00    -0.246 OA
BRANCH   4   6
ATOM      6  C   UNL A   1      33.826  24.233  25.044  1.00  0.00     0.102 A 
ATOM      7  O   UNL A   1      32.890  24.631  20.372  1.00  0.00    -0.275 OA
ATOM      8  C   UNL A   1      33.133  25.130  21.470  1.00  0.00     0.225 C 
ATOM      9  C   UNL A   1      33.422  26.617  21.629  1.00  0.00     0.115 C 
ATOM     10  N   UNL A   1      33.319  24.343  22.578  1.00  0.00    -0.324 N 
ATOM     11  C   UNL A   1      33.005  27.216  22.987  1.00  0.00     0.078 C 
ATOM     12  C   UNL A   1      33.470  24.872  23.837  1.00  0.00     0.078 A 
ATOM     13  H   UNL A   1      33.344  23.365  22.468  1.00  0.00     0.170 HD
ATOM     14  C   UNL A   1      33.255  26.211  24.077  1.00  0.00     0.055 A 
ATOM     15  N   UNL A   1      33.442  26.429  25.431  1.00  0.00    -0.317 N 
ATOM     16  C   UNL A   1      33.832  25.230  26.002  1.00  0.00     0.109 A 
BRANCH  11  17
ATOM     17  C   UNL A   1      31.588  27.755  22.911  1.00  0.00    -0.035 A 
ATOM     18  C   UNL A   1      30.480  27.041  23.391  1.00  0.00     0.005 A 
ATOM     19  C   UNL A   1      31.375  29.025  22.342  1.00  0.00     0.050 A 
ATOM     20  C   UNL A   1      29.200  27.599  23.335  1.00  0.00     0.004 A 
ATOM     21  C   UNL A   1      30.102  29.581  22.320  1.00  0.00     0.115 A 
ATOM     22  C   UNL A   1      29.009  28.878  22.810  1.00  0.00     0.046 A 
BRANCH  21  23
ATOM     23  O   UNL A   1      29.975  30.851  21.837  1.00  0.00    -0.508 OA
ATOM     24  H   UNL A   1      29.128  31.184  21.615  1.00  0.00     0.293 HD
ENDBRANCH  21  23
ENDBRANCH  11  17
BRANCH  15  25
ATOM     25  C   UNL A   1      33.321  27.633  26.167  1.00  0.00     0.046 A 
ATOM     26  C   UNL A   1      32.045  28.146  26.426  1.00  0.00     0.026 A 
ATOM     27  C   UNL A   1      34.456  28.344  26.568  1.00  0.00     0.039 A 
ATOM     28  C   UNL A   1      31.907  29.329  27.150  1.00  0.00     0.003 A 
ATOM     29  C   UNL A   1      34.327  29.543  27.287  1.00  0.00     0.058 A 
ATOM     30  C   UNL A   1      33.039  30.017  27.587  1.00  0.00     0.013 A 
BRANCH  29  31
ATOM     31  C   UNL A   1      35.536  30.333  27.730  1.00  0.00     0.416 C 
ATOM     32  F   UNL A   1      35.849  30.100  29.037  1.00  0.00    -0.166 F 
ATOM     33  F   UNL A   1      36.655  30.002  27.026  1.00  0.00    -0.166 F 
ATOM     34  F   UNL A   1      35.401  31.681  27.621  1.00  0.00    -0.166 F 
ENDBRANCH  29  31
ENDBRANCH  15  25
ENDBRANCH   4   6
ENDBRANCH   3   4
ENDBRANCH   2   3
ENDBRANCH   1   2
BRANCH   1  35
ATOM     35  O   UNL A   1      38.033  22.653  25.773  1.00  0.00    -0.458 OA
BRANCH  35  36
ATOM     36  C   UNL A   1      39.181  22.390  26.439  1.00  0.00     0.338 C 
ATOM     37  O   UNL A   1      39.577  21.299  26.814  1.00  0.00    -0.246 OA
BRANCH  36  38
ATOM     38  C   UNL A   1      39.821  23.649  26.830  1.00  0.00     0.060 A 
ATOM     39  C   UNL A   1      41.020  23.578  27.547  1.00  0.00     0.016 A 
ATOM     40  C   UNL A   1      39.120  24.855  26.687  1.00  0.00     0.016 A 
ATOM     41  C   UNL A   1      41.458  24.703  28.218  1.00  0.00     0.010 A 
ATOM     42  C   UNL A   1      39.553  25.972  27.366  1.00  0.00     0.010 A 
ATOM     43  C   UNL A   1      40.690  25.873  28.167  1.00  0.00    -0.014 A 
BRANCH  43  44
ATOM     44  C   UNL A   1      41.194  27.057  28.841  1.00  0.00     0.031 A 
ATOM     45  C   UNL A   1      42.431  27.590  28.213  1.00  0.00     0.074 A 
ATOM     46  C   UNL A   1      40.516  27.678  29.826  1.00  0.00     0.049 A 
ATOM     47  N   UNL A   1      43.601  27.713  28.741  1.00  0.00    -0.248 NA
ATOM     48  C   UNL A   1      42.398  27.864  26.764  1.00  0.00     0.031 C 
ATOM     49  C   UNL A   1      39.162  27.382  30.302  1.00  0.00     0.029 A 
ATOM     50  N   UNL A   1      40.846  28.791  30.538  1.00  0.00    -0.354 N 
ATOM     51  C   UNL A   1      44.392  28.307  27.761  1.00  0.00     0.074 A 
ATOM     52  C   UNL A   1      43.669  28.187  26.524  1.00  0.00     0.031 C 
ATOM     53  C   UNL A   1      38.708  28.424  31.036  1.00  0.00     0.029 A 
ATOM     54  C   UNL A   1      39.772  29.403  31.179  1.00  0.00     0.049 A 
ATOM     55  H   UNL A   1      41.767  29.134  30.596  1.00  0.00     0.167 HD
ATOM     56  C   UNL A   1      45.443  29.101  28.097  1.00  0.00     0.037 A 
ATOM     57  C   UNL A   1      39.745  30.656  31.709  1.00  0.00     0.037 A 
ATOM     58  C   UNL A   1      45.890  28.828  29.439  1.00  0.00     0.049 A 
ATOM     59  C   UNL A   1      41.157  31.080  31.908  1.00  0.00     0.074 A 
ATOM     60  C   UNL A   1      46.335  27.696  30.097  1.00  0.00     0.029 A 
ATOM     61  N   UNL A   1      45.553  29.725  30.422  1.00  0.00    -0.354 N 
ATOM     62  N   UNL A   1      41.968  30.536  32.773  1.00  0.00    -0.248 NA
ATOM     63  C   UNL A   1      41.803  31.803  30.822  1.00  0.00     0.031 C 
ATOM     64  C   UNL A   1      45.786  27.792  31.409  1.00  0.00     0.029 A 
ATOM     65  C   UNL A   1      45.107  29.007  31.502  1.00  0.00     0.049 A 
ATOM     66  H   UNL A   1      45.621  30.705  30.363  1.00  0.00     0.167 HD
ATOM     67  C   UNL A   1      43.187  30.459  32.115  1.00  0.00     0.074 A 
ATOM     68  C   UNL A   1      43.047  31.336  30.954  1.00  0.00     0.031 C 
ATOM     69  C   UNL A   1      44.089  29.479  32.414  1.00  0.00     0.037 A 
BRANCH  56  70
ATOM     70  C   UNL A   1      45.777  30.384  27.369  1.00  0.00     0.058 A 
ATOM     71  C   UNL A   1      47.123  30.670  27.061  1.00  0.00     0.135 A 
ATOM     72  C   UNL A   1      44.879  31.468  27.224  1.00  0.00     0.135 A 
ATOM     73  F   UNL A   1      48.066  29.722  27.175  1.00  0.00    -0.206 F 
ATOM     74  C   UNL A   1      47.553  31.951  26.714  1.00  0.00     0.059 A 
ATOM     75  C   UNL A   1      45.277  32.736  26.825  1.00  0.00     0.059 A 
ATOM     76  F   UNL A   1      43.585  31.384  27.558  1.00  0.00    -0.206 F 
ATOM     77  C   UNL A   1      46.622  32.981  26.613  1.00  0.00     0.060 A 
BRANCH  77  78
ATOM     78  S   UNL A   1      47.182  34.655  26.261  1.00  0.00     0.124 S 
ATOM     79  O   UNL A   1      45.916  35.374  26.190  1.00  0.00    -0.237 OA
ATOM     80  O   UNL A   1      48.019  34.942  27.421  1.00  0.00    -0.237 OA
ATOM     81  O   UNL A   1      47.900  34.509  24.998  1.00  0.00    -0.744 OA
ENDBRANCH  77  78
ENDBRANCH  56  70
BRANCH  57  82
ATOM     82  C   UNL A   1      38.619  31.633  31.720  1.00  0.00     0.058 A 
ATOM     83  C   UNL A   1      38.085  32.146  30.521  1.00  0.00     0.135 A 
ATOM     84  C   UNL A   1      37.851  31.864  32.880  1.00  0.00     0.135 A 
ATOM     85  F   UNL A   1      38.735  31.961  29.361  1.00  0.00    -0.206 F 
ATOM     86  C   UNL A   1      36.844  32.792  30.467  1.00  0.00     0.059 A 
ATOM     87  C   UNL A   1      36.620  32.517  32.853  1.00  0.00     0.059 A 
ATOM     88  F   UNL A   1      38.228  31.376  34.071  1.00  0.00    -0.206 F 
ATOM     89  C   UNL A   1      36.106  32.954  31.639  1.00  0.00     0.060 A 
BRANCH  89  90
ATOM     90  S   UNL A   1      34.425  33.615  31.557  1.00  0.00     0.124 S 
ATOM     91  O   UNL A   1      33.729  32.797  32.544  1.00  0.00    -0.237 OA
ATOM     92  O   UNL A   1      34.623  35.015  31.914  1.00  0.00    -0.237 OA
ATOM     93  O   UNL A   1      34.037  33.379  30.168  1.00  0.00    -0.744 OA
ENDBRANCH  89  90
ENDBRANCH  57  82
BRANCH  69  94
ATOM     94  C   UNL A   1      43.901  28.697  33.688  1.00  0.00     0.058 A 
ATOM     95  C   UNL A   1      44.303  29.122  34.966  1.00  0.00     0.135 A 
ATOM     96  C   UNL A   1      43.160  27.506  33.613  1.00  0.00     0.135 A 
ATOM     97  F   UNL A   1      44.917  30.301  35.143  1.00  0.00    -0.206 F 
ATOM     98  C   UNL A   1      44.029  28.367  36.110  1.00  0.00     0.059 A 
ATOM     99  C   UNL A   1      42.846  26.757  34.742  1.00  0.00     0.059 A 
ATOM    100  F   UNL A   1      42.693  27.077  32.429  1.00  0.00    -0.206 F 
ATOM    101  C   UNL A   1      43.302  27.183  35.986  1.00  0.00     0.060 A 
BRANCH 101 102
ATOM    102  S   UNL A   1      42.911  26.226  37.466  1.00  0.00     0.124 S 
ATOM    103  O   UNL A   1      41.495  26.519  37.656  1.00  0.00    -0.237 OA
ATOM    104  O   UNL A   1      43.226  24.861  37.055  1.00  0.00    -0.237 OA
ATOM    105  O   UNL A   1      43.804  26.783  38.480  1.00  0.00    -0.744 OA
ENDBRANCH 101 102
ENDBRANCH  69  94
ENDBRANCH  43  44
ENDBRANCH  36  38
ENDBRANCH  35  36
ENDBRANCH   1  35
TORSDOF 18
ENDMDL
MODEL 3
REMARK VINA RESULT:     -12.2      3.628      7.477
REMARK SMILES O=C1C[C@@H](c2cccc(O)c2)c2c(c(C(=O)OCCOC(=O)c3ccc(-c4c5nc(c(-c6c(F)cc(S(=O)(=O)[O-])cc6F)c6ccc([nH]6)c(-c6c(F)cc(S(=O)(=O)[O-])cc6F)c6nc(c(-c7c(F)cc(S(=O)(=O)[O-])cc7F)c7ccc4[nH]7)C=C6)C=C5)cc3)cn2-c2cccc(C(F)(F)F)c2)N1
REMARK SMILES IDX 19 1 18 2 17 3 15 4 16 5 14 6 1 7 2 8 3 9 101 10 4 11 13 12
REMARK SMILES IDX 12 14 90 15 89 16 5 17 6 18 11 19 7 20 9 21 8 22 10 23 91 25
REMARK SMILES IDX 92 26 100 27 93 28 95 29 94 30 96 31 97 32 98 33 99 34 20 35
REMARK SMILES IDX 21 36 22 37 23 38 24 39 88 40 25 41 87 42 26 43 27 44 28 45
REMARK SMILES IDX 81 46 29 47 86 48 80 49 82 50 30 51 85 52 79 53 78 54 31 56
REMARK SMILES IDX 65 57 44 58 64 59 45 60 48 61 63 62 83 63 46 64 47 65 62 67
REMARK SMILES IDX 84 68 49 69 32 70 33 71 42 72 34 73 35 74 41 75 43 76 36 77
REMARK SMILES IDX 37 78 38 79 39 80 40 81 66 82 67 83 76 84 68 85 69 86 75 87
REMARK SMILES IDX 77 88 70 89 71 90 72 91 73 92 74 93 50 94 51 95 60 96 52 97
REMARK SMILES IDX 53 98 59 99 61 100 54 101 55 102 56 103 57 104 58 105
REMARK H PARENT 101 13 10 24 82 55 48 66
REMARK Flexibility Score: inf
ROOT
ATOM      1  C   UNL A   1      36.388  20.517  25.431  1.00  0.00     0.275 C 
ENDROOT
BRANCH   1   2
ATOM      2  C   UNL A   1      35.119  20.730  24.615  1.00  0.00     0.275 C 
BRANCH   2   3
ATOM      3  O   UNL A   1      34.436  21.935  24.993  1.00  0.00    -0.458 OA
BRANCH   3   4
ATOM      4  C   UNL A   1      33.478  22.370  24.112  1.00  0.00     0.341 C 
ATOM      5  O   UNL A   1      32.828  21.646  23.384  1.00  0.00    -0.246 OA
BRANCH   4   6
ATOM      6  C   UNL A   1      33.266  23.810  24.191  1.00  0.00     0.102 A 
ATOM      7  O   UNL A   1      32.475  25.175  19.678  1.00  0.00    -0.275 OA
ATOM      8  C   UNL A   1      32.713  25.433  20.856  1.00  0.00     0.225 C 
ATOM      9  C   UNL A   1      33.072  26.841  21.313  1.00  0.00     0.115 C 
ATOM     10  N   UNL A   1      32.830  24.434  21.789  1.00  0.00    -0.324 N 
ATOM     11  C   UNL A   1      32.650  27.181  22.756  1.00  0.00     0.078 C 
ATOM     12  C   UNL A   1      32.975  24.694  23.130  1.00  0.00     0.078 A 
ATOM     13  H   UNL A   1      32.809  23.497  21.486  1.00  0.00     0.170 HD
ATOM     14  C   UNL A   1      32.820  25.968  23.628  1.00  0.00     0.055 A 
ATOM     15  N   UNL A   1      32.983  25.903  25.002  1.00  0.00    -0.317 N 
ATOM     16  C   UNL A   1      33.297  24.595  25.328  1.00  0.00     0.109 A 
BRANCH  11  17
ATOM     17  C   UNL A   1      31.265  27.801  22.767  1.00  0.00    -0.035 A 
ATOM     18  C   UNL A   1      30.140  27.133  23.275  1.00  0.00     0.005 A 
ATOM     19  C   UNL A   1      31.099  29.100  22.251  1.00  0.00     0.050 A 
ATOM     20  C   UNL A   1      28.893  27.764  23.300  1.00  0.00     0.004 A 
ATOM     21  C   UNL A   1      29.860  29.727  22.309  1.00  0.00     0.115 A 
ATOM     22  C   UNL A   1      28.753  29.069  22.828  1.00  0.00     0.046 A 
BRANCH  21  23
ATOM     23  O   UNL A   1      29.784  31.018  21.875  1.00  0.00    -0.508 OA
ATOM     24  H   UNL A   1      29.343  31.661  22.395  1.00  0.00     0.293 HD
ENDBRANCH  21  23
ENDBRANCH  11  17
BRANCH  15  25
ATOM     25  C   UNL A   1      32.903  26.943  25.960  1.00  0.00     0.046 A 
ATOM     26  C   UNL A   1      31.677  27.200  26.583  1.00  0.00     0.026 A 
ATOM     27  C   UNL A   1      34.010  27.752  26.231  1.00  0.00     0.039 A 
ATOM     28  C   UNL A   1      31.580  28.218  27.531  1.00  0.00     0.003 A 
ATOM     29  C   UNL A   1      33.919  28.788  27.175  1.00  0.00     0.058 A 
ATOM     30  C   UNL A   1      32.696  28.999  27.833  1.00  0.00     0.013 A 
BRANCH  29  31
ATOM     31  C   UNL A   1      35.098  29.680  27.485  1.00  0.00     0.416 C 
ATOM     32  F   UNL A   1      34.800  31.000  27.311  1.00  0.00    -0.166 F 
ATOM     33  F   UNL A   1      35.503  29.569  28.781  1.00  0.00    -0.166 F 
ATOM     34  F   UNL A   1      36.198  29.450  26.720  1.00  0.00    -0.166 F 
ENDBRANCH  29  31
ENDBRANCH  15  25
ENDBRANCH   4   6
ENDBRANCH   3   4
ENDBRANCH   2   3
ENDBRANCH   1   2
BRANCH   1  35
ATOM     35  O   UNL A   1      37.573  20.767  24.674  1.00  0.00    -0.458 OA
BRANCH  35  36
ATOM     36  C   UNL A   1      38.712  20.293  25.229  1.00  0.00     0.338 C 
ATOM     37  O   UNL A   1      39.183  19.176  25.092  1.00  0.00    -0.246 OA
BRANCH  36  38
ATOM     38  C   UNL A   1      39.227  21.264  26.198  1.00  0.00     0.060 A 
ATOM     39  C   UNL A   1      38.778  22.584  26.104  1.00  0.00     0.016 A 
ATOM     40  C   UNL A   1      40.305  20.910  27.024  1.00  0.00     0.016 A 
ATOM     41  C   UNL A   1      39.486  23.574  26.757  1.00  0.00     0.010 A 
ATOM     42  C   UNL A   1      41.016  21.900  27.665  1.00  0.00     0.010 A 
ATOM     43  C   UNL A   1      40.633  23.228  27.485  1.00  0.00    -0.014 A 
BRANCH  43  44
ATOM     44  C   UNL A   1      41.335  24.278  28.203  1.00  0.00     0.031 A 
ATOM     45  C   UNL A   1      40.539  25.529  28.309  1.00  0.00     0.074 A 
ATOM     46  C   UNL A   1      42.509  24.071  28.830  1.00  0.00     0.049 A 
ATOM     47  N   UNL A   1      40.827  26.696  27.842  1.00  0.00    -0.248 NA
ATOM     48  C   UNL A   1      39.175  25.426  28.861  1.00  0.00     0.031 C 
ATOM     49  C   UNL A   1      43.212  22.798  29.013  1.00  0.00     0.029 A 
ATOM     50  N   UNL A   1      43.274  24.940  29.546  1.00  0.00    -0.354 N 
ATOM     51  C   UNL A   1      39.790  27.528  28.253  1.00  0.00     0.074 A 
ATOM     52  C   UNL A   1      38.723  26.668  28.687  1.00  0.00     0.031 C 
ATOM     53  C   UNL A   1      44.150  22.940  29.977  1.00  0.00     0.029 A 
ATOM     54  C   UNL A   1      44.195  24.331  30.394  1.00  0.00     0.049 A 
ATOM     55  H   UNL A   1      43.185  25.918  29.471  1.00  0.00     0.167 HD
ATOM     56  C   UNL A   1      40.001  28.854  28.471  1.00  0.00     0.037 A 
ATOM     57  C   UNL A   1      44.876  24.918  31.416  1.00  0.00     0.037 A 
ATOM     58  C   UNL A   1      41.176  29.312  27.775  1.00  0.00     0.049 A 
ATOM     59  C   UNL A   1      44.833  26.387  31.187  1.00  0.00     0.074 A 
ATOM     60  C   UNL A   1      41.578  29.307  26.452  1.00  0.00     0.029 A 
ATOM     61  N   UNL A   1      42.314  29.528  28.512  1.00  0.00    -0.354 N 
ATOM     62  N   UNL A   1      45.436  26.989  30.199  1.00  0.00    -0.248 NA
ATOM     63  C   UNL A   1      43.739  27.131  31.793  1.00  0.00     0.031 C 
ATOM     64  C   UNL A   1      42.976  29.032  26.492  1.00  0.00     0.029 A 
ATOM     65  C   UNL A   1      43.362  28.963  27.832  1.00  0.00     0.049 A 
ATOM     66  H   UNL A   1      42.368  30.004  29.372  1.00  0.00     0.167 HD
ATOM     67  C   UNL A   1      44.537  27.958  29.775  1.00  0.00     0.074 A 
ATOM     68  C   UNL A   1      43.552  28.057  30.850  1.00  0.00     0.031 C 
ATOM     69  C   UNL A   1      44.516  28.379  28.476  1.00  0.00     0.037 A 
BRANCH  56  70
ATOM     70  C   UNL A   1      39.390  29.609  29.631  1.00  0.00     0.058 A 
ATOM     71  C   UNL A   1      38.614  30.757  29.371  1.00  0.00     0.135 A 
ATOM     72  C   UNL A   1      39.772  29.428  30.981  1.00  0.00     0.135 A 
ATOM     73  F   UNL A   1      38.206  31.038  28.124  1.00  0.00    -0.206 F 
ATOM     74  C   UNL A   1      38.309  31.692  30.362  1.00  0.00     0.059 A 
ATOM     75  C   UNL A   1      39.431  30.317  31.991  1.00  0.00     0.059 A 
ATOM     76  F   UNL A   1      40.579  28.437  31.377  1.00  0.00    -0.206 F 
ATOM     77  C   UNL A   1      38.736  31.468  31.666  1.00  0.00     0.060 A 
BRANCH  77  78
ATOM     78  S   UNL A   1      38.431  32.715  32.929  1.00  0.00     0.124 S 
ATOM     79  O   UNL A   1      37.158  33.269  32.485  1.00  0.00    -0.237 OA
ATOM     80  O   UNL A   1      38.392  31.908  34.144  1.00  0.00    -0.237 OA
ATOM     81  O   UNL A   1      39.585  33.602  32.809  1.00  0.00    -0.744 OA
ENDBRANCH  77  78
ENDBRANCH  56  70
BRANCH  57  82
ATOM     82  C   UNL A   1      45.244  24.335  32.739  1.00  0.00     0.058 A 
ATOM     83  C   UNL A   1      46.423  24.724  33.405  1.00  0.00     0.135 A 
ATOM     84  C   UNL A   1      44.314  23.610  33.511  1.00  0.00     0.135 A 
ATOM     85  F   UNL A   1      47.360  25.435  32.758  1.00  0.00    -0.206 F 
ATOM     86  C   UNL A   1      46.639  24.462  34.764  1.00  0.00     0.059 A 
ATOM     87  C   UNL A   1      44.514  23.325  34.861  1.00  0.00     0.059 A 
ATOM     88  F   UNL A   1      43.132  23.235  33.003  1.00  0.00    -0.206 F 
ATOM     89  C   UNL A   1      45.665  23.778  35.491  1.00  0.00     0.060 A 
BRANCH  89  90
ATOM     90  S   UNL A   1      45.844  23.598  37.282  1.00  0.00     0.124 S 
ATOM     91  O   UNL A   1      44.664  24.299  37.777  1.00  0.00    -0.237 OA
ATOM     92  O   UNL A   1      45.844  22.151  37.451  1.00  0.00    -0.237 OA
ATOM     93  O   UNL A   1      47.120  24.254  37.562  1.00  0.00    -0.744 OA
ENDBRANCH  89  90
ENDBRANCH  57  82
BRANCH  69  94
ATOM     94  C   UNL A   1      45.690  28.042  27.595  1.00  0.00     0.058 A 
ATOM     95  C   UNL A   1      45.811  26.877  26.817  1.00  0.00     0.135 A 
ATOM     96  C   UNL A   1      46.688  29.018  27.443  1.00  0.00     0.135 A 
ATOM     97  F   UNL A   1      44.850  25.942  26.816  1.00  0.00    -0.206 F 
ATOM     98  C   UNL A   1      46.904  26.669  25.971  1.00  0.00     0.059 A 
ATOM     99  C   UNL A   1      47.766  28.849  26.581  1.00  0.00     0.059 A 
ATOM    100  F   UNL A   1      46.600  30.181  28.111  1.00  0.00    -0.206 F 
ATOM    101  C   UNL A   1      47.878  27.662  25.863  1.00  0.00     0.060 A 
BRANCH 101 102
ATOM    102  S   UNL A   1      49.270  27.416  24.739  1.00  0.00     0.124 S 
ATOM    103  O   UNL A   1      48.660  27.660  23.437  1.00  0.00    -0.237 OA
ATOM    104  O   UNL A   1      50.225  28.424  25.190  1.00  0.00    -0.237 OA
ATOM    105  O   UNL A   1      49.672  26.034  24.990  1.00  0.00    -0.744 OA
ENDBRANCH 101 102
ENDBRANCH  69  94
ENDBRANCH  43  44
ENDBRANCH  36  38
ENDBRANCH  35  36
ENDBRANCH   1  35
TORSDOF 18
ENDMDL
