MODEL 1
REMARK VINA RESULT:     -13.4      0.000      0.000
REMARK SMILES CC(=O)N[C@H]1[C@@H](Oc2ccc(C)c(C)c2)O[C@H]2CO[C@H](c3ccco3)O[C@@H]2[C@H]1OCC(=O)OCCOC(=O)c1ccc(-c2c3nc(c(-c4c(F)cc(S(=O)(=O)[O-])cc4F)c4ccc([nH]4)c(-c4c(F)cc(S(=O)(=O)[O-])cc4F)c4nc(c(-c5c(F)cc(S(=O)(=O)[O-])cc5F)c5ccc2[nH]5)C=C4)C=C3)cc1
REMARK SMILES IDX 34 1 33 2 31 3 32 4 30 5 29 6 28 7 5 8 6 9 16 10 27 11 17 12
REMARK SMILES IDX 26 13 18 14 20 15 19 16 4 17 1 18 2 19 3 20 7 22 8 23 9 24
REMARK SMILES IDX 15 25 10 26 13 27 11 28 14 29 12 30 21 31 22 32 25 33 23 34
REMARK SMILES IDX 24 35 35 36 36 37 37 38 38 39 39 40 40 41 104 42 41 43
REMARK SMILES IDX 103 44 42 45 43 46 44 47 97 48 45 49 102 50 96 51 98 52
REMARK SMILES IDX 46 53 101 54 95 55 94 56 47 58 81 59 60 60 80 61 61 62 64 63
REMARK SMILES IDX 79 64 99 65 62 66 63 67 78 69 100 70 65 71 48 72 49 73 58 74
REMARK SMILES IDX 50 75 51 76 57 77 59 78 52 79 53 80 54 81 55 82 56 83 82 84
REMARK SMILES IDX 83 85 92 86 84 87 85 88 91 89 93 90 86 91 87 92 88 93 89 94
REMARK SMILES IDX 90 95 66 96 67 97 76 98 68 99 69 100 75 101 77 102 70 103
REMARK SMILES IDX 71 104 72 105 73 106 74 107
REMARK H PARENT 4 21 98 57 64 68
REMARK Flexibility Score: inf
ROOT
ATOM      1  C   UNL A   1      39.575  21.811  26.578  1.00  0.00     0.274 C 
ENDROOT
BRANCH   1   2
ATOM      2  O   UNL A   1      38.480  22.005  25.644  1.00  0.00    -0.460 OA
BRANCH   2   3
ATOM      3  C   UNL A   1      37.868  23.217  25.704  1.00  0.00     0.332 C 
ATOM      4  O   UNL A   1      38.423  24.250  26.071  1.00  0.00    -0.250 OA
BRANCH   3   5
ATOM      5  C   UNL A   1      36.371  23.206  25.324  1.00  0.00     0.283 C 
BRANCH   5   6
ATOM      6  O   UNL A   1      35.597  24.338  25.060  1.00  0.00    -0.361 OA
BRANCH   6   7
ATOM      7  C   UNL A   1      34.215  24.440  25.424  1.00  0.00     0.179 C 
ATOM      8  C   UNL A   1      33.774  25.783  24.794  1.00  0.00     0.182 C 
ATOM      9  C   UNL A   1      32.525  26.302  25.533  1.00  0.00     0.333 C 
ATOM     10  O   UNL A   1      31.449  25.338  25.433  1.00  0.00    -0.332 OA
ATOM     11  C   UNL A   1      33.076  23.482  25.015  1.00  0.00     0.184 C 
ATOM     12  C   UNL A   1      31.829  23.980  25.763  1.00  0.00     0.180 C 
ATOM     13  O   UNL A   1      33.344  22.146  25.330  1.00  0.00    -0.337 OA
ATOM     14  C   UNL A   1      30.707  23.014  25.427  1.00  0.00     0.199 C 
ATOM     15  C   UNL A   1      32.227  21.083  24.815  1.00  0.00     0.319 C 
ATOM     16  O   UNL A   1      31.051  21.650  25.708  1.00  0.00    -0.343 OA
BRANCH   8  17
ATOM     17  N   UNL A   1      33.710  25.551  23.297  1.00  0.00    -0.345 N 
ATOM     18  C   UNL A   1      33.871  27.783  22.090  1.00  0.00     0.114 C 
ATOM     19  C   UNL A   1      33.624  26.299  22.161  1.00  0.00     0.217 C 
ATOM     20  O   UNL A   1      33.293  25.688  21.139  1.00  0.00    -0.275 OA
ATOM     21  H   UNL A   1      33.739  24.589  23.085  1.00  0.00     0.164 HD
ENDBRANCH   8  17
BRANCH   9  22
ATOM     22  O   UNL A   1      32.144  27.705  25.361  1.00  0.00    -0.463 OA
BRANCH  22  23
ATOM     23  C   UNL A   1      31.168  28.133  24.508  1.00  0.00     0.123 A 
ATOM     24  C   UNL A   1      30.517  27.349  23.575  1.00  0.00     0.047 A 
ATOM     25  C   UNL A   1      30.839  29.488  24.497  1.00  0.00     0.050 A 
ATOM     26  C   UNL A   1      29.278  27.725  23.068  1.00  0.00     0.007 A 
ATOM     27  C   UNL A   1      29.707  29.955  23.784  1.00  0.00    -0.045 A 
ATOM     28  C   UNL A   1      28.815  29.020  23.241  1.00  0.00    -0.048 A 
ATOM     29  C   UNL A   1      29.551  31.425  23.521  1.00  0.00     0.045 C 
ATOM     30  C   UNL A   1      27.427  29.343  22.774  1.00  0.00     0.044 C 
ENDBRANCH  22  23
ENDBRANCH   9  22
BRANCH  15  31
ATOM     31  C   UNL A   1      32.690  18.981  24.591  1.00  0.00     0.159 A 
ATOM     32  C   UNL A   1      32.942  17.944  23.546  1.00  0.00     0.051 A 
ATOM     33  O   UNL A   1      32.881  17.999  25.772  1.00  0.00    -0.464 OA
ATOM     34  C   UNL A   1      33.293  16.663  24.059  1.00  0.00     0.042 A 
ATOM     35  C   UNL A   1      33.242  16.766  25.406  1.00  0.00     0.195 A 
ENDBRANCH  15  31
ENDBRANCH   6   7
ENDBRANCH   5   6
ENDBRANCH   3   5
ENDBRANCH   2   3
ENDBRANCH   1   2
BRANCH   1  36
ATOM     36  C   UNL A   1      40.914  21.893  25.853  1.00  0.00     0.275 C 
BRANCH  36  37
ATOM     37  O   UNL A   1      41.845  22.538  26.733  1.00  0.00    -0.458 OA
BRANCH  37  38
ATOM     38  C   UNL A   1      41.956  23.855  26.490  1.00  0.00     0.338 C 
ATOM     39  O   UNL A   1      42.124  24.387  25.401  1.00  0.00    -0.246 OA
BRANCH  38  40
ATOM     40  C   UNL A   1      41.813  24.632  27.728  1.00  0.00     0.060 A 
ATOM     41  C   UNL A   1      40.154  25.140  28.401  1.00  0.00     0.016 A 
ATOM     42  C   UNL A   1      43.281  25.533  28.254  1.00  0.00     0.016 A 
ATOM     43  C   UNL A   1      40.023  26.547  29.533  1.00  0.00     0.010 A 
ATOM     44  C   UNL A   1      43.124  26.966  29.372  1.00  0.00     0.010 A 
ATOM     45  C   UNL A   1      41.503  27.496  30.003  1.00  0.00    -0.014 A 
BRANCH  45  46
ATOM     46  C   UNL A   1      41.431  28.629  30.993  1.00  0.00     0.031 A 
ATOM     47  C   UNL A   1      42.220  28.619  32.292  1.00  0.00     0.074 A 
ATOM     48  C   UNL A   1      40.558  29.634  30.770  1.00  0.00     0.049 A 
ATOM     49  N   UNL A   1      42.228  29.481  33.281  1.00  0.00    -0.248 NA
ATOM     50  C   UNL A   1      43.152  27.508  32.502  1.00  0.00     0.031 C 
ATOM     51  C   UNL A   1      39.723  29.801  29.578  1.00  0.00     0.029 A 
ATOM     52  N   UNL A   1      40.168  30.680  31.576  1.00  0.00    -0.354 N 
ATOM     53  C   UNL A   1      43.192  29.034  34.189  1.00  0.00     0.074 A 
ATOM     54  C   UNL A   1      43.737  27.814  33.651  1.00  0.00     0.031 C 
ATOM     55  C   UNL A   1      38.892  30.836  29.746  1.00  0.00     0.029 A 
ATOM     56  C   UNL A   1      39.095  31.382  31.076  1.00  0.00     0.049 A 
ATOM     57  H   UNL A   1      40.614  30.904  32.426  1.00  0.00     0.167 HD
ATOM     58  C   UNL A   1      43.573  29.567  35.375  1.00  0.00     0.037 A 
ATOM     59  C   UNL A   1      38.311  32.325  31.630  1.00  0.00     0.037 A 
ATOM     60  C   UNL A   1      42.929  30.710  35.969  1.00  0.00     0.049 A 
ATOM     61  C   UNL A   1      38.645  32.819  33.003  1.00  0.00     0.074 A 
ATOM     62  C   UNL A   1      43.209  31.334  37.173  1.00  0.00     0.029 A 
ATOM     63  N   UNL A   1      41.836  31.369  35.423  1.00  0.00    -0.354 N 
ATOM     64  N   UNL A   1      39.603  32.422  33.806  1.00  0.00    -0.248 NA
ATOM     65  C   UNL A   1      37.814  33.905  33.535  1.00  0.00     0.031 C 
ATOM     66  C   UNL A   1      42.231  32.309  37.394  1.00  0.00     0.029 A 
ATOM     67  C   UNL A   1      41.398  32.357  36.286  1.00  0.00     0.049 A 
ATOM     68  H   UNL A   1      41.432  31.162  34.549  1.00  0.00     0.167 HD
ATOM     69  C   UNL A   1      39.519  33.242  34.923  1.00  0.00     0.074 A 
ATOM     70  C   UNL A   1      38.421  34.158  34.686  1.00  0.00     0.031 C 
ATOM     71  C   UNL A   1      40.291  33.247  36.038  1.00  0.00     0.037 A 
BRANCH  58  72
ATOM     72  C   UNL A   1      44.692  28.897  36.147  1.00  0.00     0.058 A 
ATOM     73  C   UNL A   1      46.024  29.339  36.060  1.00  0.00     0.135 A 
ATOM     74  C   UNL A   1      44.421  27.843  37.037  1.00  0.00     0.135 A 
ATOM     75  F   UNL A   1      46.353  30.331  35.219  1.00  0.00    -0.206 F 
ATOM     76  C   UNL A   1      47.042  28.756  36.814  1.00  0.00     0.059 A 
ATOM     77  C   UNL A   1      45.419  27.263  37.822  1.00  0.00     0.059 A 
ATOM     78  F   UNL A   1      43.173  27.369  37.163  1.00  0.00    -0.206 F 
ATOM     79  C   UNL A   1      46.729  27.721  37.697  1.00  0.00     0.060 A 
BRANCH  79  80
ATOM     80  S   UNL A   1      48.057  26.988  38.681  1.00  0.00     0.124 S 
ATOM     81  O   UNL A   1      48.170  25.662  38.082  1.00  0.00    -0.237 OA
ATOM     82  O   UNL A   1      49.170  27.896  38.423  1.00  0.00    -0.237 OA
ATOM     83  O   UNL A   1      47.531  27.016  40.042  1.00  0.00    -0.744 OA
ENDBRANCH  79  80
ENDBRANCH  58  72
BRANCH  59  84
ATOM     84  C   UNL A   1      37.147  32.849  30.866  1.00  0.00     0.058 A 
ATOM     85  C   UNL A   1      35.854  32.357  31.091  1.00  0.00     0.135 A 
ATOM     86  C   UNL A   1      37.294  33.903  29.946  1.00  0.00     0.135 A 
ATOM     87  F   UNL A   1      35.662  31.355  31.963  1.00  0.00    -0.206 F 
ATOM     88  C   UNL A   1      34.751  32.877  30.424  1.00  0.00     0.059 A 
ATOM     89  C   UNL A   1      36.202  34.461  29.290  1.00  0.00     0.059 A 
ATOM     90  F   UNL A   1      38.506  34.430  29.713  1.00  0.00    -0.206 F 
ATOM     91  C   UNL A   1      34.934  33.934  29.530  1.00  0.00     0.060 A 
BRANCH  91  92
ATOM     92  S   UNL A   1      33.483  34.629  28.710  1.00  0.00     0.124 S 
ATOM     93  O   UNL A   1      34.054  35.792  28.041  1.00  0.00    -0.237 OA
ATOM     94  O   UNL A   1      33.069  33.531  27.842  1.00  0.00    -0.237 OA
ATOM     95  O   UNL A   1      32.577  34.919  29.818  1.00  0.00    -0.744 OA
ENDBRANCH  91  92
ENDBRANCH  59  84
BRANCH  71  96
ATOM     96  C   UNL A   1      39.993  34.297  37.068  1.00  0.00     0.058 A 
ATOM     97  C   UNL A   1      39.188  34.031  38.186  1.00  0.00     0.135 A 
ATOM     98  C   UNL A   1      40.545  35.582  36.943  1.00  0.00     0.135 A 
ATOM     99  F   UNL A   1      38.628  32.821  38.346  1.00  0.00    -0.206 F 
ATOM    100  C   UNL A   1      38.911  35.015  39.127  1.00  0.00     0.059 A 
ATOM    101  C   UNL A   1      40.316  36.569  37.893  1.00  0.00     0.059 A 
ATOM    102  F   UNL A   1      41.329  35.884  35.895  1.00  0.00    -0.206 F 
ATOM    103  C   UNL A   1      39.485  36.279  38.974  1.00  0.00     0.060 A 
BRANCH 103 104
ATOM    104  S   UNL A   1      39.140  37.536  40.221  1.00  0.00     0.124 S 
ATOM    105  O   UNL A   1      38.599  36.729  41.309  1.00  0.00    -0.237 OA
ATOM    106  O   UNL A   1      40.463  38.109  40.452  1.00  0.00    -0.237 OA
ATOM    107  O   UNL A   1      38.186  38.419  39.559  1.00  0.00    -0.744 OA
ENDBRANCH 103 104
ENDBRANCH  71  96
ENDBRANCH  45  46
ENDBRANCH  38  40
ENDBRANCH  37  38
ENDBRANCH  36  37
ENDBRANCH   1  36
TORSDOF 20
ENDMDL
MODEL 2
REMARK VINA RESULT:     -13.4      1.343      8.010
REMARK SMILES CC(=O)N[C@H]1[C@@H](Oc2ccc(C)c(C)c2)O[C@H]2CO[C@H](c3ccco3)O[C@@H]2[C@H]1OCC(=O)OCCOC(=O)c1ccc(-c2c3nc(c(-c4c(F)cc(S(=O)(=O)[O-])cc4F)c4ccc([nH]4)c(-c4c(F)cc(S(=O)(=O)[O-])cc4F)c4nc(c(-c5c(F)cc(S(=O)(=O)[O-])cc5F)c5ccc2[nH]5)C=C4)C=C3)cc1
REMARK SMILES IDX 34 1 33 2 31 3 32 4 30 5 29 6 28 7 5 8 6 9 16 10 27 11 17 12
REMARK SMILES IDX 26 13 18 14 20 15 19 16 4 17 1 18 2 19 3 20 7 22 8 23 9 24
REMARK SMILES IDX 15 25 10 26 13 27 11 28 14 29 12 30 21 31 22 32 25 33 23 34
REMARK SMILES IDX 24 35 35 36 36 37 37 38 38 39 39 40 40 41 104 42 41 43
REMARK SMILES IDX 103 44 42 45 43 46 44 47 97 48 45 49 102 50 96 51 98 52
REMARK SMILES IDX 46 53 101 54 95 55 94 56 47 58 81 59 60 60 80 61 61 62 64 63
REMARK SMILES IDX 79 64 99 65 62 66 63 67 78 69 100 70 65 71 48 72 49 73 58 74
REMARK SMILES IDX 50 75 51 76 57 77 59 78 52 79 53 80 54 81 55 82 56 83 82 84
REMARK SMILES IDX 83 85 92 86 84 87 85 88 91 89 93 90 86 91 87 92 88 93 89 94
REMARK SMILES IDX 90 95 66 96 67 97 76 98 68 99 69 100 75 101 77 102 70 103
REMARK SMILES IDX 71 104 72 105 73 106 74 107
REMARK H PARENT 4 21 98 57 64 68
REMARK Flexibility Score: inf
ROOT
ATOM      1  C   UNL A   1      39.813  21.950  26.518  1.00  0.00     0.274 C 
ENDROOT
BRANCH   1   2
ATOM      2  O   UNL A   1      38.949  22.748  25.666  1.00  0.00    -0.460 OA
BRANCH   2   3
ATOM      3  C   UNL A   1      37.618  22.501  25.786  1.00  0.00     0.332 C 
ATOM      4  O   UNL A   1      37.115  21.384  25.694  1.00  0.00    -0.250 OA
BRANCH   3   5
ATOM      5  C   UNL A   1      36.742  23.755  25.996  1.00  0.00     0.283 C 
BRANCH   5   6
ATOM      6  O   UNL A   1      35.733  24.190  25.134  1.00  0.00    -0.361 OA
BRANCH   6   7
ATOM      7  C   UNL A   1      34.346  24.189  25.493  1.00  0.00     0.179 C 
ATOM      8  C   UNL A   1      33.811  25.502  24.874  1.00  0.00     0.182 C 
ATOM      9  C   UNL A   1      32.526  25.923  25.613  1.00  0.00     0.333 C 
ATOM     10  O   UNL A   1      31.522  24.885  25.499  1.00  0.00    -0.332 OA
ATOM     11  C   UNL A   1      33.280  23.154  25.070  1.00  0.00     0.184 C 
ATOM     12  C   UNL A   1      31.998  23.554  25.817  1.00  0.00     0.180 C 
ATOM     13  O   UNL A   1      33.643  21.838  25.373  1.00  0.00    -0.337 OA
ATOM     14  C   UNL A   1      30.950  22.514  25.467  1.00  0.00     0.199 C 
ATOM     15  C   UNL A   1      32.607  20.703  24.843  1.00  0.00     0.319 C 
ATOM     16  O   UNL A   1      31.390  21.175  25.736  1.00  0.00    -0.343 OA
BRANCH   8  17
ATOM     17  N   UNL A   1      33.770  25.281  23.375  1.00  0.00    -0.345 N 
ATOM     18  C   UNL A   1      33.600  27.527  22.195  1.00  0.00     0.114 C 
ATOM     19  C   UNL A   1      33.569  26.022  22.249  1.00  0.00     0.217 C 
ATOM     20  O   UNL A   1      33.321  25.383  21.221  1.00  0.00    -0.275 OA
ATOM     21  H   UNL A   1      33.935  24.336  23.151  1.00  0.00     0.164 HD
ENDBRANCH   8  17
BRANCH   9  22
ATOM     22  O   UNL A   1      32.046  27.296  25.452  1.00  0.00    -0.463 OA
BRANCH  22  23
ATOM     23  C   UNL A   1      32.730  28.399  25.876  1.00  0.00     0.123 A 
ATOM     24  C   UNL A   1      32.348  29.710  25.669  1.00  0.00     0.047 A 
ATOM     25  C   UNL A   1      33.964  28.219  26.501  1.00  0.00     0.050 A 
ATOM     26  C   UNL A   1      32.836  30.732  26.476  1.00  0.00     0.007 A 
ATOM     27  C   UNL A   1      34.621  29.301  27.136  1.00  0.00    -0.045 A 
ATOM     28  C   UNL A   1      33.936  30.514  27.291  1.00  0.00    -0.048 A 
ATOM     29  C   UNL A   1      36.068  29.169  27.517  1.00  0.00     0.045 C 
ATOM     30  C   UNL A   1      34.354  31.612  28.223  1.00  0.00     0.044 C 
ENDBRANCH  22  23
ENDBRANCH   9  22
BRANCH  15  31
ATOM     31  C   UNL A   1      33.222  18.642  24.600  1.00  0.00     0.159 A 
ATOM     32  C   UNL A   1      34.207  17.795  23.865  1.00  0.00     0.051 A 
ATOM     33  O   UNL A   1      32.573  17.446  25.338  1.00  0.00    -0.464 OA
ATOM     34  C   UNL A   1      34.166  16.413  24.205  1.00  0.00     0.042 A 
ATOM     35  C   UNL A   1      33.163  16.271  25.101  1.00  0.00     0.195 A 
ENDBRANCH  15  31
ENDBRANCH   6   7
ENDBRANCH   5   6
ENDBRANCH   3   5
ENDBRANCH   2   3
ENDBRANCH   1   2
BRANCH   1  36
ATOM     36  C   UNL A   1      40.873  22.828  27.173  1.00  0.00     0.275 C 
BRANCH  36  37
ATOM     37  O   UNL A   1      41.643  23.433  26.124  1.00  0.00    -0.458 OA
BRANCH  37  38
ATOM     38  C   UNL A   1      41.531  24.773  26.111  1.00  0.00     0.338 C 
ATOM     39  O   UNL A   1      41.591  25.504  25.132  1.00  0.00    -0.246 OA
BRANCH  38  40
ATOM     40  C   UNL A   1      41.281  25.292  27.463  1.00  0.00     0.060 A 
ATOM     41  C   UNL A   1      39.568  25.455  28.169  1.00  0.00     0.016 A 
ATOM     42  C   UNL A   1      42.617  26.265  28.179  1.00  0.00     0.016 A 
ATOM     43  C   UNL A   1      39.249  26.609  29.527  1.00  0.00     0.010 A 
ATOM     44  C   UNL A   1      42.269  27.443  29.528  1.00  0.00     0.010 A 
ATOM     45  C   UNL A   1      40.590  27.640  30.197  1.00  0.00    -0.014 A 
BRANCH  45  46
ATOM     46  C   UNL A   1      40.366  28.560  31.369  1.00  0.00     0.031 A 
ATOM     47  C   UNL A   1      39.434  29.758  31.289  1.00  0.00     0.074 A 
ATOM     48  C   UNL A   1      41.095  28.376  32.491  1.00  0.00     0.049 A 
ATOM     49  N   UNL A   1      39.173  30.685  32.180  1.00  0.00    -0.248 NA
ATOM     50  C   UNL A   1      38.665  29.929  30.053  1.00  0.00     0.031 C 
ATOM     51  C   UNL A   1      42.033  27.279  32.737  1.00  0.00     0.029 A 
ATOM     52  N   UNL A   1      41.217  29.156  33.619  1.00  0.00    -0.354 N 
ATOM     53  C   UNL A   1      38.185  31.502  31.625  1.00  0.00     0.074 A 
ATOM     54  C   UNL A   1      37.904  30.982  30.311  1.00  0.00     0.031 C 
ATOM     55  C   UNL A   1      42.668  27.477  33.898  1.00  0.00     0.029 A 
ATOM     56  C   UNL A   1      42.224  28.739  34.461  1.00  0.00     0.049 A 
ATOM     57  H   UNL A   1      40.642  29.933  33.805  1.00  0.00     0.167 HD
ATOM     58  C   UNL A   1      37.584  32.602  32.140  1.00  0.00     0.037 A 
ATOM     59  C   UNL A   1      42.779  29.320  35.541  1.00  0.00     0.037 A 
ATOM     60  C   UNL A   1      37.967  33.194  33.397  1.00  0.00     0.049 A 
ATOM     61  C   UNL A   1      42.208  30.612  36.034  1.00  0.00     0.074 A 
ATOM     62  C   UNL A   1      37.449  34.317  34.018  1.00  0.00     0.029 A 
ATOM     63  N   UNL A   1      39.005  32.737  34.197  1.00  0.00    -0.354 N 
ATOM     64  N   UNL A   1      41.231  31.324  35.523  1.00  0.00    -0.248 NA
ATOM     65  C   UNL A   1      42.790  31.167  37.260  1.00  0.00     0.031 C 
ATOM     66  C   UNL A   1      38.232  34.588  35.146  1.00  0.00     0.029 A 
ATOM     67  C   UNL A   1      39.176  33.582  35.278  1.00  0.00     0.049 A 
ATOM     68  H   UNL A   1      39.540  31.930  34.020  1.00  0.00     0.167 HD
ATOM     69  C   UNL A   1      41.050  32.390  36.393  1.00  0.00     0.074 A 
ATOM     70  C   UNL A   1      42.016  32.224  37.461  1.00  0.00     0.031 C 
ATOM     71  C   UNL A   1      40.156  33.407  36.322  1.00  0.00     0.037 A 
BRANCH  58  72
ATOM     72  C   UNL A   1      36.495  33.281  31.334  1.00  0.00     0.058 A 
ATOM     73  C   UNL A   1      35.148  33.252  31.733  1.00  0.00     0.135 A 
ATOM     74  C   UNL A   1      36.810  34.027  30.185  1.00  0.00     0.135 A 
ATOM     75  F   UNL A   1      34.777  32.546  32.812  1.00  0.00    -0.206 F 
ATOM     76  C   UNL A   1      34.156  33.925  31.019  1.00  0.00     0.059 A 
ATOM     77  C   UNL A   1      35.839  34.730  29.470  1.00  0.00     0.059 A 
ATOM     78  F   UNL A   1      38.076  34.090  29.746  1.00  0.00    -0.206 F 
ATOM     79  C   UNL A   1      34.512  34.667  29.891  1.00  0.00     0.060 A 
BRANCH  79  80
ATOM     80  S   UNL A   1      33.217  35.547  28.987  1.00  0.00     0.124 S 
ATOM     81  O   UNL A   1      32.486  36.192  30.074  1.00  0.00    -0.237 OA
ATOM     82  O   UNL A   1      33.990  36.438  28.128  1.00  0.00    -0.237 OA
ATOM     83  O   UNL A   1      32.497  34.482  28.296  1.00  0.00    -0.744 OA
ENDBRANCH  79  80
ENDBRANCH  58  72
BRANCH  59  84
ATOM     84  C   UNL A   1      43.934  28.663  36.211  1.00  0.00     0.058 A 
ATOM     85  C   UNL A   1      45.234  29.166  36.068  1.00  0.00     0.135 A 
ATOM     86  C   UNL A   1      43.750  27.560  37.064  1.00  0.00     0.135 A 
ATOM     87  F   UNL A   1      45.460  30.219  35.268  1.00  0.00    -0.206 F 
ATOM     88  C   UNL A   1      46.313  28.594  36.733  1.00  0.00     0.059 A 
ATOM     89  C   UNL A   1      44.808  26.991  37.765  1.00  0.00     0.059 A 
ATOM     90  F   UNL A   1      42.521  27.056  37.258  1.00  0.00    -0.206 F 
ATOM     91  C   UNL A   1      46.089  27.511  37.585  1.00  0.00     0.060 A 
BRANCH  91  92
ATOM     92  S   UNL A   1      47.494  26.814  38.479  1.00  0.00     0.124 S 
ATOM     93  O   UNL A   1      47.896  25.728  37.592  1.00  0.00    -0.237 OA
ATOM     94  O   UNL A   1      48.405  27.953  38.549  1.00  0.00    -0.237 OA
ATOM     95  O   UNL A   1      46.913  26.405  39.755  1.00  0.00    -0.744 OA
ENDBRANCH  91  92
ENDBRANCH  59  84
BRANCH  71  96
ATOM     96  C   UNL A   1      40.161  34.398  37.450  1.00  0.00     0.058 A 
ATOM     97  C   UNL A   1      39.349  34.235  38.583  1.00  0.00     0.135 A 
ATOM     98  C   UNL A   1      41.013  35.513  37.403  1.00  0.00     0.135 A 
ATOM     99  F   UNL A   1      38.509  33.191  38.671  1.00  0.00    -0.206 F 
ATOM    100  C   UNL A   1      39.355  35.165  39.615  1.00  0.00     0.059 A 
ATOM    101  C   UNL A   1      41.066  36.433  38.443  1.00  0.00     0.059 A 
ATOM    102  F   UNL A   1      41.816  35.709  36.345  1.00  0.00    -0.206 F 
ATOM    103  C   UNL A   1      40.221  36.258  39.538  1.00  0.00     0.060 A 
BRANCH 103 104
ATOM    104  S   UNL A   1      40.239  37.438  40.900  1.00  0.00     0.124 S 
ATOM    105  O   UNL A   1      40.287  38.709  40.187  1.00  0.00    -0.237 OA
ATOM    106  O   UNL A   1      38.982  37.140  41.581  1.00  0.00    -0.237 OA
ATOM    107  O   UNL A   1      41.446  37.086  41.640  1.00  0.00    -0.744 OA
ENDBRANCH 103 104
ENDBRANCH  71  96
ENDBRANCH  45  46
ENDBRANCH  38  40
ENDBRANCH  37  38
ENDBRANCH  36  37
ENDBRANCH   1  36
TORSDOF 20
ENDMDL
MODEL 3
REMARK VINA RESULT:     -12.9      1.262      2.303
REMARK SMILES CC(=O)N[C@H]1[C@@H](Oc2ccc(C)c(C)c2)O[C@H]2CO[C@H](c3ccco3)O[C@@H]2[C@H]1OCC(=O)OCCOC(=O)c1ccc(-c2c3nc(c(-c4c(F)cc(S(=O)(=O)[O-])cc4F)c4ccc([nH]4)c(-c4c(F)cc(S(=O)(=O)[O-])cc4F)c4nc(c(-c5c(F)cc(S(=O)(=O)[O-])cc5F)c5ccc2[nH]5)C=C4)C=C3)cc1
REMARK SMILES IDX 34 1 33 2 31 3 32 4 30 5 29 6 28 7 5 8 6 9 16 10 27 11 17 12
REMARK SMILES IDX 26 13 18 14 20 15 19 16 4 17 1 18 2 19 3 20 7 22 8 23 9 24
REMARK SMILES IDX 15 25 10 26 13 27 11 28 14 29 12 30 21 31 22 32 25 33 23 34
REMARK SMILES IDX 24 35 35 36 36 37 37 38 38 39 39 40 40 41 104 42 41 43
REMARK SMILES IDX 103 44 42 45 43 46 44 47 97 48 45 49 102 50 96 51 98 52
REMARK SMILES IDX 46 53 101 54 95 55 94 56 47 58 81 59 60 60 80 61 61 62 64 63
REMARK SMILES IDX 79 64 99 65 62 66 63 67 78 69 100 70 65 71 48 72 49 73 58 74
REMARK SMILES IDX 50 75 51 76 57 77 59 78 52 79 53 80 54 81 55 82 56 83 82 84
REMARK SMILES IDX 83 85 92 86 84 87 85 88 91 89 93 90 86 91 87 92 88 93 89 94
REMARK SMILES IDX 90 95 66 96 67 97 76 98 68 99 69 100 75 101 77 102 70 103
REMARK SMILES IDX 71 104 72 105 73 106 74 107
REMARK H PARENT 4 21 98 57 64 68
REMARK Flexibility Score: inf
ROOT
ATOM      1  C   UNL A   1      39.093  21.263  25.801  1.00  0.00     0.274 C 
ENDROOT
BRANCH   1   2
ATOM      2  O   UNL A   1      38.277  20.958  24.639  1.00  0.00    -0.460 OA
BRANCH   2   3
ATOM      3  C   UNL A   1      36.949  21.210  24.774  1.00  0.00     0.332 C 
ATOM      4  O   UNL A   1      36.181  20.515  25.436  1.00  0.00    -0.250 OA
BRANCH   3   5
ATOM      5  C   UNL A   1      36.435  22.427  23.976  1.00  0.00     0.283 C 
BRANCH   5   6
ATOM      6  O   UNL A   1      35.962  23.618  24.533  1.00  0.00    -0.361 OA
BRANCH   6   7
ATOM      7  C   UNL A   1      34.619  23.779  25.006  1.00  0.00     0.179 C 
ATOM      8  C   UNL A   1      34.154  25.091  24.331  1.00  0.00     0.182 C 
ATOM      9  C   UNL A   1      32.984  25.687  25.139  1.00  0.00     0.333 C 
ATOM     10  O   UNL A   1      31.883  24.748  25.192  1.00  0.00    -0.332 OA
ATOM     11  C   UNL A   1      33.429  22.827  24.756  1.00  0.00     0.184 C 
ATOM     12  C   UNL A   1      32.262  23.402  25.573  1.00  0.00     0.180 C 
ATOM     13  O   UNL A   1      33.696  21.506  25.130  1.00  0.00    -0.337 OA
ATOM     14  C   UNL A   1      31.095  22.448  25.395  1.00  0.00     0.199 C 
ATOM     15  C   UNL A   1      32.517  20.444  24.780  1.00  0.00     0.319 C 
ATOM     16  O   UNL A   1      31.433  21.095  25.731  1.00  0.00    -0.343 OA
BRANCH   8  17
ATOM     17  N   UNL A   1      33.956  24.770  22.863  1.00  0.00    -0.345 N 
ATOM     18  C   UNL A   1      32.160  26.290  21.900  1.00  0.00     0.114 C 
ATOM     19  C   UNL A   1      33.105  25.118  21.857  1.00  0.00     0.217 C 
ATOM     20  O   UNL A   1      33.117  24.383  20.864  1.00  0.00    -0.275 OA
ATOM     21  H   UNL A   1      34.635  24.130  22.545  1.00  0.00     0.164 HD
ENDBRANCH   8  17
BRANCH   9  22
ATOM     22  O   UNL A   1      32.620  27.087  24.911  1.00  0.00    -0.463 OA
BRANCH  22  23
ATOM     23  C   UNL A   1      32.901  28.101  25.781  1.00  0.00     0.123 A 
ATOM     24  C   UNL A   1      33.813  28.040  26.816  1.00  0.00     0.047 A 
ATOM     25  C   UNL A   1      32.161  29.280  25.692  1.00  0.00     0.050 A 
ATOM     26  C   UNL A   1      34.350  29.201  27.362  1.00  0.00     0.007 A 
ATOM     27  C   UNL A   1      32.538  30.430  26.427  1.00  0.00    -0.045 A 
ATOM     28  C   UNL A   1      33.765  30.431  27.104  1.00  0.00    -0.048 A 
ATOM     29  C   UNL A   1      31.569  31.570  26.568  1.00  0.00     0.045 C 
ATOM     30  C   UNL A   1      34.447  31.661  27.624  1.00  0.00     0.044 C 
ENDBRANCH  22  23
ENDBRANCH   9  22
BRANCH  15  31
ATOM     31  C   UNL A   1      32.915  18.320  24.651  1.00  0.00     0.159 A 
ATOM     32  C   UNL A   1      32.426  17.006  25.164  1.00  0.00     0.051 A 
ATOM     33  O   UNL A   1      34.040  17.694  23.792  1.00  0.00    -0.464 OA
ATOM     34  C   UNL A   1      33.096  15.874  24.619  1.00  0.00     0.042 A 
ATOM     35  C   UNL A   1      34.053  16.358  23.796  1.00  0.00     0.195 A 
ENDBRANCH  15  31
ENDBRANCH   6   7
ENDBRANCH   5   6
ENDBRANCH   3   5
ENDBRANCH   2   3
ENDBRANCH   1   2
BRANCH   1  36
ATOM     36  C   UNL A   1      38.827  22.686  26.280  1.00  0.00     0.275 C 
BRANCH  36  37
ATOM     37  O   UNL A   1      39.822  23.006  27.262  1.00  0.00    -0.458 OA
BRANCH  37  38
ATOM     38  C   UNL A   1      40.794  23.794  26.770  1.00  0.00     0.338 C 
ATOM     39  O   UNL A   1      41.600  23.505  25.897  1.00  0.00    -0.246 OA
BRANCH  38  40
ATOM     40  C   UNL A   1      40.765  25.120  27.402  1.00  0.00     0.060 A 
ATOM     41  C   UNL A   1      42.285  26.182  27.564  1.00  0.00     0.016 A 
ATOM     42  C   UNL A   1      39.363  25.432  28.489  1.00  0.00     0.016 A 
ATOM     43  C   UNL A   1      42.359  27.479  28.826  1.00  0.00     0.010 A 
ATOM     44  C   UNL A   1      39.469  26.723  29.773  1.00  0.00     0.010 A 
ATOM     45  C   UNL A   1      40.965  27.739  29.966  1.00  0.00    -0.014 A 
BRANCH  45  46
ATOM     46  C   UNL A   1      40.975  28.852  30.981  1.00  0.00     0.031 A 
ATOM     47  C   UNL A   1      41.821  28.788  32.242  1.00  0.00     0.074 A 
ATOM     48  C   UNL A   1      40.127  29.891  30.818  1.00  0.00     0.049 A 
ATOM     49  N   UNL A   1      41.902  29.627  33.247  1.00  0.00    -0.248 NA
ATOM     50  C   UNL A   1      42.723  27.642  32.387  1.00  0.00     0.031 C 
ATOM     51  C   UNL A   1      39.247  30.111  29.669  1.00  0.00     0.029 A 
ATOM     52  N   UNL A   1      39.810  30.931  31.662  1.00  0.00    -0.354 N 
ATOM     53  C   UNL A   1      42.890  29.129  34.101  1.00  0.00     0.074 A 
ATOM     54  C   UNL A   1      43.369  27.904  33.514  1.00  0.00     0.031 C 
ATOM     55  C   UNL A   1      38.460  31.169  29.896  1.00  0.00     0.029 A 
ATOM     56  C   UNL A   1      38.740  31.679  31.226  1.00  0.00     0.049 A 
ATOM     57  H   UNL A   1      40.301  31.121  32.495  1.00  0.00     0.167 HD
ATOM     58  C   UNL A   1      43.342  29.623  35.280  1.00  0.00     0.037 A 
ATOM     59  C   UNL A   1      38.014  32.635  31.834  1.00  0.00     0.037 A 
ATOM     60  C   UNL A   1      42.764  30.774  35.925  1.00  0.00     0.049 A 
ATOM     61  C   UNL A   1      38.425  33.087  33.200  1.00  0.00     0.074 A 
ATOM     62  C   UNL A   1      43.118  31.361  37.128  1.00  0.00     0.029 A 
ATOM     63  N   UNL A   1      41.670  31.479  35.443  1.00  0.00    -0.354 N 
ATOM     64  N   UNL A   1      39.404  32.641  33.951  1.00  0.00    -0.248 NA
ATOM     65  C   UNL A   1      37.657  34.188  33.791  1.00  0.00     0.031 C 
ATOM     66  C   UNL A   1      42.185  32.363  37.413  1.00  0.00     0.029 A 
ATOM     67  C   UNL A   1      41.306  32.462  36.345  1.00  0.00     0.049 A 
ATOM     68  H   UNL A   1      41.221  31.306  34.584  1.00  0.00     0.167 HD
ATOM     69  C   UNL A   1      39.398  33.439  35.087  1.00  0.00     0.074 A 
ATOM     70  C   UNL A   1      38.322  34.395  34.919  1.00  0.00     0.031 C 
ATOM     71  C   UNL A   1      40.219  33.394  36.165  1.00  0.00     0.037 A 
BRANCH  58  72
ATOM     72  C   UNL A   1      44.470  28.900  35.986  1.00  0.00     0.058 A 
ATOM     73  C   UNL A   1      44.233  27.811  36.843  1.00  0.00     0.135 A 
ATOM     74  C   UNL A   1      45.811  29.255  35.753  1.00  0.00     0.135 A 
ATOM     75  F   UNL A   1      42.978  27.430  37.121  1.00  0.00    -0.206 F 
ATOM     76  C   UNL A   1      45.278  27.112  37.448  1.00  0.00     0.059 A 
ATOM     77  C   UNL A   1      46.872  28.554  36.325  1.00  0.00     0.059 A 
ATOM     78  F   UNL A   1      46.105  30.289  34.950  1.00  0.00    -0.206 F 
ATOM     79  C   UNL A   1      46.596  27.487  37.179  1.00  0.00     0.060 A 
BRANCH  79  80
ATOM     80  S   UNL A   1      47.938  26.560  37.957  1.00  0.00     0.124 S 
ATOM     81  O   UNL A   1      47.801  26.959  39.354  1.00  0.00    -0.237 OA
ATOM     82  O   UNL A   1      47.577  25.179  37.655  1.00  0.00    -0.237 OA
ATOM     83  O   UNL A   1      49.134  27.055  37.281  1.00  0.00    -0.744 OA
ENDBRANCH  79  80
ENDBRANCH  58  72
BRANCH  59  84
ATOM     84  C   UNL A   1      36.835  33.214  31.135  1.00  0.00     0.058 A 
ATOM     85  C   UNL A   1      35.533  32.963  31.585  1.00  0.00     0.135 A 
ATOM     86  C   UNL A   1      36.992  34.087  30.043  1.00  0.00     0.135 A 
ATOM     87  F   UNL A   1      35.331  32.140  32.626  1.00  0.00    -0.206 F 
ATOM     88  C   UNL A   1      34.426  33.542  30.974  1.00  0.00     0.059 A 
ATOM     89  C   UNL A   1      35.903  34.703  29.435  1.00  0.00     0.059 A 
ATOM     90  F   UNL A   1      38.220  34.383  29.588  1.00  0.00    -0.206 F 
ATOM     91  C   UNL A   1      34.622  34.417  29.904  1.00  0.00     0.060 A 
BRANCH  91  92
ATOM     92  S   UNL A   1      33.177  35.199  29.155  1.00  0.00     0.124 S 
ATOM     93  O   UNL A   1      32.779  34.197  28.172  1.00  0.00    -0.237 OA
ATOM     94  O   UNL A   1      32.289  35.358  30.302  1.00  0.00    -0.237 OA
ATOM     95  O   UNL A   1      33.712  36.442  28.608  1.00  0.00    -0.744 OA
ENDBRANCH  91  92
ENDBRANCH  59  84
BRANCH  71  96
ATOM     96  C   UNL A   1      40.003  34.430  37.229  1.00  0.00     0.058 A 
ATOM     97  C   UNL A   1      40.548  35.719  37.129  1.00  0.00     0.135 A 
ATOM     98  C   UNL A   1      39.216  34.132  38.353  1.00  0.00     0.135 A 
ATOM     99  F   UNL A   1      41.316  36.051  36.079  1.00  0.00    -0.206 F 
ATOM    100  C   UNL A   1      40.350  36.666  38.126  1.00  0.00     0.059 A 
ATOM    101  C   UNL A   1      38.969  35.076  39.341  1.00  0.00     0.059 A 
ATOM    102  F   UNL A   1      38.665  32.915  38.492  1.00  0.00    -0.206 F 
ATOM    103  C   UNL A   1      39.554  36.337  39.225  1.00  0.00     0.060 A 
BRANCH 103 104
ATOM    104  S   UNL A   1      39.281  37.588  40.495  1.00  0.00     0.124 S 
ATOM    105  O   UNL A   1      38.215  38.384  39.898  1.00  0.00    -0.237 OA
ATOM    106  O   UNL A   1      38.899  36.777  41.648  1.00  0.00    -0.237 OA
ATOM    107  O   UNL A   1      40.576  38.251  40.603  1.00  0.00    -0.744 OA
ENDBRANCH 103 104
ENDBRANCH  71  96
ENDBRANCH  45  46
ENDBRANCH  38  40
ENDBRANCH  37  38
ENDBRANCH  36  37
ENDBRANCH   1  36
TORSDOF 20
ENDMDL
