MODEL 1
REMARK VINA RESULT:     -12.4      0.000      0.000
REMARK SMILES COc1ccc(NC(=O)N[C@@H]2C=C[C@H](C(=O)OCCOC(=O)c3ccc(-c4c5nc(c(-c6c(F)cc(S(=O)(=O)[O-])cc6F)c6ccc([nH]6)c(-c6c(F)cc(S(=O)(=O)[O-])cc6F)c6nc(c(-c7c(F)cc(S(=O)(=O)[O-])cc7F)c7ccc4[nH]7)C=C6)C=C5)cc3)C2)c(C)c1
REMARK SMILES IDX 18 1 17 2 15 3 16 4 14 5 11 6 12 7 89 8 13 9 10 10 7 11 8 12
REMARK SMILES IDX 9 14 6 16 3 17 4 18 92 19 5 20 90 21 91 22 2 23 1 24 19 25
REMARK SMILES IDX 20 26 21 27 22 28 23 29 24 30 88 31 25 32 87 33 26 34 27 35
REMARK SMILES IDX 28 36 81 37 29 38 86 39 80 40 82 41 30 42 85 43 79 44 78 45
REMARK SMILES IDX 31 47 65 48 44 49 64 50 45 51 48 52 63 53 83 54 46 55 47 56
REMARK SMILES IDX 62 58 84 59 49 60 32 61 33 62 42 63 34 64 35 65 41 66 43 67
REMARK SMILES IDX 36 68 37 69 38 70 39 71 40 72 66 73 67 74 76 75 68 76 69 77
REMARK SMILES IDX 75 78 77 79 70 80 71 81 72 82 73 83 74 84 50 85 51 86 60 87
REMARK SMILES IDX 52 88 53 89 59 90 61 91 54 92 55 93 56 94 57 95 58 96
REMARK H PARENT 7 13 10 15 82 46 48 57
REMARK Flexibility Score: inf
ROOT
ATOM      1  C   UNL A   1      38.139  21.056  25.239  1.00  0.00     0.274 C 
ENDROOT
BRANCH   1   2
ATOM      2  O   UNL A   1      36.624  21.328  25.203  1.00  0.00    -0.462 OA
BRANCH   2   3
ATOM      3  C   UNL A   1      35.910  22.281  24.523  1.00  0.00     0.312 C 
ATOM      4  O   UNL A   1      36.490  23.000  23.712  1.00  0.00    -0.252 OA
BRANCH   3   5
ATOM      5  C   UNL A   1      34.199  22.384  24.714  1.00  0.00     0.124 C 
ATOM      6  C   UNL A   1      32.269  23.301  23.199  1.00  0.00     0.107 C 
ATOM      7  C   UNL A   1      32.277  23.908  24.579  1.00  0.00    -0.006 C 
ATOM      8  C   UNL A   1      33.253  22.064  23.458  1.00  0.00     0.048 C 
ATOM      9  C   UNL A   1      33.286  23.446  25.360  1.00  0.00    -0.014 C 
BRANCH   6  10
ATOM     10  N   UNL A   1      32.536  24.308  21.987  1.00  0.00    -0.332 N 
ATOM     11  N   UNL A   1      33.528  26.918  22.361  1.00  0.00    -0.308 N 
ATOM     12  C   UNL A   1      33.076  25.540  21.473  1.00  0.00     0.319 C 
ATOM     13  H   UNL A   1      34.244  27.431  21.919  1.00  0.00     0.171 HD
ATOM     14  O   UNL A   1      33.008  25.611  20.244  1.00  0.00    -0.248 OA
ATOM     15  H   UNL A   1      32.128  23.871  21.205  1.00  0.00     0.165 HD
BRANCH  11  16
ATOM     16  C   UNL A   1      32.937  27.764  24.132  1.00  0.00     0.046 A 
ATOM     17  C   UNL A   1      33.806  29.319  26.601  1.00  0.00     0.119 A 
ATOM     18  C   UNL A   1      33.806  27.970  26.685  1.00  0.00     0.048 A 
ATOM     19  C   UNL A   1      32.898  29.819  25.686  1.00  0.00     0.052 A 
ATOM     20  C   UNL A   1      33.324  27.245  25.580  1.00  0.00     0.030 A 
ATOM     21  C   UNL A   1      32.361  29.060  24.540  1.00  0.00    -0.024 A 
ATOM     22  C   UNL A   1      30.888  29.470  24.385  1.00  0.00     0.047 C 
BRANCH  17  23
ATOM     23  O   UNL A   1      34.454  30.123  27.486  1.00  0.00    -0.497 OA
ATOM     24  C   UNL A   1      33.853  31.427  27.606  1.00  0.00     0.278 C 
ENDBRANCH  17  23
ENDBRANCH  11  16
ENDBRANCH   6  10
ENDBRANCH   3   5
ENDBRANCH   2   3
ENDBRANCH   1   2
BRANCH   1  25
ATOM     25  C   UNL A   1      39.176  21.844  26.130  1.00  0.00     0.275 C 
BRANCH  25  26
ATOM     26  O   UNL A   1      38.936  23.214  26.414  1.00  0.00    -0.458 OA
BRANCH  26  27
ATOM     27  C   UNL A   1      39.920  23.756  27.122  1.00  0.00     0.338 C 
ATOM     28  O   UNL A   1      40.926  23.230  27.540  1.00  0.00    -0.246 OA
BRANCH  27  29
ATOM     29  C   UNL A   1      39.635  25.167  27.309  1.00  0.00     0.060 A 
ATOM     30  C   UNL A   1      40.553  26.322  26.233  1.00  0.00     0.016 A 
ATOM     31  C   UNL A   1      39.115  25.603  28.910  1.00  0.00     0.016 A 
ATOM     32  C   UNL A   1      41.191  27.960  26.972  1.00  0.00     0.010 A 
ATOM     33  C   UNL A   1      39.513  27.141  29.543  1.00  0.00     0.010 A 
ATOM     34  C   UNL A   1      40.634  28.225  28.696  1.00  0.00    -0.014 A 
BRANCH  34  35
ATOM     35  C   UNL A   1      41.415  28.716  29.814  1.00  0.00     0.031 A 
ATOM     36  C   UNL A   1      40.749  30.013  29.922  1.00  0.00     0.074 A 
ATOM     37  C   UNL A   1      42.244  27.765  30.405  1.00  0.00     0.049 A 
ATOM     38  N   UNL A   1      41.208  31.175  29.541  1.00  0.00    -0.248 NA
ATOM     39  C   UNL A   1      39.231  30.017  29.974  1.00  0.00     0.031 C 
ATOM     40  C   UNL A   1      42.875  27.609  31.712  1.00  0.00     0.029 A 
ATOM     41  N   UNL A   1      42.703  26.512  29.803  1.00  0.00    -0.354 N 
ATOM     42  C   UNL A   1      40.229  31.988  30.069  1.00  0.00     0.074 A 
ATOM     43  C   UNL A   1      39.012  31.302  29.703  1.00  0.00     0.031 C 
ATOM     44  C   UNL A   1      43.893  26.714  31.637  1.00  0.00     0.029 A 
ATOM     45  C   UNL A   1      43.966  26.141  30.288  1.00  0.00     0.049 A 
ATOM     46  H   UNL A   1      42.191  25.996  29.139  1.00  0.00     0.167 HD
ATOM     47  C   UNL A   1      40.404  32.399  31.379  1.00  0.00     0.037 A 
ATOM     48  C   UNL A   1      45.034  26.167  29.431  1.00  0.00     0.037 A 
ATOM     49  C   UNL A   1      41.657  31.807  31.949  1.00  0.00     0.049 A 
ATOM     50  C   UNL A   1      45.578  27.614  29.571  1.00  0.00     0.074 A 
ATOM     51  C   UNL A   1      41.915  30.838  32.909  1.00  0.00     0.029 A 
ATOM     52  N   UNL A   1      42.846  31.862  31.194  1.00  0.00    -0.354 N 
ATOM     53  N   UNL A   1      44.843  28.623  30.013  1.00  0.00    -0.248 NA
ATOM     54  C   UNL A   1      46.988  27.987  29.521  1.00  0.00     0.031 C 
ATOM     55  C   UNL A   1      43.268  30.391  32.755  1.00  0.00     0.029 A 
ATOM     56  C   UNL A   1      43.784  30.904  31.574  1.00  0.00     0.049 A 
ATOM     57  H   UNL A   1      42.998  32.512  30.470  1.00  0.00     0.167 HD
ATOM     58  C   UNL A   1      45.605  29.695  30.368  1.00  0.00     0.074 A 
ATOM     59  C   UNL A   1      46.954  29.233  30.041  1.00  0.00     0.031 C 
ATOM     60  C   UNL A   1      45.108  30.862  30.915  1.00  0.00     0.037 A 
BRANCH  47  61
ATOM     61  C   UNL A   1      39.162  32.860  32.152  1.00  0.00     0.058 A 
ATOM     62  C   UNL A   1      38.594  34.131  31.971  1.00  0.00     0.135 A 
ATOM     63  C   UNL A   1      38.483  32.040  33.100  1.00  0.00     0.135 A 
ATOM     64  F   UNL A   1      39.106  35.008  31.100  1.00  0.00    -0.206 F 
ATOM     65  C   UNL A   1      37.449  34.551  32.656  1.00  0.00     0.059 A 
ATOM     66  C   UNL A   1      37.384  32.465  33.849  1.00  0.00     0.059 A 
ATOM     67  F   UNL A   1      38.849  30.765  33.313  1.00  0.00    -0.206 F 
ATOM     68  C   UNL A   1      36.841  33.708  33.580  1.00  0.00     0.060 A 
BRANCH  68  69
ATOM     69  S   UNL A   1      35.261  34.191  34.302  1.00  0.00     0.124 S 
ATOM     70  O   UNL A   1      35.493  33.993  35.729  1.00  0.00    -0.237 OA
ATOM     71  O   UNL A   1      35.153  35.577  33.861  1.00  0.00    -0.237 OA
ATOM     72  O   UNL A   1      34.309  33.267  33.693  1.00  0.00    -0.744 OA
ENDBRANCH  68  69
ENDBRANCH  47  61
BRANCH  48  73
ATOM     73  C   UNL A   1      44.963  25.090  28.293  1.00  0.00     0.058 A 
ATOM     74  C   UNL A   1      44.925  25.606  26.966  1.00  0.00     0.135 A 
ATOM     75  C   UNL A   1      45.072  23.675  28.299  1.00  0.00     0.135 A 
ATOM     76  F   UNL A   1      44.662  26.910  26.778  1.00  0.00    -0.206 F 
ATOM     77  C   UNL A   1      45.152  24.855  25.789  1.00  0.00     0.059 A 
ATOM     78  C   UNL A   1      45.321  22.890  27.116  1.00  0.00     0.059 A 
ATOM     79  F   UNL A   1      44.950  22.979  29.441  1.00  0.00    -0.206 F 
ATOM     80  C   UNL A   1      45.397  23.493  25.859  1.00  0.00     0.060 A 
BRANCH  80  81
ATOM     81  S   UNL A   1      45.862  22.625  24.295  1.00  0.00     0.124 S 
ATOM     82  O   UNL A   1      44.561  22.422  23.666  1.00  0.00    -0.237 OA
ATOM     83  O   UNL A   1      46.711  23.605  23.613  1.00  0.00    -0.237 OA
ATOM     84  O   UNL A   1      46.535  21.397  24.697  1.00  0.00    -0.744 OA
ENDBRANCH  80  81
ENDBRANCH  48  73
BRANCH  60  85
ATOM     85  C   UNL A   1      45.887  32.161  30.926  1.00  0.00     0.058 A 
ATOM     86  C   UNL A   1      45.986  33.013  29.819  1.00  0.00     0.135 A 
ATOM     87  C   UNL A   1      46.425  32.674  32.137  1.00  0.00     0.135 A 
ATOM     88  F   UNL A   1      45.370  32.750  28.659  1.00  0.00    -0.206 F 
ATOM     89  C   UNL A   1      46.694  34.207  29.868  1.00  0.00     0.059 A 
ATOM     90  C   UNL A   1      47.010  33.922  32.238  1.00  0.00     0.059 A 
ATOM     91  F   UNL A   1      46.399  31.987  33.290  1.00  0.00    -0.206 F 
ATOM     92  C   UNL A   1      47.203  34.651  31.082  1.00  0.00     0.060 A 
BRANCH  92  93
ATOM     93  S   UNL A   1      48.134  36.179  31.136  1.00  0.00     0.124 S 
ATOM     94  O   UNL A   1      49.124  35.867  32.162  1.00  0.00    -0.237 OA
ATOM     95  O   UNL A   1      48.643  36.284  29.772  1.00  0.00    -0.237 OA
ATOM     96  O   UNL A   1      47.133  37.174  31.505  1.00  0.00    -0.744 OA
ENDBRANCH  92  93
ENDBRANCH  60  85
ENDBRANCH  34  35
ENDBRANCH  27  29
ENDBRANCH  26  27
ENDBRANCH  25  26
ENDBRANCH   1  25
TORSDOF 17
ENDMDL
MODEL 2
REMARK VINA RESULT:     -12.1      1.454      2.215
REMARK SMILES COc1ccc(NC(=O)N[C@@H]2C=C[C@H](C(=O)OCCOC(=O)c3ccc(-c4c5nc(c(-c6c(F)cc(S(=O)(=O)[O-])cc6F)c6ccc([nH]6)c(-c6c(F)cc(S(=O)(=O)[O-])cc6F)c6nc(c(-c7c(F)cc(S(=O)(=O)[O-])cc7F)c7ccc4[nH]7)C=C6)C=C5)cc3)C2)c(C)c1
REMARK SMILES IDX 18 1 17 2 15 3 16 4 14 5 11 6 12 7 89 8 13 9 10 10 7 11 8 12
REMARK SMILES IDX 9 14 6 16 3 17 4 18 92 19 5 20 90 21 91 22 2 23 1 24 19 25
REMARK SMILES IDX 20 26 21 27 22 28 23 29 24 30 88 31 25 32 87 33 26 34 27 35
REMARK SMILES IDX 28 36 81 37 29 38 86 39 80 40 82 41 30 42 85 43 79 44 78 45
REMARK SMILES IDX 31 47 65 48 44 49 64 50 45 51 48 52 63 53 83 54 46 55 47 56
REMARK SMILES IDX 62 58 84 59 49 60 32 61 33 62 42 63 34 64 35 65 41 66 43 67
REMARK SMILES IDX 36 68 37 69 38 70 39 71 40 72 66 73 67 74 76 75 68 76 69 77
REMARK SMILES IDX 75 78 77 79 70 80 71 81 72 82 73 83 74 84 50 85 51 86 60 87
REMARK SMILES IDX 52 88 53 89 59 90 61 91 54 92 55 93 56 94 57 95 58 96
REMARK H PARENT 7 13 10 15 82 46 48 57
REMARK Flexibility Score: inf
ROOT
ATOM      1  C   UNL A   1      38.025  21.208  25.542  1.00  0.00     0.274 C 
ENDROOT
BRANCH   1   2
ATOM      2  O   UNL A   1      36.565  21.466  25.959  1.00  0.00    -0.462 OA
BRANCH   2   3
ATOM      3  C   UNL A   1      35.629  22.318  25.431  1.00  0.00     0.312 C 
ATOM      4  O   UNL A   1      35.774  23.531  25.576  1.00  0.00    -0.252 OA
BRANCH   3   5
ATOM      5  C   UNL A   1      34.336  21.701  24.472  1.00  0.00     0.124 C 
ATOM      6  C   UNL A   1      31.728  21.850  24.655  1.00  0.00     0.107 C 
ATOM      7  C   UNL A   1      32.234  20.433  24.558  1.00  0.00    -0.006 C 
ATOM      8  C   UNL A   1      33.054  22.627  24.204  1.00  0.00     0.048 C 
ATOM      9  C   UNL A   1      33.587  20.353  24.479  1.00  0.00    -0.014 C 
BRANCH   6  10
ATOM     10  N   UNL A   1      30.984  22.238  26.015  1.00  0.00    -0.332 N 
ATOM     11  N   UNL A   1      29.554  24.643  26.341  1.00  0.00    -0.308 N 
ATOM     12  C   UNL A   1      30.088  23.083  26.760  1.00  0.00     0.319 C 
ATOM     13  H   UNL A   1      28.664  24.846  26.710  1.00  0.00     0.171 HD
ATOM     14  O   UNL A   1      29.862  22.654  27.893  1.00  0.00    -0.248 OA
ATOM     15  H   UNL A   1      31.294  21.569  26.667  1.00  0.00     0.165 HD
BRANCH  11  16
ATOM     16  C   UNL A   1      30.325  26.198  25.252  1.00  0.00     0.046 A 
ATOM     17  C   UNL A   1      32.594  27.142  23.454  1.00  0.00     0.119 A 
ATOM     18  C   UNL A   1      32.717  27.371  24.780  1.00  0.00     0.048 A 
ATOM     19  C   UNL A   1      31.283  27.065  23.022  1.00  0.00     0.052 A 
ATOM     20  C   UNL A   1      31.636  27.017  25.609  1.00  0.00     0.030 A 
ATOM     21  C   UNL A   1      30.136  26.724  23.886  1.00  0.00    -0.024 A 
ATOM     22  C   UNL A   1      28.954  27.589  23.418  1.00  0.00     0.047 C 
BRANCH  17  23
ATOM     23  O   UNL A   1      33.637  27.215  22.584  1.00  0.00    -0.497 OA
ATOM     24  C   UNL A   1      34.072  28.565  22.339  1.00  0.00     0.278 C 
ENDBRANCH  17  23
ENDBRANCH  11  16
ENDBRANCH   6  10
ENDBRANCH   3   5
ENDBRANCH   2   3
ENDBRANCH   1   2
BRANCH   1  25
ATOM     25  C   UNL A   1      39.257  22.090  25.982  1.00  0.00     0.275 C 
BRANCH  25  26
ATOM     26  O   UNL A   1      39.018  23.359  26.572  1.00  0.00    -0.458 OA
BRANCH  26  27
ATOM     27  C   UNL A   1      40.146  23.976  26.901  1.00  0.00     0.338 C 
ATOM     28  O   UNL A   1      41.265  23.520  26.965  1.00  0.00    -0.246 OA
BRANCH  27  29
ATOM     29  C   UNL A   1      39.854  25.376  27.150  1.00  0.00     0.060 A 
ATOM     30  C   UNL A   1      40.804  26.584  26.161  1.00  0.00     0.016 A 
ATOM     31  C   UNL A   1      39.285  25.732  28.754  1.00  0.00     0.016 A 
ATOM     32  C   UNL A   1      41.417  28.182  27.001  1.00  0.00     0.010 A 
ATOM     33  C   UNL A   1      39.662  27.236  29.475  1.00  0.00     0.010 A 
ATOM     34  C   UNL A   1      40.807  28.361  28.718  1.00  0.00    -0.014 A 
BRANCH  34  35
ATOM     35  C   UNL A   1      41.553  28.795  29.883  1.00  0.00     0.031 A 
ATOM     36  C   UNL A   1      40.899  30.095  30.021  1.00  0.00     0.074 A 
ATOM     37  C   UNL A   1      42.349  27.809  30.463  1.00  0.00     0.049 A 
ATOM     38  N   UNL A   1      41.385  31.265  29.706  1.00  0.00    -0.248 NA
ATOM     39  C   UNL A   1      39.381  30.117  30.019  1.00  0.00     0.031 C 
ATOM     40  C   UNL A   1      42.930  27.590  31.784  1.00  0.00     0.029 A 
ATOM     41  N   UNL A   1      42.815  26.576  29.825  1.00  0.00    -0.354 N 
ATOM     42  C   UNL A   1      40.398  32.069  30.232  1.00  0.00     0.074 A 
ATOM     43  C   UNL A   1      39.187  31.415  29.795  1.00  0.00     0.031 C 
ATOM     44  C   UNL A   1      43.940  26.686  31.707  1.00  0.00     0.029 A 
ATOM     45  C   UNL A   1      44.055  26.168  30.339  1.00  0.00     0.049 A 
ATOM     46  H   UNL A   1      42.321  26.094  29.123  1.00  0.00     0.167 HD
ATOM     47  C   UNL A   1      40.530  32.423  31.564  1.00  0.00     0.037 A 
ATOM     48  C   UNL A   1      45.153  26.215  29.523  1.00  0.00     0.037 A 
ATOM     49  C   UNL A   1      41.755  31.791  32.153  1.00  0.00     0.049 A 
ATOM     50  C   UNL A   1      45.709  27.648  29.743  1.00  0.00     0.074 A 
ATOM     51  C   UNL A   1      41.966  30.779  33.080  1.00  0.00     0.029 A 
ATOM     52  N   UNL A   1      42.970  31.861  31.444  1.00  0.00    -0.354 N 
ATOM     53  N   UNL A   1      44.970  28.647  30.200  1.00  0.00    -0.248 NA
ATOM     54  C   UNL A   1      47.124  28.004  29.758  1.00  0.00     0.031 C 
ATOM     55  C   UNL A   1      43.318  30.322  32.956  1.00  0.00     0.029 A 
ATOM     56  C   UNL A   1      43.883  30.876  31.817  1.00  0.00     0.049 A 
ATOM     57  H   UNL A   1      43.156  32.539  30.753  1.00  0.00     0.167 HD
ATOM     58  C   UNL A   1      45.731  29.694  30.626  1.00  0.00     0.074 A 
ATOM     59  C   UNL A   1      47.086  29.228  30.329  1.00  0.00     0.031 C 
ATOM     60  C   UNL A   1      45.229  30.844  31.203  1.00  0.00     0.037 A 
BRANCH  47  61
ATOM     61  C   UNL A   1      39.267  32.868  32.310  1.00  0.00     0.058 A 
ATOM     62  C   UNL A   1      38.723  34.154  32.167  1.00  0.00     0.135 A 
ATOM     63  C   UNL A   1      38.541  32.017  33.194  1.00  0.00     0.135 A 
ATOM     64  F   UNL A   1      39.279  35.061  31.356  1.00  0.00    -0.206 F 
ATOM     65  C   UNL A   1      37.559  34.561  32.828  1.00  0.00     0.059 A 
ATOM     66  C   UNL A   1      37.420  32.425  33.921  1.00  0.00     0.059 A 
ATOM     67  F   UNL A   1      38.881  30.727  33.363  1.00  0.00    -0.206 F 
ATOM     68  C   UNL A   1      36.905  33.687  33.689  1.00  0.00     0.060 A 
BRANCH  68  69
ATOM     69  S   UNL A   1      35.306  34.161  34.374  1.00  0.00     0.124 S 
ATOM     70  O   UNL A   1      35.174  35.546  33.935  1.00  0.00    -0.237 OA
ATOM     71  O   UNL A   1      34.419  33.200  33.728  1.00  0.00    -0.237 OA
ATOM     72  O   UNL A   1      35.481  33.979  35.812  1.00  0.00    -0.744 OA
ENDBRANCH  68  69
ENDBRANCH  47  61
BRANCH  48  73
ATOM     73  C   UNL A   1      45.111  25.188  28.339  1.00  0.00     0.058 A 
ATOM     74  C   UNL A   1      45.101  25.759  27.034  1.00  0.00     0.135 A 
ATOM     75  C   UNL A   1      45.224  23.774  28.287  1.00  0.00     0.135 A 
ATOM     76  F   UNL A   1      44.838  27.070  26.896  1.00  0.00    -0.206 F 
ATOM     77  C   UNL A   1      45.356  25.059  25.832  1.00  0.00     0.059 A 
ATOM     78  C   UNL A   1      45.501  23.040  27.078  1.00  0.00     0.059 A 
ATOM     79  F   UNL A   1      45.079  23.029  29.395  1.00  0.00    -0.206 F 
ATOM     80  C   UNL A   1      45.604  23.696  25.850  1.00  0.00     0.060 A 
BRANCH  80  81
ATOM     81  S   UNL A   1      46.106  22.896  24.261  1.00  0.00     0.124 S 
ATOM     82  O   UNL A   1      44.855  22.911  23.509  1.00  0.00    -0.237 OA
ATOM     83  O   UNL A   1      47.129  23.807  23.741  1.00  0.00    -0.237 OA
ATOM     84  O   UNL A   1      46.584  21.564  24.610  1.00  0.00    -0.744 OA
ENDBRANCH  80  81
ENDBRANCH  48  73
BRANCH  60  85
ATOM     85  C   UNL A   1      46.022  32.130  31.297  1.00  0.00     0.058 A 
ATOM     86  C   UNL A   1      46.601  32.598  32.483  1.00  0.00     0.135 A 
ATOM     87  C   UNL A   1      46.370  32.855  30.124  1.00  0.00     0.135 A 
ATOM     88  F   UNL A   1      46.515  31.919  33.634  1.00  0.00    -0.206 F 
ATOM     89  C   UNL A   1      47.338  33.775  32.530  1.00  0.00     0.059 A 
ATOM     90  C   UNL A   1      47.217  33.947  30.132  1.00  0.00     0.059 A 
ATOM     91  F   UNL A   1      45.910  32.528  28.907  1.00  0.00    -0.206 F 
ATOM     92  C   UNL A   1      47.638  34.442  31.350  1.00  0.00     0.060 A 
BRANCH  92  93
ATOM     93  S   UNL A   1      48.569  35.969  31.418  1.00  0.00     0.124 S 
ATOM     94  O   UNL A   1      48.820  36.079  32.852  1.00  0.00    -0.237 OA
ATOM     95  O   UNL A   1      49.732  35.665  30.591  1.00  0.00    -0.237 OA
ATOM     96  O   UNL A   1      47.648  36.954  30.860  1.00  0.00    -0.744 OA
ENDBRANCH  92  93
ENDBRANCH  60  85
ENDBRANCH  34  35
ENDBRANCH  27  29
ENDBRANCH  26  27
ENDBRANCH  25  26
ENDBRANCH   1  25
TORSDOF 17
ENDMDL
MODEL 3
REMARK VINA RESULT:     -11.8      4.228      6.332
REMARK SMILES COc1ccc(NC(=O)N[C@@H]2C=C[C@H](C(=O)OCCOC(=O)c3ccc(-c4c5nc(c(-c6c(F)cc(S(=O)(=O)[O-])cc6F)c6ccc([nH]6)c(-c6c(F)cc(S(=O)(=O)[O-])cc6F)c6nc(c(-c7c(F)cc(S(=O)(=O)[O-])cc7F)c7ccc4[nH]7)C=C6)C=C5)cc3)C2)c(C)c1
REMARK SMILES IDX 18 1 17 2 15 3 16 4 14 5 11 6 12 7 89 8 13 9 10 10 7 11 8 12
REMARK SMILES IDX 9 14 6 16 3 17 4 18 92 19 5 20 90 21 91 22 2 23 1 24 19 25
REMARK SMILES IDX 20 26 21 27 22 28 23 29 24 30 88 31 25 32 87 33 26 34 27 35
REMARK SMILES IDX 28 36 81 37 29 38 86 39 80 40 82 41 30 42 85 43 79 44 78 45
REMARK SMILES IDX 31 47 65 48 44 49 64 50 45 51 48 52 63 53 83 54 46 55 47 56
REMARK SMILES IDX 62 58 84 59 49 60 32 61 33 62 42 63 34 64 35 65 41 66 43 67
REMARK SMILES IDX 36 68 37 69 38 70 39 71 40 72 66 73 67 74 76 75 68 76 69 77
REMARK SMILES IDX 75 78 77 79 70 80 71 81 72 82 73 83 74 84 50 85 51 86 60 87
REMARK SMILES IDX 52 88 53 89 59 90 61 91 54 92 55 93 56 94 57 95 58 96
REMARK H PARENT 7 13 10 15 82 46 48 57
REMARK Flexibility Score: inf
ROOT
ATOM      1  C   UNL A   1      37.398  23.742  25.390  1.00  0.00     0.274 C 
ENDROOT
BRANCH   1   2
ATOM      2  O   UNL A   1      35.866  23.623  25.486  1.00  0.00    -0.462 OA
BRANCH   2   3
ATOM      3  C   UNL A   1      35.065  22.511  25.523  1.00  0.00     0.312 C 
ATOM      4  O   UNL A   1      35.571  21.414  25.753  1.00  0.00    -0.252 OA
BRANCH   3   5
ATOM      5  C   UNL A   1      33.354  22.669  25.371  1.00  0.00     0.124 C 
ATOM      6  C   UNL A   1      31.780  23.387  23.405  1.00  0.00     0.107 C 
ATOM      7  C   UNL A   1      31.559  24.189  24.663  1.00  0.00    -0.006 C 
ATOM      8  C   UNL A   1      32.644  22.185  24.016  1.00  0.00     0.048 C 
ATOM      9  C   UNL A   1      32.385  23.829  25.677  1.00  0.00    -0.014 C 
BRANCH   6  10
ATOM     10  N   UNL A   1      32.309  24.203  22.137  1.00  0.00    -0.332 N 
ATOM     11  N   UNL A   1      32.253  27.016  21.998  1.00  0.00    -0.308 N 
ATOM     12  C   UNL A   1      32.673  25.443  21.503  1.00  0.00     0.319 C 
ATOM     13  H   UNL A   1      32.923  27.685  21.729  1.00  0.00     0.171 HD
ATOM     14  O   UNL A   1      33.185  25.278  20.395  1.00  0.00    -0.248 OA
ATOM     15  H   UNL A   1      32.460  23.518  21.446  1.00  0.00     0.165 HD
BRANCH  11  16
ATOM     16  C   UNL A   1      30.683  27.846  23.021  1.00  0.00     0.046 A 
ATOM     17  C   UNL A   1      28.489  29.957  22.997  1.00  0.00     0.119 A 
ATOM     18  C   UNL A   1      29.669  30.295  23.563  1.00  0.00     0.048 A 
ATOM     19  C   UNL A   1      28.220  28.602  23.039  1.00  0.00     0.052 A 
ATOM     20  C   UNL A   1      30.659  29.299  23.657  1.00  0.00     0.030 A 
ATOM     21  C   UNL A   1      29.245  27.549  23.167  1.00  0.00    -0.024 A 
ATOM     22  C   UNL A   1      28.648  26.452  24.064  1.00  0.00     0.047 C 
BRANCH  17  23
ATOM     23  O   UNL A   1      27.546  30.869  22.634  1.00  0.00    -0.497 OA
ATOM     24  C   UNL A   1      28.105  32.155  22.308  1.00  0.00     0.278 C 
ENDBRANCH  17  23
ENDBRANCH  11  16
ENDBRANCH   6  10
ENDBRANCH   3   5
ENDBRANCH   2   3
ENDBRANCH   1   2
BRANCH   1  25
ATOM     25  C   UNL A   1      38.363  23.978  26.616  1.00  0.00     0.275 C 
BRANCH  25  26
ATOM     26  O   UNL A   1      38.618  25.308  27.044  1.00  0.00    -0.458 OA
BRANCH  26  27
ATOM     27  C   UNL A   1      39.808  25.427  27.620  1.00  0.00     0.338 C 
ATOM     28  O   UNL A   1      40.391  24.629  28.318  1.00  0.00    -0.246 OA
BRANCH  27  29
ATOM     29  C   UNL A   1      40.379  26.708  27.247  1.00  0.00     0.060 A 
ATOM     30  C   UNL A   1      41.227  26.770  25.629  1.00  0.00     0.016 A 
ATOM     31  C   UNL A   1      40.851  27.717  28.582  1.00  0.00     0.016 A 
ATOM     32  C   UNL A   1      42.839  27.776  25.472  1.00  0.00     0.010 A 
ATOM     33  C   UNL A   1      42.187  28.772  28.419  1.00  0.00     0.010 A 
ATOM     34  C   UNL A   1      43.246  28.707  26.996  1.00  0.00    -0.014 A 
BRANCH  34  35
ATOM     35  C   UNL A   1      44.542  28.845  27.630  1.00  0.00     0.031 A 
ATOM     36  C   UNL A   1      44.847  30.170  27.093  1.00  0.00     0.074 A 
ATOM     37  C   UNL A   1      44.837  27.858  28.569  1.00  0.00     0.049 A 
ATOM     38  N   UNL A   1      45.676  30.462  26.128  1.00  0.00    -0.248 NA
ATOM     39  C   UNL A   1      43.788  31.247  27.247  1.00  0.00     0.031 C 
ATOM     40  C   UNL A   1      45.736  27.752  29.714  1.00  0.00     0.029 A 
ATOM     41  N   UNL A   1      44.206  26.541  28.678  1.00  0.00    -0.354 N 
ATOM     42  C   UNL A   1      45.657  31.837  26.224  1.00  0.00     0.074 A 
ATOM     43  C   UNL A   1      44.249  32.128  26.362  1.00  0.00     0.031 C 
ATOM     44  C   UNL A   1      45.923  26.448  30.042  1.00  0.00     0.029 A 
ATOM     45  C   UNL A   1      45.095  25.586  29.191  1.00  0.00     0.049 A 
ATOM     46  H   UNL A   1      43.274  26.350  28.423  1.00  0.00     0.167 HD
ATOM     47  C   UNL A   1      46.554  32.411  27.108  1.00  0.00     0.037 A 
ATOM     48  C   UNL A   1      45.519  24.574  28.371  1.00  0.00     0.037 A 
ATOM     49  C   UNL A   1      47.346  31.349  27.809  1.00  0.00     0.049 A 
ATOM     50  C   UNL A   1      46.786  25.162  27.693  1.00  0.00     0.074 A 
ATOM     51  C   UNL A   1      47.376  30.871  29.111  1.00  0.00     0.029 A 
ATOM     52  N   UNL A   1      47.915  30.306  27.051  1.00  0.00    -0.354 N 
ATOM     53  N   UNL A   1      47.016  26.462  27.594  1.00  0.00    -0.248 NA
ATOM     54  C   UNL A   1      47.982  24.400  27.350  1.00  0.00     0.031 C 
ATOM     55  C   UNL A   1      48.024  29.593  29.114  1.00  0.00     0.029 A 
ATOM     56  C   UNL A   1      48.197  29.169  27.805  1.00  0.00     0.049 A 
ATOM     57  H   UNL A   1      48.094  30.374  26.085  1.00  0.00     0.167 HD
ATOM     58  C   UNL A   1      48.313  26.731  27.278  1.00  0.00     0.074 A 
ATOM     59  C   UNL A   1      48.879  25.389  27.143  1.00  0.00     0.031 C 
ATOM     60  C   UNL A   1      48.846  28.000  27.169  1.00  0.00     0.037 A 
BRANCH  47  61
ATOM     61  C   UNL A   1      46.248  33.825  27.615  1.00  0.00     0.058 A 
ATOM     62  C   UNL A   1      46.589  34.975  26.885  1.00  0.00     0.135 A 
ATOM     63  C   UNL A   1      45.589  34.086  28.852  1.00  0.00     0.135 A 
ATOM     64  F   UNL A   1      47.194  34.893  25.695  1.00  0.00    -0.206 F 
ATOM     65  C   UNL A   1      46.293  36.268  27.330  1.00  0.00     0.059 A 
ATOM     66  C   UNL A   1      45.351  35.369  29.350  1.00  0.00     0.059 A 
ATOM     67  F   UNL A   1      45.115  33.089  29.618  1.00  0.00    -0.206 F 
ATOM     68  C   UNL A   1      45.661  36.456  28.554  1.00  0.00     0.060 A 
BRANCH  68  69
ATOM     69  S   UNL A   1      45.116  38.111  29.016  1.00  0.00     0.124 S 
ATOM     70  O   UNL A   1      43.832  37.852  29.658  1.00  0.00    -0.237 OA
ATOM     71  O   UNL A   1      46.197  38.535  29.899  1.00  0.00    -0.237 OA
ATOM     72  O   UNL A   1      45.041  38.816  27.739  1.00  0.00    -0.744 OA
ENDBRANCH  68  69
ENDBRANCH  47  61
BRANCH  48  73
ATOM     73  C   UNL A   1      44.389  23.562  27.973  1.00  0.00     0.058 A 
ATOM     74  C   UNL A   1      44.406  23.129  26.616  1.00  0.00     0.135 A 
ATOM     75  C   UNL A   1      43.414  22.862  28.731  1.00  0.00     0.135 A 
ATOM     76  F   UNL A   1      45.157  23.799  25.725  1.00  0.00    -0.206 F 
ATOM     77  C   UNL A   1      43.694  22.022  26.101  1.00  0.00     0.059 A 
ATOM     78  C   UNL A   1      42.688  21.720  28.234  1.00  0.00     0.059 A 
ATOM     79  F   UNL A   1      43.117  23.236  29.985  1.00  0.00    -0.206 F 
ATOM     80  C   UNL A   1      42.860  21.279  26.920  1.00  0.00     0.060 A 
BRANCH  80  81
ATOM     81  S   UNL A   1      42.110  19.744  26.213  1.00  0.00     0.124 S 
ATOM     82  O   UNL A   1      42.367  18.770  27.269  1.00  0.00    -0.237 OA
ATOM     83  O   UNL A   1      40.698  20.105  26.062  1.00  0.00    -0.237 OA
ATOM     84  O   UNL A   1      42.819  19.483  24.967  1.00  0.00    -0.744 OA
ENDBRANCH  80  81
ENDBRANCH  48  73
BRANCH  60  85
ATOM     85  C   UNL A   1      50.143  28.288  26.442  1.00  0.00     0.058 A 
ATOM     86  C   UNL A   1      51.309  28.724  27.082  1.00  0.00     0.135 A 
ATOM     87  C   UNL A   1      50.292  27.957  25.067  1.00  0.00     0.135 A 
ATOM     88  F   UNL A   1      51.371  28.898  28.409  1.00  0.00    -0.206 F 
ATOM     89  C   UNL A   1      52.488  28.961  26.387  1.00  0.00     0.059 A 
ATOM     90  C   UNL A   1      51.494  28.054  24.390  1.00  0.00     0.059 A 
ATOM     91  F   UNL A   1      49.274  27.514  24.314  1.00  0.00    -0.206 F 
ATOM     92  C   UNL A   1      52.568  28.625  25.042  1.00  0.00     0.060 A 
BRANCH  92  93
ATOM     93  S   UNL A   1      54.082  28.954  24.145  1.00  0.00     0.124 S 
ATOM     94  O   UNL A   1      55.058  28.942  25.230  1.00  0.00    -0.237 OA
ATOM     95  O   UNL A   1      54.149  27.828  23.218  1.00  0.00    -0.237 OA
ATOM     96  O   UNL A   1      53.837  30.253  23.529  1.00  0.00    -0.744 OA
ENDBRANCH  92  93
ENDBRANCH  60  85
ENDBRANCH  34  35
ENDBRANCH  27  29
ENDBRANCH  26  27
ENDBRANCH  25  26
ENDBRANCH   1  25
TORSDOF 17
ENDMDL
