MODEL 1
REMARK VINA RESULT:     -10.5      0.000      0.000
REMARK SMILES C[C@@H](CCO)SCc1cccc(/C=C/C(=O)OCCOC(=O)c2ccc(-c3c4nc(c(-c5c(F)cc(S(=O)(=O)[O-])cc5F)c5ccc([nH]5)c(-c5c(F)cc(S(=O)(=O)[O-])cc5F)c5nc(c(-c6c(F)cc(S(=O)(=O)[O-])cc6F)c6ccc3[nH]6)C=C5)C=C4)cc2)c1
REMARK SMILES IDX 15 1 16 2 14 3 13 4 12 5 8 6 9 7 89 8 10 9 11 10 7 11 6 12
REMARK SMILES IDX 2 13 1 14 3 15 4 16 5 17 17 19 18 20 19 21 20 22 21 23 22 24
REMARK SMILES IDX 23 25 24 26 88 27 25 28 87 29 26 30 27 31 28 32 81 33 29 34
REMARK SMILES IDX 86 35 80 36 82 37 30 38 85 39 79 40 78 41 31 43 65 44 44 45
REMARK SMILES IDX 64 46 45 47 48 48 63 49 83 50 46 51 47 52 62 54 84 55 49 56
REMARK SMILES IDX 32 57 33 58 42 59 34 60 35 61 41 62 43 63 36 64 37 65 38 66
REMARK SMILES IDX 39 67 40 68 66 69 67 70 76 71 68 72 69 73 75 74 77 75 70 76
REMARK SMILES IDX 71 77 72 78 73 79 74 80 50 81 51 82 60 83 52 84 53 85 59 86
REMARK SMILES IDX 61 87 54 88 55 89 56 90 57 91 58 92
REMARK H PARENT 5 18 82 42 48 53
REMARK Flexibility Score: inf
ROOT
ATOM      1  C   UNL A   1      39.983  20.245  25.874  1.00  0.00     0.330 C 
ATOM      2  O   UNL A   1      40.448  19.117  25.794  1.00  0.00    -0.247 OA
ENDROOT
BRANCH   1   3
ATOM      3  C   UNL A   1      38.674  20.572  25.271  1.00  0.00     0.094 C 
ATOM      4  C   UNL A   1      38.022  21.739  25.406  1.00  0.00     0.015 C 
BRANCH   4   5
ATOM      5  C   UNL A   1      36.656  21.939  24.902  1.00  0.00    -0.025 A 
ATOM      6  C   UNL A   1      34.316  21.213  24.779  1.00  0.00    -0.037 A 
ATOM      7  C   UNL A   1      34.070  22.241  23.860  1.00  0.00     0.004 A 
ATOM      8  C   UNL A   1      35.639  21.036  25.240  1.00  0.00     0.012 A 
ATOM      9  C   UNL A   1      35.075  23.140  23.509  1.00  0.00     0.001 A 
ATOM     10  C   UNL A   1      36.355  22.997  24.037  1.00  0.00     0.008 A 
BRANCH   6  11
ATOM     11  C   UNL A   1      33.245  20.252  25.246  1.00  0.00     0.105 C 
BRANCH  11  12
ATOM     12  S   UNL A   1      32.552  19.102  24.008  1.00  0.00    -0.154 SA
BRANCH  12  13
ATOM     13  C   UNL A   1      33.303  17.467  24.444  1.00  0.00     0.046 C 
ATOM     14  C   UNL A   1      34.826  17.495  24.379  1.00  0.00     0.019 C 
BRANCH  13  15
ATOM     15  C   UNL A   1      32.654  16.759  25.647  1.00  0.00     0.042 C 
BRANCH  15  16
ATOM     16  C   UNL A   1      32.688  15.236  25.740  1.00  0.00     0.157 C 
BRANCH  16  17
ATOM     17  O   UNL A   1      31.770  14.701  26.672  1.00  0.00    -0.396 OA
ATOM     18  H   UNL A   1      31.842  13.733  26.680  1.00  0.00     0.210 HD
ENDBRANCH  16  17
ENDBRANCH  15  16
ENDBRANCH  13  15
ENDBRANCH  12  13
ENDBRANCH  11  12
ENDBRANCH   6  11
ENDBRANCH   4   5
ENDBRANCH   1   3
BRANCH   1  19
ATOM     19  O   UNL A   1      40.524  21.288  26.544  1.00  0.00    -0.459 OA
BRANCH  19  20
ATOM     20  C   UNL A   1      41.960  21.386  26.496  1.00  0.00     0.275 C 
BRANCH  20  21
ATOM     21  C   UNL A   1      42.418  22.841  26.640  1.00  0.00     0.275 C 
BRANCH  21  22
ATOM     22  O   UNL A   1      41.314  23.763  26.582  1.00  0.00    -0.458 OA
BRANCH  22  23
ATOM     23  C   UNL A   1      41.644  25.028  26.222  1.00  0.00     0.338 C 
ATOM     24  O   UNL A   1      42.091  25.389  25.146  1.00  0.00    -0.246 OA
BRANCH  23  25
ATOM     25  C   UNL A   1      41.281  25.975  27.293  1.00  0.00     0.060 A 
ATOM     26  C   UNL A   1      42.021  27.157  27.394  1.00  0.00     0.016 A 
ATOM     27  C   UNL A   1      40.292  25.679  28.234  1.00  0.00     0.016 A 
ATOM     28  C   UNL A   1      41.785  28.042  28.443  1.00  0.00     0.010 A 
ATOM     29  C   UNL A   1      40.056  26.571  29.289  1.00  0.00     0.010 A 
ATOM     30  C   UNL A   1      40.811  27.751  29.409  1.00  0.00    -0.014 A 
BRANCH  30  31
ATOM     31  C   UNL A   1      40.626  28.673  30.557  1.00  0.00     0.031 A 
ATOM     32  C   UNL A   1      41.522  28.574  31.761  1.00  0.00     0.074 A 
ATOM     33  C   UNL A   1      39.680  29.630  30.498  1.00  0.00     0.049 A 
ATOM     34  N   UNL A   1      41.532  29.305  32.845  1.00  0.00    -0.248 NA
ATOM     35  C   UNL A   1      42.539  27.512  31.741  1.00  0.00     0.031 C 
ATOM     36  C   UNL A   1      38.759  29.836  29.380  1.00  0.00     0.029 A 
ATOM     37  N   UNL A   1      39.343  30.611  31.397  1.00  0.00    -0.354 N 
ATOM     38  C   UNL A   1      42.551  28.793  33.641  1.00  0.00     0.074 A 
ATOM     39  C   UNL A   1      43.119  27.670  32.924  1.00  0.00     0.031 C 
ATOM     40  C   UNL A   1      37.966  30.884  29.655  1.00  0.00     0.029 A 
ATOM     41  C   UNL A   1      38.304  31.407  30.977  1.00  0.00     0.049 A 
ATOM     42  H   UNL A   1      39.800  30.733  32.259  1.00  0.00     0.167 HD
ATOM     43  C   UNL A   1      42.978  29.225  34.852  1.00  0.00     0.037 A 
ATOM     44  C   UNL A   1      37.689  32.437  31.591  1.00  0.00     0.037 A 
ATOM     45  C   UNL A   1      42.416  30.345  35.563  1.00  0.00     0.049 A 
ATOM     46  C   UNL A   1      38.166  32.880  32.948  1.00  0.00     0.074 A 
ATOM     47  C   UNL A   1      42.794  30.867  36.789  1.00  0.00     0.029 A 
ATOM     48  N   UNL A   1      41.353  31.116  35.114  1.00  0.00    -0.354 N 
ATOM     49  N   UNL A   1      39.145  32.399  33.676  1.00  0.00    -0.248 NA
ATOM     50  C   UNL A   1      37.459  34.012  33.563  1.00  0.00     0.031 C 
ATOM     51  C   UNL A   1      41.937  31.931  37.097  1.00  0.00     0.029 A 
ATOM     52  C   UNL A   1      41.052  32.099  36.044  1.00  0.00     0.049 A 
ATOM     53  H   UNL A   1      40.882  30.985  34.260  1.00  0.00     0.167 HD
ATOM     54  C   UNL A   1      39.184  33.180  34.825  1.00  0.00     0.074 A 
ATOM     55  C   UNL A   1      38.140  34.176  34.689  1.00  0.00     0.031 C 
ATOM     56  C   UNL A   1      40.010  33.083  35.897  1.00  0.00     0.037 A 
BRANCH  43  57
ATOM     57  C   UNL A   1      44.106  28.468  35.498  1.00  0.00     0.058 A 
ATOM     58  C   UNL A   1      45.449  28.782  35.238  1.00  0.00     0.135 A 
ATOM     59  C   UNL A   1      43.839  27.435  36.412  1.00  0.00     0.135 A 
ATOM     60  F   UNL A   1      45.760  29.750  34.361  1.00  0.00    -0.206 F 
ATOM     61  C   UNL A   1      46.489  28.080  35.840  1.00  0.00     0.059 A 
ATOM     62  C   UNL A   1      44.864  26.736  37.043  1.00  0.00     0.059 A 
ATOM     63  F   UNL A   1      42.573  27.096  36.697  1.00  0.00    -0.206 F 
ATOM     64  C   UNL A   1      46.187  27.057  36.738  1.00  0.00     0.060 A 
BRANCH  64  65
ATOM     65  S   UNL A   1      47.545  26.151  37.509  1.00  0.00     0.124 S 
ATOM     66  O   UNL A   1      47.805  25.115  36.514  1.00  0.00    -0.237 OA
ATOM     67  O   UNL A   1      48.574  27.177  37.638  1.00  0.00    -0.237 OA
ATOM     68  O   UNL A   1      46.971  25.683  38.767  1.00  0.00    -0.744 OA
ENDBRANCH  64  65
ENDBRANCH  43  57
BRANCH  44  69
ATOM     69  C   UNL A   1      36.551  33.122  30.924  1.00  0.00     0.058 A 
ATOM     70  C   UNL A   1      35.246  33.017  31.426  1.00  0.00     0.135 A 
ATOM     71  C   UNL A   1      36.751  33.904  29.776  1.00  0.00     0.135 A 
ATOM     72  F   UNL A   1      35.005  32.273  32.516  1.00  0.00    -0.206 F 
ATOM     73  C   UNL A   1      34.175  33.654  30.808  1.00  0.00     0.059 A 
ATOM     74  C   UNL A   1      35.700  34.570  29.154  1.00  0.00     0.059 A 
ATOM     75  F   UNL A   1      37.984  34.045  29.264  1.00  0.00    -0.206 F 
ATOM     76  C   UNL A   1      34.414  34.430  29.672  1.00  0.00     0.060 A 
BRANCH  76  77
ATOM     77  S   UNL A   1      33.027  35.298  28.906  1.00  0.00     0.124 S 
ATOM     78  O   UNL A   1      32.155  35.526  30.052  1.00  0.00    -0.237 OA
ATOM     79  O   UNL A   1      33.673  36.483  28.350  1.00  0.00    -0.237 OA
ATOM     80  O   UNL A   1      32.538  34.341  27.919  1.00  0.00    -0.744 OA
ENDBRANCH  76  77
ENDBRANCH  44  69
BRANCH  56  81
ATOM     81  C   UNL A   1      39.833  34.096  36.993  1.00  0.00     0.058 A 
ATOM     82  C   UNL A   1      40.379  35.386  36.901  1.00  0.00     0.135 A 
ATOM     83  C   UNL A   1      39.090  33.779  38.143  1.00  0.00     0.135 A 
ATOM     84  F   UNL A   1      41.102  35.738  35.827  1.00  0.00    -0.206 F 
ATOM     85  C   UNL A   1      40.223  36.315  37.925  1.00  0.00     0.059 A 
ATOM     86  C   UNL A   1      38.901  34.701  39.168  1.00  0.00     0.059 A 
ATOM     87  F   UNL A   1      38.537  32.563  38.275  1.00  0.00    -0.206 F 
ATOM     88  C   UNL A   1      39.487  35.961  39.057  1.00  0.00     0.060 A 
BRANCH  88  89
ATOM     89  S   UNL A   1      39.283  37.176  40.378  1.00  0.00     0.124 S 
ATOM     90  O   UNL A   1      38.474  36.432  41.338  1.00  0.00    -0.237 OA
ATOM     91  O   UNL A   1      40.662  37.439  40.781  1.00  0.00    -0.237 OA
ATOM     92  O   UNL A   1      38.610  38.288  39.714  1.00  0.00    -0.744 OA
ENDBRANCH  88  89
ENDBRANCH  56  81
ENDBRANCH  30  31
ENDBRANCH  23  25
ENDBRANCH  22  23
ENDBRANCH  21  22
ENDBRANCH  20  21
ENDBRANCH  19  20
ENDBRANCH   1  19
TORSDOF 21
ENDMDL
MODEL 2
REMARK VINA RESULT:     -10.3      0.821      8.440
REMARK SMILES C[C@@H](CCO)SCc1cccc(/C=C/C(=O)OCCOC(=O)c2ccc(-c3c4nc(c(-c5c(F)cc(S(=O)(=O)[O-])cc5F)c5ccc([nH]5)c(-c5c(F)cc(S(=O)(=O)[O-])cc5F)c5nc(c(-c6c(F)cc(S(=O)(=O)[O-])cc6F)c6ccc3[nH]6)C=C5)C=C4)cc2)c1
REMARK SMILES IDX 15 1 16 2 14 3 13 4 12 5 8 6 9 7 89 8 10 9 11 10 7 11 6 12
REMARK SMILES IDX 2 13 1 14 3 15 4 16 5 17 17 19 18 20 19 21 20 22 21 23 22 24
REMARK SMILES IDX 23 25 24 26 88 27 25 28 87 29 26 30 27 31 28 32 81 33 29 34
REMARK SMILES IDX 86 35 80 36 82 37 30 38 85 39 79 40 78 41 31 43 65 44 44 45
REMARK SMILES IDX 64 46 45 47 48 48 63 49 83 50 46 51 47 52 62 54 84 55 49 56
REMARK SMILES IDX 32 57 33 58 42 59 34 60 35 61 41 62 43 63 36 64 37 65 38 66
REMARK SMILES IDX 39 67 40 68 66 69 67 70 76 71 68 72 69 73 75 74 77 75 70 76
REMARK SMILES IDX 71 77 72 78 73 79 74 80 50 81 51 82 60 83 52 84 53 85 59 86
REMARK SMILES IDX 61 87 54 88 55 89 56 90 57 91 58 92
REMARK H PARENT 5 18 82 42 48 53
REMARK Flexibility Score: inf
ROOT
ATOM      1  C   UNL A   1      40.124  20.237  25.948  1.00  0.00     0.330 C 
ATOM      2  O   UNL A   1      40.336  19.082  25.608  1.00  0.00    -0.247 OA
ENDROOT
BRANCH   1   3
ATOM      3  C   UNL A   1      38.885  20.934  25.544  1.00  0.00     0.094 C 
ATOM      4  C   UNL A   1      37.686  20.355  25.366  1.00  0.00     0.015 C 
BRANCH   4   5
ATOM      5  C   UNL A   1      36.533  21.084  24.819  1.00  0.00    -0.025 A 
ATOM      6  C   UNL A   1      34.134  21.184  24.318  1.00  0.00    -0.037 A 
ATOM      7  C   UNL A   1      34.343  22.412  23.678  1.00  0.00     0.004 A 
ATOM      8  C   UNL A   1      35.259  20.500  24.827  1.00  0.00     0.012 A 
ATOM      9  C   UNL A   1      35.606  23.000  23.655  1.00  0.00     0.001 A 
ATOM     10  C   UNL A   1      36.691  22.345  24.233  1.00  0.00     0.008 A 
BRANCH   6  11
ATOM     11  C   UNL A   1      32.772  20.535  24.430  1.00  0.00     0.105 C 
BRANCH  11  12
ATOM     12  S   UNL A   1      32.626  19.070  25.510  1.00  0.00    -0.154 SA
BRANCH  12  13
ATOM     13  C   UNL A   1      32.568  17.646  24.329  1.00  0.00     0.046 C 
ATOM     14  C   UNL A   1      32.835  18.076  22.891  1.00  0.00     0.019 C 
BRANCH  13  15
ATOM     15  C   UNL A   1      33.259  16.364  24.830  1.00  0.00     0.042 C 
BRANCH  15  16
ATOM     16  C   UNL A   1      34.783  16.295  24.882  1.00  0.00     0.157 C 
BRANCH  16  17
ATOM     17  O   UNL A   1      35.288  14.994  25.098  1.00  0.00    -0.396 OA
ATOM     18  H   UNL A   1      36.069  14.851  24.540  1.00  0.00     0.210 HD
ENDBRANCH  16  17
ENDBRANCH  15  16
ENDBRANCH  13  15
ENDBRANCH  12  13
ENDBRANCH  11  12
ENDBRANCH   6  11
ENDBRANCH   4   5
ENDBRANCH   1   3
BRANCH   1  19
ATOM     19  O   UNL A   1      40.906  20.990  26.756  1.00  0.00    -0.459 OA
BRANCH  19  20
ATOM     20  C   UNL A   1      41.526  22.134  26.138  1.00  0.00     0.275 C 
BRANCH  20  21
ATOM     21  C   UNL A   1      41.404  23.374  27.028  1.00  0.00     0.275 C 
BRANCH  21  22
ATOM     22  O   UNL A   1      40.420  24.302  26.532  1.00  0.00    -0.458 OA
BRANCH  22  23
ATOM     23  C   UNL A   1      40.895  25.536  26.238  1.00  0.00     0.338 C 
ATOM     24  O   UNL A   1      41.168  25.970  25.132  1.00  0.00    -0.246 OA
BRANCH  23  25
ATOM     25  C   UNL A   1      40.943  26.369  27.455  1.00  0.00     0.060 A 
ATOM     26  C   UNL A   1      39.909  26.222  28.384  1.00  0.00     0.016 A 
ATOM     27  C   UNL A   1      41.934  27.334  27.649  1.00  0.00     0.016 A 
ATOM     28  C   UNL A   1      39.852  27.049  29.503  1.00  0.00     0.010 A 
ATOM     29  C   UNL A   1      41.875  28.165  28.776  1.00  0.00     0.010 A 
ATOM     30  C   UNL A   1      40.826  28.038  29.702  1.00  0.00    -0.014 A 
BRANCH  30  31
ATOM     31  C   UNL A   1      40.706  28.954  30.865  1.00  0.00     0.031 A 
ATOM     32  C   UNL A   1      39.656  30.030  30.876  1.00  0.00     0.074 A 
ATOM     33  C   UNL A   1      41.514  28.789  31.930  1.00  0.00     0.049 A 
ATOM     34  N   UNL A   1      39.379  30.905  31.808  1.00  0.00    -0.248 NA
ATOM     35  C   UNL A   1      38.804  30.134  29.682  1.00  0.00     0.031 C 
ATOM     36  C   UNL A   1      42.562  27.774  32.043  1.00  0.00     0.029 A 
ATOM     37  N   UNL A   1      41.574  29.469  33.120  1.00  0.00    -0.354 N 
ATOM     38  C   UNL A   1      38.327  31.668  31.316  1.00  0.00     0.074 A 
ATOM     39  C   UNL A   1      38.032  31.168  29.989  1.00  0.00     0.031 C 
ATOM     40  C   UNL A   1      43.156  27.893  33.242  1.00  0.00     0.029 A 
ATOM     41  C   UNL A   1      42.551  29.005  33.969  1.00  0.00     0.049 A 
ATOM     42  H   UNL A   1      40.976  30.217  33.345  1.00  0.00     0.167 HD
ATOM     43  C   UNL A   1      37.663  32.685  31.918  1.00  0.00     0.037 A 
ATOM     44  C   UNL A   1      42.920  29.433  35.193  1.00  0.00     0.037 A 
ATOM     45  C   UNL A   1      37.954  33.178  33.240  1.00  0.00     0.049 A 
ATOM     46  C   UNL A   1      42.184  30.581  35.828  1.00  0.00     0.074 A 
ATOM     47  C   UNL A   1      37.324  34.194  33.940  1.00  0.00     0.029 A 
ATOM     48  N   UNL A   1      38.962  32.695  34.062  1.00  0.00    -0.354 N 
ATOM     49  N   UNL A   1      41.176  31.277  35.357  1.00  0.00    -0.248 NA
ATOM     50  C   UNL A   1      42.630  30.997  37.165  1.00  0.00     0.031 C 
ATOM     51  C   UNL A   1      37.974  34.348  35.171  1.00  0.00     0.029 A 
ATOM     52  C   UNL A   1      38.982  33.400  35.255  1.00  0.00     0.049 A 
ATOM     53  H   UNL A   1      39.573  31.958  33.833  1.00  0.00     0.167 HD
ATOM     54  C   UNL A   1      40.856  32.199  36.347  1.00  0.00     0.074 A 
ATOM     55  C   UNL A   1      41.766  31.963  37.448  1.00  0.00     0.031 C 
ATOM     56  C   UNL A   1      39.894  33.156  36.344  1.00  0.00     0.037 A 
BRANCH  43  57
ATOM     57  C   UNL A   1      36.560  33.347  31.140  1.00  0.00     0.058 A 
ATOM     58  C   UNL A   1      36.830  34.183  30.045  1.00  0.00     0.135 A 
ATOM     59  C   UNL A   1      35.215  33.118  31.474  1.00  0.00     0.135 A 
ATOM     60  F   UNL A   1      38.098  34.446  29.691  1.00  0.00    -0.206 F 
ATOM     61  C   UNL A   1      35.806  34.791  29.325  1.00  0.00     0.059 A 
ATOM     62  C   UNL A   1      34.175  33.698  30.754  1.00  0.00     0.059 A 
ATOM     63  F   UNL A   1      34.903  32.327  32.511  1.00  0.00    -0.206 F 
ATOM     64  C   UNL A   1      34.482  34.546  29.690  1.00  0.00     0.060 A 
BRANCH  64  65
ATOM     65  S   UNL A   1      33.162  35.346  28.752  1.00  0.00     0.124 S 
ATOM     66  O   UNL A   1      33.919  36.282  27.926  1.00  0.00    -0.237 OA
ATOM     67  O   UNL A   1      32.555  34.224  28.044  1.00  0.00    -0.237 OA
ATOM     68  O   UNL A   1      32.329  35.953  29.786  1.00  0.00    -0.744 OA
ENDBRANCH  64  65
ENDBRANCH  43  57
BRANCH  44  69
ATOM     69  C   UNL A   1      44.046  28.768  35.899  1.00  0.00     0.058 A 
ATOM     70  C   UNL A   1      45.357  29.255  35.794  1.00  0.00     0.135 A 
ATOM     71  C   UNL A   1      43.829  27.638  36.701  1.00  0.00     0.135 A 
ATOM     72  F   UNL A   1      45.614  30.328  35.030  1.00  0.00    -0.206 F 
ATOM     73  C   UNL A   1      46.417  28.639  36.449  1.00  0.00     0.059 A 
ATOM     74  C   UNL A   1      44.869  27.018  37.386  1.00  0.00     0.059 A 
ATOM     75  F   UNL A   1      42.591  27.140  36.842  1.00  0.00    -0.206 F 
ATOM     76  C   UNL A   1      46.162  27.521  37.245  1.00  0.00     0.060 A 
BRANCH  76  77
ATOM     77  S   UNL A   1      47.535  26.758  38.138  1.00  0.00     0.124 S 
ATOM     78  O   UNL A   1      48.685  27.299  37.423  1.00  0.00    -0.237 OA
ATOM     79  O   UNL A   1      47.335  27.254  39.496  1.00  0.00    -0.237 OA
ATOM     80  O   UNL A   1      47.295  25.329  37.961  1.00  0.00    -0.744 OA
ENDBRANCH  76  77
ENDBRANCH  44  69
BRANCH  56  81
ATOM     81  C   UNL A   1      39.762  34.000  37.581  1.00  0.00     0.058 A 
ATOM     82  C   UNL A   1      38.918  33.630  38.640  1.00  0.00     0.135 A 
ATOM     83  C   UNL A   1      40.505  35.184  37.718  1.00  0.00     0.135 A 
ATOM     84  F   UNL A   1      38.183  32.511  38.558  1.00  0.00    -0.206 F 
ATOM     85  C   UNL A   1      38.790  34.421  39.777  1.00  0.00     0.059 A 
ATOM     86  C   UNL A   1      40.411  35.979  38.856  1.00  0.00     0.059 A 
ATOM     87  F   UNL A   1      41.335  35.577  36.738  1.00  0.00    -0.206 F 
ATOM     88  C   UNL A   1      39.537  35.597  39.873  1.00  0.00     0.060 A 
BRANCH  88  89
ATOM     89  S   UNL A   1      39.370  36.615  41.356  1.00  0.00     0.124 S 
ATOM     90  O   UNL A   1      38.395  35.853  42.127  1.00  0.00    -0.237 OA
ATOM     91  O   UNL A   1      40.730  36.625  41.887  1.00  0.00    -0.237 OA
ATOM     92  O   UNL A   1      38.900  37.895  40.835  1.00  0.00    -0.744 OA
ENDBRANCH  88  89
ENDBRANCH  56  81
ENDBRANCH  30  31
ENDBRANCH  23  25
ENDBRANCH  22  23
ENDBRANCH  21  22
ENDBRANCH  20  21
ENDBRANCH  19  20
ENDBRANCH   1  19
TORSDOF 21
ENDMDL
MODEL 3
REMARK VINA RESULT:     -10.1      6.241     11.092
REMARK SMILES C[C@@H](CCO)SCc1cccc(/C=C/C(=O)OCCOC(=O)c2ccc(-c3c4nc(c(-c5c(F)cc(S(=O)(=O)[O-])cc5F)c5ccc([nH]5)c(-c5c(F)cc(S(=O)(=O)[O-])cc5F)c5nc(c(-c6c(F)cc(S(=O)(=O)[O-])cc6F)c6ccc3[nH]6)C=C5)C=C4)cc2)c1
REMARK SMILES IDX 15 1 16 2 14 3 13 4 12 5 8 6 9 7 89 8 10 9 11 10 7 11 6 12
REMARK SMILES IDX 2 13 1 14 3 15 4 16 5 17 17 19 18 20 19 21 20 22 21 23 22 24
REMARK SMILES IDX 23 25 24 26 88 27 25 28 87 29 26 30 27 31 28 32 81 33 29 34
REMARK SMILES IDX 86 35 80 36 82 37 30 38 85 39 79 40 78 41 31 43 65 44 44 45
REMARK SMILES IDX 64 46 45 47 48 48 63 49 83 50 46 51 47 52 62 54 84 55 49 56
REMARK SMILES IDX 32 57 33 58 42 59 34 60 35 61 41 62 43 63 36 64 37 65 38 66
REMARK SMILES IDX 39 67 40 68 66 69 67 70 76 71 68 72 69 73 75 74 77 75 70 76
REMARK SMILES IDX 71 77 72 78 73 79 74 80 50 81 51 82 60 83 52 84 53 85 59 86
REMARK SMILES IDX 61 87 54 88 55 89 56 90 57 91 58 92
REMARK H PARENT 5 18 82 42 48 53
REMARK Flexibility Score: inf
ROOT
ATOM      1  C   UNL A   1      38.272  23.201  26.151  1.00  0.00     0.330 C 
ATOM      2  O   UNL A   1      38.402  24.312  26.642  1.00  0.00    -0.247 OA
ENDROOT
BRANCH   1   3
ATOM      3  C   UNL A   1      37.017  22.811  25.473  1.00  0.00     0.094 C 
ATOM      4  C   UNL A   1      36.502  23.402  24.384  1.00  0.00     0.015 C 
BRANCH   4   5
ATOM      5  C   UNL A   1      35.175  23.056  23.854  1.00  0.00    -0.025 A 
ATOM      6  C   UNL A   1      33.193  21.612  23.886  1.00  0.00    -0.037 A 
ATOM      7  C   UNL A   1      32.693  22.313  22.780  1.00  0.00     0.004 A 
ATOM      8  C   UNL A   1      34.473  21.958  24.369  1.00  0.00     0.012 A 
ATOM      9  C   UNL A   1      33.385  23.401  22.253  1.00  0.00     0.001 A 
ATOM     10  C   UNL A   1      34.612  23.778  22.795  1.00  0.00     0.008 A 
BRANCH   6  11
ATOM     11  C   UNL A   1      32.450  20.467  24.538  1.00  0.00     0.105 C 
BRANCH  11  12
ATOM     12  S   UNL A   1      33.442  19.060  25.146  1.00  0.00    -0.154 SA
BRANCH  12  13
ATOM     13  C   UNL A   1      33.042  17.687  23.971  1.00  0.00     0.046 C 
ATOM     14  C   UNL A   1      32.421  18.197  22.676  1.00  0.00     0.019 C 
BRANCH  13  15
ATOM     15  C   UNL A   1      34.123  16.596  23.862  1.00  0.00     0.042 C 
BRANCH  15  16
ATOM     16  C   UNL A   1      34.974  16.246  25.080  1.00  0.00     0.157 C 
BRANCH  16  17
ATOM     17  O   UNL A   1      35.448  14.915  25.081  1.00  0.00    -0.396 OA
ATOM     18  H   UNL A   1      35.116  14.452  24.296  1.00  0.00     0.210 HD
ENDBRANCH  16  17
ENDBRANCH  15  16
ENDBRANCH  13  15
ENDBRANCH  12  13
ENDBRANCH  11  12
ENDBRANCH   6  11
ENDBRANCH   4   5
ENDBRANCH   1   3
BRANCH   1  19
ATOM     19  O   UNL A   1      39.219  22.237  26.089  1.00  0.00    -0.459 OA
BRANCH  19  20
ATOM     20  C   UNL A   1      38.812  20.996  25.482  1.00  0.00     0.275 C 
BRANCH  20  21
ATOM     21  C   UNL A   1      39.576  19.812  26.083  1.00  0.00     0.275 C 
BRANCH  21  22
ATOM     22  O   UNL A   1      40.830  19.581  25.414  1.00  0.00    -0.458 OA
BRANCH  22  23
ATOM     23  C   UNL A   1      41.904  19.477  26.234  1.00  0.00     0.338 C 
ATOM     24  O   UNL A   1      42.349  18.456  26.730  1.00  0.00    -0.246 OA
BRANCH  23  25
ATOM     25  C   UNL A   1      42.569  20.787  26.374  1.00  0.00     0.060 A 
ATOM     26  C   UNL A   1      42.774  21.276  27.667  1.00  0.00     0.016 A 
ATOM     27  C   UNL A   1      42.911  21.562  25.264  1.00  0.00     0.016 A 
ATOM     28  C   UNL A   1      43.308  22.548  27.857  1.00  0.00     0.010 A 
ATOM     29  C   UNL A   1      43.450  22.841  25.457  1.00  0.00     0.010 A 
ATOM     30  C   UNL A   1      43.638  23.349  26.754  1.00  0.00    -0.014 A 
BRANCH  30  31
ATOM     31  C   UNL A   1      44.141  24.727  26.979  1.00  0.00     0.031 A 
ATOM     32  C   UNL A   1      43.200  25.813  27.424  1.00  0.00     0.074 A 
ATOM     33  C   UNL A   1      45.452  24.993  26.826  1.00  0.00     0.049 A 
ATOM     34  N   UNL A   1      43.456  27.067  27.697  1.00  0.00    -0.248 NA
ATOM     35  C   UNL A   1      41.787  25.439  27.582  1.00  0.00     0.031 C 
ATOM     36  C   UNL A   1      46.465  24.021  26.412  1.00  0.00     0.029 A 
ATOM     37  N   UNL A   1      46.156  26.156  27.008  1.00  0.00    -0.354 N 
ATOM     38  C   UNL A   1      42.239  27.635  28.055  1.00  0.00     0.074 A 
ATOM     39  C   UNL A   1      41.239  26.593  27.938  1.00  0.00     0.031 C 
ATOM     40  C   UNL A   1      47.663  24.627  26.379  1.00  0.00     0.029 A 
ATOM     41  C   UNL A   1      47.500  26.032  26.744  1.00  0.00     0.049 A 
ATOM     42  H   UNL A   1      45.740  26.998  27.299  1.00  0.00     0.167 HD
ATOM     43  C   UNL A   1      41.981  28.905  28.453  1.00  0.00     0.037 A 
ATOM     44  C   UNL A   1      48.487  26.949  26.785  1.00  0.00     0.037 A 
ATOM     45  C   UNL A   1      42.977  29.939  28.573  1.00  0.00     0.049 A 
ATOM     46  C   UNL A   1      48.169  28.359  27.204  1.00  0.00     0.074 A 
ATOM     47  C   UNL A   1      42.812  31.251  28.985  1.00  0.00     0.029 A 
ATOM     48  N   UNL A   1      44.323  29.780  28.280  1.00  0.00    -0.354 N 
ATOM     49  N   UNL A   1      47.016  28.874  27.561  1.00  0.00    -0.248 NA
ATOM     50  C   UNL A   1      49.288  29.311  27.235  1.00  0.00     0.031 C 
ATOM     51  C   UNL A   1      44.053  31.895  28.906  1.00  0.00     0.029 A 
ATOM     52  C   UNL A   1      44.999  30.974  28.487  1.00  0.00     0.049 A 
ATOM     53  H   UNL A   1      44.739  28.943  27.972  1.00  0.00     0.167 HD
ATOM     54  C   UNL A   1      47.274  30.203  27.876  1.00  0.00     0.074 A 
ATOM     55  C   UNL A   1      48.696  30.409  27.683  1.00  0.00     0.031 C 
ATOM     56  C   UNL A   1      46.413  31.166  28.289  1.00  0.00     0.037 A 
BRANCH  43  57
ATOM     57  C   UNL A   1      40.553  29.252  28.773  1.00  0.00     0.058 A 
ATOM     58  C   UNL A   1      39.605  29.477  27.762  1.00  0.00     0.135 A 
ATOM     59  C   UNL A   1      40.120  29.333  30.107  1.00  0.00     0.135 A 
ATOM     60  F   UNL A   1      39.969  29.427  26.470  1.00  0.00    -0.206 F 
ATOM     61  C   UNL A   1      38.284  29.795  28.062  1.00  0.00     0.059 A 
ATOM     62  C   UNL A   1      38.799  29.627  30.429  1.00  0.00     0.059 A 
ATOM     63  F   UNL A   1      40.986  29.126  31.111  1.00  0.00    -0.206 F 
ATOM     64  C   UNL A   1      37.892  29.872  29.399  1.00  0.00     0.060 A 
BRANCH  64  65
ATOM     65  S   UNL A   1      36.176  30.292  29.776  1.00  0.00     0.124 S 
ATOM     66  O   UNL A   1      36.193  31.744  29.628  1.00  0.00    -0.237 OA
ATOM     67  O   UNL A   1      35.441  29.560  28.750  1.00  0.00    -0.237 OA
ATOM     68  O   UNL A   1      35.998  29.801  31.139  1.00  0.00    -0.744 OA
ENDBRANCH  64  65
ENDBRANCH  43  57
BRANCH  44  69
ATOM     69  C   UNL A   1      49.873  26.560  26.417  1.00  0.00     0.058 A 
ATOM     70  C   UNL A   1      50.755  26.033  27.371  1.00  0.00     0.135 A 
ATOM     71  C   UNL A   1      50.338  26.698  25.101  1.00  0.00     0.135 A 
ATOM     72  F   UNL A   1      50.357  25.891  28.646  1.00  0.00    -0.206 F 
ATOM     73  C   UNL A   1      52.055  25.667  27.038  1.00  0.00     0.059 A 
ATOM     74  C   UNL A   1      51.625  26.317  24.737  1.00  0.00     0.059 A 
ATOM     75  F   UNL A   1      49.528  27.187  24.149  1.00  0.00    -0.206 F 
ATOM     76  C   UNL A   1      52.479  25.811  25.716  1.00  0.00     0.060 A 
BRANCH  76  77
ATOM     77  S   UNL A   1      54.150  25.283  25.278  1.00  0.00     0.124 S 
ATOM     78  O   UNL A   1      54.018  23.831  25.317  1.00  0.00    -0.237 OA
ATOM     79  O   UNL A   1      54.324  25.872  23.954  1.00  0.00    -0.237 OA
ATOM     80  O   UNL A   1      54.973  25.872  26.329  1.00  0.00    -0.744 OA
ENDBRANCH  76  77
ENDBRANCH  44  69
BRANCH  56  81
ATOM     81  C   UNL A   1      46.991  32.522  28.584  1.00  0.00     0.058 A 
ATOM     82  C   UNL A   1      47.053  33.526  27.605  1.00  0.00     0.135 A 
ATOM     83  C   UNL A   1      47.471  32.829  29.868  1.00  0.00     0.135 A 
ATOM     84  F   UNL A   1      46.612  33.284  26.360  1.00  0.00    -0.206 F 
ATOM     85  C   UNL A   1      47.600  34.776  27.879  1.00  0.00     0.059 A 
ATOM     86  C   UNL A   1      48.000  34.079  30.171  1.00  0.00     0.059 A 
ATOM     87  F   UNL A   1      47.425  31.907  30.843  1.00  0.00    -0.206 F 
ATOM     88  C   UNL A   1      48.076  35.041  29.164  1.00  0.00     0.060 A 
BRANCH  88  89
ATOM     89  S   UNL A   1      48.779  36.667  29.514  1.00  0.00     0.124 S 
ATOM     90  O   UNL A   1      49.358  36.458  30.837  1.00  0.00    -0.237 OA
ATOM     91  O   UNL A   1      49.735  36.840  28.424  1.00  0.00    -0.237 OA
ATOM     92  O   UNL A   1      47.620  37.553  29.467  1.00  0.00    -0.744 OA
ENDBRANCH  88  89
ENDBRANCH  56  81
ENDBRANCH  30  31
ENDBRANCH  23  25
ENDBRANCH  22  23
ENDBRANCH  21  22
ENDBRANCH  20  21
ENDBRANCH  19  20
ENDBRANCH   1  19
TORSDOF 21
ENDMDL
