MODEL 1
REMARK VINA RESULT:     -11.8      0.000      0.000
REMARK SMILES CS(=O)(=O)c1ccc(/C=C(/C(=O)OCCOC(=O)c2ccc(-c3c4nc(c(-c5c(F)cc(S(=O)(=O)[O-])cc5F)c5ccc([nH]5)c(-c5c(F)cc(S(=O)(=O)[O-])cc5F)c5nc(c(-c6c(F)cc(S(=O)(=O)[O-])cc6F)c6ccc3[nH]6)C=C5)C=C4)cc2)c2ccc(O)cc2)cc1
REMARK SMILES IDX 15 1 14 2 13 3 11 4 12 5 10 6 9 7 8 8 5 9 6 10 93 11 7 12
REMARK SMILES IDX 92 13 2 14 1 15 3 16 4 17 85 18 86 19 91 20 87 21 90 22
REMARK SMILES IDX 88 23 89 24 16 26 17 27 18 28 19 29 20 30 84 31 21 32 83 33
REMARK SMILES IDX 22 34 23 35 24 36 77 37 25 38 82 39 76 40 78 41 26 42 81 43
REMARK SMILES IDX 75 44 74 45 27 47 61 48 40 49 60 50 41 51 44 52 59 53 79 54
REMARK SMILES IDX 42 55 43 56 58 58 80 59 45 60 28 61 29 62 38 63 30 64 31 65
REMARK SMILES IDX 37 66 39 67 32 68 33 69 34 70 35 71 36 72 62 73 63 74 72 75
REMARK SMILES IDX 64 76 65 77 71 78 73 79 66 80 67 81 68 82 69 83 70 84 46 85
REMARK SMILES IDX 47 86 56 87 48 88 49 89 55 90 57 91 50 92 51 93 52 94 53 95
REMARK SMILES IDX 54 96
REMARK H PARENT 89 25 78 46 44 57
REMARK Flexibility Score: inf
ROOT
ATOM      1  C   UNL A   1      36.116  23.191  25.306  1.00  0.00     0.275 C 
ENDROOT
BRANCH   1   2
ATOM      2  C   UNL A   1      35.020  23.854  24.475  1.00  0.00     0.275 C 
BRANCH   2   3
ATOM      3  O   UNL A   1      33.725  23.303  24.789  1.00  0.00    -0.458 OA
BRANCH   3   4
ATOM      4  C   UNL A   1      33.008  23.996  25.711  1.00  0.00     0.338 C 
ATOM      5  O   UNL A   1      32.845  23.663  26.878  1.00  0.00    -0.246 OA
BRANCH   4   6
ATOM      6  C   UNL A   1      32.437  25.256  25.148  1.00  0.00     0.067 C 
ATOM      7  C   UNL A   1      31.659  25.182  24.044  1.00  0.00     0.024 C 
BRANCH   7   8
ATOM      8  C   UNL A   1      30.778  26.243  23.509  1.00  0.00    -0.025 A 
ATOM      9  C   UNL A   1      29.086  28.386  22.877  1.00  0.00     0.067 A 
ATOM     10  C   UNL A   1      30.392  28.375  22.394  1.00  0.00     0.021 A 
ATOM     11  C   UNL A   1      28.581  27.293  23.580  1.00  0.00     0.021 A 
ATOM     12  C   UNL A   1      31.219  27.290  22.688  1.00  0.00     0.009 A 
ATOM     13  C   UNL A   1      29.430  26.228  23.896  1.00  0.00     0.009 A 
BRANCH   9  14
ATOM     14  S   UNL A   1      28.085  29.829  22.624  1.00  0.00     0.175 S 
ATOM     15  C   UNL A   1      29.007  31.120  23.428  1.00  0.00     0.163 C 
ATOM     16  O   UNL A   1      26.852  29.645  23.370  1.00  0.00    -0.224 OA
ATOM     17  O   UNL A   1      28.059  30.092  21.200  1.00  0.00    -0.224 OA
ENDBRANCH   9  14
ENDBRANCH   7   8
BRANCH   6  18
ATOM     18  C   UNL A   1      32.613  26.502  25.919  1.00  0.00    -0.011 A 
ATOM     19  C   UNL A   1      33.785  27.257  25.741  1.00  0.00     0.013 A 
ATOM     20  C   UNL A   1      31.613  26.980  26.776  1.00  0.00     0.013 A 
ATOM     21  C   UNL A   1      33.927  28.494  26.368  1.00  0.00     0.047 A 
ATOM     22  C   UNL A   1      31.767  28.211  27.420  1.00  0.00     0.047 A 
ATOM     23  C   UNL A   1      32.918  28.962  27.199  1.00  0.00     0.115 A 
BRANCH  23  24
ATOM     24  O   UNL A   1      33.099  30.180  27.778  1.00  0.00    -0.508 OA
ATOM     25  H   UNL A   1      33.476  30.240  28.634  1.00  0.00     0.293 HD
ENDBRANCH  23  24
ENDBRANCH   6  18
ENDBRANCH   4   6
ENDBRANCH   3   4
ENDBRANCH   2   3
ENDBRANCH   1   2
BRANCH   1  26
ATOM     26  O   UNL A   1      37.382  23.831  25.065  1.00  0.00    -0.458 OA
BRANCH  26  27
ATOM     27  C   UNL A   1      38.449  23.244  25.652  1.00  0.00     0.338 C 
ATOM     28  O   UNL A   1      38.848  22.104  25.486  1.00  0.00    -0.246 OA
BRANCH  27  29
ATOM     29  C   UNL A   1      39.121  24.191  26.557  1.00  0.00     0.060 A 
ATOM     30  C   UNL A   1      38.849  24.160  27.922  1.00  0.00     0.016 A 
ATOM     31  C   UNL A   1      39.886  25.226  26.020  1.00  0.00     0.016 A 
ATOM     32  C   UNL A   1      39.229  25.234  28.727  1.00  0.00     0.010 A 
ATOM     33  C   UNL A   1      40.359  26.244  26.856  1.00  0.00     0.010 A 
ATOM     34  C   UNL A   1      39.990  26.293  28.212  1.00  0.00    -0.014 A 
BRANCH  34  35
ATOM     35  C   UNL A   1      40.353  27.473  29.056  1.00  0.00     0.031 A 
ATOM     36  C   UNL A   1      41.640  27.469  29.847  1.00  0.00     0.074 A 
ATOM     37  C   UNL A   1      39.548  28.553  29.131  1.00  0.00     0.049 A 
ATOM     38  N   UNL A   1      42.001  28.234  30.847  1.00  0.00    -0.248 NA
ATOM     39  C   UNL A   1      42.643  26.455  29.481  1.00  0.00     0.031 C 
ATOM     40  C   UNL A   1      38.304  28.745  28.383  1.00  0.00     0.029 A 
ATOM     41  N   UNL A   1      39.658  29.700  29.881  1.00  0.00    -0.354 N 
ATOM     42  C   UNL A   1      43.228  27.741  31.282  1.00  0.00     0.074 A 
ATOM     43  C   UNL A   1      43.559  26.622  30.426  1.00  0.00     0.031 C 
ATOM     44  C   UNL A   1      37.789  29.946  28.680  1.00  0.00     0.029 A 
ATOM     45  C   UNL A   1      38.601  30.565  29.721  1.00  0.00     0.049 A 
ATOM     46  H   UNL A   1      40.420  29.884  30.476  1.00  0.00     0.167 HD
ATOM     47  C   UNL A   1      43.998  28.176  32.310  1.00  0.00     0.037 A 
ATOM     48  C   UNL A   1      38.278  31.699  30.374  1.00  0.00     0.037 A 
ATOM     49  C   UNL A   1      43.707  29.345  33.100  1.00  0.00     0.049 A 
ATOM     50  C   UNL A   1      39.144  32.169  31.506  1.00  0.00     0.074 A 
ATOM     51  C   UNL A   1      44.428  29.874  34.157  1.00  0.00     0.029 A 
ATOM     52  N   UNL A   1      42.621  30.185  32.899  1.00  0.00    -0.354 N 
ATOM     53  N   UNL A   1      40.240  31.628  31.983  1.00  0.00    -0.248 NA
ATOM     54  C   UNL A   1      38.715  33.385  32.209  1.00  0.00     0.031 C 
ATOM     55  C   UNL A   1      43.768  31.023  34.607  1.00  0.00     0.029 A 
ATOM     56  C   UNL A   1      42.655  31.229  33.809  1.00  0.00     0.049 A 
ATOM     57  H   UNL A   1      41.929  30.058  32.211  1.00  0.00     0.167 HD
ATOM     58  C   UNL A   1      40.633  32.441  33.040  1.00  0.00     0.074 A 
ATOM     59  C   UNL A   1      39.670  33.519  33.120  1.00  0.00     0.031 C 
ATOM     60  C   UNL A   1      41.694  32.300  33.872  1.00  0.00     0.037 A 
BRANCH  47  61
ATOM     61  C   UNL A   1      45.215  27.367  32.671  1.00  0.00     0.058 A 
ATOM     62  C   UNL A   1      46.483  27.639  32.138  1.00  0.00     0.135 A 
ATOM     63  C   UNL A   1      45.110  26.328  33.612  1.00  0.00     0.135 A 
ATOM     64  F   UNL A   1      46.639  28.610  31.225  1.00  0.00    -0.206 F 
ATOM     65  C   UNL A   1      47.602  26.896  32.509  1.00  0.00     0.059 A 
ATOM     66  C   UNL A   1      46.217  25.588  34.015  1.00  0.00     0.059 A 
ATOM     67  F   UNL A   1      43.920  26.027  34.156  1.00  0.00    -0.206 F 
ATOM     68  C   UNL A   1      47.459  25.871  33.447  1.00  0.00     0.060 A 
BRANCH  68  69
ATOM     69  S   UNL A   1      48.916  24.920  33.929  1.00  0.00     0.124 S 
ATOM     70  O   UNL A   1      49.410  25.702  35.060  1.00  0.00    -0.237 OA
ATOM     71  O   UNL A   1      48.348  23.617  34.261  1.00  0.00    -0.237 OA
ATOM     72  O   UNL A   1      49.752  24.950  32.733  1.00  0.00    -0.744 OA
ENDBRANCH  68  69
ENDBRANCH  47  61
BRANCH  48  73
ATOM     73  C   UNL A   1      37.039  32.430  30.002  1.00  0.00     0.058 A 
ATOM     74  C   UNL A   1      35.822  32.156  30.639  1.00  0.00     0.135 A 
ATOM     75  C   UNL A   1      37.060  33.450  29.038  1.00  0.00     0.135 A 
ATOM     76  F   UNL A   1      35.749  31.182  31.559  1.00  0.00    -0.206 F 
ATOM     77  C   UNL A   1      34.668  32.872  30.340  1.00  0.00     0.059 A 
ATOM     78  C   UNL A   1      35.927  34.198  28.741  1.00  0.00     0.059 A 
ATOM     79  F   UNL A   1      38.205  33.757  28.408  1.00  0.00    -0.206 F 
ATOM     80  C   UNL A   1      34.733  33.898  29.394  1.00  0.00     0.060 A 
BRANCH  80  81
ATOM     81  S   UNL A   1      33.255  34.888  29.078  1.00  0.00     0.124 S 
ATOM     82  O   UNL A   1      33.838  36.139  28.606  1.00  0.00    -0.237 OA
ATOM     83  O   UNL A   1      32.556  34.091  28.075  1.00  0.00    -0.237 OA
ATOM     84  O   UNL A   1      32.606  34.943  30.384  1.00  0.00    -0.744 OA
ENDBRANCH  80  81
ENDBRANCH  48  73
BRANCH  60  85
ATOM     85  C   UNL A   1      41.888  33.356  34.920  1.00  0.00     0.058 A 
ATOM     86  C   UNL A   1      42.682  34.488  34.682  1.00  0.00     0.135 A 
ATOM     87  C   UNL A   1      41.241  33.253  36.161  1.00  0.00     0.135 A 
ATOM     88  F   UNL A   1      43.329  34.627  33.514  1.00  0.00    -0.206 F 
ATOM     89  C   UNL A   1      42.843  35.475  35.648  1.00  0.00     0.059 A 
ATOM     90  C   UNL A   1      41.373  34.238  37.134  1.00  0.00     0.059 A 
ATOM     91  F   UNL A   1      40.465  32.191  36.433  1.00  0.00    -0.206 F 
ATOM     92  C   UNL A   1      42.186  35.340  36.873  1.00  0.00     0.060 A 
BRANCH  92  93
ATOM     93  S   UNL A   1      42.378  36.640  38.111  1.00  0.00     0.124 S 
ATOM     94  O   UNL A   1      43.157  37.632  37.376  1.00  0.00    -0.237 OA
ATOM     95  O   UNL A   1      40.996  37.007  38.401  1.00  0.00    -0.237 OA
ATOM     96  O   UNL A   1      43.084  35.968  39.199  1.00  0.00    -0.744 OA
ENDBRANCH  92  93
ENDBRANCH  60  85
ENDBRANCH  34  35
ENDBRANCH  27  29
ENDBRANCH  26  27
ENDBRANCH   1  26
TORSDOF 18
ENDMDL
MODEL 2
REMARK VINA RESULT:     -11.8      4.065      9.874
REMARK SMILES CS(=O)(=O)c1ccc(/C=C(/C(=O)OCCOC(=O)c2ccc(-c3c4nc(c(-c5c(F)cc(S(=O)(=O)[O-])cc5F)c5ccc([nH]5)c(-c5c(F)cc(S(=O)(=O)[O-])cc5F)c5nc(c(-c6c(F)cc(S(=O)(=O)[O-])cc6F)c6ccc3[nH]6)C=C5)C=C4)cc2)c2ccc(O)cc2)cc1
REMARK SMILES IDX 15 1 14 2 13 3 11 4 12 5 10 6 9 7 8 8 5 9 6 10 93 11 7 12
REMARK SMILES IDX 92 13 2 14 1 15 3 16 4 17 85 18 86 19 91 20 87 21 90 22
REMARK SMILES IDX 88 23 89 24 16 26 17 27 18 28 19 29 20 30 84 31 21 32 83 33
REMARK SMILES IDX 22 34 23 35 24 36 77 37 25 38 82 39 76 40 78 41 26 42 81 43
REMARK SMILES IDX 75 44 74 45 27 47 61 48 40 49 60 50 41 51 44 52 59 53 79 54
REMARK SMILES IDX 42 55 43 56 58 58 80 59 45 60 28 61 29 62 38 63 30 64 31 65
REMARK SMILES IDX 37 66 39 67 32 68 33 69 34 70 35 71 36 72 62 73 63 74 72 75
REMARK SMILES IDX 64 76 65 77 71 78 73 79 66 80 67 81 68 82 69 83 70 84 46 85
REMARK SMILES IDX 47 86 56 87 48 88 49 89 55 90 57 91 50 92 51 93 52 94 53 95
REMARK SMILES IDX 54 96
REMARK H PARENT 89 25 78 46 44 57
REMARK Flexibility Score: inf
ROOT
ATOM      1  C   UNL A   1      32.796  28.463  26.469  1.00  0.00     0.275 C 
ENDROOT
BRANCH   1   2
ATOM      2  C   UNL A   1      32.729  27.094  25.796  1.00  0.00     0.275 C 
BRANCH   2   3
ATOM      3  O   UNL A   1      33.876  26.875  24.950  1.00  0.00    -0.458 OA
BRANCH   3   4
ATOM      4  C   UNL A   1      33.654  26.086  23.866  1.00  0.00     0.338 C 
ATOM      5  O   UNL A   1      33.459  26.487  22.726  1.00  0.00    -0.246 OA
BRANCH   4   6
ATOM      6  C   UNL A   1      33.694  24.633  24.211  1.00  0.00     0.067 C 
ATOM      7  C   UNL A   1      32.541  23.924  24.175  1.00  0.00     0.024 C 
BRANCH   7   8
ATOM      8  C   UNL A   1      32.408  22.451  24.193  1.00  0.00    -0.025 A 
ATOM      9  C   UNL A   1      32.515  19.654  24.043  1.00  0.00     0.067 A 
ATOM     10  C   UNL A   1      32.569  20.279  25.286  1.00  0.00     0.021 A 
ATOM     11  C   UNL A   1      32.301  20.399  22.884  1.00  0.00     0.021 A 
ATOM     12  C   UNL A   1      32.486  21.670  25.355  1.00  0.00     0.009 A 
ATOM     13  C   UNL A   1      32.251  21.795  22.964  1.00  0.00     0.009 A 
BRANCH   9  14
ATOM     14  S   UNL A   1      32.766  17.901  23.947  1.00  0.00     0.175 S 
ATOM     15  C   UNL A   1      34.493  17.707  24.325  1.00  0.00     0.163 C 
ATOM     16  O   UNL A   1      32.576  17.504  22.562  1.00  0.00    -0.224 OA
ATOM     17  O   UNL A   1      31.987  17.294  25.006  1.00  0.00    -0.224 OA
ENDBRANCH   9  14
ENDBRANCH   7   8
BRANCH   6  18
ATOM     18  C   UNL A   1      35.013  24.004  24.415  1.00  0.00    -0.011 A 
ATOM     19  C   UNL A   1      35.610  24.064  25.685  1.00  0.00     0.013 A 
ATOM     20  C   UNL A   1      35.652  23.297  23.388  1.00  0.00     0.013 A 
ATOM     21  C   UNL A   1      36.800  23.382  25.935  1.00  0.00     0.047 A 
ATOM     22  C   UNL A   1      36.856  22.631  23.636  1.00  0.00     0.047 A 
ATOM     23  C   UNL A   1      37.411  22.669  24.912  1.00  0.00     0.115 A 
BRANCH  23  24
ATOM     24  O   UNL A   1      38.564  22.011  25.210  1.00  0.00    -0.508 OA
ATOM     25  H   UNL A   1      39.030  22.215  25.998  1.00  0.00     0.293 HD
ENDBRANCH  23  24
ENDBRANCH   6  18
ENDBRANCH   4   6
ENDBRANCH   3   4
ENDBRANCH   2   3
ENDBRANCH   1   2
BRANCH   1  26
ATOM     26  O   UNL A   1      33.936  28.534  27.345  1.00  0.00    -0.458 OA
BRANCH  26  27
ATOM     27  C   UNL A   1      34.296  29.780  27.727  1.00  0.00     0.338 C 
ATOM     28  O   UNL A   1      33.584  30.769  27.782  1.00  0.00    -0.246 OA
BRANCH  27  29
ATOM     29  C   UNL A   1      35.718  29.811  28.103  1.00  0.00     0.060 A 
ATOM     30  C   UNL A   1      36.684  30.103  27.143  1.00  0.00     0.016 A 
ATOM     31  C   UNL A   1      36.102  29.372  29.369  1.00  0.00     0.016 A 
ATOM     32  C   UNL A   1      38.026  29.829  27.408  1.00  0.00     0.010 A 
ATOM     33  C   UNL A   1      37.459  29.206  29.664  1.00  0.00     0.010 A 
ATOM     34  C   UNL A   1      38.440  29.378  28.670  1.00  0.00    -0.014 A 
BRANCH  34  35
ATOM     35  C   UNL A   1      39.868  29.030  28.943  1.00  0.00     0.031 A 
ATOM     36  C   UNL A   1      40.798  30.064  29.534  1.00  0.00     0.074 A 
ATOM     37  C   UNL A   1      40.353  27.802  28.668  1.00  0.00     0.049 A 
ATOM     38  N   UNL A   1      42.106  30.075  29.576  1.00  0.00    -0.248 NA
ATOM     39  C   UNL A   1      40.173  31.254  30.137  1.00  0.00     0.031 C 
ATOM     40  C   UNL A   1      39.577  26.672  28.155  1.00  0.00     0.029 A 
ATOM     41  N   UNL A   1      41.628  27.298  28.780  1.00  0.00    -0.354 N 
ATOM     42  C   UNL A   1      42.462  31.303  30.127  1.00  0.00     0.074 A 
ATOM     43  C   UNL A   1      41.229  32.003  30.422  1.00  0.00     0.031 C 
ATOM     44  C   UNL A   1      40.376  25.603  28.035  1.00  0.00     0.029 A 
ATOM     45  C   UNL A   1      41.744  25.996  28.354  1.00  0.00     0.049 A 
ATOM     46  H   UNL A   1      42.384  27.820  29.132  1.00  0.00     0.167 HD
ATOM     47  C   UNL A   1      43.702  31.802  30.354  1.00  0.00     0.037 A 
ATOM     48  C   UNL A   1      42.828  25.217  28.175  1.00  0.00     0.037 A 
ATOM     49  C   UNL A   1      44.921  31.065  30.141  1.00  0.00     0.049 A 
ATOM     50  C   UNL A   1      44.194  25.784  28.434  1.00  0.00     0.074 A 
ATOM     51  C   UNL A   1      46.227  31.477  30.348  1.00  0.00     0.029 A 
ATOM     52  N   UNL A   1      44.984  29.750  29.703  1.00  0.00    -0.354 N 
ATOM     53  N   UNL A   1      44.521  26.985  28.845  1.00  0.00    -0.248 NA
ATOM     54  C   UNL A   1      45.339  24.900  28.178  1.00  0.00     0.031 C 
ATOM     55  C   UNL A   1      47.079  30.418  30.017  1.00  0.00     0.029 A 
ATOM     56  C   UNL A   1      46.304  29.335  29.638  1.00  0.00     0.049 A 
ATOM     57  H   UNL A   1      44.205  29.193  29.474  1.00  0.00     0.167 HD
ATOM     58  C   UNL A   1      45.910  27.001  28.900  1.00  0.00     0.074 A 
ATOM     59  C   UNL A   1      46.360  25.684  28.498  1.00  0.00     0.031 C 
ATOM     60  C   UNL A   1      46.736  28.018  29.244  1.00  0.00     0.037 A 
BRANCH  47  61
ATOM     61  C   UNL A   1      43.813  33.228  30.821  1.00  0.00     0.058 A 
ATOM     62  C   UNL A   1      43.822  33.575  32.180  1.00  0.00     0.135 A 
ATOM     63  C   UNL A   1      43.967  34.263  29.882  1.00  0.00     0.135 A 
ATOM     64  F   UNL A   1      43.664  32.629  33.120  1.00  0.00    -0.206 F 
ATOM     65  C   UNL A   1      43.956  34.899  32.592  1.00  0.00     0.059 A 
ATOM     66  C   UNL A   1      44.126  35.589  30.270  1.00  0.00     0.059 A 
ATOM     67  F   UNL A   1      43.968  33.987  28.568  1.00  0.00    -0.206 F 
ATOM     68  C   UNL A   1      44.105  35.900  31.629  1.00  0.00     0.060 A 
BRANCH  68  69
ATOM     69  S   UNL A   1      44.290  37.612  32.173  1.00  0.00     0.124 S 
ATOM     70  O   UNL A   1      43.826  38.341  30.995  1.00  0.00    -0.237 OA
ATOM     71  O   UNL A   1      43.412  37.669  33.338  1.00  0.00    -0.237 OA
ATOM     72  O   UNL A   1      45.716  37.725  32.460  1.00  0.00    -0.744 OA
ENDBRANCH  68  69
ENDBRANCH  47  61
BRANCH  48  73
ATOM     73  C   UNL A   1      42.657  23.831  27.667  1.00  0.00     0.058 A 
ATOM     74  C   UNL A   1      42.536  22.750  28.551  1.00  0.00     0.135 A 
ATOM     75  C   UNL A   1      42.563  23.568  26.291  1.00  0.00     0.135 A 
ATOM     76  F   UNL A   1      42.631  22.950  29.874  1.00  0.00    -0.206 F 
ATOM     77  C   UNL A   1      42.319  21.456  28.090  1.00  0.00     0.059 A 
ATOM     78  C   UNL A   1      42.320  22.287  25.807  1.00  0.00     0.059 A 
ATOM     79  F   UNL A   1      42.663  24.571  25.406  1.00  0.00    -0.206 F 
ATOM     80  C   UNL A   1      42.204  21.236  26.715  1.00  0.00     0.060 A 
BRANCH  80  81
ATOM     81  S   UNL A   1      41.827  19.571  26.126  1.00  0.00     0.124 S 
ATOM     82  O   UNL A   1      42.702  19.467  24.964  1.00  0.00    -0.237 OA
ATOM     83  O   UNL A   1      42.190  18.746  27.273  1.00  0.00    -0.237 OA
ATOM     84  O   UNL A   1      40.397  19.635  25.840  1.00  0.00    -0.744 OA
ENDBRANCH  80  81
ENDBRANCH  48  73
BRANCH  60  85
ATOM     85  C   UNL A   1      48.210  27.737  29.236  1.00  0.00     0.058 A 
ATOM     86  C   UNL A   1      48.980  27.890  28.073  1.00  0.00     0.135 A 
ATOM     87  C   UNL A   1      48.865  27.350  30.416  1.00  0.00     0.135 A 
ATOM     88  F   UNL A   1      48.397  28.250  26.919  1.00  0.00    -0.206 F 
ATOM     89  C   UNL A   1      50.350  27.649  28.076  1.00  0.00     0.059 A 
ATOM     90  C   UNL A   1      50.237  27.122  30.444  1.00  0.00     0.059 A 
ATOM     91  F   UNL A   1      48.172  27.197  31.555  1.00  0.00    -0.206 F 
ATOM     92  C   UNL A   1      50.969  27.263  29.266  1.00  0.00     0.060 A 
BRANCH  92  93
ATOM     93  S   UNL A   1      52.753  26.979  29.266  1.00  0.00     0.124 S 
ATOM     94  O   UNL A   1      52.908  26.097  30.419  1.00  0.00    -0.237 OA
ATOM     95  O   UNL A   1      52.973  26.362  27.963  1.00  0.00    -0.237 OA
ATOM     96  O   UNL A   1      53.309  28.319  29.421  1.00  0.00    -0.744 OA
ENDBRANCH  92  93
ENDBRANCH  60  85
ENDBRANCH  34  35
ENDBRANCH  27  29
ENDBRANCH  26  27
ENDBRANCH   1  26
TORSDOF 18
ENDMDL
MODEL 3
REMARK VINA RESULT:     -11.4      4.150      9.930
REMARK SMILES CS(=O)(=O)c1ccc(/C=C(/C(=O)OCCOC(=O)c2ccc(-c3c4nc(c(-c5c(F)cc(S(=O)(=O)[O-])cc5F)c5ccc([nH]5)c(-c5c(F)cc(S(=O)(=O)[O-])cc5F)c5nc(c(-c6c(F)cc(S(=O)(=O)[O-])cc6F)c6ccc3[nH]6)C=C5)C=C4)cc2)c2ccc(O)cc2)cc1
REMARK SMILES IDX 15 1 14 2 13 3 11 4 12 5 10 6 9 7 8 8 5 9 6 10 93 11 7 12
REMARK SMILES IDX 92 13 2 14 1 15 3 16 4 17 85 18 86 19 91 20 87 21 90 22
REMARK SMILES IDX 88 23 89 24 16 26 17 27 18 28 19 29 20 30 84 31 21 32 83 33
REMARK SMILES IDX 22 34 23 35 24 36 77 37 25 38 82 39 76 40 78 41 26 42 81 43
REMARK SMILES IDX 75 44 74 45 27 47 61 48 40 49 60 50 41 51 44 52 59 53 79 54
REMARK SMILES IDX 42 55 43 56 58 58 80 59 45 60 28 61 29 62 38 63 30 64 31 65
REMARK SMILES IDX 37 66 39 67 32 68 33 69 34 70 35 71 36 72 62 73 63 74 72 75
REMARK SMILES IDX 64 76 65 77 71 78 73 79 66 80 67 81 68 82 69 83 70 84 46 85
REMARK SMILES IDX 47 86 56 87 48 88 49 89 55 90 57 91 50 92 51 93 52 94 53 95
REMARK SMILES IDX 54 96
REMARK H PARENT 89 25 78 46 44 57
REMARK Flexibility Score: inf
ROOT
ATOM      1  C   UNL A   1      33.137  30.318  26.713  1.00  0.00     0.275 C 
ENDROOT
BRANCH   1   2
ATOM      2  C   UNL A   1      31.817  29.583  26.497  1.00  0.00     0.275 C 
BRANCH   2   3
ATOM      3  O   UNL A   1      32.013  28.376  25.733  1.00  0.00    -0.458 OA
BRANCH   3   4
ATOM      4  C   UNL A   1      31.663  27.226  26.365  1.00  0.00     0.338 C 
ATOM      5  O   UNL A   1      31.001  27.157  27.393  1.00  0.00    -0.246 OA
BRANCH   4   6
ATOM      6  C   UNL A   1      32.165  26.015  25.649  1.00  0.00     0.067 C 
ATOM      7  C   UNL A   1      32.295  24.859  26.340  1.00  0.00     0.024 C 
BRANCH   7   8
ATOM      8  C   UNL A   1      32.489  23.506  25.772  1.00  0.00    -0.025 A 
ATOM      9  C   UNL A   1      32.973  20.837  25.067  1.00  0.00     0.067 A 
ATOM     10  C   UNL A   1      31.671  21.332  25.039  1.00  0.00     0.021 A 
ATOM     11  C   UNL A   1      34.046  21.684  25.338  1.00  0.00     0.021 A 
ATOM     12  C   UNL A   1      31.442  22.669  25.363  1.00  0.00     0.009 A 
ATOM     13  C   UNL A   1      33.800  23.015  25.692  1.00  0.00     0.009 A 
BRANCH   9  14
ATOM     14  S   UNL A   1      33.244  19.105  24.798  1.00  0.00     0.175 S 
ATOM     15  C   UNL A   1      32.456  18.799  23.234  1.00  0.00     0.163 C 
ATOM     16  O   UNL A   1      32.497  18.380  25.811  1.00  0.00    -0.224 OA
ATOM     17  O   UNL A   1      34.671  18.909  24.646  1.00  0.00    -0.224 OA
ENDBRANCH   9  14
ENDBRANCH   7   8
BRANCH   6  18
ATOM     18  C   UNL A   1      32.337  26.096  24.186  1.00  0.00    -0.011 A 
ATOM     19  C   UNL A   1      33.633  26.206  23.655  1.00  0.00     0.013 A 
ATOM     20  C   UNL A   1      31.244  26.005  23.315  1.00  0.00     0.013 A 
ATOM     21  C   UNL A   1      33.833  26.169  22.276  1.00  0.00     0.047 A 
ATOM     22  C   UNL A   1      31.446  25.988  21.931  1.00  0.00     0.047 A 
ATOM     23  C   UNL A   1      32.741  26.058  21.426  1.00  0.00     0.115 A 
BRANCH  23  24
ATOM     24  O   UNL A   1      32.990  26.014  20.089  1.00  0.00    -0.508 OA
ATOM     25  H   UNL A   1      32.399  26.423  19.489  1.00  0.00     0.293 HD
ENDBRANCH  23  24
ENDBRANCH   6  18
ENDBRANCH   4   6
ENDBRANCH   3   4
ENDBRANCH   2   3
ENDBRANCH   1   2
BRANCH   1  26
ATOM     26  O   UNL A   1      33.734  29.918  27.960  1.00  0.00    -0.458 OA
BRANCH  26  27
ATOM     27  C   UNL A   1      34.676  30.757  28.447  1.00  0.00     0.338 C 
ATOM     28  O   UNL A   1      34.520  31.909  28.813  1.00  0.00    -0.246 OA
BRANCH  27  29
ATOM     29  C   UNL A   1      35.984  30.084  28.500  1.00  0.00     0.060 A 
ATOM     30  C   UNL A   1      36.411  29.489  29.684  1.00  0.00     0.016 A 
ATOM     31  C   UNL A   1      36.859  30.201  27.421  1.00  0.00     0.016 A 
ATOM     32  C   UNL A   1      37.752  29.134  29.834  1.00  0.00     0.010 A 
ATOM     33  C   UNL A   1      38.175  29.739  27.542  1.00  0.00     0.010 A 
ATOM     34  C   UNL A   1      38.657  29.250  28.770  1.00  0.00    -0.014 A 
BRANCH  34  35
ATOM     35  C   UNL A   1      40.106  28.923  28.940  1.00  0.00     0.031 A 
ATOM     36  C   UNL A   1      41.066  29.977  29.441  1.00  0.00     0.074 A 
ATOM     37  C   UNL A   1      40.584  27.695  28.650  1.00  0.00     0.049 A 
ATOM     38  N   UNL A   1      42.373  30.003  29.383  1.00  0.00    -0.248 NA
ATOM     39  C   UNL A   1      40.474  31.171  30.068  1.00  0.00     0.031 C 
ATOM     40  C   UNL A   1      39.785  26.547  28.217  1.00  0.00     0.029 A 
ATOM     41  N   UNL A   1      41.870  27.207  28.674  1.00  0.00    -0.354 N 
ATOM     42  C   UNL A   1      42.755  31.244  29.884  1.00  0.00     0.074 A 
ATOM     43  C   UNL A   1      41.540  31.936  30.260  1.00  0.00     0.031 C 
ATOM     44  C   UNL A   1      40.586  25.485  28.055  1.00  0.00     0.029 A 
ATOM     45  C   UNL A   1      41.969  25.899  28.262  1.00  0.00     0.049 A 
ATOM     46  H   UNL A   1      42.644  27.743  28.958  1.00  0.00     0.167 HD
ATOM     47  C   UNL A   1      44.002  31.760  30.007  1.00  0.00     0.037 A 
ATOM     48  C   UNL A   1      43.046  25.128  28.015  1.00  0.00     0.037 A 
ATOM     49  C   UNL A   1      45.211  31.032  29.716  1.00  0.00     0.049 A 
ATOM     50  C   UNL A   1      44.420  25.714  28.161  1.00  0.00     0.074 A 
ATOM     51  C   UNL A   1      46.523  31.463  29.816  1.00  0.00     0.029 A 
ATOM     52  N   UNL A   1      45.256  29.710  29.297  1.00  0.00    -0.354 N 
ATOM     53  N   UNL A   1      44.763  26.926  28.524  1.00  0.00    -0.248 NA
ATOM     54  C   UNL A   1      45.553  24.838  27.833  1.00  0.00     0.031 C 
ATOM     55  C   UNL A   1      47.361  30.407  29.439  1.00  0.00     0.029 A 
ATOM     56  C   UNL A   1      46.572  29.309  29.139  1.00  0.00     0.049 A 
ATOM     57  H   UNL A   1      44.469  29.142  29.138  1.00  0.00     0.167 HD
ATOM     58  C   UNL A   1      46.151  26.958  28.473  1.00  0.00     0.074 A 
ATOM     59  C   UNL A   1      46.586  25.638  28.062  1.00  0.00     0.031 C 
ATOM     60  C   UNL A   1      46.989  27.990  28.736  1.00  0.00     0.037 A 
BRANCH  47  61
ATOM     61  C   UNL A   1      44.132  33.196  30.441  1.00  0.00     0.058 A 
ATOM     62  C   UNL A   1      44.135  34.259  29.527  1.00  0.00     0.135 A 
ATOM     63  C   UNL A   1      44.203  33.510  31.809  1.00  0.00     0.135 A 
ATOM     64  F   UNL A   1      44.084  34.017  28.208  1.00  0.00    -0.206 F 
ATOM     65  C   UNL A   1      44.226  35.583  29.952  1.00  0.00     0.059 A 
ATOM     66  C   UNL A   1      44.271  34.825  32.258  1.00  0.00     0.059 A 
ATOM     67  F   UNL A   1      44.201  32.531  32.728  1.00  0.00    -0.206 F 
ATOM     68  C   UNL A   1      44.296  35.856  31.320  1.00  0.00     0.060 A 
BRANCH  68  69
ATOM     69  S   UNL A   1      44.403  37.575  31.862  1.00  0.00     0.124 S 
ATOM     70  O   UNL A   1      45.831  37.702  32.143  1.00  0.00    -0.237 OA
ATOM     71  O   UNL A   1      43.922  38.305  30.693  1.00  0.00    -0.237 OA
ATOM     72  O   UNL A   1      43.527  37.619  33.028  1.00  0.00    -0.744 OA
ENDBRANCH  68  69
ENDBRANCH  47  61
BRANCH  48  73
ATOM     73  C   UNL A   1      42.854  23.731  27.546  1.00  0.00     0.058 A 
ATOM     74  C   UNL A   1      42.707  22.678  28.459  1.00  0.00     0.135 A 
ATOM     75  C   UNL A   1      42.764  23.431  26.178  1.00  0.00     0.135 A 
ATOM     76  F   UNL A   1      42.797  22.914  29.777  1.00  0.00    -0.206 F 
ATOM     77  C   UNL A   1      42.470  21.375  28.034  1.00  0.00     0.059 A 
ATOM     78  C   UNL A   1      42.501  22.141  25.728  1.00  0.00     0.059 A 
ATOM     79  F   UNL A   1      42.887  24.407  25.265  1.00  0.00    -0.206 F 
ATOM     80  C   UNL A   1      42.360  21.119  26.665  1.00  0.00     0.060 A 
BRANCH  80  81
ATOM     81  S   UNL A   1      41.958  19.444  26.121  1.00  0.00     0.124 S 
ATOM     82  O   UNL A   1      42.359  18.656  27.280  1.00  0.00    -0.237 OA
ATOM     83  O   UNL A   1      40.522  19.534  25.875  1.00  0.00    -0.237 OA
ATOM     84  O   UNL A   1      42.780  19.277  24.925  1.00  0.00    -0.744 OA
ENDBRANCH  80  81
ENDBRANCH  48  73
BRANCH  60  85
ATOM     85  C   UNL A   1      48.462  27.725  28.621  1.00  0.00     0.058 A 
ATOM     86  C   UNL A   1      49.168  28.004  27.442  1.00  0.00     0.135 A 
ATOM     87  C   UNL A   1      49.181  27.223  29.718  1.00  0.00     0.135 A 
ATOM     88  F   UNL A   1      48.523  28.476  26.364  1.00  0.00    -0.206 F 
ATOM     89  C   UNL A   1      50.536  27.776  27.346  1.00  0.00     0.059 A 
ATOM     90  C   UNL A   1      50.553  27.006  29.650  1.00  0.00     0.059 A 
ATOM     91  F   UNL A   1      48.550  26.947  30.870  1.00  0.00    -0.206 F 
ATOM     92  C   UNL A   1      51.220  27.275  28.456  1.00  0.00     0.060 A 
BRANCH  92  93
ATOM     93  S   UNL A   1      53.002  27.008  28.332  1.00  0.00     0.124 S 
ATOM     94  O   UNL A   1      53.353  26.729  29.721  1.00  0.00    -0.237 OA
ATOM     95  O   UNL A   1      53.088  25.876  27.416  1.00  0.00    -0.237 OA
ATOM     96  O   UNL A   1      53.498  28.275  27.802  1.00  0.00    -0.744 OA
ENDBRANCH  92  93
ENDBRANCH  60  85
ENDBRANCH  34  35
ENDBRANCH  27  29
ENDBRANCH  26  27
ENDBRANCH   1  26
TORSDOF 18
ENDMDL
