MODEL 1
REMARK VINA RESULT:     -12.6      0.000      0.000
REMARK SMILES O=C(OCCOC(=O)c1nc(NC[C@H]2c3ccccc3CSc3ccccc32)c2ccccc2n1)c1ccc(-c2c3nc(c(-c4c(F)cc(S(=O)(=O)[O-])cc4F)c4ccc([nH]4)c(-c4c(F)cc(S(=O)(=O)[O-])cc4F)c4nc(c(-c5c(F)cc(S(=O)(=O)[O-])cc5F)c5ccc2[nH]5)C=C4)C=C3)cc1
REMARK SMILES IDX 4 1 3 2 2 3 1 4 36 5 37 6 101 7 38 8 100 9 39 10 40 11 41 12
REMARK SMILES IDX 94 13 42 14 99 15 93 16 95 17 43 18 98 19 92 20 91 21 44 23
REMARK SMILES IDX 78 24 57 25 77 26 58 27 61 28 76 29 96 30 59 31 60 32 75 34
REMARK SMILES IDX 97 35 62 36 45 37 46 38 55 39 47 40 48 41 54 42 56 43 49 44
REMARK SMILES IDX 50 45 51 46 52 47 53 48 79 49 80 50 89 51 81 52 82 53 88 54
REMARK SMILES IDX 90 55 83 56 84 57 85 58 86 59 87 60 63 61 64 62 73 63 65 64
REMARK SMILES IDX 66 65 72 66 74 67 67 68 68 69 69 70 70 71 71 72 5 73 6 74
REMARK SMILES IDX 7 75 8 76 9 77 10 78 35 79 11 80 34 81 29 82 33 83 30 84
REMARK SMILES IDX 32 85 31 86 12 87 13 89 14 90 15 91 28 92 16 93 20 94 23 95
REMARK SMILES IDX 27 96 17 97 19 98 21 99 22 100 24 101 26 102 18 103 25 104
REMARK H PARENT 95 22 61 33 12 88
REMARK Flexibility Score: inf
ROOT
ATOM      1  C   UNL A   1      40.501  23.191  27.083  1.00  0.00     0.275 C 
ENDROOT
BRANCH   1   2
ATOM      2  O   UNL A   1      41.215  24.001  26.136  1.00  0.00    -0.458 OA
BRANCH   2   3
ATOM      3  C   UNL A   1      41.210  25.356  26.069  1.00  0.00     0.338 C 
ATOM      4  O   UNL A   1      41.602  25.923  25.052  1.00  0.00    -0.246 OA
BRANCH   3   5
ATOM      5  C   UNL A   1      40.952  26.173  27.286  1.00  0.00     0.060 A 
ATOM      6  C   UNL A   1      41.918  27.133  27.594  1.00  0.00     0.016 A 
ATOM      7  C   UNL A   1      39.815  26.096  28.094  1.00  0.00     0.016 A 
ATOM      8  C   UNL A   1      41.819  27.904  28.753  1.00  0.00     0.010 A 
ATOM      9  C   UNL A   1      39.707  26.876  29.257  1.00  0.00     0.010 A 
ATOM     10  C   UNL A   1      40.721  27.769  29.613  1.00  0.00    -0.014 A 
BRANCH  10  11
ATOM     11  C   UNL A   1      40.566  28.706  30.754  1.00  0.00     0.031 A 
ATOM     12  C   UNL A   1      41.358  28.571  32.029  1.00  0.00     0.074 A 
ATOM     13  C   UNL A   1      39.679  29.708  30.603  1.00  0.00     0.049 A 
ATOM     14  N   UNL A   1      41.482  29.431  33.009  1.00  0.00    -0.248 NA
ATOM     15  C   UNL A   1      42.116  27.327  32.238  1.00  0.00     0.031 C 
ATOM     16  C   UNL A   1      38.816  29.897  29.429  1.00  0.00     0.029 A 
ATOM     17  N   UNL A   1      39.340  30.744  31.431  1.00  0.00    -0.354 N 
ATOM     18  C   UNL A   1      42.408  28.882  33.895  1.00  0.00     0.074 A 
ATOM     19  C   UNL A   1      42.734  27.568  33.391  1.00  0.00     0.031 C 
ATOM     20  C   UNL A   1      38.048  30.978  29.615  1.00  0.00     0.029 A 
ATOM     21  C   UNL A   1      38.340  31.541  30.928  1.00  0.00     0.049 A 
ATOM     22  H   UNL A   1      39.772  30.903  32.301  1.00  0.00     0.167 HD
ATOM     23  C   UNL A   1      42.967  29.466  34.986  1.00  0.00     0.037 A 
ATOM     24  C   UNL A   1      37.710  32.597  31.473  1.00  0.00     0.037 A 
ATOM     25  C   UNL A   1      42.527  30.733  35.511  1.00  0.00     0.049 A 
ATOM     26  C   UNL A   1      38.171  33.085  32.811  1.00  0.00     0.074 A 
ATOM     27  C   UNL A   1      43.030  31.446  36.584  1.00  0.00     0.029 A 
ATOM     28  N   UNL A   1      41.424  31.434  35.044  1.00  0.00    -0.354 N 
ATOM     29  N   UNL A   1      39.185  32.663  33.530  1.00  0.00    -0.248 NA
ATOM     30  C   UNL A   1      37.411  34.183  33.417  1.00  0.00     0.031 C 
ATOM     31  C   UNL A   1      42.183  32.538  36.811  1.00  0.00     0.029 A 
ATOM     32  C   UNL A   1      41.175  32.524  35.859  1.00  0.00     0.049 A 
ATOM     33  H   UNL A   1      40.895  31.191  34.249  1.00  0.00     0.167 HD
ATOM     34  C   UNL A   1      39.194  33.450  34.672  1.00  0.00     0.074 A 
ATOM     35  C   UNL A   1      38.088  34.380  34.542  1.00  0.00     0.031 C 
ATOM     36  C   UNL A   1      40.045  33.412  35.727  1.00  0.00     0.037 A 
BRANCH  23  37
ATOM     37  C   UNL A   1      44.120  28.779  35.673  1.00  0.00     0.058 A 
ATOM     38  C   UNL A   1      43.891  27.817  36.673  1.00  0.00     0.135 A 
ATOM     39  C   UNL A   1      45.449  28.988  35.282  1.00  0.00     0.135 A 
ATOM     40  F   UNL A   1      42.644  27.453  36.995  1.00  0.00    -0.206 F 
ATOM     41  C   UNL A   1      44.929  27.165  37.328  1.00  0.00     0.059 A 
ATOM     42  C   UNL A   1      46.507  28.311  35.893  1.00  0.00     0.059 A 
ATOM     43  F   UNL A   1      45.729  29.844  34.288  1.00  0.00    -0.206 F 
ATOM     44  C   UNL A   1      46.239  27.423  36.937  1.00  0.00     0.060 A 
BRANCH  44  45
ATOM     45  S   UNL A   1      47.578  26.539  37.767  1.00  0.00     0.124 S 
ATOM     46  O   UNL A   1      47.220  26.724  39.169  1.00  0.00    -0.237 OA
ATOM     47  O   UNL A   1      47.433  25.180  37.252  1.00  0.00    -0.237 OA
ATOM     48  O   UNL A   1      48.773  27.248  37.322  1.00  0.00    -0.744 OA
ENDBRANCH  44  45
ENDBRANCH  23  37
BRANCH  24  49
ATOM     49  C   UNL A   1      36.579  33.219  30.739  1.00  0.00     0.058 A 
ATOM     50  C   UNL A   1      35.250  32.972  31.103  1.00  0.00     0.135 A 
ATOM     51  C   UNL A   1      36.818  34.160  29.722  1.00  0.00     0.135 A 
ATOM     52  F   UNL A   1      34.972  32.080  32.065  1.00  0.00    -0.206 F 
ATOM     53  C   UNL A   1      34.195  33.651  30.499  1.00  0.00     0.059 A 
ATOM     54  C   UNL A   1      35.783  34.866  29.119  1.00  0.00     0.059 A 
ATOM     55  F   UNL A   1      38.077  34.441  29.349  1.00  0.00    -0.206 F 
ATOM     56  C   UNL A   1      34.473  34.606  29.518  1.00  0.00     0.060 A 
BRANCH  56  57
ATOM     57  S   UNL A   1      33.106  35.560  28.823  1.00  0.00     0.124 S 
ATOM     58  O   UNL A   1      33.818  36.603  28.092  1.00  0.00    -0.237 OA
ATOM     59  O   UNL A   1      32.422  34.561  28.007  1.00  0.00    -0.237 OA
ATOM     60  O   UNL A   1      32.371  36.004  30.003  1.00  0.00    -0.744 OA
ENDBRANCH  56  57
ENDBRANCH  24  49
BRANCH  36  61
ATOM     61  C   UNL A   1      39.791  34.386  36.836  1.00  0.00     0.058 A 
ATOM     62  C   UNL A   1      39.071  34.009  37.979  1.00  0.00     0.135 A 
ATOM     63  C   UNL A   1      40.302  35.691  36.777  1.00  0.00     0.135 A 
ATOM     64  F   UNL A   1      38.552  32.774  38.075  1.00  0.00    -0.206 F 
ATOM     65  C   UNL A   1      38.850  34.900  39.022  1.00  0.00     0.059 A 
ATOM     66  C   UNL A   1      40.115  36.592  37.818  1.00  0.00     0.059 A 
ATOM     67  F   UNL A   1      41.004  36.096  35.705  1.00  0.00    -0.206 F 
ATOM     68  C   UNL A   1      39.379  36.190  38.933  1.00  0.00     0.060 A 
BRANCH  68  69
ATOM     69  S   UNL A   1      39.113  37.327  40.308  1.00  0.00     0.124 S 
ATOM     70  O   UNL A   1      38.528  36.443  41.311  1.00  0.00    -0.237 OA
ATOM     71  O   UNL A   1      40.465  37.799  40.589  1.00  0.00    -0.237 OA
ATOM     72  O   UNL A   1      38.210  38.329  39.749  1.00  0.00    -0.744 OA
ENDBRANCH  68  69
ENDBRANCH  36  61
ENDBRANCH  10  11
ENDBRANCH   3   5
ENDBRANCH   2   3
ENDBRANCH   1   2
BRANCH   1  73
ATOM     73  C   UNL A   1      39.664  22.068  26.467  1.00  0.00     0.275 C 
BRANCH  73  74
ATOM     74  O   UNL A   1      38.356  22.480  26.051  1.00  0.00    -0.456 OA
BRANCH  74  75
ATOM     75  C   UNL A   1      37.656  21.557  25.324  1.00  0.00     0.376 C 
ATOM     76  O   UNL A   1      38.066  20.453  24.990  1.00  0.00    -0.242 OA
BRANCH  75  77
ATOM     77  C   UNL A   1      36.263  22.051  25.091  1.00  0.00     0.241 A 
ATOM     78  N   UNL A   1      36.094  23.380  25.202  1.00  0.00    -0.204 NA
ATOM     79  N   UNL A   1      35.340  21.163  24.684  1.00  0.00    -0.222 NA
ATOM     80  C   UNL A   1      34.934  23.876  24.749  1.00  0.00     0.138 A 
ATOM     81  C   UNL A   1      34.168  21.678  24.294  1.00  0.00     0.077 A 
ATOM     82  C   UNL A   1      33.922  23.057  24.232  1.00  0.00     0.043 A 
ATOM     83  C   UNL A   1      33.158  20.826  23.888  1.00  0.00     0.029 A 
ATOM     84  C   UNL A   1      32.725  23.541  23.642  1.00  0.00     0.014 A 
ATOM     85  C   UNL A   1      31.974  21.312  23.327  1.00  0.00     0.002 A 
ATOM     86  C   UNL A   1      31.761  22.668  23.174  1.00  0.00     0.001 A 
BRANCH  80  87
ATOM     87  N   UNL A   1      34.805  25.255  24.652  1.00  0.00    -0.368 N 
ATOM     88  H   UNL A   1      34.936  25.694  23.781  1.00  0.00     0.162 HD
BRANCH  87  89
ATOM     89  C   UNL A   1      34.478  26.060  25.818  1.00  0.00     0.127 C 
BRANCH  89  90
ATOM     90  C   UNL A   1      33.422  27.168  25.486  1.00  0.00     0.070 C 
ATOM     91  C   UNL A   1      31.976  26.647  25.487  1.00  0.00    -0.035 A 
ATOM     92  C   UNL A   1      33.627  28.486  26.255  1.00  0.00    -0.025 A 
ATOM     93  C   UNL A   1      31.560  25.550  26.265  1.00  0.00     0.005 A 
ATOM     94  C   UNL A   1      31.029  27.246  24.628  1.00  0.00    -0.034 A 
ATOM     95  C   UNL A   1      32.844  29.648  26.061  1.00  0.00     0.011 A 
ATOM     96  C   UNL A   1      34.726  28.591  27.150  1.00  0.00     0.005 A 
ATOM     97  C   UNL A   1      30.281  25.006  26.125  1.00  0.00     0.000 A 
ATOM     98  C   UNL A   1      29.735  26.706  24.517  1.00  0.00     0.005 A 
ATOM     99  C   UNL A   1      31.368  28.503  23.874  1.00  0.00     0.110 C 
ATOM    100  S   UNL A   1      31.419  29.925  24.998  1.00  0.00    -0.121 SA
ATOM    101  C   UNL A   1      33.172  30.824  26.780  1.00  0.00     0.015 A 
ATOM    102  C   UNL A   1      35.046  29.770  27.823  1.00  0.00     0.000 A 
ATOM    103  C   UNL A   1      29.370  25.579  25.246  1.00  0.00     0.000 A 
ATOM    104  C   UNL A   1      34.262  30.890  27.643  1.00  0.00     0.001 A 
ENDBRANCH  89  90
ENDBRANCH  87  89
ENDBRANCH  80  87
ENDBRANCH  75  77
ENDBRANCH  74  75
ENDBRANCH  73  74
ENDBRANCH   1  73
TORSDOF 17
ENDMDL
MODEL 2
REMARK VINA RESULT:     -12.5      6.176     11.709
REMARK SMILES O=C(OCCOC(=O)c1nc(NC[C@H]2c3ccccc3CSc3ccccc32)c2ccccc2n1)c1ccc(-c2c3nc(c(-c4c(F)cc(S(=O)(=O)[O-])cc4F)c4ccc([nH]4)c(-c4c(F)cc(S(=O)(=O)[O-])cc4F)c4nc(c(-c5c(F)cc(S(=O)(=O)[O-])cc5F)c5ccc2[nH]5)C=C4)C=C3)cc1
REMARK SMILES IDX 4 1 3 2 2 3 1 4 36 5 37 6 101 7 38 8 100 9 39 10 40 11 41 12
REMARK SMILES IDX 94 13 42 14 99 15 93 16 95 17 43 18 98 19 92 20 91 21 44 23
REMARK SMILES IDX 78 24 57 25 77 26 58 27 61 28 76 29 96 30 59 31 60 32 75 34
REMARK SMILES IDX 97 35 62 36 45 37 46 38 55 39 47 40 48 41 54 42 56 43 49 44
REMARK SMILES IDX 50 45 51 46 52 47 53 48 79 49 80 50 89 51 81 52 82 53 88 54
REMARK SMILES IDX 90 55 83 56 84 57 85 58 86 59 87 60 63 61 64 62 73 63 65 64
REMARK SMILES IDX 66 65 72 66 74 67 67 68 68 69 69 70 70 71 71 72 5 73 6 74
REMARK SMILES IDX 7 75 8 76 9 77 10 78 35 79 11 80 34 81 29 82 33 83 30 84
REMARK SMILES IDX 32 85 31 86 12 87 13 89 14 90 15 91 28 92 16 93 20 94 23 95
REMARK SMILES IDX 27 96 17 97 19 98 21 99 22 100 24 101 26 102 18 103 25 104
REMARK H PARENT 95 22 61 33 12 88
REMARK Flexibility Score: inf
ROOT
ATOM      1  C   UNL A   1      35.492  31.767  28.173  1.00  0.00     0.275 C 
ENDROOT
BRANCH   1   2
ATOM      2  O   UNL A   1      35.902  31.811  29.548  1.00  0.00    -0.458 OA
BRANCH   2   3
ATOM      3  C   UNL A   1      36.462  30.797  30.256  1.00  0.00     0.338 C 
ATOM      4  O   UNL A   1      35.898  30.360  31.256  1.00  0.00    -0.246 OA
BRANCH   3   5
ATOM      5  C   UNL A   1      37.856  30.358  29.974  1.00  0.00     0.060 A 
ATOM      6  C   UNL A   1      38.150  30.076  28.638  1.00  0.00     0.016 A 
ATOM      7  C   UNL A   1      38.887  30.264  30.912  1.00  0.00     0.016 A 
ATOM      8  C   UNL A   1      39.402  29.584  28.268  1.00  0.00     0.010 A 
ATOM      9  C   UNL A   1      40.150  29.777  30.543  1.00  0.00     0.010 A 
ATOM     10  C   UNL A   1      40.413  29.406  29.222  1.00  0.00    -0.014 A 
BRANCH  10  11
ATOM     11  C   UNL A   1      41.778  29.027  28.778  1.00  0.00     0.031 A 
ATOM     12  C   UNL A   1      42.905  30.022  28.673  1.00  0.00     0.074 A 
ATOM     13  C   UNL A   1      41.980  27.730  28.471  1.00  0.00     0.049 A 
ATOM     14  N   UNL A   1      44.184  29.794  28.510  1.00  0.00    -0.248 NA
ATOM     15  C   UNL A   1      42.569  31.451  28.772  1.00  0.00     0.031 C 
ATOM     16  C   UNL A   1      40.941  26.692  28.483  1.00  0.00     0.029 A 
ATOM     17  N   UNL A   1      43.109  27.062  28.082  1.00  0.00    -0.354 N 
ATOM     18  C   UNL A   1      44.815  31.034  28.592  1.00  0.00     0.074 A 
ATOM     19  C   UNL A   1      43.769  32.024  28.712  1.00  0.00     0.031 C 
ATOM     20  C   UNL A   1      41.481  25.523  28.114  1.00  0.00     0.029 A 
ATOM     21  C   UNL A   1      42.892  25.732  27.812  1.00  0.00     0.049 A 
ATOM     22  H   UNL A   1      43.991  27.492  28.002  1.00  0.00     0.167 HD
ATOM     23  C   UNL A   1      46.148  31.293  28.626  1.00  0.00     0.037 A 
ATOM     24  C   UNL A   1      43.732  24.788  27.352  1.00  0.00     0.037 A 
ATOM     25  C   UNL A   1      47.149  30.285  28.390  1.00  0.00     0.049 A 
ATOM     26  C   UNL A   1      45.168  25.155  27.145  1.00  0.00     0.074 A 
ATOM     27  C   UNL A   1      48.526  30.409  28.430  1.00  0.00     0.029 A 
ATOM     28  N   UNL A   1      46.874  28.985  27.991  1.00  0.00    -0.354 N 
ATOM     29  N   UNL A   1      45.771  26.287  27.426  1.00  0.00    -0.248 NA
ATOM     30  C   UNL A   1      46.040  24.130  26.564  1.00  0.00     0.031 C 
ATOM     31  C   UNL A   1      49.080  29.203  27.981  1.00  0.00     0.029 A 
ATOM     32  C   UNL A   1      48.051  28.320  27.695  1.00  0.00     0.049 A 
ATOM     33  H   UNL A   1      45.972  28.593  27.928  1.00  0.00     0.167 HD
ATOM     34  C   UNL A   1      47.098  26.110  27.064  1.00  0.00     0.074 A 
ATOM     35  C   UNL A   1      47.210  24.756  26.552  1.00  0.00     0.031 C 
ATOM     36  C   UNL A   1      48.130  26.985  27.154  1.00  0.00     0.037 A 
BRANCH  23  37
ATOM     37  C   UNL A   1      46.614  32.689  28.950  1.00  0.00     0.058 A 
ATOM     38  C   UNL A   1      46.798  33.641  27.931  1.00  0.00     0.135 A 
ATOM     39  C   UNL A   1      46.783  33.129  30.270  1.00  0.00     0.135 A 
ATOM     40  F   UNL A   1      46.510  33.340  26.659  1.00  0.00    -0.206 F 
ATOM     41  C   UNL A   1      47.228  34.937  28.193  1.00  0.00     0.059 A 
ATOM     42  C   UNL A   1      47.169  34.439  30.562  1.00  0.00     0.059 A 
ATOM     43  F   UNL A   1      46.558  32.288  31.291  1.00  0.00    -0.206 F 
ATOM     44  C   UNL A   1      47.419  35.328  29.514  1.00  0.00     0.060 A 
BRANCH  44  45
ATOM     45  S   UNL A   1      47.937  37.026  29.845  1.00  0.00     0.124 S 
ATOM     46  O   UNL A   1      46.664  37.655  30.181  1.00  0.00    -0.237 OA
ATOM     47  O   UNL A   1      48.874  36.867  30.954  1.00  0.00    -0.237 OA
ATOM     48  O   UNL A   1      48.535  37.446  28.582  1.00  0.00    -0.744 OA
ENDBRANCH  44  45
ENDBRANCH  23  37
BRANCH  24  49
ATOM     49  C   UNL A   1      43.199  23.435  27.050  1.00  0.00     0.058 A 
ATOM     50  C   UNL A   1      42.938  23.030  25.735  1.00  0.00     0.135 A 
ATOM     51  C   UNL A   1      43.040  22.484  28.073  1.00  0.00     0.135 A 
ATOM     52  F   UNL A   1      43.072  23.903  24.725  1.00  0.00    -0.206 F 
ATOM     53  C   UNL A   1      42.560  21.724  25.440  1.00  0.00     0.059 A 
ATOM     54  C   UNL A   1      42.685  21.168  27.802  1.00  0.00     0.059 A 
ATOM     55  F   UNL A   1      43.292  22.822  29.349  1.00  0.00    -0.206 F 
ATOM     56  C   UNL A   1      42.450  20.796  26.479  1.00  0.00     0.060 A 
BRANCH  56  57
ATOM     57  S   UNL A   1      42.068  19.078  26.073  1.00  0.00     0.124 S 
ATOM     58  O   UNL A   1      42.462  18.392  27.298  1.00  0.00    -0.237 OA
ATOM     59  O   UNL A   1      40.634  19.139  25.807  1.00  0.00    -0.237 OA
ATOM     60  O   UNL A   1      42.904  18.815  24.905  1.00  0.00    -0.744 OA
ENDBRANCH  56  57
ENDBRANCH  24  49
BRANCH  36  61
ATOM     61  C   UNL A   1      49.463  26.511  26.659  1.00  0.00     0.058 A 
ATOM     62  C   UNL A   1      49.899  26.807  25.360  1.00  0.00     0.135 A 
ATOM     63  C   UNL A   1      50.326  25.792  27.500  1.00  0.00     0.135 A 
ATOM     64  F   UNL A   1      49.102  27.482  24.516  1.00  0.00    -0.206 F 
ATOM     65  C   UNL A   1      51.143  26.391  24.903  1.00  0.00     0.059 A 
ATOM     66  C   UNL A   1      51.584  25.387  27.072  1.00  0.00     0.059 A 
ATOM     67  F   UNL A   1      49.954  25.491  28.755  1.00  0.00    -0.206 F 
ATOM     68  C   UNL A   1      51.980  25.683  25.768  1.00  0.00     0.060 A 
BRANCH  68  69
ATOM     69  S   UNL A   1      53.606  25.176  25.172  1.00  0.00     0.124 S 
ATOM     70  O   UNL A   1      54.489  25.898  26.083  1.00  0.00    -0.237 OA
ATOM     71  O   UNL A   1      53.564  23.728  25.342  1.00  0.00    -0.237 OA
ATOM     72  O   UNL A   1      53.618  25.639  23.787  1.00  0.00    -0.744 OA
ENDBRANCH  68  69
ENDBRANCH  36  61
ENDBRANCH  10  11
ENDBRANCH   3   5
ENDBRANCH   2   3
ENDBRANCH   1   2
BRANCH   1  73
ATOM     73  C   UNL A   1      34.015  31.438  27.952  1.00  0.00     0.275 C 
BRANCH  73  74
ATOM     74  O   UNL A   1      33.784  30.452  26.937  1.00  0.00    -0.456 OA
BRANCH  74  75
ATOM     75  C   UNL A   1      32.508  30.403  26.449  1.00  0.00     0.376 C 
ATOM     76  O   UNL A   1      31.706  31.327  26.457  1.00  0.00    -0.242 OA
BRANCH  75  77
ATOM     77  C   UNL A   1      32.269  29.077  25.797  1.00  0.00     0.241 A 
ATOM     78  N   UNL A   1      33.126  28.100  26.143  1.00  0.00    -0.204 NA
ATOM     79  N   UNL A   1      31.175  28.941  25.029  1.00  0.00    -0.222 NA
ATOM     80  C   UNL A   1      32.788  26.853  25.784  1.00  0.00     0.138 A 
ATOM     81  C   UNL A   1      30.893  27.695  24.632  1.00  0.00     0.077 A 
ATOM     82  C   UNL A   1      31.631  26.576  25.044  1.00  0.00     0.043 A 
ATOM     83  C   UNL A   1      29.798  27.477  23.816  1.00  0.00     0.029 A 
ATOM     84  C   UNL A   1      31.174  25.267  24.735  1.00  0.00     0.014 A 
ATOM     85  C   UNL A   1      29.367  26.186  23.500  1.00  0.00     0.002 A 
ATOM     86  C   UNL A   1      30.033  25.075  23.979  1.00  0.00     0.001 A 
BRANCH  80  87
ATOM     87  N   UNL A   1      33.531  25.800  26.299  1.00  0.00    -0.368 N 
ATOM     88  H   UNL A   1      33.185  25.292  27.068  1.00  0.00     0.162 HD
BRANCH  87  89
ATOM     89  C   UNL A   1      34.813  25.434  25.718  1.00  0.00     0.127 C 
BRANCH  89  90
ATOM     90  C   UNL A   1      34.918  23.893  25.456  1.00  0.00     0.070 C 
ATOM     91  C   UNL A   1      34.202  23.447  24.171  1.00  0.00    -0.035 A 
ATOM     92  C   UNL A   1      36.336  23.319  25.630  1.00  0.00    -0.025 A 
ATOM     93  C   UNL A   1      34.025  24.295  23.062  1.00  0.00     0.005 A 
ATOM     94  C   UNL A   1      33.639  22.153  24.112  1.00  0.00    -0.034 A 
ATOM     95  C   UNL A   1      36.654  21.945  25.521  1.00  0.00     0.011 A 
ATOM     96  C   UNL A   1      37.385  24.195  26.021  1.00  0.00     0.005 A 
ATOM     97  C   UNL A   1      33.236  23.910  21.974  1.00  0.00     0.000 A 
ATOM     98  C   UNL A   1      32.870  21.767  22.999  1.00  0.00     0.005 A 
ATOM     99  C   UNL A   1      33.909  21.152  25.203  1.00  0.00     0.110 C 
ATOM    100  S   UNL A   1      35.611  20.541  25.098  1.00  0.00    -0.121 SA
ATOM    101  C   UNL A   1      37.985  21.528  25.770  1.00  0.00     0.015 A 
ATOM    102  C   UNL A   1      38.681  23.754  26.289  1.00  0.00     0.000 A 
ATOM    103  C   UNL A   1      32.652  22.650  21.946  1.00  0.00     0.000 A 
ATOM    104  C   UNL A   1      38.985  22.415  26.157  1.00  0.00     0.001 A 
ENDBRANCH  89  90
ENDBRANCH  87  89
ENDBRANCH  80  87
ENDBRANCH  75  77
ENDBRANCH  74  75
ENDBRANCH  73  74
ENDBRANCH   1  73
TORSDOF 17
ENDMDL
MODEL 3
REMARK VINA RESULT:     -12.2      0.512      7.953
REMARK SMILES O=C(OCCOC(=O)c1nc(NC[C@H]2c3ccccc3CSc3ccccc32)c2ccccc2n1)c1ccc(-c2c3nc(c(-c4c(F)cc(S(=O)(=O)[O-])cc4F)c4ccc([nH]4)c(-c4c(F)cc(S(=O)(=O)[O-])cc4F)c4nc(c(-c5c(F)cc(S(=O)(=O)[O-])cc5F)c5ccc2[nH]5)C=C4)C=C3)cc1
REMARK SMILES IDX 4 1 3 2 2 3 1 4 36 5 37 6 101 7 38 8 100 9 39 10 40 11 41 12
REMARK SMILES IDX 94 13 42 14 99 15 93 16 95 17 43 18 98 19 92 20 91 21 44 23
REMARK SMILES IDX 78 24 57 25 77 26 58 27 61 28 76 29 96 30 59 31 60 32 75 34
REMARK SMILES IDX 97 35 62 36 45 37 46 38 55 39 47 40 48 41 54 42 56 43 49 44
REMARK SMILES IDX 50 45 51 46 52 47 53 48 79 49 80 50 89 51 81 52 82 53 88 54
REMARK SMILES IDX 90 55 83 56 84 57 85 58 86 59 87 60 63 61 64 62 73 63 65 64
REMARK SMILES IDX 66 65 72 66 74 67 67 68 68 69 69 70 70 71 71 72 5 73 6 74
REMARK SMILES IDX 7 75 8 76 9 77 10 78 35 79 11 80 34 81 29 82 33 83 30 84
REMARK SMILES IDX 32 85 31 86 12 87 13 89 14 90 15 91 28 92 16 93 20 94 23 95
REMARK SMILES IDX 27 96 17 97 19 98 21 99 22 100 24 101 26 102 18 103 25 104
REMARK H PARENT 95 22 61 33 12 88
REMARK Flexibility Score: inf
ROOT
ATOM      1  C   UNL A   1      40.400  22.855  27.252  1.00  0.00     0.275 C 
ENDROOT
BRANCH   1   2
ATOM      2  O   UNL A   1      41.367  23.751  26.682  1.00  0.00    -0.458 OA
BRANCH   2   3
ATOM      3  C   UNL A   1      41.217  25.086  26.495  1.00  0.00     0.338 C 
ATOM      4  O   UNL A   1      41.470  25.587  25.402  1.00  0.00    -0.246 OA
BRANCH   3   5
ATOM      5  C   UNL A   1      40.968  25.990  27.652  1.00  0.00     0.060 A 
ATOM      6  C   UNL A   1      41.966  26.930  27.918  1.00  0.00     0.016 A 
ATOM      7  C   UNL A   1      39.814  26.009  28.438  1.00  0.00     0.016 A 
ATOM      8  C   UNL A   1      41.876  27.777  29.023  1.00  0.00     0.010 A 
ATOM      9  C   UNL A   1      39.716  26.866  29.546  1.00  0.00     0.010 A 
ATOM     10  C   UNL A   1      40.758  27.740  29.866  1.00  0.00    -0.014 A 
BRANCH  10  11
ATOM     11  C   UNL A   1      40.619  28.754  30.941  1.00  0.00     0.031 A 
ATOM     12  C   UNL A   1      39.703  29.945  30.823  1.00  0.00     0.074 A 
ATOM     13  C   UNL A   1      41.353  28.565  32.055  1.00  0.00     0.049 A 
ATOM     14  N   UNL A   1      39.324  30.781  31.757  1.00  0.00    -0.248 NA
ATOM     15  C   UNL A   1      39.126  30.238  29.501  1.00  0.00     0.031 C 
ATOM     16  C   UNL A   1      42.317  27.474  32.250  1.00  0.00     0.029 A 
ATOM     17  N   UNL A   1      41.419  29.276  33.222  1.00  0.00    -0.354 N 
ATOM     18  C   UNL A   1      38.389  31.629  31.165  1.00  0.00     0.074 A 
ATOM     19  C   UNL A   1      38.337  31.276  29.765  1.00  0.00     0.031 C 
ATOM     20  C   UNL A   1      42.879  27.594  33.461  1.00  0.00     0.029 A 
ATOM     21  C   UNL A   1      42.339  28.780  34.114  1.00  0.00     0.049 A 
ATOM     22  H   UNL A   1      40.861  30.066  33.406  1.00  0.00     0.167 HD
ATOM     23  C   UNL A   1      37.613  32.566  31.768  1.00  0.00     0.037 A 
ATOM     24  C   UNL A   1      42.723  29.241  35.317  1.00  0.00     0.037 A 
ATOM     25  C   UNL A   1      37.781  32.959  33.143  1.00  0.00     0.049 A 
ATOM     26  C   UNL A   1      42.027  30.445  35.872  1.00  0.00     0.074 A 
ATOM     27  C   UNL A   1      37.041  33.866  33.880  1.00  0.00     0.029 A 
ATOM     28  N   UNL A   1      38.812  32.522  33.963  1.00  0.00    -0.354 N 
ATOM     29  N   UNL A   1      41.008  31.102  35.370  1.00  0.00    -0.248 NA
ATOM     30  C   UNL A   1      42.524  30.974  37.145  1.00  0.00     0.031 C 
ATOM     31  C   UNL A   1      37.673  34.032  35.119  1.00  0.00     0.029 A 
ATOM     32  C   UNL A   1      38.784  33.204  35.166  1.00  0.00     0.049 A 
ATOM     33  H   UNL A   1      39.469  31.828  33.722  1.00  0.00     0.167 HD
ATOM     34  C   UNL A   1      40.732  32.119  36.271  1.00  0.00     0.074 A 
ATOM     35  C   UNL A   1      41.688  31.983  37.354  1.00  0.00     0.031 C 
ATOM     36  C   UNL A   1      39.770  33.074  36.211  1.00  0.00     0.037 A 
BRANCH  23  37
ATOM     37  C   UNL A   1      36.502  33.213  30.980  1.00  0.00     0.058 A 
ATOM     38  C   UNL A   1      36.785  34.191  30.009  1.00  0.00     0.135 A 
ATOM     39  C   UNL A   1      35.168  32.803  31.102  1.00  0.00     0.135 A 
ATOM     40  F   UNL A   1      38.050  34.526  29.729  1.00  0.00    -0.206 F 
ATOM     41  C   UNL A   1      35.787  34.809  29.265  1.00  0.00     0.059 A 
ATOM     42  C   UNL A   1      34.153  33.376  30.332  1.00  0.00     0.059 A 
ATOM     43  F   UNL A   1      34.842  31.828  31.963  1.00  0.00    -0.206 F 
ATOM     44  C   UNL A   1      34.468  34.401  29.438  1.00  0.00     0.060 A 
BRANCH  44  45
ATOM     45  S   UNL A   1      33.185  35.182  28.435  1.00  0.00     0.124 S 
ATOM     46  O   UNL A   1      33.985  35.879  27.433  1.00  0.00    -0.237 OA
ATOM     47  O   UNL A   1      32.418  34.040  27.947  1.00  0.00    -0.237 OA
ATOM     48  O   UNL A   1      32.487  36.036  29.391  1.00  0.00    -0.744 OA
ENDBRANCH  44  45
ENDBRANCH  23  37
BRANCH  24  49
ATOM     49  C   UNL A   1      43.828  28.554  36.034  1.00  0.00     0.058 A 
ATOM     50  C   UNL A   1      45.148  29.015  35.952  1.00  0.00     0.135 A 
ATOM     51  C   UNL A   1      43.560  27.480  36.900  1.00  0.00     0.135 A 
ATOM     52  F   UNL A   1      45.453  30.035  35.136  1.00  0.00    -0.206 F 
ATOM     53  C   UNL A   1      46.162  28.450  36.720  1.00  0.00     0.059 A 
ATOM     54  C   UNL A   1      44.551  26.914  37.694  1.00  0.00     0.059 A 
ATOM     55  F   UNL A   1      42.307  27.013  37.023  1.00  0.00    -0.206 F 
ATOM     56  C   UNL A   1      45.850  27.409  37.599  1.00  0.00     0.060 A 
BRANCH  56  57
ATOM     57  S   UNL A   1      47.150  26.761  38.672  1.00  0.00     0.124 S 
ATOM     58  O   UNL A   1      46.370  26.151  39.743  1.00  0.00    -0.237 OA
ATOM     59  O   UNL A   1      47.847  25.837  37.783  1.00  0.00    -0.237 OA
ATOM     60  O   UNL A   1      47.907  27.953  39.042  1.00  0.00    -0.744 OA
ENDBRANCH  56  57
ENDBRANCH  24  49
BRANCH  36  61
ATOM     61  C   UNL A   1      39.728  34.062  37.337  1.00  0.00     0.058 A 
ATOM     62  C   UNL A   1      40.396  35.291  37.245  1.00  0.00     0.135 A 
ATOM     63  C   UNL A   1      38.983  33.798  38.496  1.00  0.00     0.135 A 
ATOM     64  F   UNL A   1      41.132  35.582  36.159  1.00  0.00    -0.206 F 
ATOM     65  C   UNL A   1      40.343  36.222  38.274  1.00  0.00     0.059 A 
ATOM     66  C   UNL A   1      38.896  34.725  39.529  1.00  0.00     0.059 A 
ATOM     67  F   UNL A   1      38.320  32.638  38.626  1.00  0.00    -0.206 F 
ATOM     68  C   UNL A   1      39.587  35.930  39.412  1.00  0.00     0.060 A 
BRANCH  68  69
ATOM     69  S   UNL A   1      39.500  37.161  40.728  1.00  0.00     0.124 S 
ATOM     70  O   UNL A   1      39.080  36.346  41.864  1.00  0.00    -0.237 OA
ATOM     71  O   UNL A   1      40.868  37.664  40.779  1.00  0.00    -0.237 OA
ATOM     72  O   UNL A   1      38.507  38.112  40.236  1.00  0.00    -0.744 OA
ENDBRANCH  68  69
ENDBRANCH  36  61
ENDBRANCH  10  11
ENDBRANCH   3   5
ENDBRANCH   2   3
ENDBRANCH   1   2
BRANCH   1  73
ATOM     73  C   UNL A   1      39.674  21.965  26.242  1.00  0.00     0.275 C 
BRANCH  73  74
ATOM     74  O   UNL A   1      38.300  22.319  26.037  1.00  0.00    -0.456 OA
BRANCH  74  75
ATOM     75  C   UNL A   1      37.569  21.426  25.305  1.00  0.00     0.376 C 
ATOM     76  O   UNL A   1      37.940  20.311  24.964  1.00  0.00    -0.242 OA
BRANCH  75  77
ATOM     77  C   UNL A   1      36.194  21.970  25.074  1.00  0.00     0.241 A 
ATOM     78  N   UNL A   1      36.071  23.302  25.200  1.00  0.00    -0.204 NA
ATOM     79  N   UNL A   1      35.243  21.119  24.654  1.00  0.00    -0.222 NA
ATOM     80  C   UNL A   1      34.929  23.844  24.751  1.00  0.00     0.138 A 
ATOM     81  C   UNL A   1      34.089  21.678  24.269  1.00  0.00     0.077 A 
ATOM     82  C   UNL A   1      33.891  23.065  24.222  1.00  0.00     0.043 A 
ATOM     83  C   UNL A   1      33.052  20.866  23.850  1.00  0.00     0.029 A 
ATOM     84  C   UNL A   1      32.712  23.597  23.635  1.00  0.00     0.014 A 
ATOM     85  C   UNL A   1      31.887  21.399  23.293  1.00  0.00     0.002 A 
ATOM     86  C   UNL A   1      31.721  22.763  23.155  1.00  0.00     0.001 A 
BRANCH  80  87
ATOM     87  N   UNL A   1      34.848  25.227  24.670  1.00  0.00    -0.368 N 
ATOM     88  H   UNL A   1      35.008  25.672  23.807  1.00  0.00     0.162 HD
BRANCH  87  89
ATOM     89  C   UNL A   1      34.527  26.028  25.841  1.00  0.00     0.127 C 
BRANCH  89  90
ATOM     90  C   UNL A   1      33.464  27.132  25.520  1.00  0.00     0.070 C 
ATOM     91  C   UNL A   1      32.018  26.609  25.552  1.00  0.00    -0.035 A 
ATOM     92  C   UNL A   1      33.681  28.456  26.275  1.00  0.00    -0.025 A 
ATOM     93  C   UNL A   1      31.619  25.518  26.347  1.00  0.00     0.005 A 
ATOM     94  C   UNL A   1      31.054  27.201  24.707  1.00  0.00    -0.034 A 
ATOM     95  C   UNL A   1      32.894  29.616  26.086  1.00  0.00     0.011 A 
ATOM     96  C   UNL A   1      34.797  28.570  27.148  1.00  0.00     0.005 A 
ATOM     97  C   UNL A   1      30.337  24.972  26.236  1.00  0.00     0.000 A 
ATOM     98  C   UNL A   1      29.759  26.659  24.625  1.00  0.00     0.005 A 
ATOM     99  C   UNL A   1      31.378  28.453  23.937  1.00  0.00     0.110 C 
ATOM    100  S   UNL A   1      31.448  29.883  25.049  1.00  0.00    -0.121 SA
ATOM    101  C   UNL A   1      33.234  30.797  26.790  1.00  0.00     0.015 A 
ATOM    102  C   UNL A   1      35.129  29.754  27.805  1.00  0.00     0.000 A 
ATOM    103  C   UNL A   1      29.410  25.537  25.370  1.00  0.00     0.000 A 
ATOM    104  C   UNL A   1      34.340  30.872  27.632  1.00  0.00     0.001 A 
ENDBRANCH  89  90
ENDBRANCH  87  89
ENDBRANCH  80  87
ENDBRANCH  75  77
ENDBRANCH  74  75
ENDBRANCH  73  74
ENDBRANCH   1  73
TORSDOF 17
ENDMDL
