MODEL 1
REMARK VINA RESULT:     -11.9      0.000      0.000
REMARK SMILES Cc1cc2c(c(C)c1Br)C=C(C(=O)OCCOC(=O)c1ccc(-c3c4nc(c(-c5c(F)cc(S(=O)(=O)[O-])cc5F)c5ccc([nH]5)c(-c5c(F)cc(S(=O)(=O)[O-])cc5F)c5nc(c(-c6c(F)cc(S(=O)(=O)[O-])cc6F)c6ccc3[nH]6)C=C5)C=C4)cc1)[C@@H](C(F)(F)F)O2
REMARK SMILES IDX 16 1 15 2 14 3 12 4 13 5 11 6 1 7 2 8 3 9 8 10 4 11 6 12
REMARK SMILES IDX 9 13 5 14 91 15 7 16 10 17 86 18 87 19 88 20 89 21 90 22
REMARK SMILES IDX 17 23 18 24 19 25 20 26 21 27 85 28 22 29 84 30 23 31 24 32
REMARK SMILES IDX 25 33 78 34 26 35 83 36 77 37 79 38 27 39 82 40 76 41 75 42
REMARK SMILES IDX 28 44 62 45 41 46 61 47 42 48 45 49 60 50 80 51 43 52 44 53
REMARK SMILES IDX 59 55 81 56 46 57 29 58 30 59 39 60 31 61 32 62 38 63 40 64
REMARK SMILES IDX 33 65 34 66 35 67 36 68 37 69 63 70 64 71 73 72 65 73 66 74
REMARK SMILES IDX 72 75 74 76 67 77 68 78 69 79 70 80 71 81 47 82 48 83 57 84
REMARK SMILES IDX 49 85 50 86 56 87 58 88 51 89 52 90 53 91 54 92 55 93
REMARK H PARENT 79 43 45 54
REMARK Flexibility Score: inf
ROOT
ATOM      1  C   UNL A   1      34.360  30.797  27.863  1.00  0.00     0.275 C 
ENDROOT
BRANCH   1   2
ATOM      2  C   UNL A   1      34.265  29.328  27.451  1.00  0.00     0.275 C 
BRANCH   2   3
ATOM      3  O   UNL A   1      33.054  29.067  26.710  1.00  0.00    -0.459 OA
BRANCH   3   4
ATOM      4  C   UNL A   1      33.224  28.482  25.501  1.00  0.00     0.338 C 
ATOM      5  O   UNL A   1      33.643  29.019  24.487  1.00  0.00    -0.246 OA
BRANCH   4   6
ATOM      6  C   UNL A   1      32.839  27.059  25.555  1.00  0.00     0.087 C 
ATOM      7  C   UNL A   1      32.153  20.633  25.046  1.00  0.00     0.046 C 
ATOM      8  C   UNL A   1      32.687  22.030  25.225  1.00  0.00    -0.033 A 
ATOM      9  C   UNL A   1      31.737  23.056  25.351  1.00  0.00     0.051 A 
ATOM     10  C   UNL A   1      34.057  22.365  25.216  1.00  0.00     0.024 A 
ATOM     11  C   UNL A   1      32.122  24.389  25.461  1.00  0.00     0.128 A 
ATOM     12  C   UNL A   1      34.471  23.713  25.350  1.00  0.00    -0.026 A 
ATOM     13  Br  UNL A   1      35.352  20.971  24.997  1.00  0.00    -0.050 Br
ATOM     14  C   UNL A   1      33.478  24.727  25.453  1.00  0.00     0.021 A 
ATOM     15  O   UNL A   1      31.099  25.286  25.586  1.00  0.00    -0.475 OA
ATOM     16  C   UNL A   1      35.933  24.105  25.402  1.00  0.00     0.046 C 
ATOM     17  C   UNL A   1      33.815  26.145  25.525  1.00  0.00     0.027 C 
ATOM     18  C   UNL A   1      31.387  26.707  25.509  1.00  0.00     0.316 C 
BRANCH  18  19
ATOM     19  C   UNL A   1      30.709  27.286  24.256  1.00  0.00     0.430 C 
ATOM     20  F   UNL A   1      29.498  26.714  24.041  1.00  0.00    -0.167 F 
ATOM     21  F   UNL A   1      30.484  28.617  24.380  1.00  0.00    -0.167 F 
ATOM     22  F   UNL A   1      31.447  27.103  23.139  1.00  0.00    -0.167 F 
ENDBRANCH  18  19
ENDBRANCH   4   6
ENDBRANCH   3   4
ENDBRANCH   2   3
ENDBRANCH   1   2
BRANCH   1  23
ATOM     23  O   UNL A   1      35.736  31.188  28.010  1.00  0.00    -0.458 OA
BRANCH  23  24
ATOM     24  C   UNL A   1      36.324  30.824  29.172  1.00  0.00     0.338 C 
ATOM     25  O   UNL A   1      35.879  30.954  30.299  1.00  0.00    -0.246 OA
BRANCH  24  26
ATOM     26  C   UNL A   1      37.599  30.146  28.891  1.00  0.00     0.060 A 
ATOM     27  C   UNL A   1      38.495  29.970  29.935  1.00  0.00     0.016 A 
ATOM     28  C   UNL A   1      37.977  29.830  27.588  1.00  0.00     0.016 A 
ATOM     29  C   UNL A   1      39.813  29.620  29.670  1.00  0.00     0.010 A 
ATOM     30  C   UNL A   1      39.266  29.333  27.346  1.00  0.00     0.010 A 
ATOM     31  C   UNL A   1      40.221  29.264  28.377  1.00  0.00    -0.014 A 
BRANCH  31  32
ATOM     32  C   UNL A   1      41.637  28.845  28.134  1.00  0.00     0.031 A 
ATOM     33  C   UNL A   1      42.776  29.824  28.312  1.00  0.00     0.074 A 
ATOM     34  C   UNL A   1      41.916  27.564  27.806  1.00  0.00     0.049 A 
ATOM     35  N   UNL A   1      44.046  29.672  28.028  1.00  0.00    -0.248 NA
ATOM     36  C   UNL A   1      42.449  31.147  28.867  1.00  0.00     0.031 C 
ATOM     37  C   UNL A   1      40.924  26.497  27.637  1.00  0.00     0.029 A 
ATOM     38  N   UNL A   1      43.113  26.923  27.589  1.00  0.00    -0.354 N 
ATOM     39  C   UNL A   1      44.655  30.889  28.319  1.00  0.00     0.074 A 
ATOM     40  C   UNL A   1      43.614  31.776  28.788  1.00  0.00     0.031 C 
ATOM     41  C   UNL A   1      41.551  25.329  27.445  1.00  0.00     0.029 A 
ATOM     42  C   UNL A   1      42.983  25.573  27.346  1.00  0.00     0.049 A 
ATOM     43  H   UNL A   1      43.982  27.386  27.608  1.00  0.00     0.167 HD
ATOM     44  C   UNL A   1      45.962  31.231  28.211  1.00  0.00     0.037 A 
ATOM     45  C   UNL A   1      43.901  24.635  27.035  1.00  0.00     0.037 A 
ATOM     46  C   UNL A   1      47.002  30.322  27.801  1.00  0.00     0.049 A 
ATOM     47  C   UNL A   1      45.336  25.050  26.878  1.00  0.00     0.074 A 
ATOM     48  C   UNL A   1      48.355  30.577  27.649  1.00  0.00     0.029 A 
ATOM     49  N   UNL A   1      46.814  28.980  27.505  1.00  0.00    -0.354 N 
ATOM     50  N   UNL A   1      45.875  26.228  27.075  1.00  0.00    -0.248 NA
ATOM     51  C   UNL A   1      46.281  24.020  26.427  1.00  0.00     0.031 C 
ATOM     52  C   UNL A   1      48.978  29.400  27.226  1.00  0.00     0.029 A 
ATOM     53  C   UNL A   1      48.023  28.398  27.164  1.00  0.00     0.049 A 
ATOM     54  H   UNL A   1      45.949  28.511  27.534  1.00  0.00     0.167 HD
ATOM     55  C   UNL A   1      47.225  26.079  26.783  1.00  0.00     0.074 A 
ATOM     56  C   UNL A   1      47.424  24.694  26.412  1.00  0.00     0.031 C 
ATOM     57  C   UNL A   1      48.208  27.011  26.813  1.00  0.00     0.037 A 
BRANCH  44  58
ATOM     58  C   UNL A   1      46.355  32.652  28.524  1.00  0.00     0.058 A 
ATOM     59  C   UNL A   1      46.288  33.670  27.560  1.00  0.00     0.135 A 
ATOM     60  C   UNL A   1      46.735  33.012  29.828  1.00  0.00     0.135 A 
ATOM     61  F   UNL A   1      45.947  33.382  26.295  1.00  0.00    -0.206 F 
ATOM     62  C   UNL A   1      46.598  34.990  27.874  1.00  0.00     0.059 A 
ATOM     63  C   UNL A   1      47.022  34.330  30.171  1.00  0.00     0.059 A 
ATOM     64  F   UNL A   1      46.814  32.079  30.790  1.00  0.00    -0.206 F 
ATOM     65  C   UNL A   1      46.960  35.312  29.184  1.00  0.00     0.060 A 
BRANCH  65  66
ATOM     66  S   UNL A   1      47.338  37.033  29.578  1.00  0.00     0.124 S 
ATOM     67  O   UNL A   1      46.045  37.674  29.357  1.00  0.00    -0.237 OA
ATOM     68  O   UNL A   1      47.771  36.946  30.969  1.00  0.00    -0.237 OA
ATOM     69  O   UNL A   1      48.381  37.384  28.620  1.00  0.00    -0.744 OA
ENDBRANCH  65  66
ENDBRANCH  44  58
BRANCH  45  70
ATOM     70  C   UNL A   1      43.480  23.223  26.818  1.00  0.00     0.058 A 
ATOM     71  C   UNL A   1      43.434  22.674  25.529  1.00  0.00     0.135 A 
ATOM     72  C   UNL A   1      43.149  22.383  27.895  1.00  0.00     0.135 A 
ATOM     73  F   UNL A   1      43.727  23.436  24.464  1.00  0.00    -0.206 F 
ATOM     74  C   UNL A   1      43.076  21.346  25.312  1.00  0.00     0.059 A 
ATOM     75  C   UNL A   1      42.821  21.044  27.709  1.00  0.00     0.059 A 
ATOM     76  F   UNL A   1      43.187  22.854  29.152  1.00  0.00    -0.206 F 
ATOM     77  C   UNL A   1      42.779  20.537  26.411  1.00  0.00     0.060 A 
BRANCH  77  78
ATOM     78  S   UNL A   1      42.374  18.800  26.126  1.00  0.00     0.124 S 
ATOM     79  O   UNL A   1      43.301  18.455  25.053  1.00  0.00    -0.237 OA
ATOM     80  O   UNL A   1      42.653  18.203  27.428  1.00  0.00    -0.237 OA
ATOM     81  O   UNL A   1      40.964  18.841  25.751  1.00  0.00    -0.744 OA
ENDBRANCH  77  78
ENDBRANCH  45  70
BRANCH  57  82
ATOM     82  C   UNL A   1      49.601  26.567  26.469  1.00  0.00     0.058 A 
ATOM     83  C   UNL A   1      50.471  26.057  27.444  1.00  0.00     0.135 A 
ATOM     84  C   UNL A   1      50.034  26.566  25.133  1.00  0.00     0.135 A 
ATOM     85  F   UNL A   1      50.107  26.047  28.736  1.00  0.00    -0.206 F 
ATOM     86  C   UNL A   1      51.724  25.560  27.106  1.00  0.00     0.059 A 
ATOM     87  C   UNL A   1      51.274  26.050  24.770  1.00  0.00     0.059 A 
ATOM     88  F   UNL A   1      49.236  27.038  24.163  1.00  0.00    -0.206 F 
ATOM     89  C   UNL A   1      52.112  25.551  25.765  1.00  0.00     0.060 A 
BRANCH  89  90
ATOM     90  S   UNL A   1      53.713  24.836  25.337  1.00  0.00     0.124 S 
ATOM     91  O   UNL A   1      54.113  25.662  24.203  1.00  0.00    -0.237 OA
ATOM     92  O   UNL A   1      54.478  25.031  26.565  1.00  0.00    -0.237 OA
ATOM     93  O   UNL A   1      53.393  23.447  25.019  1.00  0.00    -0.744 OA
ENDBRANCH  89  90
ENDBRANCH  57  82
ENDBRANCH  31  32
ENDBRANCH  24  26
ENDBRANCH  23  24
ENDBRANCH   1  23
TORSDOF 15
ENDMDL
MODEL 2
REMARK VINA RESULT:     -11.9      6.842     12.115
REMARK SMILES Cc1cc2c(c(C)c1Br)C=C(C(=O)OCCOC(=O)c1ccc(-c3c4nc(c(-c5c(F)cc(S(=O)(=O)[O-])cc5F)c5ccc([nH]5)c(-c5c(F)cc(S(=O)(=O)[O-])cc5F)c5nc(c(-c6c(F)cc(S(=O)(=O)[O-])cc6F)c6ccc3[nH]6)C=C5)C=C4)cc1)[C@@H](C(F)(F)F)O2
REMARK SMILES IDX 16 1 15 2 14 3 12 4 13 5 11 6 1 7 2 8 3 9 8 10 4 11 6 12
REMARK SMILES IDX 9 13 5 14 91 15 7 16 10 17 86 18 87 19 88 20 89 21 90 22
REMARK SMILES IDX 17 23 18 24 19 25 20 26 21 27 85 28 22 29 84 30 23 31 24 32
REMARK SMILES IDX 25 33 78 34 26 35 83 36 77 37 79 38 27 39 82 40 76 41 75 42
REMARK SMILES IDX 28 44 62 45 41 46 61 47 42 48 45 49 60 50 80 51 43 52 44 53
REMARK SMILES IDX 59 55 81 56 46 57 29 58 30 59 39 60 31 61 32 62 38 63 40 64
REMARK SMILES IDX 33 65 34 66 35 67 36 68 37 69 63 70 64 71 73 72 65 73 66 74
REMARK SMILES IDX 72 75 74 76 67 77 68 78 69 79 70 80 71 81 47 82 48 83 57 84
REMARK SMILES IDX 49 85 50 86 56 87 58 88 51 89 52 90 53 91 54 92 55 93
REMARK H PARENT 79 43 45 54
REMARK Flexibility Score: inf
ROOT
ATOM      1  C   UNL A   1      38.937  22.627  26.232  1.00  0.00     0.275 C 
ENDROOT
BRANCH   1   2
ATOM      2  C   UNL A   1      37.717  22.235  25.399  1.00  0.00     0.275 C 
BRANCH   2   3
ATOM      3  O   UNL A   1      36.947  23.394  25.016  1.00  0.00    -0.459 OA
BRANCH   3   4
ATOM      4  C   UNL A   1      35.713  23.484  25.566  1.00  0.00     0.338 C 
ATOM      5  O   UNL A   1      35.325  22.913  26.574  1.00  0.00    -0.246 OA
BRANCH   4   6
ATOM      6  C   UNL A   1      34.861  24.399  24.783  1.00  0.00     0.087 C 
ATOM      7  C   UNL A   1      30.628  28.728  22.465  1.00  0.00     0.046 C 
ATOM      8  C   UNL A   1      31.680  28.005  23.266  1.00  0.00    -0.033 A 
ATOM      9  C   UNL A   1      32.178  26.811  22.719  1.00  0.00     0.051 A 
ATOM     10  C   UNL A   1      32.142  28.421  24.532  1.00  0.00     0.024 A 
ATOM     11  C   UNL A   1      33.108  26.035  23.404  1.00  0.00     0.128 A 
ATOM     12  C   UNL A   1      33.106  27.658  25.235  1.00  0.00    -0.026 A 
ATOM     13  Br  UNL A   1      31.429  30.024  25.299  1.00  0.00    -0.050 Br
ATOM     14  C   UNL A   1      33.570  26.442  24.658  1.00  0.00     0.021 A 
ATOM     15  O   UNL A   1      33.517  24.903  22.755  1.00  0.00    -0.475 OA
ATOM     16  C   UNL A   1      33.667  28.101  26.570  1.00  0.00     0.046 C 
ATOM     17  C   UNL A   1      34.509  25.561  25.344  1.00  0.00     0.027 C 
ATOM     18  C   UNL A   1      34.330  23.932  23.466  1.00  0.00     0.316 C 
BRANCH  18  19
ATOM     19  C   UNL A   1      33.531  22.626  23.614  1.00  0.00     0.430 C 
ATOM     20  F   UNL A   1      32.635  22.708  24.628  1.00  0.00    -0.167 F 
ATOM     21  F   UNL A   1      32.815  22.350  22.496  1.00  0.00    -0.167 F 
ATOM     22  F   UNL A   1      34.325  21.561  23.859  1.00  0.00    -0.167 F 
ENDBRANCH  18  19
ENDBRANCH   4   6
ENDBRANCH   3   4
ENDBRANCH   2   3
ENDBRANCH   1   2
BRANCH   1  23
ATOM     23  O   UNL A   1      39.121  24.054  26.208  1.00  0.00    -0.458 OA
BRANCH  23  24
ATOM     24  C   UNL A   1      40.300  24.496  26.703  1.00  0.00     0.338 C 
ATOM     25  O   UNL A   1      41.418  24.127  26.393  1.00  0.00    -0.246 OA
BRANCH  24  26
ATOM     26  C   UNL A   1      40.056  25.591  27.655  1.00  0.00     0.060 A 
ATOM     27  C   UNL A   1      40.813  26.747  27.536  1.00  0.00     0.016 A 
ATOM     28  C   UNL A   1      39.208  25.423  28.748  1.00  0.00     0.016 A 
ATOM     29  C   UNL A   1      40.841  27.672  28.573  1.00  0.00     0.010 A 
ATOM     30  C   UNL A   1      39.129  26.432  29.719  1.00  0.00     0.010 A 
ATOM     31  C   UNL A   1      39.979  27.552  29.671  1.00  0.00    -0.014 A 
BRANCH  31  32
ATOM     32  C   UNL A   1      40.000  28.591  30.749  1.00  0.00     0.031 A 
ATOM     33  C   UNL A   1      41.044  28.552  31.842  1.00  0.00     0.074 A 
ATOM     34  C   UNL A   1      39.115  29.612  30.720  1.00  0.00     0.049 A 
ATOM     35  N   UNL A   1      41.138  29.293  32.918  1.00  0.00    -0.248 NA
ATOM     36  C   UNL A   1      42.111  27.546  31.722  1.00  0.00     0.031 C 
ATOM     37  C   UNL A   1      38.074  29.804  29.704  1.00  0.00     0.029 A 
ATOM     38  N   UNL A   1      38.962  30.704  31.541  1.00  0.00    -0.354 N 
ATOM     39  C   UNL A   1      42.236  28.811  33.624  1.00  0.00     0.074 A 
ATOM     40  C   UNL A   1      42.770  27.703  32.863  1.00  0.00     0.031 C 
ATOM     41  C   UNL A   1      37.466  30.980  29.903  1.00  0.00     0.029 A 
ATOM     42  C   UNL A   1      37.975  31.573  31.132  1.00  0.00     0.049 A 
ATOM     43  H   UNL A   1      39.509  30.852  32.347  1.00  0.00     0.167 HD
ATOM     44  C   UNL A   1      42.755  29.256  34.794  1.00  0.00     0.037 A 
ATOM     45  C   UNL A   1      37.497  32.702  31.694  1.00  0.00     0.037 A 
ATOM     46  C   UNL A   1      42.255  30.400  35.515  1.00  0.00     0.049 A 
ATOM     47  C   UNL A   1      38.059  33.148  33.013  1.00  0.00     0.074 A 
ATOM     48  C   UNL A   1      42.705  30.922  36.716  1.00  0.00     0.029 A 
ATOM     49  N   UNL A   1      41.214  31.213  35.093  1.00  0.00    -0.354 N 
ATOM     50  N   UNL A   1      39.042  32.625  33.706  1.00  0.00    -0.248 NA
ATOM     51  C   UNL A   1      37.430  34.316  33.645  1.00  0.00     0.031 C 
ATOM     52  C   UNL A   1      41.914  32.028  37.037  1.00  0.00     0.029 A 
ATOM     53  C   UNL A   1      41.003  32.227  36.012  1.00  0.00     0.049 A 
ATOM     54  H   UNL A   1      40.702  31.088  34.261  1.00  0.00     0.167 HD
ATOM     55  C   UNL A   1      39.157  33.406  34.848  1.00  0.00     0.074 A 
ATOM     56  C   UNL A   1      38.155  34.447  34.748  1.00  0.00     0.031 C 
ATOM     57  C   UNL A   1      40.012  33.266  35.890  1.00  0.00     0.037 A 
BRANCH  44  58
ATOM     58  C   UNL A   1      43.918  28.505  35.390  1.00  0.00     0.058 A 
ATOM     59  C   UNL A   1      43.733  27.438  36.284  1.00  0.00     0.135 A 
ATOM     60  C   UNL A   1      45.233  28.811  35.004  1.00  0.00     0.135 A 
ATOM     61  F   UNL A   1      42.500  27.111  36.700  1.00  0.00    -0.206 F 
ATOM     62  C   UNL A   1      44.811  26.713  36.784  1.00  0.00     0.059 A 
ATOM     63  C   UNL A   1      46.324  28.082  35.470  1.00  0.00     0.059 A 
ATOM     64  F   UNL A   1      45.469  29.820  34.150  1.00  0.00    -0.206 F 
ATOM     65  C   UNL A   1      46.103  27.039  36.367  1.00  0.00     0.060 A 
BRANCH  65  66
ATOM     66  S   UNL A   1      47.487  26.074  37.010  1.00  0.00     0.124 S 
ATOM     67  O   UNL A   1      47.214  26.091  38.445  1.00  0.00    -0.237 OA
ATOM     68  O   UNL A   1      47.303  24.787  36.347  1.00  0.00    -0.237 OA
ATOM     69  O   UNL A   1      48.660  26.832  36.588  1.00  0.00    -0.744 OA
ENDBRANCH  65  66
ENDBRANCH  44  58
BRANCH  45  70
ATOM     70  C   UNL A   1      36.404  33.462  31.027  1.00  0.00     0.058 A 
ATOM     71  C   UNL A   1      36.649  34.207  29.864  1.00  0.00     0.135 A 
ATOM     72  C   UNL A   1      35.087  33.434  31.515  1.00  0.00     0.135 A 
ATOM     73  F   UNL A   1      37.891  34.279  29.362  1.00  0.00    -0.206 F 
ATOM     74  C   UNL A   1      35.632  34.895  29.209  1.00  0.00     0.059 A 
ATOM     75  C   UNL A   1      34.046  34.086  30.861  1.00  0.00     0.059 A 
ATOM     76  F   UNL A   1      34.794  32.728  32.619  1.00  0.00    -0.206 F 
ATOM     77  C   UNL A   1      34.331  34.821  29.712  1.00  0.00     0.060 A 
BRANCH  77  78
ATOM     78  S   UNL A   1      33.007  35.668  28.823  1.00  0.00     0.124 S 
ATOM     79  O   UNL A   1      32.462  34.587  28.008  1.00  0.00    -0.237 OA
ATOM     80  O   UNL A   1      32.157  36.137  29.913  1.00  0.00    -0.237 OA
ATOM     81  O   UNL A   1      33.710  36.716  28.090  1.00  0.00    -0.744 OA
ENDBRANCH  77  78
ENDBRANCH  45  70
BRANCH  57  82
ATOM     82  C   UNL A   1      39.934  34.278  36.996  1.00  0.00     0.058 A 
ATOM     83  C   UNL A   1      40.659  35.478  36.946  1.00  0.00     0.135 A 
ATOM     84  C   UNL A   1      39.052  34.085  38.072  1.00  0.00     0.135 A 
ATOM     85  F   UNL A   1      41.523  35.705  35.944  1.00  0.00    -0.206 F 
ATOM     86  C   UNL A   1      40.513  36.453  37.926  1.00  0.00     0.059 A 
ATOM     87  C   UNL A   1      38.872  35.058  39.049  1.00  0.00     0.059 A 
ATOM     88  F   UNL A   1      38.332  32.956  38.161  1.00  0.00    -0.206 F 
ATOM     89  C   UNL A   1      39.608  36.238  38.968  1.00  0.00     0.060 A 
BRANCH  89  90
ATOM     90  S   UNL A   1      39.378  37.546  40.191  1.00  0.00     0.124 S 
ATOM     91  O   UNL A   1      38.257  38.287  39.625  1.00  0.00    -0.237 OA
ATOM     92  O   UNL A   1      39.090  36.788  41.405  1.00  0.00    -0.237 OA
ATOM     93  O   UNL A   1      40.659  38.247  40.187  1.00  0.00    -0.744 OA
ENDBRANCH  89  90
ENDBRANCH  57  82
ENDBRANCH  31  32
ENDBRANCH  24  26
ENDBRANCH  23  24
ENDBRANCH   1  23
TORSDOF 15
ENDMDL
MODEL 3
REMARK VINA RESULT:     -11.8      2.322      3.195
REMARK SMILES Cc1cc2c(c(C)c1Br)C=C(C(=O)OCCOC(=O)c1ccc(-c3c4nc(c(-c5c(F)cc(S(=O)(=O)[O-])cc5F)c5ccc([nH]5)c(-c5c(F)cc(S(=O)(=O)[O-])cc5F)c5nc(c(-c6c(F)cc(S(=O)(=O)[O-])cc6F)c6ccc3[nH]6)C=C5)C=C4)cc1)[C@@H](C(F)(F)F)O2
REMARK SMILES IDX 16 1 15 2 14 3 12 4 13 5 11 6 1 7 2 8 3 9 8 10 4 11 6 12
REMARK SMILES IDX 9 13 5 14 91 15 7 16 10 17 86 18 87 19 88 20 89 21 90 22
REMARK SMILES IDX 17 23 18 24 19 25 20 26 21 27 85 28 22 29 84 30 23 31 24 32
REMARK SMILES IDX 25 33 78 34 26 35 83 36 77 37 79 38 27 39 82 40 76 41 75 42
REMARK SMILES IDX 28 44 62 45 41 46 61 47 42 48 45 49 60 50 80 51 43 52 44 53
REMARK SMILES IDX 59 55 81 56 46 57 29 58 30 59 39 60 31 61 32 62 38 63 40 64
REMARK SMILES IDX 33 65 34 66 35 67 36 68 37 69 63 70 64 71 73 72 65 73 66 74
REMARK SMILES IDX 72 75 74 76 67 77 68 78 69 79 70 80 71 81 47 82 48 83 57 84
REMARK SMILES IDX 49 85 50 86 56 87 58 88 51 89 52 90 53 91 54 92 55 93
REMARK H PARENT 79 43 45 54
REMARK Flexibility Score: inf
ROOT
ATOM      1  C   UNL A   1      32.646  30.145  26.663  1.00  0.00     0.275 C 
ENDROOT
BRANCH   1   2
ATOM      2  C   UNL A   1      31.965  28.987  25.936  1.00  0.00     0.275 C 
BRANCH   2   3
ATOM      3  O   UNL A   1      32.645  27.737  26.183  1.00  0.00    -0.459 OA
BRANCH   3   4
ATOM      4  C   UNL A   1      33.359  27.245  25.144  1.00  0.00     0.338 C 
ATOM      5  O   UNL A   1      33.956  27.896  24.301  1.00  0.00    -0.246 OA
BRANCH   4   6
ATOM      6  C   UNL A   1      33.341  25.770  25.156  1.00  0.00     0.087 C 
ATOM      7  C   UNL A   1      34.367  19.392  24.601  1.00  0.00     0.046 C 
ATOM      8  C   UNL A   1      34.504  20.873  24.840  1.00  0.00    -0.033 A 
ATOM      9  C   UNL A   1      33.319  21.625  24.834  1.00  0.00     0.051 A 
ATOM     10  C   UNL A   1      35.735  21.541  25.009  1.00  0.00     0.024 A 
ATOM     11  C   UNL A   1      33.338  23.009  24.985  1.00  0.00     0.128 A 
ATOM     12  C   UNL A   1      35.776  22.946  25.188  1.00  0.00    -0.026 A 
ATOM     13  Br  UNL A   1      37.356  20.523  24.970  1.00  0.00    -0.050 Br
ATOM     14  C   UNL A   1      34.554  23.676  25.153  1.00  0.00     0.021 A 
ATOM     15  O   UNL A   1      32.114  23.617  24.970  1.00  0.00    -0.475 OA
ATOM     16  C   UNL A   1      37.073  23.689  25.429  1.00  0.00     0.046 C 
ATOM     17  C   UNL A   1      34.511  25.130  25.260  1.00  0.00     0.027 C 
ATOM     18  C   UNL A   1      32.043  25.066  24.922  1.00  0.00     0.316 C 
BRANCH  18  19
ATOM     19  C   UNL A   1      31.407  25.491  23.587  1.00  0.00     0.430 C 
ATOM     20  F   UNL A   1      32.352  25.843  22.681  1.00  0.00    -0.167 F 
ATOM     21  F   UNL A   1      30.702  24.478  23.027  1.00  0.00    -0.167 F 
ATOM     22  F   UNL A   1      30.567  26.540  23.726  1.00  0.00    -0.167 F 
ENDBRANCH  18  19
ENDBRANCH   4   6
ENDBRANCH   3   4
ENDBRANCH   2   3
ENDBRANCH   1   2
BRANCH   1  23
ATOM     23  O   UNL A   1      33.594  29.646  27.623  1.00  0.00    -0.458 OA
BRANCH  23  24
ATOM     24  C   UNL A   1      34.442  30.566  28.136  1.00  0.00     0.338 C 
ATOM     25  O   UNL A   1      34.165  31.675  28.557  1.00  0.00    -0.246 OA
BRANCH  24  26
ATOM     26  C   UNL A   1      35.801  30.005  28.198  1.00  0.00     0.060 A 
ATOM     27  C   UNL A   1      36.258  29.523  29.416  1.00  0.00     0.016 A 
ATOM     28  C   UNL A   1      36.671  30.096  27.114  1.00  0.00     0.016 A 
ATOM     29  C   UNL A   1      37.612  29.269  29.601  1.00  0.00     0.010 A 
ATOM     30  C   UNL A   1      38.007  29.696  27.268  1.00  0.00     0.010 A 
ATOM     31  C   UNL A   1      38.510  29.319  28.526  1.00  0.00    -0.014 A 
BRANCH  31  32
ATOM     32  C   UNL A   1      39.954  28.994  28.750  1.00  0.00     0.031 A 
ATOM     33  C   UNL A   1      40.878  29.987  29.419  1.00  0.00     0.074 A 
ATOM     34  C   UNL A   1      40.434  27.779  28.405  1.00  0.00     0.049 A 
ATOM     35  N   UNL A   1      42.176  29.925  29.582  1.00  0.00    -0.248 NA
ATOM     36  C   UNL A   1      40.272  31.213  29.963  1.00  0.00     0.031 C 
ATOM     37  C   UNL A   1      39.652  26.703  27.786  1.00  0.00     0.029 A 
ATOM     38  N   UNL A   1      41.682  27.220  28.552  1.00  0.00    -0.354 N 
ATOM     39  C   UNL A   1      42.545  31.119  30.195  1.00  0.00     0.074 A 
ATOM     40  C   UNL A   1      41.337  31.895  30.364  1.00  0.00     0.031 C 
ATOM     41  C   UNL A   1      40.402  25.597  27.702  1.00  0.00     0.029 A 
ATOM     42  C   UNL A   1      41.756  25.910  28.136  1.00  0.00     0.049 A 
ATOM     43  H   UNL A   1      42.451  27.712  28.923  1.00  0.00     0.167 HD
ATOM     44  C   UNL A   1      43.777  31.525  30.588  1.00  0.00     0.037 A 
ATOM     45  C   UNL A   1      42.799  25.058  28.067  1.00  0.00     0.037 A 
ATOM     46  C   UNL A   1      44.967  30.720  30.472  1.00  0.00     0.049 A 
ATOM     47  C   UNL A   1      44.162  25.548  28.467  1.00  0.00     0.074 A 
ATOM     48  C   UNL A   1      46.264  31.048  30.830  1.00  0.00     0.029 A 
ATOM     49  N   UNL A   1      45.004  29.421  29.987  1.00  0.00    -0.354 N 
ATOM     50  N   UNL A   1      44.502  26.712  28.964  1.00  0.00    -0.248 NA
ATOM     51  C   UNL A   1      45.287  24.625  28.266  1.00  0.00     0.031 C 
ATOM     52  C   UNL A   1      47.090  29.962  30.528  1.00  0.00     0.029 A 
ATOM     53  C   UNL A   1      46.301  28.938  30.029  1.00  0.00     0.049 A 
ATOM     54  H   UNL A   1      44.223  28.918  29.662  1.00  0.00     0.167 HD
ATOM     55  C   UNL A   1      45.877  26.658  29.148  1.00  0.00     0.074 A 
ATOM     56  C   UNL A   1      46.306  25.341  28.723  1.00  0.00     0.031 C 
ATOM     57  C   UNL A   1      46.710  27.618  29.619  1.00  0.00     0.037 A 
BRANCH  44  58
ATOM     58  C   UNL A   1      43.920  32.909  31.169  1.00  0.00     0.058 A 
ATOM     59  C   UNL A   1      43.841  33.146  32.550  1.00  0.00     0.135 A 
ATOM     60  C   UNL A   1      44.214  34.001  30.335  1.00  0.00     0.135 A 
ATOM     61  F   UNL A   1      43.548  32.143  33.392  1.00  0.00    -0.206 F 
ATOM     62  C   UNL A   1      44.032  34.418  33.081  1.00  0.00     0.059 A 
ATOM     63  C   UNL A   1      44.436  35.276  30.847  1.00  0.00     0.059 A 
ATOM     64  F   UNL A   1      44.302  33.832  29.006  1.00  0.00    -0.206 F 
ATOM     65  C   UNL A   1      44.334  35.477  32.222  1.00  0.00     0.060 A 
BRANCH  65  66
ATOM     66  S   UNL A   1      44.600  37.116  32.932  1.00  0.00     0.124 S 
ATOM     67  O   UNL A   1      46.054  37.230  32.867  1.00  0.00    -0.237 OA
ATOM     68  O   UNL A   1      43.857  37.975  32.017  1.00  0.00    -0.237 OA
ATOM     69  O   UNL A   1      44.042  37.003  34.275  1.00  0.00    -0.744 OA
ENDBRANCH  65  66
ENDBRANCH  44  58
BRANCH  45  70
ATOM     70  C   UNL A   1      42.597  23.670  27.566  1.00  0.00     0.058 A 
ATOM     71  C   UNL A   1      42.634  23.385  26.194  1.00  0.00     0.135 A 
ATOM     72  C   UNL A   1      42.398  22.595  28.449  1.00  0.00     0.135 A 
ATOM     73  F   UNL A   1      42.808  24.377  25.307  1.00  0.00    -0.206 F 
ATOM     74  C   UNL A   1      42.481  22.088  25.713  1.00  0.00     0.059 A 
ATOM     75  C   UNL A   1      42.276  21.285  27.995  1.00  0.00     0.059 A 
ATOM     76  F   UNL A   1      42.364  22.809  29.774  1.00  0.00    -0.206 F 
ATOM     77  C   UNL A   1      42.311  21.043  26.623  1.00  0.00     0.060 A 
BRANCH  77  78
ATOM     78  S   UNL A   1      42.173  19.356  25.993  1.00  0.00     0.124 S 
ATOM     79  O   UNL A   1      40.749  19.272  25.688  1.00  0.00    -0.237 OA
ATOM     80  O   UNL A   1      43.073  19.384  24.844  1.00  0.00    -0.237 OA
ATOM     81  O   UNL A   1      42.626  18.540  27.116  1.00  0.00    -0.744 OA
ENDBRANCH  77  78
ENDBRANCH  45  70
BRANCH  57  82
ATOM     82  C   UNL A   1      48.168  27.279  29.737  1.00  0.00     0.058 A 
ATOM     83  C   UNL A   1      49.066  27.523  28.688  1.00  0.00     0.135 A 
ATOM     84  C   UNL A   1      48.685  26.791  30.948  1.00  0.00     0.135 A 
ATOM     85  F   UNL A   1      48.618  27.979  27.507  1.00  0.00    -0.206 F 
ATOM     86  C   UNL A   1      50.429  27.296  28.835  1.00  0.00     0.059 A 
ATOM     87  C   UNL A   1      50.048  26.581  31.125  1.00  0.00     0.059 A 
ATOM     88  F   UNL A   1      47.867  26.547  31.984  1.00  0.00    -0.206 F 
ATOM     89  C   UNL A   1      50.912  26.835  30.062  1.00  0.00     0.060 A 
BRANCH  89  90
ATOM     90  S   UNL A   1      52.693  26.613  30.257  1.00  0.00     0.124 S 
ATOM     91  O   UNL A   1      53.105  26.307  28.892  1.00  0.00    -0.237 OA
ATOM     92  O   UNL A   1      53.113  27.914  30.769  1.00  0.00    -0.237 OA
ATOM     93  O   UNL A   1      52.798  25.509  31.207  1.00  0.00    -0.744 OA
ENDBRANCH  89  90
ENDBRANCH  57  82
ENDBRANCH  31  32
ENDBRANCH  24  26
ENDBRANCH  23  24
ENDBRANCH   1  23
TORSDOF 15
ENDMDL
