MODEL 1
REMARK VINA RESULT:     -11.8      0.000      0.000
REMARK SMILES CC1=C2C(=O)N(C[C@H]3CCCO3)C(=O)N=C2S[C@@H]1C(=O)OCCOC(=O)c1ccc(-c2c3nc(c(-c4c(F)cc(S(=O)(=O)[O-])cc4F)c4ccc([nH]4)c(-c4c(F)cc(S(=O)(=O)[O-])cc4F)c4nc(c(-c5c(F)cc(S(=O)(=O)[O-])cc5F)c5ccc2[nH]5)C=C4)C=C3)cc1
REMARK SMILES IDX 23 1 22 2 21 3 19 4 20 5 18 6 1 7 2 8 3 9 4 10 16 11 17 12
REMARK SMILES IDX 5 13 6 14 15 15 13 16 14 17 7 18 8 19 9 20 12 21 10 22 11 23
REMARK SMILES IDX 24 24 25 25 26 26 27 27 28 28 92 29 29 30 91 31 30 32 31 33
REMARK SMILES IDX 32 34 85 35 33 36 90 37 84 38 86 39 34 40 89 41 83 42 82 43
REMARK SMILES IDX 35 45 69 46 48 47 68 48 49 49 52 50 67 51 87 52 50 53 51 54
REMARK SMILES IDX 66 56 88 57 53 58 36 59 37 60 46 61 38 62 39 63 45 64 47 65
REMARK SMILES IDX 40 66 41 67 42 68 43 69 44 70 70 71 71 72 80 73 72 74 73 75
REMARK SMILES IDX 79 76 81 77 74 78 75 79 76 80 77 81 78 82 54 83 55 84 64 85
REMARK SMILES IDX 56 86 57 87 63 88 65 89 58 90 59 91 60 92 61 93 62 94
REMARK H PARENT 86 44 52 55
REMARK Flexibility Score: inf
ROOT
ATOM      1  C   UNL A   1      34.585  30.721  27.613  1.00  0.00     0.275 C 
ENDROOT
BRANCH   1   2
ATOM      2  C   UNL A   1      33.257  30.086  27.184  1.00  0.00     0.274 C 
BRANCH   2   3
ATOM      3  O   UNL A   1      33.262  29.758  25.784  1.00  0.00    -0.461 OA
BRANCH   3   4
ATOM      4  C   UNL A   1      32.047  29.717  25.183  1.00  0.00     0.323 C 
ATOM      5  O   UNL A   1      31.168  30.557  25.367  1.00  0.00    -0.251 OA
BRANCH   4   6
ATOM      6  C   UNL A   1      31.843  28.541  24.237  1.00  0.00     0.189 C 
ATOM      7  C   UNL A   1      31.056  26.999  26.178  1.00  0.00     0.042 C 
ATOM      8  C   UNL A   1      31.901  27.220  24.960  1.00  0.00    -0.033 C 
ATOM      9  C   UNL A   1      32.649  26.285  24.361  1.00  0.00     0.073 C 
ATOM     10  C   UNL A   1      32.882  24.899  24.728  1.00  0.00     0.264 C 
ATOM     11  C   UNL A   1      33.158  26.680  23.067  1.00  0.00     0.116 C 
ATOM     12  S   UNL A   1      33.068  28.398  22.876  1.00  0.00    -0.086 SA
ATOM     13  O   UNL A   1      33.121  24.573  25.881  1.00  0.00    -0.268 OA
ATOM     14  N   UNL A   1      32.859  24.086  23.622  1.00  0.00    -0.256 N 
ATOM     15  N   UNL A   1      33.576  25.866  22.170  1.00  0.00    -0.186 NA
ATOM     16  C   UNL A   1      33.389  24.516  22.396  1.00  0.00     0.351 C 
ATOM     17  O   UNL A   1      33.667  23.706  21.514  1.00  0.00    -0.246 OA
BRANCH  14  18
ATOM     18  C   UNL A   1      32.210  22.775  23.683  1.00  0.00     0.163 C 
BRANCH  18  19
ATOM     19  C   UNL A   1      33.071  21.495  23.662  1.00  0.00     0.138 C 
ATOM     20  C   UNL A   1      34.289  21.475  24.581  1.00  0.00     0.036 C 
ATOM     21  O   UNL A   1      32.229  20.416  24.148  1.00  0.00    -0.376 OA
ATOM     22  C   UNL A   1      33.756  20.951  25.883  1.00  0.00     0.031 C 
ATOM     23  C   UNL A   1      32.712  19.967  25.423  1.00  0.00     0.160 C 
ENDBRANCH  18  19
ENDBRANCH  14  18
ENDBRANCH   4   6
ENDBRANCH   3   4
ENDBRANCH   2   3
ENDBRANCH   1   2
BRANCH   1  24
ATOM     24  O   UNL A   1      35.515  29.763  28.159  1.00  0.00    -0.458 OA
BRANCH  24  25
ATOM     25  C   UNL A   1      36.215  30.185  29.238  1.00  0.00     0.338 C 
ATOM     26  O   UNL A   1      35.758  30.592  30.294  1.00  0.00    -0.246 OA
BRANCH  25  27
ATOM     27  C   UNL A   1      37.656  29.959  29.047  1.00  0.00     0.060 A 
ATOM     28  C   UNL A   1      38.114  29.730  27.747  1.00  0.00     0.016 A 
ATOM     29  C   UNL A   1      38.529  29.859  30.132  1.00  0.00     0.016 A 
ATOM     30  C   UNL A   1      39.438  29.374  27.521  1.00  0.00     0.010 A 
ATOM     31  C   UNL A   1      39.866  29.515  29.902  1.00  0.00     0.010 A 
ATOM     32  C   UNL A   1      40.324  29.256  28.598  1.00  0.00    -0.014 A 
BRANCH  32  33
ATOM     33  C   UNL A   1      41.719  28.820  28.350  1.00  0.00     0.031 A 
ATOM     34  C   UNL A   1      42.838  29.821  28.404  1.00  0.00     0.074 A 
ATOM     35  C   UNL A   1      41.978  27.522  28.106  1.00  0.00     0.049 A 
ATOM     36  N   UNL A   1      44.105  29.659  28.123  1.00  0.00    -0.248 NA
ATOM     37  C   UNL A   1      42.484  31.184  28.830  1.00  0.00     0.031 C 
ATOM     38  C   UNL A   1      40.977  26.454  28.078  1.00  0.00     0.029 A 
ATOM     39  N   UNL A   1      43.160  26.882  27.832  1.00  0.00    -0.354 N 
ATOM     40  C   UNL A   1      44.698  30.900  28.315  1.00  0.00     0.074 A 
ATOM     41  C   UNL A   1      43.647  31.810  28.724  1.00  0.00     0.031 C 
ATOM     42  C   UNL A   1      41.587  25.291  27.798  1.00  0.00     0.029 A 
ATOM     43  C   UNL A   1      43.009  25.540  27.577  1.00  0.00     0.049 A 
ATOM     44  H   UNL A   1      44.032  27.339  27.820  1.00  0.00     0.167 HD
ATOM     45  C   UNL A   1      45.999  31.247  28.165  1.00  0.00     0.037 A 
ATOM     46  C   UNL A   1      43.908  24.622  27.175  1.00  0.00     0.037 A 
ATOM     47  C   UNL A   1      47.036  30.331  27.767  1.00  0.00     0.049 A 
ATOM     48  C   UNL A   1      45.337  25.039  26.968  1.00  0.00     0.074 A 
ATOM     49  C   UNL A   1      48.384  30.583  27.577  1.00  0.00     0.029 A 
ATOM     50  N   UNL A   1      46.842  28.982  27.501  1.00  0.00    -0.354 N 
ATOM     51  N   UNL A   1      45.880  26.223  27.126  1.00  0.00    -0.248 NA
ATOM     52  C   UNL A   1      46.277  23.999  26.525  1.00  0.00     0.031 C 
ATOM     53  C   UNL A   1      48.999  29.394  27.166  1.00  0.00     0.029 A 
ATOM     54  C   UNL A   1      48.041  28.392  27.138  1.00  0.00     0.049 A 
ATOM     55  H   UNL A   1      45.978  28.514  27.562  1.00  0.00     0.167 HD
ATOM     56  C   UNL A   1      47.225  26.070  26.811  1.00  0.00     0.074 A 
ATOM     57  C   UNL A   1      47.418  24.674  26.471  1.00  0.00     0.031 C 
ATOM     58  C   UNL A   1      48.211  27.001  26.802  1.00  0.00     0.037 A 
BRANCH  45  59
ATOM     59  C   UNL A   1      46.362  32.687  28.399  1.00  0.00     0.058 A 
ATOM     60  C   UNL A   1      46.313  33.638  27.368  1.00  0.00     0.135 A 
ATOM     61  C   UNL A   1      46.751  33.123  29.676  1.00  0.00     0.135 A 
ATOM     62  F   UNL A   1      45.965  33.270  26.125  1.00  0.00    -0.206 F 
ATOM     63  C   UNL A   1      46.669  34.966  27.587  1.00  0.00     0.059 A 
ATOM     64  C   UNL A   1      47.087  34.450  29.923  1.00  0.00     0.059 A 
ATOM     65  F   UNL A   1      46.815  32.253  30.696  1.00  0.00    -0.206 F 
ATOM     66  C   UNL A   1      47.060  35.361  28.868  1.00  0.00     0.060 A 
BRANCH  66  67
ATOM     67  S   UNL A   1      47.535  37.082  29.137  1.00  0.00     0.124 S 
ATOM     68  O   UNL A   1      46.907  37.737  27.993  1.00  0.00    -0.237 OA
ATOM     69  O   UNL A   1      46.942  37.373  30.438  1.00  0.00    -0.237 OA
ATOM     70  O   UNL A   1      48.994  37.039  29.112  1.00  0.00    -0.744 OA
ENDBRANCH  66  67
ENDBRANCH  45  59
BRANCH  46  71
ATOM     71  C   UNL A   1      43.467  23.228  26.912  1.00  0.00     0.058 A 
ATOM     72  C   UNL A   1      43.377  22.728  25.607  1.00  0.00     0.135 A 
ATOM     73  C   UNL A   1      43.160  22.356  27.971  1.00  0.00     0.135 A 
ATOM     74  F   UNL A   1      43.652  23.526  24.563  1.00  0.00    -0.206 F 
ATOM     75  C   UNL A   1      42.997  21.414  25.356  1.00  0.00     0.059 A 
ATOM     76  C   UNL A   1      42.802  21.032  27.746  1.00  0.00     0.059 A 
ATOM     77  F   UNL A   1      43.244  22.785  29.240  1.00  0.00    -0.206 F 
ATOM     78  C   UNL A   1      42.717  20.571  26.433  1.00  0.00     0.060 A 
BRANCH  78  79
ATOM     79  S   UNL A   1      42.298  18.845  26.104  1.00  0.00     0.124 S 
ATOM     80  O   UNL A   1      43.211  18.525  25.015  1.00  0.00    -0.237 OA
ATOM     81  O   UNL A   1      42.584  18.209  27.387  1.00  0.00    -0.237 OA
ATOM     82  O   UNL A   1      40.884  18.908  25.748  1.00  0.00    -0.744 OA
ENDBRANCH  78  79
ENDBRANCH  46  71
BRANCH  58  83
ATOM     83  C   UNL A   1      49.591  26.534  26.434  1.00  0.00     0.058 A 
ATOM     84  C   UNL A   1      50.440  25.937  27.378  1.00  0.00     0.135 A 
ATOM     85  C   UNL A   1      50.049  26.643  25.112  1.00  0.00     0.135 A 
ATOM     86  F   UNL A   1      50.050  25.816  28.657  1.00  0.00    -0.206 F 
ATOM     87  C   UNL A   1      51.707  25.482  27.029  1.00  0.00     0.059 A 
ATOM     88  C   UNL A   1      51.304  26.175  24.735  1.00  0.00     0.059 A 
ATOM     89  F   UNL A   1      49.272  27.199  24.171  1.00  0.00    -0.206 F 
ATOM     90  C   UNL A   1      52.131  25.606  25.704  1.00  0.00     0.060 A 
BRANCH  90  91
ATOM     91  S   UNL A   1      53.765  24.984  25.253  1.00  0.00     0.124 S 
ATOM     92  O   UNL A   1      53.510  23.553  25.131  1.00  0.00    -0.237 OA
ATOM     93  O   UNL A   1      54.036  25.689  24.003  1.00  0.00    -0.237 OA
ATOM     94  O   UNL A   1      54.601  25.380  26.383  1.00  0.00    -0.744 OA
ENDBRANCH  90  91
ENDBRANCH  58  83
ENDBRANCH  32  33
ENDBRANCH  25  27
ENDBRANCH  24  25
ENDBRANCH   1  24
TORSDOF 16
ENDMDL
MODEL 2
REMARK VINA RESULT:     -11.8      6.705     12.218
REMARK SMILES CC1=C2C(=O)N(C[C@H]3CCCO3)C(=O)N=C2S[C@@H]1C(=O)OCCOC(=O)c1ccc(-c2c3nc(c(-c4c(F)cc(S(=O)(=O)[O-])cc4F)c4ccc([nH]4)c(-c4c(F)cc(S(=O)(=O)[O-])cc4F)c4nc(c(-c5c(F)cc(S(=O)(=O)[O-])cc5F)c5ccc2[nH]5)C=C4)C=C3)cc1
REMARK SMILES IDX 23 1 22 2 21 3 19 4 20 5 18 6 1 7 2 8 3 9 4 10 16 11 17 12
REMARK SMILES IDX 5 13 6 14 15 15 13 16 14 17 7 18 8 19 9 20 12 21 10 22 11 23
REMARK SMILES IDX 24 24 25 25 26 26 27 27 28 28 92 29 29 30 91 31 30 32 31 33
REMARK SMILES IDX 32 34 85 35 33 36 90 37 84 38 86 39 34 40 89 41 83 42 82 43
REMARK SMILES IDX 35 45 69 46 48 47 68 48 49 49 52 50 67 51 87 52 50 53 51 54
REMARK SMILES IDX 66 56 88 57 53 58 36 59 37 60 46 61 38 62 39 63 45 64 47 65
REMARK SMILES IDX 40 66 41 67 42 68 43 69 44 70 70 71 71 72 80 73 72 74 73 75
REMARK SMILES IDX 79 76 81 77 74 78 75 79 76 80 77 81 78 82 54 83 55 84 64 85
REMARK SMILES IDX 56 86 57 87 63 88 65 89 58 90 59 91 60 92 61 93 62 94
REMARK H PARENT 86 44 52 55
REMARK Flexibility Score: inf
ROOT
ATOM      1  C   UNL A   1      39.366  22.631  26.777  1.00  0.00     0.275 C 
ENDROOT
BRANCH   1   2
ATOM      2  C   UNL A   1      38.560  21.894  25.700  1.00  0.00     0.274 C 
BRANCH   2   3
ATOM      3  O   UNL A   1      37.145  22.064  25.897  1.00  0.00    -0.461 OA
BRANCH   3   4
ATOM      4  C   UNL A   1      36.359  21.073  25.410  1.00  0.00     0.323 C 
ATOM      5  O   UNL A   1      36.792  19.996  25.006  1.00  0.00    -0.251 OA
BRANCH   4   6
ATOM      6  C   UNL A   1      34.868  21.386  25.406  1.00  0.00     0.189 C 
ATOM      7  C   UNL A   1      35.106  22.929  23.326  1.00  0.00     0.042 C 
ATOM      8  C   UNL A   1      34.568  22.685  24.703  1.00  0.00    -0.033 C 
ATOM      9  C   UNL A   1      33.720  23.492  25.353  1.00  0.00     0.073 C 
ATOM     10  C   UNL A   1      33.162  24.773  24.959  1.00  0.00     0.264 C 
ATOM     11  C   UNL A   1      33.154  22.909  26.549  1.00  0.00     0.116 C 
ATOM     12  S   UNL A   1      34.088  21.544  27.061  1.00  0.00    -0.086 SA
ATOM     13  O   UNL A   1      33.854  25.646  24.458  1.00  0.00    -0.268 OA
ATOM     14  N   UNL A   1      31.831  24.853  25.286  1.00  0.00    -0.256 N 
ATOM     15  N   UNL A   1      32.085  23.318  27.123  1.00  0.00    -0.186 NA
ATOM     16  C   UNL A   1      31.342  24.286  26.473  1.00  0.00     0.351 C 
ATOM     17  O   UNL A   1      30.252  24.625  26.928  1.00  0.00    -0.246 OA
BRANCH  14  18
ATOM     18  C   UNL A   1      30.879  25.471  24.361  1.00  0.00     0.163 C 
BRANCH  18  19
ATOM     19  C   UNL A   1      30.304  26.866  24.676  1.00  0.00     0.138 C 
ATOM     20  C   UNL A   1      31.307  28.012  24.776  1.00  0.00     0.036 C 
ATOM     21  O   UNL A   1      29.447  27.228  23.561  1.00  0.00    -0.376 OA
ATOM     22  C   UNL A   1      31.431  28.514  23.366  1.00  0.00     0.031 C 
ATOM     23  C   UNL A   1      30.033  28.322  22.839  1.00  0.00     0.160 C 
ENDBRANCH  18  19
ENDBRANCH  14  18
ENDBRANCH   4   6
ENDBRANCH   3   4
ENDBRANCH   2   3
ENDBRANCH   1   2
BRANCH   1  24
ATOM     24  O   UNL A   1      39.325  24.066  26.625  1.00  0.00    -0.458 OA
BRANCH  24  25
ATOM     25  C   UNL A   1      40.530  24.684  26.639  1.00  0.00     0.338 C 
ATOM     26  O   UNL A   1      41.404  24.604  25.792  1.00  0.00    -0.246 OA
BRANCH  25  27
ATOM     27  C   UNL A   1      40.622  25.620  27.770  1.00  0.00     0.060 A 
ATOM     28  C   UNL A   1      39.521  25.720  28.625  1.00  0.00     0.016 A 
ATOM     29  C   UNL A   1      41.720  26.467  27.928  1.00  0.00     0.016 A 
ATOM     30  C   UNL A   1      39.496  26.684  29.627  1.00  0.00     0.010 A 
ATOM     31  C   UNL A   1      41.699  27.427  28.946  1.00  0.00     0.010 A 
ATOM     32  C   UNL A   1      40.582  27.551  29.791  1.00  0.00    -0.014 A 
BRANCH  32  33
ATOM     33  C   UNL A   1      40.519  28.612  30.825  1.00  0.00     0.031 A 
ATOM     34  C   UNL A   1      41.448  28.566  32.003  1.00  0.00     0.074 A 
ATOM     35  C   UNL A   1      39.646  29.627  30.685  1.00  0.00     0.049 A 
ATOM     36  N   UNL A   1      41.484  29.339  33.057  1.00  0.00    -0.248 NA
ATOM     37  C   UNL A   1      42.472  27.509  31.995  1.00  0.00     0.031 C 
ATOM     38  C   UNL A   1      38.729  29.801  29.557  1.00  0.00     0.029 A 
ATOM     39  N   UNL A   1      39.386  30.700  31.498  1.00  0.00    -0.354 N 
ATOM     40  C   UNL A   1      42.516  28.853  33.850  1.00  0.00     0.074 A 
ATOM     41  C   UNL A   1      43.072  27.707  33.160  1.00  0.00     0.031 C 
ATOM     42  C   UNL A   1      38.004  30.914  29.752  1.00  0.00     0.029 A 
ATOM     43  C   UNL A   1      38.367  31.500  31.038  1.00  0.00     0.049 A 
ATOM     44  H   UNL A   1      39.880  30.881  32.329  1.00  0.00     0.167 HD
ATOM     45  C   UNL A   1      42.958  29.321  35.042  1.00  0.00     0.037 A 
ATOM     46  C   UNL A   1      37.770  32.565  31.607  1.00  0.00     0.037 A 
ATOM     47  C   UNL A   1      42.402  30.468  35.713  1.00  0.00     0.049 A 
ATOM     48  C   UNL A   1      38.244  33.039  32.951  1.00  0.00     0.074 A 
ATOM     49  C   UNL A   1      42.771  31.019  36.928  1.00  0.00     0.029 A 
ATOM     50  N   UNL A   1      41.360  31.243  35.225  1.00  0.00    -0.354 N 
ATOM     51  N   UNL A   1      39.202  32.553  33.704  1.00  0.00    -0.248 NA
ATOM     52  C   UNL A   1      37.555  34.202  33.529  1.00  0.00     0.031 C 
ATOM     53  C   UNL A   1      41.932  32.109  37.188  1.00  0.00     0.029 A 
ATOM     54  C   UNL A   1      41.065  32.260  36.117  1.00  0.00     0.049 A 
ATOM     55  H   UNL A   1      40.898  31.092  34.368  1.00  0.00     0.167 HD
ATOM     56  C   UNL A   1      39.239  33.355  34.839  1.00  0.00     0.074 A 
ATOM     57  C   UNL A   1      38.218  34.369  34.666  1.00  0.00     0.031 C 
ATOM     58  C   UNL A   1      40.044  33.259  35.926  1.00  0.00     0.037 A 
BRANCH  45  59
ATOM     59  C   UNL A   1      44.075  28.568  35.709  1.00  0.00     0.058 A 
ATOM     60  C   UNL A   1      43.827  27.496  36.579  1.00  0.00     0.135 A 
ATOM     61  C   UNL A   1      45.413  28.917  35.462  1.00  0.00     0.135 A 
ATOM     62  F   UNL A   1      42.566  27.134  36.863  1.00  0.00    -0.206 F 
ATOM     63  C   UNL A   1      44.865  26.816  37.209  1.00  0.00     0.059 A 
ATOM     64  C   UNL A   1      46.468  28.235  36.062  1.00  0.00     0.059 A 
ATOM     65  F   UNL A   1      45.704  29.936  34.639  1.00  0.00    -0.206 F 
ATOM     66  C   UNL A   1      46.183  27.197  36.947  1.00  0.00     0.060 A 
BRANCH  66  67
ATOM     67  S   UNL A   1      47.521  26.317  37.782  1.00  0.00     0.124 S 
ATOM     68  O   UNL A   1      46.982  24.962  37.844  1.00  0.00    -0.237 OA
ATOM     69  O   UNL A   1      48.643  26.512  36.869  1.00  0.00    -0.237 OA
ATOM     70  O   UNL A   1      47.633  27.008  39.063  1.00  0.00    -0.744 OA
ENDBRANCH  66  67
ENDBRANCH  45  59
BRANCH  46  71
ATOM     71  C   UNL A   1      36.636  33.228  30.912  1.00  0.00     0.058 A 
ATOM     72  C   UNL A   1      35.318  33.073  31.362  1.00  0.00     0.135 A 
ATOM     73  C   UNL A   1      36.857  34.061  29.803  1.00  0.00     0.135 A 
ATOM     74  F   UNL A   1      35.057  32.281  32.413  1.00  0.00    -0.206 F 
ATOM     75  C   UNL A   1      34.256  33.719  30.737  1.00  0.00     0.059 A 
ATOM     76  C   UNL A   1      35.814  34.735  29.176  1.00  0.00     0.059 A 
ATOM     77  F   UNL A   1      38.103  34.251  29.342  1.00  0.00    -0.206 F 
ATOM     78  C   UNL A   1      34.515  34.553  29.648  1.00  0.00     0.060 A 
BRANCH  78  79
ATOM     79  S   UNL A   1      33.141  35.447  28.888  1.00  0.00     0.124 S 
ATOM     80  O   UNL A   1      32.487  34.388  28.131  1.00  0.00    -0.237 OA
ATOM     81  O   UNL A   1      32.415  35.943  30.054  1.00  0.00    -0.237 OA
ATOM     82  O   UNL A   1      33.810  36.473  28.095  1.00  0.00    -0.744 OA
ENDBRANCH  78  79
ENDBRANCH  46  71
BRANCH  58  83
ATOM     83  C   UNL A   1      39.866  34.292  37.003  1.00  0.00     0.058 A 
ATOM     84  C   UNL A   1      40.448  35.565  36.902  1.00  0.00     0.135 A 
ATOM     85  C   UNL A   1      39.067  34.020  38.124  1.00  0.00     0.135 A 
ATOM     86  F   UNL A   1      41.226  35.871  35.852  1.00  0.00    -0.206 F 
ATOM     87  C   UNL A   1      40.260  36.528  37.888  1.00  0.00     0.059 A 
ATOM     88  C   UNL A   1      38.848  34.975  39.112  1.00  0.00     0.059 A 
ATOM     89  F   UNL A   1      38.482  32.820  38.263  1.00  0.00    -0.206 F 
ATOM     90  C   UNL A   1      39.458  36.224  38.990  1.00  0.00     0.060 A 
BRANCH  90  91
ATOM     91  S   UNL A   1      39.195  37.491  40.249  1.00  0.00     0.124 S 
ATOM     92  O   UNL A   1      40.549  37.998  40.441  1.00  0.00    -0.237 OA
ATOM     93  O   UNL A   1      38.264  38.401  39.589  1.00  0.00    -0.237 OA
ATOM     94  O   UNL A   1      38.639  36.741  41.372  1.00  0.00    -0.744 OA
ENDBRANCH  90  91
ENDBRANCH  58  83
ENDBRANCH  32  33
ENDBRANCH  25  27
ENDBRANCH  24  25
ENDBRANCH   1  24
TORSDOF 16
ENDMDL
MODEL 3
REMARK VINA RESULT:     -11.6      6.665     12.173
REMARK SMILES CC1=C2C(=O)N(C[C@H]3CCCO3)C(=O)N=C2S[C@@H]1C(=O)OCCOC(=O)c1ccc(-c2c3nc(c(-c4c(F)cc(S(=O)(=O)[O-])cc4F)c4ccc([nH]4)c(-c4c(F)cc(S(=O)(=O)[O-])cc4F)c4nc(c(-c5c(F)cc(S(=O)(=O)[O-])cc5F)c5ccc2[nH]5)C=C4)C=C3)cc1
REMARK SMILES IDX 23 1 22 2 21 3 19 4 20 5 18 6 1 7 2 8 3 9 4 10 16 11 17 12
REMARK SMILES IDX 5 13 6 14 15 15 13 16 14 17 7 18 8 19 9 20 12 21 10 22 11 23
REMARK SMILES IDX 24 24 25 25 26 26 27 27 28 28 92 29 29 30 91 31 30 32 31 33
REMARK SMILES IDX 32 34 85 35 33 36 90 37 84 38 86 39 34 40 89 41 83 42 82 43
REMARK SMILES IDX 35 45 69 46 48 47 68 48 49 49 52 50 67 51 87 52 50 53 51 54
REMARK SMILES IDX 66 56 88 57 53 58 36 59 37 60 46 61 38 62 39 63 45 64 47 65
REMARK SMILES IDX 40 66 41 67 42 68 43 69 44 70 70 71 71 72 80 73 72 74 73 75
REMARK SMILES IDX 79 76 81 77 74 78 75 79 76 80 77 81 78 82 54 83 55 84 64 85
REMARK SMILES IDX 56 86 57 87 63 88 65 89 58 90 59 91 60 92 61 93 62 94
REMARK H PARENT 86 44 52 55
REMARK Flexibility Score: inf
ROOT
ATOM      1  C   UNL A   1      39.539  22.354  26.369  1.00  0.00     0.275 C 
ENDROOT
BRANCH   1   2
ATOM      2  C   UNL A   1      38.124  22.656  25.862  1.00  0.00     0.274 C 
BRANCH   2   3
ATOM      3  O   UNL A   1      37.483  21.470  25.362  1.00  0.00    -0.461 OA
BRANCH   3   4
ATOM      4  C   UNL A   1      36.140  21.552  25.193  1.00  0.00     0.323 C 
ATOM      5  O   UNL A   1      35.389  20.579  25.235  1.00  0.00    -0.251 OA
BRANCH   4   6
ATOM      6  C   UNL A   1      35.611  22.960  24.954  1.00  0.00     0.189 C 
ATOM      7  C   UNL A   1      34.514  23.045  27.311  1.00  0.00     0.042 C 
ATOM      8  C   UNL A   1      34.426  23.272  25.833  1.00  0.00    -0.033 C 
ATOM      9  C   UNL A   1      33.398  23.854  25.202  1.00  0.00     0.073 C 
ATOM     10  C   UNL A   1      32.137  24.345  25.729  1.00  0.00     0.264 C 
ATOM     11  C   UNL A   1      33.667  24.186  23.821  1.00  0.00     0.116 C 
ATOM     12  S   UNL A   1      35.045  23.312  23.243  1.00  0.00    -0.086 SA
ATOM     13  O   UNL A   1      31.482  23.697  26.530  1.00  0.00    -0.268 OA
ATOM     14  N   UNL A   1      31.800  25.547  25.158  1.00  0.00    -0.256 N 
ATOM     15  N   UNL A   1      33.006  25.042  23.136  1.00  0.00    -0.186 NA
ATOM     16  C   UNL A   1      32.067  25.806  23.804  1.00  0.00     0.351 C 
ATOM     17  O   UNL A   1      31.492  26.718  23.214  1.00  0.00    -0.246 OA
BRANCH  14  18
ATOM     18  C   UNL A   1      31.218  26.615  25.973  1.00  0.00     0.163 C 
BRANCH  18  19
ATOM     19  C   UNL A   1      32.133  27.484  26.860  1.00  0.00     0.138 C 
ATOM     20  C   UNL A   1      33.599  27.577  26.445  1.00  0.00     0.036 C 
ATOM     21  O   UNL A   1      31.638  28.846  26.764  1.00  0.00    -0.376 OA
ATOM     22  C   UNL A   1      33.634  28.732  25.486  1.00  0.00     0.031 C 
ATOM     23  C   UNL A   1      32.596  29.657  26.068  1.00  0.00     0.160 C 
ENDBRANCH  18  19
ENDBRANCH  14  18
ENDBRANCH   4   6
ENDBRANCH   3   4
ENDBRANCH   2   3
ENDBRANCH   1   2
BRANCH   1  24
ATOM     24  O   UNL A   1      39.941  23.211  27.458  1.00  0.00    -0.458 OA
BRANCH  24  25
ATOM     25  C   UNL A   1      40.788  24.213  27.124  1.00  0.00     0.338 C 
ATOM     26  O   UNL A   1      41.543  24.244  26.166  1.00  0.00    -0.246 OA
BRANCH  25  27
ATOM     27  C   UNL A   1      40.591  25.378  28.000  1.00  0.00     0.060 A 
ATOM     28  C   UNL A   1      41.678  26.233  28.203  1.00  0.00     0.016 A 
ATOM     29  C   UNL A   1      39.401  25.569  28.703  1.00  0.00     0.016 A 
ATOM     30  C   UNL A   1      41.594  27.269  29.126  1.00  0.00     0.010 A 
ATOM     31  C   UNL A   1      39.312  26.621  29.621  1.00  0.00     0.010 A 
ATOM     32  C   UNL A   1      40.412  27.467  29.849  1.00  0.00    -0.014 A 
BRANCH  32  33
ATOM     33  C   UNL A   1      40.354  28.539  30.871  1.00  0.00     0.031 A 
ATOM     34  C   UNL A   1      41.271  28.492  32.059  1.00  0.00     0.074 A 
ATOM     35  C   UNL A   1      39.497  29.565  30.713  1.00  0.00     0.049 A 
ATOM     36  N   UNL A   1      41.308  29.276  33.105  1.00  0.00    -0.248 NA
ATOM     37  C   UNL A   1      42.280  27.421  32.072  1.00  0.00     0.031 C 
ATOM     38  C   UNL A   1      38.593  29.740  29.575  1.00  0.00     0.029 A 
ATOM     39  N   UNL A   1      39.244  30.650  31.513  1.00  0.00    -0.354 N 
ATOM     40  C   UNL A   1      42.326  28.783  33.913  1.00  0.00     0.074 A 
ATOM     41  C   UNL A   1      42.872  27.622  33.240  1.00  0.00     0.031 C 
ATOM     42  C   UNL A   1      37.881  30.865  29.751  1.00  0.00     0.029 A 
ATOM     43  C   UNL A   1      38.242  31.460  31.035  1.00  0.00     0.049 A 
ATOM     44  H   UNL A   1      39.733  30.833  32.347  1.00  0.00     0.167 HD
ATOM     45  C   UNL A   1      42.763  29.257  35.104  1.00  0.00     0.037 A 
ATOM     46  C   UNL A   1      37.654  32.538  31.587  1.00  0.00     0.037 A 
ATOM     47  C   UNL A   1      42.218  30.419  35.759  1.00  0.00     0.049 A 
ATOM     48  C   UNL A   1      38.122  33.020  32.932  1.00  0.00     0.074 A 
ATOM     49  C   UNL A   1      42.583  30.977  36.971  1.00  0.00     0.029 A 
ATOM     50  N   UNL A   1      41.191  31.204  35.252  1.00  0.00    -0.354 N 
ATOM     51  N   UNL A   1      39.067  32.528  33.698  1.00  0.00    -0.248 NA
ATOM     52  C   UNL A   1      37.444  34.198  33.491  1.00  0.00     0.031 C 
ATOM     53  C   UNL A   1      41.757  32.081  37.212  1.00  0.00     0.029 A 
ATOM     54  C   UNL A   1      40.902  32.233  36.131  1.00  0.00     0.049 A 
ATOM     55  H   UNL A   1      40.735  31.050  34.393  1.00  0.00     0.167 HD
ATOM     56  C   UNL A   1      39.104  33.340  34.825  1.00  0.00     0.074 A 
ATOM     57  C   UNL A   1      38.099  34.367  34.632  1.00  0.00     0.031 C 
ATOM     58  C   UNL A   1      39.897  33.245  35.921  1.00  0.00     0.037 A 
BRANCH  45  59
ATOM     59  C   UNL A   1      43.863  28.496  35.789  1.00  0.00     0.058 A 
ATOM     60  C   UNL A   1      45.215  28.822  35.603  1.00  0.00     0.135 A 
ATOM     61  C   UNL A   1      43.558  27.433  36.656  1.00  0.00     0.135 A 
ATOM     62  F   UNL A   1      45.561  29.817  34.771  1.00  0.00    -0.206 F 
ATOM     63  C   UNL A   1      46.229  28.100  36.225  1.00  0.00     0.059 A 
ATOM     64  C   UNL A   1      44.555  26.713  37.307  1.00  0.00     0.059 A 
ATOM     65  F   UNL A   1      42.281  27.079  36.868  1.00  0.00    -0.206 F 
ATOM     66  C   UNL A   1      45.889  27.043  37.072  1.00  0.00     0.060 A 
BRANCH  66  67
ATOM     67  S   UNL A   1      47.214  26.104  37.861  1.00  0.00     0.124 S 
ATOM     68  O   UNL A   1      48.310  26.301  36.917  1.00  0.00    -0.237 OA
ATOM     69  O   UNL A   1      47.356  26.779  39.147  1.00  0.00    -0.237 OA
ATOM     70  O   UNL A   1      46.676  24.748  37.925  1.00  0.00    -0.744 OA
ENDBRANCH  66  67
ENDBRANCH  45  59
BRANCH  46  71
ATOM     71  C   UNL A   1      36.536  33.210  30.875  1.00  0.00     0.058 A 
ATOM     72  C   UNL A   1      35.209  33.059  31.299  1.00  0.00     0.135 A 
ATOM     73  C   UNL A   1      36.781  34.049  29.775  1.00  0.00     0.135 A 
ATOM     74  F   UNL A   1      34.925  32.261  32.340  1.00  0.00    -0.206 F 
ATOM     75  C   UNL A   1      34.162  33.712  30.658  1.00  0.00     0.059 A 
ATOM     76  C   UNL A   1      35.754  34.731  29.133  1.00  0.00     0.059 A 
ATOM     77  F   UNL A   1      38.037  34.237  29.340  1.00  0.00    -0.206 F 
ATOM     78  C   UNL A   1      34.445  34.551  29.579  1.00  0.00     0.060 A 
BRANCH  78  79
ATOM     79  S   UNL A   1      33.090  35.455  28.799  1.00  0.00     0.124 S 
ATOM     80  O   UNL A   1      32.357  35.944  29.959  1.00  0.00    -0.237 OA
ATOM     81  O   UNL A   1      33.801  36.465  28.020  1.00  0.00    -0.237 OA
ATOM     82  O   UNL A   1      32.416  34.429  28.009  1.00  0.00    -0.744 OA
ENDBRANCH  78  79
ENDBRANCH  46  71
BRANCH  58  83
ATOM     83  C   UNL A   1      39.724  34.291  36.985  1.00  0.00     0.058 A 
ATOM     84  C   UNL A   1      38.880  34.084  38.087  1.00  0.00     0.135 A 
ATOM     85  C   UNL A   1      40.445  35.494  36.924  1.00  0.00     0.135 A 
ATOM     86  F   UNL A   1      38.164  32.954  38.187  1.00  0.00    -0.206 F 
ATOM     87  C   UNL A   1      38.741  35.044  39.084  1.00  0.00     0.059 A 
ATOM     88  C   UNL A   1      40.338  36.458  37.921  1.00  0.00     0.059 A 
ATOM     89  F   UNL A   1      41.271  35.735  35.895  1.00  0.00    -0.206 F 
ATOM     90  C   UNL A   1      39.475  36.229  38.993  1.00  0.00     0.060 A 
BRANCH  90  91
ATOM     91  S   UNL A   1      39.312  37.455  40.308  1.00  0.00     0.124 S 
ATOM     92  O   UNL A   1      40.671  37.977  40.392  1.00  0.00    -0.237 OA
ATOM     93  O   UNL A   1      38.314  38.371  39.762  1.00  0.00    -0.237 OA
ATOM     94  O   UNL A   1      38.869  36.666  41.453  1.00  0.00    -0.744 OA
ENDBRANCH  90  91
ENDBRANCH  58  83
ENDBRANCH  32  33
ENDBRANCH  25  27
ENDBRANCH  24  25
ENDBRANCH   1  24
TORSDOF 16
ENDMDL
