MODEL 1
REMARK VINA RESULT:     -12.0      0.000      0.000
REMARK SMILES O=C(OCCOC(=O)c1cc(F)c(F)cc1NS(=O)(=O)c1ccc2c(c1)CCC2)c1ccc(-c2c3nc(c(-c4c(F)cc(S(=O)(=O)[O-])cc4F)c4ccc([nH]4)c(-c4c(F)cc(S(=O)(=O)[O-])cc4F)c4nc(c(-c5c(F)cc(S(=O)(=O)[O-])cc5F)c5ccc2[nH]5)C=C4)C=C3)cc1
REMARK SMILES IDX 4 1 3 2 2 3 1 4 30 5 31 6 95 7 32 8 94 9 33 10 34 11 35 12
REMARK SMILES IDX 88 13 36 14 93 15 87 16 89 17 37 18 92 19 86 20 85 21 38 23
REMARK SMILES IDX 72 24 51 25 71 26 52 27 55 28 70 29 90 30 53 31 54 32 69 34
REMARK SMILES IDX 91 35 56 36 39 37 40 38 49 39 41 40 42 41 48 42 50 43 43 44
REMARK SMILES IDX 44 45 45 46 46 47 47 48 73 49 74 50 83 51 75 52 76 53 82 54
REMARK SMILES IDX 84 55 77 56 78 57 79 58 80 59 81 60 57 61 58 62 67 63 59 64
REMARK SMILES IDX 60 65 66 66 68 67 61 68 62 69 63 70 64 71 65 72 5 73 6 74
REMARK SMILES IDX 7 75 8 76 9 77 10 78 16 79 11 80 15 81 12 82 13 83 14 84
REMARK SMILES IDX 17 85 18 87 19 88 20 89 21 90 22 91 26 92 23 93 25 94 24 95
REMARK SMILES IDX 27 96 29 97 28 98
REMARK H PARENT 89 22 55 33 17 86
REMARK Flexibility Score: inf
ROOT
ATOM      1  C   UNL A   1      32.265  29.322  27.221  1.00  0.00     0.275 C 
ENDROOT
BRANCH   1   2
ATOM      2  O   UNL A   1      33.693  29.453  27.175  1.00  0.00    -0.458 OA
BRANCH   2   3
ATOM      3  C   UNL A   1      34.528  30.248  27.875  1.00  0.00     0.338 C 
ATOM      4  O   UNL A   1      34.130  31.378  28.153  1.00  0.00    -0.246 OA
BRANCH   3   5
ATOM      5  C   UNL A   1      35.919  29.866  28.298  1.00  0.00     0.060 A 
ATOM      6  C   UNL A   1      36.346  29.464  29.564  1.00  0.00     0.016 A 
ATOM      7  C   UNL A   1      36.898  29.942  27.298  1.00  0.00     0.016 A 
ATOM      8  C   UNL A   1      37.683  29.105  29.805  1.00  0.00     0.010 A 
ATOM      9  C   UNL A   1      38.216  29.530  27.510  1.00  0.00     0.010 A 
ATOM     10  C   UNL A   1      38.631  29.130  28.781  1.00  0.00    -0.014 A 
BRANCH  10  11
ATOM     11  C   UNL A   1      40.071  28.903  29.071  1.00  0.00     0.031 A 
ATOM     12  C   UNL A   1      40.661  27.551  28.768  1.00  0.00     0.074 A 
ATOM     13  C   UNL A   1      40.844  29.886  29.577  1.00  0.00     0.049 A 
ATOM     14  N   UNL A   1      41.897  27.144  28.891  1.00  0.00    -0.248 NA
ATOM     15  C   UNL A   1      39.741  26.520  28.259  1.00  0.00     0.031 C 
ATOM     16  C   UNL A   1      40.390  31.238  29.894  1.00  0.00     0.029 A 
ATOM     17  N   UNL A   1      42.172  29.903  29.924  1.00  0.00    -0.354 N 
ATOM     18  C   UNL A   1      41.900  25.825  28.456  1.00  0.00     0.074 A 
ATOM     19  C   UNL A   1      40.533  25.465  28.169  1.00  0.00     0.031 C 
ATOM     20  C   UNL A   1      41.401  31.938  30.435  1.00  0.00     0.029 A 
ATOM     21  C   UNL A   1      42.592  31.100  30.461  1.00  0.00     0.049 A 
ATOM     22  H   UNL A   1      42.769  29.130  29.800  1.00  0.00     0.167 HD
ATOM     23  C   UNL A   1      42.954  25.003  28.248  1.00  0.00     0.037 A 
ATOM     24  C   UNL A   1      43.809  31.486  30.892  1.00  0.00     0.037 A 
ATOM     25  C   UNL A   1      44.314  25.378  28.511  1.00  0.00     0.049 A 
ATOM     26  C   UNL A   1      44.964  30.541  30.697  1.00  0.00     0.074 A 
ATOM     27  C   UNL A   1      45.468  24.646  28.308  1.00  0.00     0.029 A 
ATOM     28  N   UNL A   1      44.697  26.604  29.038  1.00  0.00    -0.354 N 
ATOM     29  N   UNL A   1      44.958  29.326  30.200  1.00  0.00    -0.248 NA
ATOM     30  C   UNL A   1      46.297  31.034  31.069  1.00  0.00     0.031 C 
ATOM     31  C   UNL A   1      46.551  25.421  28.740  1.00  0.00     0.029 A 
ATOM     32  C   UNL A   1      46.072  26.648  29.176  1.00  0.00     0.049 A 
ATOM     33  H   UNL A   1      44.082  27.333  29.279  1.00  0.00     0.167 HD
ATOM     34  C   UNL A   1      46.290  28.933  30.140  1.00  0.00     0.074 A 
ATOM     35  C   UNL A   1      47.071  30.035  30.667  1.00  0.00     0.031 C 
ATOM     36  C   UNL A   1      46.820  27.775  29.677  1.00  0.00     0.037 A 
BRANCH  23  37
ATOM     37  C   UNL A   1      42.649  23.641  27.691  1.00  0.00     0.058 A 
ATOM     38  C   UNL A   1      42.445  22.537  28.537  1.00  0.00     0.135 A 
ATOM     39  C   UNL A   1      42.622  23.420  26.307  1.00  0.00     0.135 A 
ATOM     40  F   UNL A   1      42.486  22.689  29.871  1.00  0.00    -0.206 F 
ATOM     41  C   UNL A   1      42.279  21.253  28.030  1.00  0.00     0.059 A 
ATOM     42  C   UNL A   1      42.429  22.146  25.777  1.00  0.00     0.059 A 
ATOM     43  F   UNL A   1      42.816  24.439  25.455  1.00  0.00    -0.206 F 
ATOM     44  C   UNL A   1      42.284  21.066  26.648  1.00  0.00     0.060 A 
BRANCH  44  45
ATOM     45  S   UNL A   1      42.110  19.389  26.003  1.00  0.00     0.124 S 
ATOM     46  O   UNL A   1      40.674  19.325  25.751  1.00  0.00    -0.237 OA
ATOM     47  O   UNL A   1      42.960  19.419  24.817  1.00  0.00    -0.237 OA
ATOM     48  O   UNL A   1      42.595  18.554  27.097  1.00  0.00    -0.744 OA
ENDBRANCH  44  45
ENDBRANCH  23  37
BRANCH  24  49
ATOM     49  C   UNL A   1      44.017  32.848  31.458  1.00  0.00     0.058 A 
ATOM     50  C   UNL A   1      43.902  33.087  32.836  1.00  0.00     0.135 A 
ATOM     51  C   UNL A   1      44.324  33.942  30.634  1.00  0.00     0.135 A 
ATOM     52  F   UNL A   1      43.609  32.075  33.669  1.00  0.00    -0.206 F 
ATOM     53  C   UNL A   1      44.054  34.361  33.375  1.00  0.00     0.059 A 
ATOM     54  C   UNL A   1      44.503  35.224  31.151  1.00  0.00     0.059 A 
ATOM     55  F   UNL A   1      44.460  33.769  29.310  1.00  0.00    -0.206 F 
ATOM     56  C   UNL A   1      44.353  35.426  32.523  1.00  0.00     0.060 A 
BRANCH  56  57
ATOM     57  S   UNL A   1      44.571  37.072  33.240  1.00  0.00     0.124 S 
ATOM     58  O   UNL A   1      43.220  37.374  33.699  1.00  0.00    -0.237 OA
ATOM     59  O   UNL A   1      45.560  36.821  34.283  1.00  0.00    -0.237 OA
ATOM     60  O   UNL A   1      45.048  37.869  32.113  1.00  0.00    -0.744 OA
ENDBRANCH  56  57
ENDBRANCH  24  49
BRANCH  36  61
ATOM     61  C   UNL A   1      48.317  27.666  29.655  1.00  0.00     0.058 A 
ATOM     62  C   UNL A   1      49.032  27.114  30.727  1.00  0.00     0.135 A 
ATOM     63  C   UNL A   1      49.032  28.065  28.515  1.00  0.00     0.135 A 
ATOM     64  F   UNL A   1      48.390  26.723  31.840  1.00  0.00    -0.206 F 
ATOM     65  C   UNL A   1      50.414  26.978  30.678  1.00  0.00     0.059 A 
ATOM     66  C   UNL A   1      50.411  27.913  28.435  1.00  0.00     0.059 A 
ATOM     67  F   UNL A   1      48.389  28.589  27.461  1.00  0.00    -0.206 F 
ATOM     68  C   UNL A   1      51.094  27.379  29.526  1.00  0.00     0.060 A 
BRANCH  68  69
ATOM     69  S   UNL A   1      52.884  27.158  29.454  1.00  0.00     0.124 S 
ATOM     70  O   UNL A   1      53.348  28.541  29.437  1.00  0.00    -0.237 OA
ATOM     71  O   UNL A   1      53.158  26.411  30.678  1.00  0.00    -0.237 OA
ATOM     72  O   UNL A   1      53.082  26.412  28.215  1.00  0.00    -0.744 OA
ENDBRANCH  68  69
ENDBRANCH  36  61
ENDBRANCH  10  11
ENDBRANCH   3   5
ENDBRANCH   2   3
ENDBRANCH   1   2
BRANCH   1  73
ATOM     73  C   UNL A   1      31.729  28.072  26.524  1.00  0.00     0.275 C 
BRANCH  73  74
ATOM     74  O   UNL A   1      32.679  26.997  26.451  1.00  0.00    -0.458 OA
BRANCH  74  75
ATOM     75  C   UNL A   1      32.203  25.723  26.537  1.00  0.00     0.340 C 
ATOM     76  O   UNL A   1      31.100  25.364  26.907  1.00  0.00    -0.246 OA
BRANCH  75  77
ATOM     77  C   UNL A   1      33.244  24.815  26.007  1.00  0.00     0.087 A 
ATOM     78  C   UNL A   1      33.477  23.621  26.708  1.00  0.00     0.060 A 
ATOM     79  C   UNL A   1      34.033  25.170  24.888  1.00  0.00     0.066 A 
ATOM     80  C   UNL A   1      34.531  22.810  26.329  1.00  0.00     0.159 A 
ATOM     81  C   UNL A   1      35.198  24.432  24.674  1.00  0.00     0.070 A 
ATOM     82  F   UNL A   1      34.713  21.640  26.952  1.00  0.00    -0.204 F 
ATOM     83  C   UNL A   1      35.423  23.243  25.362  1.00  0.00     0.160 A 
ATOM     84  F   UNL A   1      36.492  22.502  25.047  1.00  0.00    -0.204 F 
BRANCH  79  85
ATOM     85  N   UNL A   1      33.478  26.010  23.860  1.00  0.00    -0.279 N 
ATOM     86  H   UNL A   1      33.906  26.890  23.757  1.00  0.00     0.180 HD
BRANCH  85  87
ATOM     87  S   UNL A   1      32.203  25.699  22.811  1.00  0.00     0.261 S 
ATOM     88  O   UNL A   1      32.617  26.215  21.522  1.00  0.00    -0.201 OA
ATOM     89  O   UNL A   1      31.821  24.315  22.967  1.00  0.00    -0.201 OA
BRANCH  87  90
ATOM     90  C   UNL A   1      30.770  26.652  23.281  1.00  0.00     0.088 A 
ATOM     91  C   UNL A   1      29.648  26.067  23.888  1.00  0.00     0.022 A 
ATOM     92  C   UNL A   1      30.721  27.970  22.793  1.00  0.00     0.026 A 
ATOM     93  C   UNL A   1      28.413  26.728  23.836  1.00  0.00     0.005 A 
ATOM     94  C   UNL A   1      29.514  28.641  22.831  1.00  0.00    -0.043 A 
ATOM     95  C   UNL A   1      28.359  27.999  23.285  1.00  0.00    -0.045 A 
ATOM     96  C   UNL A   1      29.205  30.017  22.325  1.00  0.00     0.036 C 
ATOM     97  C   UNL A   1      27.153  28.835  22.981  1.00  0.00     0.036 C 
ATOM     98  C   UNL A   1      27.789  30.228  22.885  1.00  0.00     0.010 C 
ENDBRANCH  87  90
ENDBRANCH  85  87
ENDBRANCH  79  85
ENDBRANCH  75  77
ENDBRANCH  74  75
ENDBRANCH  73  74
ENDBRANCH   1  73
TORSDOF 17
ENDMDL
MODEL 2
REMARK VINA RESULT:     -11.9      1.770      3.372
REMARK SMILES O=C(OCCOC(=O)c1cc(F)c(F)cc1NS(=O)(=O)c1ccc2c(c1)CCC2)c1ccc(-c2c3nc(c(-c4c(F)cc(S(=O)(=O)[O-])cc4F)c4ccc([nH]4)c(-c4c(F)cc(S(=O)(=O)[O-])cc4F)c4nc(c(-c5c(F)cc(S(=O)(=O)[O-])cc5F)c5ccc2[nH]5)C=C4)C=C3)cc1
REMARK SMILES IDX 4 1 3 2 2 3 1 4 30 5 31 6 95 7 32 8 94 9 33 10 34 11 35 12
REMARK SMILES IDX 88 13 36 14 93 15 87 16 89 17 37 18 92 19 86 20 85 21 38 23
REMARK SMILES IDX 72 24 51 25 71 26 52 27 55 28 70 29 90 30 53 31 54 32 69 34
REMARK SMILES IDX 91 35 56 36 39 37 40 38 49 39 41 40 42 41 48 42 50 43 43 44
REMARK SMILES IDX 44 45 45 46 46 47 47 48 73 49 74 50 83 51 75 52 76 53 82 54
REMARK SMILES IDX 84 55 77 56 78 57 79 58 80 59 81 60 57 61 58 62 67 63 59 64
REMARK SMILES IDX 60 65 66 66 68 67 61 68 62 69 63 70 64 71 65 72 5 73 6 74
REMARK SMILES IDX 7 75 8 76 9 77 10 78 16 79 11 80 15 81 12 82 13 83 14 84
REMARK SMILES IDX 17 85 18 87 19 88 20 89 21 90 22 91 26 92 23 93 25 94 24 95
REMARK SMILES IDX 27 96 29 97 28 98
REMARK H PARENT 89 22 55 33 17 86
REMARK Flexibility Score: inf
ROOT
ATOM      1  C   UNL A   1      32.960  29.804  26.017  1.00  0.00     0.275 C 
ENDROOT
BRANCH   1   2
ATOM      2  O   UNL A   1      33.605  29.576  27.278  1.00  0.00    -0.458 OA
BRANCH   2   3
ATOM      3  C   UNL A   1      34.436  30.359  27.997  1.00  0.00     0.338 C 
ATOM      4  O   UNL A   1      34.027  31.474  28.315  1.00  0.00    -0.246 OA
BRANCH   3   5
ATOM      5  C   UNL A   1      35.834  29.980  28.399  1.00  0.00     0.060 A 
ATOM      6  C   UNL A   1      36.277  29.559  29.654  1.00  0.00     0.016 A 
ATOM      7  C   UNL A   1      36.802  30.080  27.391  1.00  0.00     0.016 A 
ATOM      8  C   UNL A   1      37.619  29.207  29.875  1.00  0.00     0.010 A 
ATOM      9  C   UNL A   1      38.125  29.674  27.582  1.00  0.00     0.010 A 
ATOM     10  C   UNL A   1      38.556  29.255  28.841  1.00  0.00    -0.014 A 
BRANCH  10  11
ATOM     11  C   UNL A   1      40.001  29.035  29.113  1.00  0.00     0.031 A 
ATOM     12  C   UNL A   1      40.591  27.682  28.810  1.00  0.00     0.074 A 
ATOM     13  C   UNL A   1      40.778  30.022  29.601  1.00  0.00     0.049 A 
ATOM     14  N   UNL A   1      41.829  27.279  28.918  1.00  0.00    -0.248 NA
ATOM     15  C   UNL A   1      39.666  26.645  28.321  1.00  0.00     0.031 C 
ATOM     16  C   UNL A   1      40.325  31.375  29.917  1.00  0.00     0.029 A 
ATOM     17  N   UNL A   1      42.110  30.045  29.929  1.00  0.00    -0.354 N 
ATOM     18  C   UNL A   1      41.830  25.957  28.492  1.00  0.00     0.074 A 
ATOM     19  C   UNL A   1      40.459  25.591  28.226  1.00  0.00     0.031 C 
ATOM     20  C   UNL A   1      41.342  32.081  30.439  1.00  0.00     0.029 A 
ATOM     21  C   UNL A   1      42.535  31.246  30.453  1.00  0.00     0.049 A 
ATOM     22  H   UNL A   1      42.708  29.273  29.802  1.00  0.00     0.167 HD
ATOM     23  C   UNL A   1      42.883  25.137  28.274  1.00  0.00     0.037 A 
ATOM     24  C   UNL A   1      43.757  31.638  30.865  1.00  0.00     0.037 A 
ATOM     25  C   UNL A   1      44.245  25.517  28.515  1.00  0.00     0.049 A 
ATOM     26  C   UNL A   1      44.912  30.696  30.659  1.00  0.00     0.074 A 
ATOM     27  C   UNL A   1      45.399  24.787  28.301  1.00  0.00     0.029 A 
ATOM     28  N   UNL A   1      44.632  26.747  29.030  1.00  0.00    -0.354 N 
ATOM     29  N   UNL A   1      44.902  29.477  30.170  1.00  0.00    -0.248 NA
ATOM     30  C   UNL A   1      46.248  31.194  31.010  1.00  0.00     0.031 C 
ATOM     31  C   UNL A   1      46.486  25.568  28.712  1.00  0.00     0.029 A 
ATOM     32  C   UNL A   1      46.009  26.796  29.147  1.00  0.00     0.049 A 
ATOM     33  H   UNL A   1      44.019  27.476  29.274  1.00  0.00     0.167 HD
ATOM     34  C   UNL A   1      46.234  29.088  30.094  1.00  0.00     0.074 A 
ATOM     35  C   UNL A   1      47.019  30.195  30.603  1.00  0.00     0.031 C 
ATOM     36  C   UNL A   1      46.761  27.928  29.631  1.00  0.00     0.037 A 
BRANCH  23  37
ATOM     37  C   UNL A   1      42.574  23.770  27.730  1.00  0.00     0.058 A 
ATOM     38  C   UNL A   1      42.493  22.651  28.576  1.00  0.00     0.135 A 
ATOM     39  C   UNL A   1      42.419  23.563  26.352  1.00  0.00     0.135 A 
ATOM     40  F   UNL A   1      42.659  22.790  29.902  1.00  0.00    -0.206 F 
ATOM     41  C   UNL A   1      42.324  21.366  28.070  1.00  0.00     0.059 A 
ATOM     42  C   UNL A   1      42.221  22.289  25.825  1.00  0.00     0.059 A 
ATOM     43  F   UNL A   1      42.493  24.598  25.500  1.00  0.00    -0.206 F 
ATOM     44  C   UNL A   1      42.201  21.195  26.691  1.00  0.00     0.060 A 
BRANCH  44  45
ATOM     45  S   UNL A   1      42.025  19.520  26.042  1.00  0.00     0.124 S 
ATOM     46  O   UNL A   1      40.608  19.492  25.694  1.00  0.00    -0.237 OA
ATOM     47  O   UNL A   1      42.953  19.520  24.915  1.00  0.00    -0.237 OA
ATOM     48  O   UNL A   1      42.413  18.678  27.169  1.00  0.00    -0.744 OA
ENDBRANCH  44  45
ENDBRANCH  23  37
BRANCH  24  49
ATOM     49  C   UNL A   1      43.969  33.005  31.419  1.00  0.00     0.058 A 
ATOM     50  C   UNL A   1      43.882  33.250  32.798  1.00  0.00     0.135 A 
ATOM     51  C   UNL A   1      44.253  34.096  30.583  1.00  0.00     0.135 A 
ATOM     52  F   UNL A   1      43.613  32.241  33.642  1.00  0.00    -0.206 F 
ATOM     53  C   UNL A   1      44.038  34.528  33.327  1.00  0.00     0.059 A 
ATOM     54  C   UNL A   1      44.435  35.382  31.090  1.00  0.00     0.059 A 
ATOM     55  F   UNL A   1      44.361  33.917  29.257  1.00  0.00    -0.206 F 
ATOM     56  C   UNL A   1      44.313  35.590  32.464  1.00  0.00     0.060 A 
BRANCH  56  57
ATOM     57  S   UNL A   1      44.536  37.241  33.167  1.00  0.00     0.124 S 
ATOM     58  O   UNL A   1      44.824  38.032  31.976  1.00  0.00    -0.237 OA
ATOM     59  O   UNL A   1      43.242  37.481  33.797  1.00  0.00    -0.237 OA
ATOM     60  O   UNL A   1      45.652  37.064  34.092  1.00  0.00    -0.744 OA
ENDBRANCH  56  57
ENDBRANCH  24  49
BRANCH  36  61
ATOM     61  C   UNL A   1      48.257  27.823  29.589  1.00  0.00     0.058 A 
ATOM     62  C   UNL A   1      48.996  27.366  30.689  1.00  0.00     0.135 A 
ATOM     63  C   UNL A   1      48.949  28.127  28.405  1.00  0.00     0.135 A 
ATOM     64  F   UNL A   1      48.378  27.069  31.843  1.00  0.00    -0.206 F 
ATOM     65  C   UNL A   1      50.378  27.231  30.624  1.00  0.00     0.059 A 
ATOM     66  C   UNL A   1      50.326  27.973  28.310  1.00  0.00     0.059 A 
ATOM     67  F   UNL A   1      48.282  28.557  27.323  1.00  0.00    -0.206 F 
ATOM     68  C   UNL A   1      51.033  27.536  29.429  1.00  0.00     0.060 A 
BRANCH  68  69
ATOM     69  S   UNL A   1      52.822  27.316  29.341  1.00  0.00     0.124 S 
ATOM     70  O   UNL A   1      53.034  27.221  27.901  1.00  0.00    -0.237 OA
ATOM     71  O   UNL A   1      53.320  28.532  29.977  1.00  0.00    -0.237 OA
ATOM     72  O   UNL A   1      53.049  26.086  30.093  1.00  0.00    -0.744 OA
ENDBRANCH  68  69
ENDBRANCH  36  61
ENDBRANCH  10  11
ENDBRANCH   3   5
ENDBRANCH   2   3
ENDBRANCH   1   2
BRANCH   1  73
ATOM     73  C   UNL A   1      31.449  29.570  26.038  1.00  0.00     0.275 C 
BRANCH  73  74
ATOM     74  O   UNL A   1      31.019  28.486  25.200  1.00  0.00    -0.458 OA
BRANCH  74  75
ATOM     75  C   UNL A   1      31.161  27.219  25.681  1.00  0.00     0.340 C 
ATOM     76  O   UNL A   1      30.879  26.808  26.792  1.00  0.00    -0.246 OA
BRANCH  75  77
ATOM     77  C   UNL A   1      31.647  26.367  24.572  1.00  0.00     0.087 A 
ATOM     78  C   UNL A   1      32.672  26.882  23.764  1.00  0.00     0.060 A 
ATOM     79  C   UNL A   1      31.049  25.118  24.285  1.00  0.00     0.066 A 
ATOM     80  C   UNL A   1      33.060  26.181  22.637  1.00  0.00     0.159 A 
ATOM     81  C   UNL A   1      31.327  24.553  23.040  1.00  0.00     0.070 A 
ATOM     82  F   UNL A   1      34.081  26.636  21.903  1.00  0.00    -0.204 F 
ATOM     83  C   UNL A   1      32.351  25.059  22.243  1.00  0.00     0.160 A 
ATOM     84  F   UNL A   1      32.668  24.421  21.110  1.00  0.00    -0.204 F 
BRANCH  79  85
ATOM     85  N   UNL A   1      30.473  24.340  25.350  1.00  0.00    -0.279 N 
ATOM     86  H   UNL A   1      29.548  24.573  25.592  1.00  0.00     0.180 HD
BRANCH  85  87
ATOM     87  S   UNL A   1      31.157  23.088  26.238  1.00  0.00     0.261 S 
ATOM     88  O   UNL A   1      31.471  23.650  27.536  1.00  0.00    -0.201 OA
ATOM     89  O   UNL A   1      30.298  21.933  26.119  1.00  0.00    -0.201 OA
BRANCH  87  90
ATOM     90  C   UNL A   1      32.719  22.606  25.524  1.00  0.00     0.088 A 
ATOM     91  C   UNL A   1      32.896  21.375  24.874  1.00  0.00     0.022 A 
ATOM     92  C   UNL A   1      33.822  23.411  25.857  1.00  0.00     0.026 A 
ATOM     93  C   UNL A   1      34.189  20.852  24.728  1.00  0.00     0.005 A 
ATOM     94  C   UNL A   1      35.091  22.917  25.624  1.00  0.00    -0.043 A 
ATOM     95  C   UNL A   1      35.269  21.623  25.129  1.00  0.00    -0.045 A 
ATOM     96  C   UNL A   1      36.406  23.561  25.943  1.00  0.00     0.036 C 
ATOM     97  C   UNL A   1      36.714  21.234  25.216  1.00  0.00     0.036 C 
ATOM     98  C   UNL A   1      37.381  22.615  25.223  1.00  0.00     0.010 C 
ENDBRANCH  87  90
ENDBRANCH  85  87
ENDBRANCH  79  85
ENDBRANCH  75  77
ENDBRANCH  74  75
ENDBRANCH  73  74
ENDBRANCH   1  73
TORSDOF 17
ENDMDL
MODEL 3
REMARK VINA RESULT:     -11.8      1.944      8.867
REMARK SMILES O=C(OCCOC(=O)c1cc(F)c(F)cc1NS(=O)(=O)c1ccc2c(c1)CCC2)c1ccc(-c2c3nc(c(-c4c(F)cc(S(=O)(=O)[O-])cc4F)c4ccc([nH]4)c(-c4c(F)cc(S(=O)(=O)[O-])cc4F)c4nc(c(-c5c(F)cc(S(=O)(=O)[O-])cc5F)c5ccc2[nH]5)C=C4)C=C3)cc1
REMARK SMILES IDX 4 1 3 2 2 3 1 4 30 5 31 6 95 7 32 8 94 9 33 10 34 11 35 12
REMARK SMILES IDX 88 13 36 14 93 15 87 16 89 17 37 18 92 19 86 20 85 21 38 23
REMARK SMILES IDX 72 24 51 25 71 26 52 27 55 28 70 29 90 30 53 31 54 32 69 34
REMARK SMILES IDX 91 35 56 36 39 37 40 38 49 39 41 40 42 41 48 42 50 43 43 44
REMARK SMILES IDX 44 45 45 46 46 47 47 48 73 49 74 50 83 51 75 52 76 53 82 54
REMARK SMILES IDX 84 55 77 56 78 57 79 58 80 59 81 60 57 61 58 62 67 63 59 64
REMARK SMILES IDX 60 65 66 66 68 67 61 68 62 69 63 70 64 71 65 72 5 73 6 74
REMARK SMILES IDX 7 75 8 76 9 77 10 78 16 79 11 80 15 81 12 82 13 83 14 84
REMARK SMILES IDX 17 85 18 87 19 88 20 89 21 90 22 91 26 92 23 93 25 94 24 95
REMARK SMILES IDX 27 96 29 97 28 98
REMARK H PARENT 89 22 55 33 17 86
REMARK Flexibility Score: inf
ROOT
ATOM      1  C   UNL A   1      33.214  29.994  26.199  1.00  0.00     0.275 C 
ENDROOT
BRANCH   1   2
ATOM      2  O   UNL A   1      33.543  30.039  27.594  1.00  0.00    -0.458 OA
BRANCH   2   3
ATOM      3  C   UNL A   1      34.498  30.727  28.253  1.00  0.00     0.338 C 
ATOM      4  O   UNL A   1      34.233  31.879  28.590  1.00  0.00    -0.246 OA
BRANCH   3   5
ATOM      5  C   UNL A   1      35.871  30.199  28.565  1.00  0.00     0.060 A 
ATOM      6  C   UNL A   1      36.335  29.693  29.780  1.00  0.00     0.016 A 
ATOM      7  C   UNL A   1      36.790  30.240  27.508  1.00  0.00     0.016 A 
ATOM      8  C   UNL A   1      37.645  29.203  29.916  1.00  0.00     0.010 A 
ATOM      9  C   UNL A   1      38.074  29.700  27.613  1.00  0.00     0.010 A 
ATOM     10  C   UNL A   1      38.527  29.197  28.833  1.00  0.00    -0.014 A 
BRANCH  10  11
ATOM     11  C   UNL A   1      39.954  28.827  29.017  1.00  0.00     0.031 A 
ATOM     12  C   UNL A   1      40.897  29.856  29.584  1.00  0.00     0.074 A 
ATOM     13  C   UNL A   1      40.402  27.594  28.703  1.00  0.00     0.049 A 
ATOM     14  N   UNL A   1      42.165  29.741  29.877  1.00  0.00    -0.248 NA
ATOM     15  C   UNL A   1      40.340  31.192  29.859  1.00  0.00     0.031 C 
ATOM     16  C   UNL A   1      39.583  26.511  28.164  1.00  0.00     0.029 A 
ATOM     17  N   UNL A   1      41.655  27.041  28.781  1.00  0.00    -0.354 N 
ATOM     18  C   UNL A   1      42.544  30.977  30.386  1.00  0.00     0.074 A 
ATOM     19  C   UNL A   1      41.407  31.858  30.264  1.00  0.00     0.031 C 
ATOM     20  C   UNL A   1      40.357  25.443  27.911  1.00  0.00     0.029 A 
ATOM     21  C   UNL A   1      41.723  25.747  28.314  1.00  0.00     0.049 A 
ATOM     22  H   UNL A   1      42.435  27.525  29.138  1.00  0.00     0.167 HD
ATOM     23  C   UNL A   1      43.712  31.332  30.967  1.00  0.00     0.037 A 
ATOM     24  C   UNL A   1      42.764  24.893  28.251  1.00  0.00     0.037 A 
ATOM     25  C   UNL A   1      44.828  30.443  31.109  1.00  0.00     0.049 A 
ATOM     26  C   UNL A   1      44.072  25.321  28.860  1.00  0.00     0.074 A 
ATOM     27  C   UNL A   1      46.051  30.676  31.709  1.00  0.00     0.029 A 
ATOM     28  N   UNL A   1      44.851  29.137  30.637  1.00  0.00    -0.354 N 
ATOM     29  N   UNL A   1      44.383  26.469  29.417  1.00  0.00    -0.248 NA
ATOM     30  C   UNL A   1      45.153  24.328  28.880  1.00  0.00     0.031 C 
ATOM     31  C   UNL A   1      46.825  29.517  31.577  1.00  0.00     0.029 A 
ATOM     32  C   UNL A   1      46.069  28.552  30.927  1.00  0.00     0.049 A 
ATOM     33  H   UNL A   1      44.109  28.694  30.166  1.00  0.00     0.167 HD
ATOM     34  C   UNL A   1      45.672  26.313  29.912  1.00  0.00     0.074 A 
ATOM     35  C   UNL A   1      46.087  24.966  29.573  1.00  0.00     0.031 C 
ATOM     36  C   UNL A   1      46.438  27.197  30.599  1.00  0.00     0.037 A 
BRANCH  23  37
ATOM     37  C   UNL A   1      43.802  32.735  31.501  1.00  0.00     0.058 A 
ATOM     38  C   UNL A   1      44.224  33.799  30.685  1.00  0.00     0.135 A 
ATOM     39  C   UNL A   1      43.527  33.010  32.848  1.00  0.00     0.135 A 
ATOM     40  F   UNL A   1      44.524  33.585  29.394  1.00  0.00    -0.206 F 
ATOM     41  C   UNL A   1      44.423  35.076  31.199  1.00  0.00     0.059 A 
ATOM     42  C   UNL A   1      43.692  34.288  33.378  1.00  0.00     0.059 A 
ATOM     43  F   UNL A   1      43.127  32.029  33.671  1.00  0.00    -0.206 F 
ATOM     44  C   UNL A   1      44.165  35.307  32.550  1.00  0.00     0.060 A 
BRANCH  44  45
ATOM     45  S   UNL A   1      44.467  36.958  33.216  1.00  0.00     0.124 S 
ATOM     46  O   UNL A   1      43.114  37.505  33.255  1.00  0.00    -0.237 OA
ATOM     47  O   UNL A   1      45.070  36.668  34.513  1.00  0.00    -0.237 OA
ATOM     48  O   UNL A   1      45.361  37.561  32.233  1.00  0.00    -0.744 OA
ENDBRANCH  44  45
ENDBRANCH  23  37
BRANCH  24  49
ATOM     49  C   UNL A   1      42.593  23.528  27.679  1.00  0.00     0.058 A 
ATOM     50  C   UNL A   1      42.402  22.412  28.509  1.00  0.00     0.135 A 
ATOM     51  C   UNL A   1      42.627  23.307  26.293  1.00  0.00     0.135 A 
ATOM     52  F   UNL A   1      42.361  22.569  29.841  1.00  0.00    -0.206 F 
ATOM     53  C   UNL A   1      42.280  21.126  27.991  1.00  0.00     0.059 A 
ATOM     54  C   UNL A   1      42.487  22.031  25.749  1.00  0.00     0.059 A 
ATOM     55  F   UNL A   1      42.794  24.339  25.452  1.00  0.00    -0.206 F 
ATOM     56  C   UNL A   1      42.326  20.944  26.608  1.00  0.00     0.060 A 
BRANCH  56  57
ATOM     57  S   UNL A   1      42.144  19.271  25.949  1.00  0.00     0.124 S 
ATOM     58  O   UNL A   1      42.601  18.461  27.072  1.00  0.00    -0.237 OA
ATOM     59  O   UNL A   1      40.715  19.211  25.659  1.00  0.00    -0.237 OA
ATOM     60  O   UNL A   1      43.014  19.273  24.777  1.00  0.00    -0.744 OA
ENDBRANCH  56  57
ENDBRANCH  24  49
BRANCH  36  61
ATOM     61  C   UNL A   1      47.772  26.714  31.087  1.00  0.00     0.058 A 
ATOM     62  C   UNL A   1      47.916  26.067  32.322  1.00  0.00     0.135 A 
ATOM     63  C   UNL A   1      48.908  26.851  30.272  1.00  0.00     0.135 A 
ATOM     64  F   UNL A   1      46.859  25.919  33.137  1.00  0.00    -0.206 F 
ATOM     65  C   UNL A   1      49.150  25.585  32.744  1.00  0.00     0.059 A 
ATOM     66  C   UNL A   1      50.144  26.353  30.663  1.00  0.00     0.059 A 
ATOM     67  F   UNL A   1      48.815  27.454  29.077  1.00  0.00    -0.206 F 
ATOM     68  C   UNL A   1      50.258  25.732  31.906  1.00  0.00     0.060 A 
BRANCH  68  69
ATOM     69  S   UNL A   1      51.846  25.064  32.444  1.00  0.00     0.124 S 
ATOM     70  O   UNL A   1      51.639  23.632  32.258  1.00  0.00    -0.237 OA
ATOM     71  O   UNL A   1      52.782  25.696  31.518  1.00  0.00    -0.237 OA
ATOM     72  O   UNL A   1      51.948  25.511  33.830  1.00  0.00    -0.744 OA
ENDBRANCH  68  69
ENDBRANCH  36  61
ENDBRANCH  10  11
ENDBRANCH   3   5
ENDBRANCH   2   3
ENDBRANCH   1   2
BRANCH   1  73
ATOM     73  C   UNL A   1      31.712  29.992  25.911  1.00  0.00     0.275 C 
BRANCH  73  74
ATOM     74  O   UNL A   1      31.276  28.877  25.117  1.00  0.00    -0.458 OA
BRANCH  74  75
ATOM     75  C   UNL A   1      31.413  27.629  25.646  1.00  0.00     0.340 C 
ATOM     76  O   UNL A   1      31.143  27.266  26.776  1.00  0.00    -0.246 OA
BRANCH  75  77
ATOM     77  C   UNL A   1      31.878  26.730  24.567  1.00  0.00     0.087 A 
ATOM     78  C   UNL A   1      32.822  27.240  23.662  1.00  0.00     0.060 A 
ATOM     79  C   UNL A   1      31.333  25.435  24.400  1.00  0.00     0.066 A 
ATOM     80  C   UNL A   1      33.179  26.484  22.561  1.00  0.00     0.159 A 
ATOM     81  C   UNL A   1      31.566  24.801  23.180  1.00  0.00     0.070 A 
ATOM     82  F   UNL A   1      34.128  26.939  21.735  1.00  0.00    -0.204 F 
ATOM     83  C   UNL A   1      32.510  25.303  22.287  1.00  0.00     0.160 A 
ATOM     84  F   UNL A   1      32.793  24.606  21.180  1.00  0.00    -0.204 F 
BRANCH  79  85
ATOM     85  N   UNL A   1      30.866  24.703  25.548  1.00  0.00    -0.279 N 
ATOM     86  H   UNL A   1      30.094  25.097  26.015  1.00  0.00     0.180 HD
BRANCH  85  87
ATOM     87  S   UNL A   1      31.452  23.271  26.203  1.00  0.00     0.261 S 
ATOM     88  O   UNL A   1      31.191  23.352  27.626  1.00  0.00    -0.201 OA
ATOM     89  O   UNL A   1      30.937  22.175  25.415  1.00  0.00    -0.201 OA
BRANCH  87  90
ATOM     90  C   UNL A   1      33.226  23.196  26.035  1.00  0.00     0.088 A 
ATOM     91  C   UNL A   1      34.013  24.348  25.885  1.00  0.00     0.022 A 
ATOM     92  C   UNL A   1      33.769  21.918  25.814  1.00  0.00     0.026 A 
ATOM     93  C   UNL A   1      35.294  24.240  25.325  1.00  0.00     0.005 A 
ATOM     94  C   UNL A   1      35.066  21.826  25.346  1.00  0.00    -0.043 A 
ATOM     95  C   UNL A   1      35.794  22.979  25.041  1.00  0.00    -0.045 A 
ATOM     96  C   UNL A   1      35.834  20.590  24.989  1.00  0.00     0.036 C 
ATOM     97  C   UNL A   1      37.052  22.614  24.312  1.00  0.00     0.036 C 
ATOM     98  C   UNL A   1      37.244  21.166  24.782  1.00  0.00     0.010 C 
ENDBRANCH  87  90
ENDBRANCH  85  87
ENDBRANCH  79  85
ENDBRANCH  75  77
ENDBRANCH  74  75
ENDBRANCH  73  74
ENDBRANCH   1  73
TORSDOF 17
ENDMDL
