MODEL 1
REMARK VINA RESULT:     -12.2      0.000      0.000
REMARK SMILES C=C(C)[C@@H]1CC=C(CN2C[C@@]34C=C[C@@H](O3)[C@@H](C(=O)OCCOC(=O)c3ccc(-c5c6nc(c(-c7c(F)cc(S(=O)(=O)[O-])cc7F)c7ccc([nH]7)c(-c7c(F)cc(S(=O)(=O)[O-])cc7F)c7nc(c(-c8c(F)cc(S(=O)(=O)[O-])cc8F)c8ccc5[nH]8)C=C7)C=C6)cc3)[C@@H]4C2=O)CC1
REMARK SMILES IDX 20 1 19 2 17 3 18 4 16 5 9 6 10 7 92 8 11 9 91 10 93 11
REMARK SMILES IDX 12 12 15 13 13 14 14 15 8 16 7 17 4 18 5 19 95 20 6 21 94 22
REMARK SMILES IDX 2 23 1 24 3 25 21 26 22 27 23 28 24 29 25 30 26 31 90 32
REMARK SMILES IDX 27 33 89 34 28 35 29 36 30 37 83 38 31 39 88 40 82 41 84 42
REMARK SMILES IDX 32 43 87 44 81 45 80 46 33 48 67 49 46 50 66 51 47 52 50 53
REMARK SMILES IDX 65 54 85 55 48 56 49 57 64 59 86 60 51 61 34 62 35 63 44 64
REMARK SMILES IDX 36 65 37 66 43 67 45 68 38 69 39 70 40 71 41 72 42 73 68 74
REMARK SMILES IDX 69 75 78 76 70 77 71 78 77 79 79 80 72 81 73 82 74 83 75 84
REMARK SMILES IDX 76 85 52 86 53 87 62 88 54 89 55 90 61 91 63 92 56 93 57 94
REMARK SMILES IDX 58 95 59 96 60 97
REMARK H PARENT 84 47 50 58
REMARK Flexibility Score: inf
ROOT
ATOM      1  C   UNL A   1      38.598  21.770  25.755  1.00  0.00     0.274 C 
ENDROOT
BRANCH   1   2
ATOM      2  O   UNL A   1      37.195  21.468  25.942  1.00  0.00    -0.462 OA
BRANCH   2   3
ATOM      3  C   UNL A   1      36.515  21.550  24.784  1.00  0.00     0.312 C 
ATOM      4  O   UNL A   1      37.061  21.843  23.714  1.00  0.00    -0.252 OA
BRANCH   3   5
ATOM      5  C   UNL A   1      35.055  21.166  24.779  1.00  0.00     0.148 C 
ATOM      6  N   UNL A   1      33.133  23.860  23.158  1.00  0.00    -0.335 N 
ATOM      7  C   UNL A   1      32.482  22.614  22.671  1.00  0.00     0.160 C 
ATOM      8  C   UNL A   1      34.097  23.581  24.155  1.00  0.00     0.230 C 
ATOM      9  C   UNL A   1      32.913  21.626  23.764  1.00  0.00     0.117 C 
ATOM     10  C   UNL A   1      34.339  22.140  23.902  1.00  0.00     0.133 C 
ATOM     11  O   UNL A   1      34.692  24.321  24.891  1.00  0.00    -0.274 OA
ATOM     12  C   UNL A   1      32.156  21.619  25.065  1.00  0.00     0.009 C 
ATOM     13  O   UNL A   1      33.229  20.228  23.695  1.00  0.00    -0.360 OA
ATOM     14  C   UNL A   1      32.783  20.745  25.865  1.00  0.00     0.004 C 
ATOM     15  C   UNL A   1      33.923  20.173  25.077  1.00  0.00     0.157 C 
BRANCH   6  16
ATOM     16  C   UNL A   1      33.159  25.131  22.472  1.00  0.00     0.150 C 
BRANCH  16  17
ATOM     17  C   UNL A   1      32.738  26.252  23.419  1.00  0.00    -0.055 C 
ATOM     18  C   UNL A   1      32.026  28.680  24.950  1.00  0.00     0.018 C 
ATOM     19  C   UNL A   1      31.063  27.476  24.874  1.00  0.00     0.035 C 
ATOM     20  C   UNL A   1      33.491  28.242  24.788  1.00  0.00     0.013 C 
ATOM     21  C   UNL A   1      31.555  26.307  24.065  1.00  0.00    -0.025 C 
ATOM     22  C   UNL A   1      33.699  27.411  23.519  1.00  0.00     0.033 C 
BRANCH  18  23
ATOM     23  C   UNL A   1      31.810  29.495  26.225  1.00  0.00    -0.077 C 
ATOM     24  C   UNL A   1      31.769  30.838  26.205  1.00  0.00     0.008 C 
ATOM     25  C   UNL A   1      31.626  28.745  27.522  1.00  0.00     0.039 C 
ENDBRANCH  18  23
ENDBRANCH  16  17
ENDBRANCH   6  16
ENDBRANCH   3   5
ENDBRANCH   2   3
ENDBRANCH   1   2
BRANCH   1  26
ATOM     26  C   UNL A   1      38.938  23.208  26.176  1.00  0.00     0.275 C 
BRANCH  26  27
ATOM     27  O   UNL A   1      39.936  23.318  27.216  1.00  0.00    -0.458 OA
BRANCH  27  28
ATOM     28  C   UNL A   1      40.853  24.297  27.030  1.00  0.00     0.338 C 
ATOM     29  O   UNL A   1      41.791  24.277  26.247  1.00  0.00    -0.246 OA
BRANCH  28  30
ATOM     30  C   UNL A   1      40.578  25.481  27.864  1.00  0.00     0.060 A 
ATOM     31  C   UNL A   1      41.592  26.422  28.040  1.00  0.00     0.016 A 
ATOM     32  C   UNL A   1      39.422  25.563  28.638  1.00  0.00     0.016 A 
ATOM     33  C   UNL A   1      41.503  27.403  29.013  1.00  0.00     0.010 A 
ATOM     34  C   UNL A   1      39.306  26.584  29.593  1.00  0.00     0.010 A 
ATOM     35  C   UNL A   1      40.357  27.494  29.803  1.00  0.00    -0.014 A 
BRANCH  35  36
ATOM     36  C   UNL A   1      40.310  28.534  30.856  1.00  0.00     0.031 A 
ATOM     37  C   UNL A   1      41.235  28.463  32.035  1.00  0.00     0.074 A 
ATOM     38  C   UNL A   1      39.465  29.572  30.715  1.00  0.00     0.049 A 
ATOM     39  N   UNL A   1      41.308  29.257  33.072  1.00  0.00    -0.248 NA
ATOM     40  C   UNL A   1      42.198  27.353  32.055  1.00  0.00     0.031 C 
ATOM     41  C   UNL A   1      38.553  29.767  29.586  1.00  0.00     0.029 A 
ATOM     42  N   UNL A   1      39.236  30.656  31.521  1.00  0.00    -0.354 N 
ATOM     43  C   UNL A   1      42.302  28.727  33.885  1.00  0.00     0.074 A 
ATOM     44  C   UNL A   1      42.791  27.534  33.227  1.00  0.00     0.031 C 
ATOM     45  C   UNL A   1      37.861  30.901  29.774  1.00  0.00     0.029 A 
ATOM     46  C   UNL A   1      38.244  31.482  31.057  1.00  0.00     0.049 A 
ATOM     47  H   UNL A   1      39.734  30.824  32.354  1.00  0.00     0.167 HD
ATOM     48  C   UNL A   1      42.761  29.196  35.070  1.00  0.00     0.037 A 
ATOM     49  C   UNL A   1      37.678  32.569  31.615  1.00  0.00     0.037 A 
ATOM     50  C   UNL A   1      42.276  30.394  35.708  1.00  0.00     0.049 A 
ATOM     51  C   UNL A   1      38.177  33.053  32.945  1.00  0.00     0.074 A 
ATOM     52  C   UNL A   1      42.700  30.972  36.891  1.00  0.00     0.029 A 
ATOM     53  N   UNL A   1      41.254  31.195  35.217  1.00  0.00    -0.354 N 
ATOM     54  N   UNL A   1      39.125  32.548  33.699  1.00  0.00    -0.248 NA
ATOM     55  C   UNL A   1      37.533  34.249  33.500  1.00  0.00     0.031 C 
ATOM     56  C   UNL A   1      41.902  32.095  37.140  1.00  0.00     0.029 A 
ATOM     57  C   UNL A   1      41.012  32.246  36.088  1.00  0.00     0.049 A 
ATOM     58  H   UNL A   1      40.770  31.040  34.373  1.00  0.00     0.167 HD
ATOM     59  C   UNL A   1      39.199  33.372  34.816  1.00  0.00     0.074 A 
ATOM     60  C   UNL A   1      38.211  34.416  34.628  1.00  0.00     0.031 C 
ATOM     61  C   UNL A   1      40.015  33.272  35.895  1.00  0.00     0.037 A 
BRANCH  48  62
ATOM     62  C   UNL A   1      43.807  28.375  35.774  1.00  0.00     0.058 A 
ATOM     63  C   UNL A   1      43.472  27.306  36.622  1.00  0.00     0.135 A 
ATOM     64  C   UNL A   1      45.169  28.677  35.609  1.00  0.00     0.135 A 
ATOM     65  F   UNL A   1      42.186  26.983  36.826  1.00  0.00    -0.206 F 
ATOM     66  C   UNL A   1      44.448  26.598  37.318  1.00  0.00     0.059 A 
ATOM     67  C   UNL A   1      46.162  27.964  36.275  1.00  0.00     0.059 A 
ATOM     68  F   UNL A   1      45.546  29.686  34.809  1.00  0.00    -0.206 F 
ATOM     69  C   UNL A   1      45.790  26.943  37.146  1.00  0.00     0.060 A 
BRANCH  69  70
ATOM     70  S   UNL A   1      47.043  26.050  38.091  1.00  0.00     0.124 S 
ATOM     71  O   UNL A   1      48.021  27.103  38.344  1.00  0.00    -0.237 OA
ATOM     72  O   UNL A   1      46.291  25.592  39.256  1.00  0.00    -0.237 OA
ATOM     73  O   UNL A   1      47.473  24.998  37.175  1.00  0.00    -0.744 OA
ENDBRANCH  69  70
ENDBRANCH  48  62
BRANCH  49  74
ATOM     74  C   UNL A   1      36.561  33.243  30.905  1.00  0.00     0.058 A 
ATOM     75  C   UNL A   1      35.240  33.117  31.350  1.00  0.00     0.135 A 
ATOM     76  C   UNL A   1      36.812  34.097  29.819  1.00  0.00     0.135 A 
ATOM     77  F   UNL A   1      34.951  32.308  32.380  1.00  0.00    -0.206 F 
ATOM     78  C   UNL A   1      34.203  33.826  30.751  1.00  0.00     0.059 A 
ATOM     79  C   UNL A   1      35.796  34.833  29.219  1.00  0.00     0.059 A 
ATOM     80  F   UNL A   1      38.066  34.261  29.368  1.00  0.00    -0.206 F 
ATOM     81  C   UNL A   1      34.494  34.691  29.693  1.00  0.00     0.060 A 
BRANCH  81  82
ATOM     82  S   UNL A   1      33.159  35.687  28.995  1.00  0.00     0.124 S 
ATOM     83  O   UNL A   1      33.901  36.645  28.186  1.00  0.00    -0.237 OA
ATOM     84  O   UNL A   1      32.386  34.690  28.259  1.00  0.00    -0.237 OA
ATOM     85  O   UNL A   1      32.496  36.234  30.174  1.00  0.00    -0.744 OA
ENDBRANCH  81  82
ENDBRANCH  49  74
BRANCH  61  86
ATOM     86  C   UNL A   1      39.881  34.328  36.957  1.00  0.00     0.058 A 
ATOM     87  C   UNL A   1      40.556  35.556  36.863  1.00  0.00     0.135 A 
ATOM     88  C   UNL A   1      39.033  34.127  38.058  1.00  0.00     0.135 A 
ATOM     89  F   UNL A   1      41.385  35.794  35.835  1.00  0.00    -0.206 F 
ATOM     90  C   UNL A   1      40.410  36.540  37.835  1.00  0.00     0.059 A 
ATOM     91  C   UNL A   1      38.853  35.108  39.029  1.00  0.00     0.059 A 
ATOM     92  F   UNL A   1      38.359  32.974  38.191  1.00  0.00    -0.206 F 
ATOM     93  C   UNL A   1      39.556  36.307  38.915  1.00  0.00     0.060 A 
BRANCH  93  94
ATOM     94  S   UNL A   1      39.349  37.604  40.154  1.00  0.00     0.124 S 
ATOM     95  O   UNL A   1      40.652  38.261  40.110  1.00  0.00    -0.237 OA
ATOM     96  O   UNL A   1      38.232  38.376  39.616  1.00  0.00    -0.237 OA
ATOM     97  O   UNL A   1      39.059  36.862  41.376  1.00  0.00    -0.744 OA
ENDBRANCH  93  94
ENDBRANCH  61  86
ENDBRANCH  35  36
ENDBRANCH  28  30
ENDBRANCH  27  28
ENDBRANCH  26  27
ENDBRANCH   1  26
TORSDOF 17
ENDMDL
MODEL 2
REMARK VINA RESULT:     -12.1      6.629     12.154
REMARK SMILES C=C(C)[C@@H]1CC=C(CN2C[C@@]34C=C[C@@H](O3)[C@@H](C(=O)OCCOC(=O)c3ccc(-c5c6nc(c(-c7c(F)cc(S(=O)(=O)[O-])cc7F)c7ccc([nH]7)c(-c7c(F)cc(S(=O)(=O)[O-])cc7F)c7nc(c(-c8c(F)cc(S(=O)(=O)[O-])cc8F)c8ccc5[nH]8)C=C7)C=C6)cc3)[C@@H]4C2=O)CC1
REMARK SMILES IDX 20 1 19 2 17 3 18 4 16 5 9 6 10 7 92 8 11 9 91 10 93 11
REMARK SMILES IDX 12 12 15 13 13 14 14 15 8 16 7 17 4 18 5 19 95 20 6 21 94 22
REMARK SMILES IDX 2 23 1 24 3 25 21 26 22 27 23 28 24 29 25 30 26 31 90 32
REMARK SMILES IDX 27 33 89 34 28 35 29 36 30 37 83 38 31 39 88 40 82 41 84 42
REMARK SMILES IDX 32 43 87 44 81 45 80 46 33 48 67 49 46 50 66 51 47 52 50 53
REMARK SMILES IDX 65 54 85 55 48 56 49 57 64 59 86 60 51 61 34 62 35 63 44 64
REMARK SMILES IDX 36 65 37 66 43 67 45 68 38 69 39 70 40 71 41 72 42 73 68 74
REMARK SMILES IDX 69 75 78 76 70 77 71 78 77 79 79 80 72 81 73 82 74 83 75 84
REMARK SMILES IDX 76 85 52 86 53 87 62 88 54 89 55 90 61 91 63 92 56 93 57 94
REMARK SMILES IDX 58 95 59 96 60 97
REMARK H PARENT 84 47 50 58
REMARK Flexibility Score: inf
ROOT
ATOM      1  C   UNL A   1      34.332  29.705  26.866  1.00  0.00     0.274 C 
ENDROOT
BRANCH   1   2
ATOM      2  O   UNL A   1      33.161  30.349  26.310  1.00  0.00    -0.462 OA
BRANCH   2   3
ATOM      3  C   UNL A   1      32.098  29.524  26.310  1.00  0.00     0.312 C 
ATOM      4  O   UNL A   1      31.414  29.325  27.321  1.00  0.00    -0.252 OA
BRANCH   3   5
ATOM      5  C   UNL A   1      31.666  28.907  25.001  1.00  0.00     0.148 C 
ATOM      6  N   UNL A   1      30.980  25.329  25.555  1.00  0.00    -0.335 N 
ATOM      7  C   UNL A   1      29.910  25.756  24.612  1.00  0.00     0.160 C 
ATOM      8  C   UNL A   1      31.931  26.357  25.754  1.00  0.00     0.230 C 
ATOM      9  C   UNL A   1      30.557  27.009  24.004  1.00  0.00     0.117 C 
ATOM     10  C   UNL A   1      31.154  27.536  25.301  1.00  0.00     0.133 C 
ATOM     11  O   UNL A   1      33.002  26.332  26.297  1.00  0.00    -0.274 OA
ATOM     12  C   UNL A   1      31.574  26.833  22.909  1.00  0.00     0.009 C 
ATOM     13  O   UNL A   1      29.975  28.242  23.557  1.00  0.00    -0.360 OA
ATOM     14  C   UNL A   1      32.042  28.056  22.624  1.00  0.00     0.004 C 
ATOM     15  C   UNL A   1      31.313  29.020  23.512  1.00  0.00     0.157 C 
BRANCH   6  16
ATOM     16  C   UNL A   1      30.898  24.237  26.496  1.00  0.00     0.150 C 
BRANCH  16  17
ATOM     17  C   UNL A   1      31.826  23.102  26.072  1.00  0.00    -0.055 C 
ATOM     18  C   UNL A   1      33.539  20.735  25.614  1.00  0.00     0.018 C 
ATOM     19  C   UNL A   1      32.536  21.212  24.541  1.00  0.00     0.035 C 
ATOM     20  C   UNL A   1      34.009  21.898  26.502  1.00  0.00     0.013 C 
ATOM     21  C   UNL A   1      31.733  22.430  24.905  1.00  0.00    -0.025 C 
ATOM     22  C   UNL A   1      32.830  22.662  27.109  1.00  0.00     0.033 C 
BRANCH  18  23
ATOM     23  C   UNL A   1      34.713  19.979  24.990  1.00  0.00    -0.077 C 
ATOM     24  C   UNL A   1      35.937  20.527  24.903  1.00  0.00     0.008 C 
ATOM     25  C   UNL A   1      34.465  18.580  24.483  1.00  0.00     0.039 C 
ENDBRANCH  18  23
ENDBRANCH  16  17
ENDBRANCH   6  16
ENDBRANCH   3   5
ENDBRANCH   2   3
ENDBRANCH   1   2
BRANCH   1  26
ATOM     26  C   UNL A   1      34.883  30.465  28.082  1.00  0.00     0.275 C 
BRANCH  26  27
ATOM     27  O   UNL A   1      35.679  29.668  28.988  1.00  0.00    -0.458 OA
BRANCH  27  28
ATOM     28  C   UNL A   1      36.412  30.376  29.881  1.00  0.00     0.338 C 
ATOM     29  O   UNL A   1      35.985  31.023  30.825  1.00  0.00    -0.246 OA
BRANCH  28  30
ATOM     30  C   UNL A   1      37.860  30.251  29.631  1.00  0.00     0.060 A 
ATOM     31  C   UNL A   1      38.299  30.115  28.314  1.00  0.00     0.016 A 
ATOM     32  C   UNL A   1      38.756  30.055  30.680  1.00  0.00     0.016 A 
ATOM     33  C   UNL A   1      39.596  29.725  28.026  1.00  0.00     0.010 A 
ATOM     34  C   UNL A   1      40.084  29.705  30.391  1.00  0.00     0.010 A 
ATOM     35  C   UNL A   1      40.504  29.514  29.063  1.00  0.00    -0.014 A 
BRANCH  35  36
ATOM     36  C   UNL A   1      41.873  29.066  28.719  1.00  0.00     0.031 A 
ATOM     37  C   UNL A   1      43.022  30.029  28.770  1.00  0.00     0.074 A 
ATOM     38  C   UNL A   1      42.082  27.772  28.414  1.00  0.00     0.049 A 
ATOM     39  N   UNL A   1      44.278  29.828  28.465  1.00  0.00    -0.248 NA
ATOM     40  C   UNL A   1      42.721  31.396  29.218  1.00  0.00     0.031 C 
ATOM     41  C   UNL A   1      41.046  26.737  28.378  1.00  0.00     0.029 A 
ATOM     42  N   UNL A   1      43.232  27.107  28.077  1.00  0.00    -0.354 N 
ATOM     43  C   UNL A   1      44.913  31.050  28.650  1.00  0.00     0.074 A 
ATOM     44  C   UNL A   1      43.898  31.989  29.080  1.00  0.00     0.031 C 
ATOM     45  C   UNL A   1      41.608  25.568  28.035  1.00  0.00     0.029 A 
ATOM     46  C   UNL A   1      43.028  25.782  27.778  1.00  0.00     0.049 A 
ATOM     47  H   UNL A   1      44.117  27.537  28.050  1.00  0.00     0.167 HD
ATOM     48  C   UNL A   1      46.221  31.355  28.477  1.00  0.00     0.037 A 
ATOM     49  C   UNL A   1      43.882  24.849  27.315  1.00  0.00     0.037 A 
ATOM     50  C   UNL A   1      47.225  30.407  28.065  1.00  0.00     0.049 A 
ATOM     51  C   UNL A   1      45.320  25.216  27.097  1.00  0.00     0.074 A 
ATOM     52  C   UNL A   1      48.583  30.608  27.895  1.00  0.00     0.029 A 
ATOM     53  N   UNL A   1      46.977  29.077  27.750  1.00  0.00    -0.354 N 
ATOM     54  N   UNL A   1      45.910  26.373  27.286  1.00  0.00    -0.248 NA
ATOM     55  C   UNL A   1      46.208  24.156  26.605  1.00  0.00     0.031 C 
ATOM     56  C   UNL A   1      49.148  29.414  27.432  1.00  0.00     0.029 A 
ATOM     57  C   UNL A   1      48.152  28.454  27.358  1.00  0.00     0.049 A 
ATOM     58  H   UNL A   1      46.096  28.640  27.798  1.00  0.00     0.167 HD
ATOM     59  C   UNL A   1      47.243  26.179  26.945  1.00  0.00     0.074 A 
ATOM     60  C   UNL A   1      47.373  24.788  26.554  1.00  0.00     0.031 C 
ATOM     61  C   UNL A   1      48.265  27.071  26.959  1.00  0.00     0.037 A 
BRANCH  48  62
ATOM     62  C   UNL A   1      46.625  32.789  28.687  1.00  0.00     0.058 A 
ATOM     63  C   UNL A   1      47.035  33.274  29.940  1.00  0.00     0.135 A 
ATOM     64  C   UNL A   1      46.585  33.698  27.616  1.00  0.00     0.135 A 
ATOM     65  F   UNL A   1      47.079  32.453  31.001  1.00  0.00    -0.206 F 
ATOM     66  C   UNL A   1      47.342  34.617  30.134  1.00  0.00     0.059 A 
ATOM     67  C   UNL A   1      46.914  35.040  27.783  1.00  0.00     0.059 A 
ATOM     68  F   UNL A   1      46.203  33.288  26.396  1.00  0.00    -0.206 F 
ATOM     69  C   UNL A   1      47.267  35.495  29.051  1.00  0.00     0.060 A 
BRANCH  69  70
ATOM     70  S   UNL A   1      47.621  37.244  29.325  1.00  0.00     0.124 S 
ATOM     71  O   UNL A   1      48.916  37.176  29.995  1.00  0.00    -0.237 OA
ATOM     72  O   UNL A   1      47.639  37.779  27.967  1.00  0.00    -0.237 OA
ATOM     73  O   UNL A   1      46.506  37.690  30.156  1.00  0.00    -0.744 OA
ENDBRANCH  69  70
ENDBRANCH  48  62
BRANCH  49  74
ATOM     74  C   UNL A   1      43.366  23.490  27.014  1.00  0.00     0.058 A 
ATOM     75  C   UNL A   1      43.168  23.066  25.694  1.00  0.00     0.135 A 
ATOM     76  C   UNL A   1      43.147  22.561  28.044  1.00  0.00     0.135 A 
ATOM     77  F   UNL A   1      43.358  23.920  24.679  1.00  0.00    -0.206 F 
ATOM     78  C   UNL A   1      42.781  21.762  25.403  1.00  0.00     0.059 A 
ATOM     79  C   UNL A   1      42.782  21.246  27.776  1.00  0.00     0.059 A 
ATOM     80  F   UNL A   1      43.340  22.917  29.324  1.00  0.00    -0.206 F 
ATOM     81  C   UNL A   1      42.603  20.855  26.451  1.00  0.00     0.060 A 
BRANCH  81  82
ATOM     82  S   UNL A   1      42.208  19.138  26.055  1.00  0.00     0.124 S 
ATOM     83  O   UNL A   1      40.774  19.217  25.803  1.00  0.00    -0.237 OA
ATOM     84  O   UNL A   1      43.050  18.892  24.887  1.00  0.00    -0.237 OA
ATOM     85  O   UNL A   1      42.600  18.416  27.261  1.00  0.00    -0.744 OA
ENDBRANCH  81  82
ENDBRANCH  49  74
BRANCH  61  86
ATOM     86  C   UNL A   1      49.621  26.569  26.546  1.00  0.00     0.058 A 
ATOM     87  C   UNL A   1      50.498  25.978  27.470  1.00  0.00     0.135 A 
ATOM     88  C   UNL A   1      50.028  26.638  25.205  1.00  0.00     0.135 A 
ATOM     89  F   UNL A   1      50.159  25.895  28.766  1.00  0.00    -0.206 F 
ATOM     90  C   UNL A   1      51.742  25.492  27.080  1.00  0.00     0.059 A 
ATOM     91  C   UNL A   1      51.258  26.136  24.788  1.00  0.00     0.059 A 
ATOM     92  F   UNL A   1      49.224  27.187  24.281  1.00  0.00    -0.206 F 
ATOM     93  C   UNL A   1      52.113  25.575  25.736  1.00  0.00     0.060 A 
BRANCH  93  94
ATOM     94  S   UNL A   1      53.716  24.912  25.236  1.00  0.00     0.124 S 
ATOM     95  O   UNL A   1      53.409  23.493  25.078  1.00  0.00    -0.237 OA
ATOM     96  O   UNL A   1      53.987  25.643  24.002  1.00  0.00    -0.237 OA
ATOM     97  O   UNL A   1      54.586  25.245  26.359  1.00  0.00    -0.744 OA
ENDBRANCH  93  94
ENDBRANCH  61  86
ENDBRANCH  35  36
ENDBRANCH  28  30
ENDBRANCH  27  28
ENDBRANCH  26  27
ENDBRANCH   1  26
TORSDOF 17
ENDMDL
MODEL 3
REMARK VINA RESULT:     -11.9      6.711     12.277
REMARK SMILES C=C(C)[C@@H]1CC=C(CN2C[C@@]34C=C[C@@H](O3)[C@@H](C(=O)OCCOC(=O)c3ccc(-c5c6nc(c(-c7c(F)cc(S(=O)(=O)[O-])cc7F)c7ccc([nH]7)c(-c7c(F)cc(S(=O)(=O)[O-])cc7F)c7nc(c(-c8c(F)cc(S(=O)(=O)[O-])cc8F)c8ccc5[nH]8)C=C7)C=C6)cc3)[C@@H]4C2=O)CC1
REMARK SMILES IDX 20 1 19 2 17 3 18 4 16 5 9 6 10 7 92 8 11 9 91 10 93 11
REMARK SMILES IDX 12 12 15 13 13 14 14 15 8 16 7 17 4 18 5 19 95 20 6 21 94 22
REMARK SMILES IDX 2 23 1 24 3 25 21 26 22 27 23 28 24 29 25 30 26 31 90 32
REMARK SMILES IDX 27 33 89 34 28 35 29 36 30 37 83 38 31 39 88 40 82 41 84 42
REMARK SMILES IDX 32 43 87 44 81 45 80 46 33 48 67 49 46 50 66 51 47 52 50 53
REMARK SMILES IDX 65 54 85 55 48 56 49 57 64 59 86 60 51 61 34 62 35 63 44 64
REMARK SMILES IDX 36 65 37 66 43 67 45 68 38 69 39 70 40 71 41 72 42 73 68 74
REMARK SMILES IDX 69 75 78 76 70 77 71 78 77 79 79 80 72 81 73 82 74 83 75 84
REMARK SMILES IDX 76 85 52 86 53 87 62 88 54 89 55 90 61 91 63 92 56 93 57 94
REMARK SMILES IDX 58 95 59 96 60 97
REMARK H PARENT 84 47 50 58
REMARK Flexibility Score: inf
ROOT
ATOM      1  C   UNL A   1      34.543  28.959  27.204  1.00  0.00     0.274 C 
ENDROOT
BRANCH   1   2
ATOM      2  O   UNL A   1      33.157  28.588  27.009  1.00  0.00    -0.462 OA
BRANCH   2   3
ATOM      3  C   UNL A   1      32.923  28.208  25.740  1.00  0.00     0.312 C 
ATOM      4  O   UNL A   1      33.634  28.574  24.796  1.00  0.00    -0.252 OA
BRANCH   3   5
ATOM      5  C   UNL A   1      31.817  27.213  25.480  1.00  0.00     0.148 C 
ATOM      6  N   UNL A   1      33.019  23.850  26.387  1.00  0.00    -0.335 N 
ATOM      7  C   UNL A   1      31.605  23.861  26.852  1.00  0.00     0.160 C 
ATOM      8  C   UNL A   1      33.327  25.015  25.646  1.00  0.00     0.230 C 
ATOM      9  C   UNL A   1      31.032  24.985  25.976  1.00  0.00     0.117 C 
ATOM     10  C   UNL A   1      32.233  25.914  26.087  1.00  0.00     0.133 C 
ATOM     11  O   UNL A   1      34.290  25.282  24.979  1.00  0.00    -0.274 OA
ATOM     12  C   UNL A   1      30.656  24.667  24.554  1.00  0.00     0.009 C 
ATOM     13  O   UNL A   1      30.019  25.963  26.250  1.00  0.00    -0.360 OA
ATOM     14  C   UNL A   1      30.276  25.823  23.994  1.00  0.00     0.004 C 
ATOM     15  C   UNL A   1      30.381  26.878  25.055  1.00  0.00     0.157 C 
BRANCH   6  16
ATOM     16  C   UNL A   1      34.088  23.045  26.932  1.00  0.00     0.150 C 
BRANCH  16  17
ATOM     17  C   UNL A   1      34.194  21.724  26.176  1.00  0.00    -0.055 C 
ATOM     18  C   UNL A   1      34.151  19.335  24.434  1.00  0.00     0.018 C 
ATOM     19  C   UNL A   1      35.480  19.896  24.982  1.00  0.00     0.035 C 
ATOM     20  C   UNL A   1      32.973  19.661  25.367  1.00  0.00     0.013 C 
ATOM     21  C   UNL A   1      35.353  21.112  25.858  1.00  0.00    -0.025 C 
ATOM     22  C   UNL A   1      32.888  21.159  25.673  1.00  0.00     0.033 C 
BRANCH  18  23
ATOM     23  C   UNL A   1      34.251  17.838  24.139  1.00  0.00    -0.077 C 
ATOM     24  C   UNL A   1      35.146  17.055  24.765  1.00  0.00     0.008 C 
ATOM     25  C   UNL A   1      33.298  17.250  23.127  1.00  0.00     0.039 C 
ENDBRANCH  18  23
ENDBRANCH  16  17
ENDBRANCH   6  16
ENDBRANCH   3   5
ENDBRANCH   2   3
ENDBRANCH   1   2
BRANCH   1  26
ATOM     26  C   UNL A   1      34.681  30.292  27.957  1.00  0.00     0.275 C 
BRANCH  26  27
ATOM     27  O   UNL A   1      35.363  30.204  29.229  1.00  0.00    -0.458 OA
BRANCH  27  28
ATOM     28  C   UNL A   1      36.462  30.987  29.345  1.00  0.00     0.338 C 
ATOM     29  O   UNL A   1      36.487  32.160  29.685  1.00  0.00    -0.246 OA
BRANCH  28  30
ATOM     30  C   UNL A   1      37.704  30.246  29.056  1.00  0.00     0.060 A 
ATOM     31  C   UNL A   1      38.680  30.172  30.049  1.00  0.00     0.016 A 
ATOM     32  C   UNL A   1      38.001  29.815  27.765  1.00  0.00     0.016 A 
ATOM     33  C   UNL A   1      39.963  29.736  29.764  1.00  0.00     0.010 A 
ATOM     34  C   UNL A   1      39.286  29.329  27.482  1.00  0.00     0.010 A 
ATOM     35  C   UNL A   1      40.281  29.311  28.475  1.00  0.00    -0.014 A 
BRANCH  35  36
ATOM     36  C   UNL A   1      41.672  28.883  28.198  1.00  0.00     0.031 A 
ATOM     37  C   UNL A   1      42.794  29.878  28.233  1.00  0.00     0.074 A 
ATOM     38  C   UNL A   1      41.924  27.581  27.970  1.00  0.00     0.049 A 
ATOM     39  N   UNL A   1      44.064  29.697  27.977  1.00  0.00    -0.248 NA
ATOM     40  C   UNL A   1      42.443  31.259  28.597  1.00  0.00     0.031 C 
ATOM     41  C   UNL A   1      40.917  26.518  27.958  1.00  0.00     0.029 A 
ATOM     42  N   UNL A   1      43.101  26.931  27.704  1.00  0.00    -0.354 N 
ATOM     43  C   UNL A   1      44.660  30.943  28.117  1.00  0.00     0.074 A 
ATOM     44  C   UNL A   1      43.608  31.876  28.464  1.00  0.00     0.031 C 
ATOM     45  C   UNL A   1      41.519  25.348  27.696  1.00  0.00     0.029 A 
ATOM     46  C   UNL A   1      42.941  25.587  27.471  1.00  0.00     0.049 A 
ATOM     47  H   UNL A   1      43.975  27.383  27.682  1.00  0.00     0.167 HD
ATOM     48  C   UNL A   1      45.965  31.275  27.968  1.00  0.00     0.037 A 
ATOM     49  C   UNL A   1      43.833  24.655  27.086  1.00  0.00     0.037 A 
ATOM     50  C   UNL A   1      47.005  30.334  27.638  1.00  0.00     0.049 A 
ATOM     51  C   UNL A   1      45.267  25.049  26.892  1.00  0.00     0.074 A 
ATOM     52  C   UNL A   1      48.362  30.563  27.499  1.00  0.00     0.029 A 
ATOM     53  N   UNL A   1      46.802  28.983  27.388  1.00  0.00    -0.354 N 
ATOM     54  N   UNL A   1      45.821  26.230  27.037  1.00  0.00    -0.248 NA
ATOM     55  C   UNL A   1      46.198  23.990  26.486  1.00  0.00     0.031 C 
ATOM     56  C   UNL A   1      48.973  29.363  27.119  1.00  0.00     0.029 A 
ATOM     57  C   UNL A   1      48.005  28.373  27.066  1.00  0.00     0.049 A 
ATOM     58  H   UNL A   1      45.932  28.526  27.432  1.00  0.00     0.167 HD
ATOM     59  C   UNL A   1      47.169  26.055  26.749  1.00  0.00     0.074 A 
ATOM     60  C   UNL A   1      47.347  24.650  26.437  1.00  0.00     0.031 C 
ATOM     61  C   UNL A   1      48.166  26.974  26.745  1.00  0.00     0.037 A 
BRANCH  48  62
ATOM     62  C   UNL A   1      46.325  32.729  28.113  1.00  0.00     0.058 A 
ATOM     63  C   UNL A   1      46.195  33.639  27.051  1.00  0.00     0.135 A 
ATOM     64  C   UNL A   1      46.823  33.214  29.333  1.00  0.00     0.135 A 
ATOM     65  F   UNL A   1      45.737  33.226  25.859  1.00  0.00    -0.206 F 
ATOM     66  C   UNL A   1      46.594  34.966  27.179  1.00  0.00     0.059 A 
ATOM     67  C   UNL A   1      47.203  34.544  29.491  1.00  0.00     0.059 A 
ATOM     68  F   UNL A   1      46.965  32.389  30.382  1.00  0.00    -0.206 F 
ATOM     69  C   UNL A   1      47.107  35.406  28.401  1.00  0.00     0.060 A 
BRANCH  69  70
ATOM     70  S   UNL A   1      47.666  37.118  28.541  1.00  0.00     0.124 S 
ATOM     71  O   UNL A   1      48.160  37.372  27.191  1.00  0.00    -0.237 OA
ATOM     72  O   UNL A   1      46.441  37.820  28.910  1.00  0.00    -0.237 OA
ATOM     73  O   UNL A   1      48.687  37.057  29.583  1.00  0.00    -0.744 OA
ENDBRANCH  69  70
ENDBRANCH  48  62
BRANCH  49  74
ATOM     74  C   UNL A   1      43.362  23.268  26.843  1.00  0.00     0.058 A 
ATOM     75  C   UNL A   1      43.277  22.748  25.545  1.00  0.00     0.135 A 
ATOM     76  C   UNL A   1      43.073  22.409  27.915  1.00  0.00     0.135 A 
ATOM     77  F   UNL A   1      43.538  23.533  24.489  1.00  0.00    -0.206 F 
ATOM     78  C   UNL A   1      42.934  21.420  25.317  1.00  0.00     0.059 A 
ATOM     79  C   UNL A   1      42.750  21.071  27.714  1.00  0.00     0.059 A 
ATOM     80  F   UNL A   1      43.157  22.858  29.178  1.00  0.00    -0.206 F 
ATOM     81  C   UNL A   1      42.684  20.586  26.410  1.00  0.00     0.060 A 
BRANCH  81  82
ATOM     82  S   UNL A   1      42.347  18.838  26.107  1.00  0.00     0.124 S 
ATOM     83  O   UNL A   1      42.645  18.252  27.408  1.00  0.00    -0.237 OA
ATOM     84  O   UNL A   1      40.938  18.859  25.723  1.00  0.00    -0.237 OA
ATOM     85  O   UNL A   1      43.274  18.497  25.032  1.00  0.00    -0.744 OA
ENDBRANCH  81  82
ENDBRANCH  49  74
BRANCH  61  86
ATOM     86  C   UNL A   1      49.548  26.488  26.403  1.00  0.00     0.058 A 
ATOM     87  C   UNL A   1      50.100  26.683  25.127  1.00  0.00     0.135 A 
ATOM     88  C   UNL A   1      50.343  25.862  27.374  1.00  0.00     0.135 A 
ATOM     89  F   UNL A   1      49.377  27.269  24.160  1.00  0.00    -0.206 F 
ATOM     90  C   UNL A   1      51.388  26.254  24.821  1.00  0.00     0.059 A 
ATOM     91  C   UNL A   1      51.642  25.446  27.098  1.00  0.00     0.059 A 
ATOM     92  F   UNL A   1      49.865  25.659  28.612  1.00  0.00    -0.206 F 
ATOM     93  C   UNL A   1      52.151  25.636  25.813  1.00  0.00     0.060 A 
BRANCH  93  94
ATOM     94  S   UNL A   1      53.833  25.113  25.415  1.00  0.00     0.124 S 
ATOM     95  O   UNL A   1      53.935  25.501  24.011  1.00  0.00    -0.237 OA
ATOM     96  O   UNL A   1      54.636  25.896  26.349  1.00  0.00    -0.237 OA
ATOM     97  O   UNL A   1      53.810  23.676  25.669  1.00  0.00    -0.744 OA
ENDBRANCH  93  94
ENDBRANCH  61  86
ENDBRANCH  35  36
ENDBRANCH  28  30
ENDBRANCH  27  28
ENDBRANCH  26  27
ENDBRANCH   1  26
TORSDOF 17
ENDMDL
