MODEL 1
REMARK VINA RESULT:     -10.9      0.000      0.000
REMARK SMILES CCSc1nc(CC(=O)N[C@@H](C(=O)OCCOC(=O)c2ccc(-c3c4nc(c(-c5c(F)cc(S(=O)(=O)[O-])cc5F)c5ccc([nH]5)c(-c5c(F)cc(S(=O)(=O)[O-])cc5F)c5nc(c(-c6c(F)cc(S(=O)(=O)[O-])cc6F)c6ccc3[nH]6)C=C5)C=C4)cc2)C2=C(C)N=N[C@@H]2C)cs1
REMARK SMILES IDX 15 1 14 2 12 3 13 4 11 5 10 6 8 7 9 8 7 10 6 11 4 12 5 13
REMARK SMILES IDX 94 14 93 15 3 16 2 17 1 18 86 19 87 20 91 21 88 22 89 23
REMARK SMILES IDX 90 24 92 25 16 26 17 27 18 28 19 29 20 30 21 31 85 32 22 33
REMARK SMILES IDX 84 34 23 35 24 36 25 37 78 38 26 39 83 40 77 41 79 42 27 43
REMARK SMILES IDX 82 44 76 45 75 46 28 48 62 49 41 50 61 51 42 52 45 53 60 54
REMARK SMILES IDX 80 55 43 56 44 57 59 59 81 60 46 61 29 62 30 63 39 64 31 65
REMARK SMILES IDX 32 66 38 67 40 68 33 69 34 70 35 71 36 72 37 73 63 74 64 75
REMARK SMILES IDX 73 76 65 77 66 78 72 79 74 80 67 81 68 82 69 83 70 84 71 85
REMARK SMILES IDX 47 86 48 87 57 88 49 89 50 90 56 91 58 92 51 93 52 94 53 95
REMARK SMILES IDX 54 96 55 97
REMARK H PARENT 10 9 79 47 45 58
REMARK Flexibility Score: inf
ROOT
ATOM      1  C   UNL A   1      32.492  27.783  26.340  1.00  0.00     0.274 C 
ENDROOT
BRANCH   1   2
ATOM      2  O   UNL A   1      31.460  26.901  26.831  1.00  0.00    -0.460 OA
BRANCH   2   3
ATOM      3  C   UNL A   1      31.119  25.848  26.029  1.00  0.00     0.333 C 
ATOM      4  O   UNL A   1      29.998  25.355  25.977  1.00  0.00    -0.249 OA
BRANCH   3   5
ATOM      5  C   UNL A   1      32.344  25.286  25.249  1.00  0.00     0.223 C 
BRANCH   5   6
ATOM      6  N   UNL A   1      32.098  24.999  23.838  1.00  0.00    -0.339 N 
ATOM      7  C   UNL A   1      31.747  25.874  22.853  1.00  0.00     0.226 C 
ATOM      8  O   UNL A   1      31.425  25.431  21.749  1.00  0.00    -0.275 OA
ATOM      9  H   UNL A   1      32.196  24.058  23.566  1.00  0.00     0.164 HD
BRANCH   7  10
ATOM     10  C   UNL A   1      31.768  27.367  23.116  1.00  0.00     0.157 C 
BRANCH  10  11
ATOM     11  C   UNL A   1      30.408  27.955  22.954  1.00  0.00     0.062 A 
ATOM     12  C   UNL A   1      29.034  29.580  22.317  1.00  0.00     0.150 A 
ATOM     13  N   UNL A   1      30.290  29.194  22.341  1.00  0.00    -0.234 NA
ATOM     14  S   UNL A   1      27.923  28.478  23.018  1.00  0.00    -0.116 S 
ATOM     15  C   UNL A   1      29.213  27.412  23.380  1.00  0.00     0.092 A 
BRANCH  12  16
ATOM     16  S   UNL A   1      28.644  31.165  21.682  1.00  0.00    -0.096 SA
BRANCH  16  17
ATOM     17  C   UNL A   1      28.344  32.174  23.156  1.00  0.00     0.074 C 
ATOM     18  C   UNL A   1      29.123  33.478  23.127  1.00  0.00     0.016 C 
ENDBRANCH  16  17
ENDBRANCH  12  16
ENDBRANCH  10  11
ENDBRANCH   7  10
ENDBRANCH   5   6
BRANCH   5  19
ATOM     19  C   UNL A   1      32.955  24.075  25.863  1.00  0.00     0.012 C 
ATOM     20  C   UNL A   1      34.245  23.740  26.000  1.00  0.00     0.064 C 
ATOM     21  C   UNL A   1      32.214  23.020  26.608  1.00  0.00     0.156 C 
ATOM     22  C   UNL A   1      35.457  24.452  25.515  1.00  0.00     0.069 C 
ATOM     23  N   UNL A   1      34.416  22.576  26.705  1.00  0.00    -0.160 NA
ATOM     24  N   UNL A   1      33.300  22.120  27.073  1.00  0.00    -0.181 NA
ATOM     25  C   UNL A   1      31.210  22.207  25.810  1.00  0.00     0.040 C 
ENDBRANCH   5  19
ENDBRANCH   3   5
ENDBRANCH   2   3
ENDBRANCH   1   2
BRANCH   1  26
ATOM     26  C   UNL A   1      32.741  28.944  27.295  1.00  0.00     0.275 C 
BRANCH  26  27
ATOM     27  O   UNL A   1      34.121  28.936  27.684  1.00  0.00    -0.458 OA
BRANCH  27  28
ATOM     28  C   UNL A   1      34.625  30.109  28.125  1.00  0.00     0.338 C 
ATOM     29  O   UNL A   1      33.997  31.128  28.373  1.00  0.00    -0.246 OA
BRANCH  28  30
ATOM     30  C   UNL A   1      36.082  29.984  28.336  1.00  0.00     0.060 A 
ATOM     31  C   UNL A   1      36.971  30.138  27.272  1.00  0.00     0.016 A 
ATOM     32  C   UNL A   1      36.558  29.567  29.579  1.00  0.00     0.016 A 
ATOM     33  C   UNL A   1      38.302  29.741  27.412  1.00  0.00     0.010 A 
ATOM     34  C   UNL A   1      37.918  29.290  29.746  1.00  0.00     0.010 A 
ATOM     35  C   UNL A   1      38.804  29.328  28.652  1.00  0.00    -0.014 A 
BRANCH  35  36
ATOM     36  C   UNL A   1      40.224  28.899  28.826  1.00  0.00     0.031 A 
ATOM     37  C   UNL A   1      41.259  29.901  29.274  1.00  0.00     0.074 A 
ATOM     38  C   UNL A   1      40.618  27.635  28.569  1.00  0.00     0.049 A 
ATOM     39  N   UNL A   1      42.557  29.876  29.120  1.00  0.00    -0.248 NA
ATOM     40  C   UNL A   1      40.761  31.105  29.961  1.00  0.00     0.031 C 
ATOM     41  C   UNL A   1      39.740  26.519  28.211  1.00  0.00     0.029 A 
ATOM     42  N   UNL A   1      41.875  27.078  28.557  1.00  0.00    -0.354 N 
ATOM     43  C   UNL A   1      43.022  31.094  29.604  1.00  0.00     0.074 A 
ATOM     44  C   UNL A   1      41.869  31.825  30.087  1.00  0.00     0.031 C 
ATOM     45  C   UNL A   1      40.476  25.409  28.053  1.00  0.00     0.029 A 
ATOM     46  C   UNL A   1      41.886  25.761  28.164  1.00  0.00     0.049 A 
ATOM     47  H   UNL A   1      42.688  27.573  28.808  1.00  0.00     0.167 HD
ATOM     48  C   UNL A   1      44.294  31.560  29.623  1.00  0.00     0.037 A 
ATOM     49  C   UNL A   1      42.905  24.940  27.841  1.00  0.00     0.037 A 
ATOM     50  C   UNL A   1      45.440  30.784  29.225  1.00  0.00     0.049 A 
ATOM     51  C   UNL A   1      44.307  25.471  27.850  1.00  0.00     0.074 A 
ATOM     52  C   UNL A   1      46.771  31.162  29.197  1.00  0.00     0.029 A 
ATOM     53  N   UNL A   1      45.393  29.458  28.822  1.00  0.00    -0.354 N 
ATOM     54  N   UNL A   1      44.725  26.676  28.156  1.00  0.00    -0.248 NA
ATOM     55  C   UNL A   1      45.371  24.549  27.432  1.00  0.00     0.031 C 
ATOM     56  C   UNL A   1      47.528  30.067  28.763  1.00  0.00     0.029 A 
ATOM     57  C   UNL A   1      46.671  29.001  28.548  1.00  0.00     0.049 A 
ATOM     58  H   UNL A   1      44.572  28.920  28.742  1.00  0.00     0.167 HD
ATOM     59  C   UNL A   1      46.101  26.658  27.963  1.00  0.00     0.074 A 
ATOM     60  C   UNL A   1      46.446  25.319  27.530  1.00  0.00     0.031 C 
ATOM     61  C   UNL A   1      46.994  27.663  28.123  1.00  0.00     0.037 A 
BRANCH  48  62
ATOM     62  C   UNL A   1      44.519  32.986  30.040  1.00  0.00     0.058 A 
ATOM     63  C   UNL A   1      44.837  33.341  31.358  1.00  0.00     0.135 A 
ATOM     64  C   UNL A   1      44.471  34.011  29.079  1.00  0.00     0.135 A 
ATOM     65  F   UNL A   1      44.879  32.405  32.319  1.00  0.00    -0.206 F 
ATOM     66  C   UNL A   1      45.091  34.664  31.713  1.00  0.00     0.059 A 
ATOM     67  C   UNL A   1      44.741  35.336  29.406  1.00  0.00     0.059 A 
ATOM     68  F   UNL A   1      44.170  33.725  27.802  1.00  0.00    -0.206 F 
ATOM     69  C   UNL A   1      45.040  35.655  30.729  1.00  0.00     0.060 A 
BRANCH  69  70
ATOM     70  S   UNL A   1      45.393  37.365  31.192  1.00  0.00     0.124 S 
ATOM     71  O   UNL A   1      44.559  38.100  30.246  1.00  0.00    -0.237 OA
ATOM     72  O   UNL A   1      44.963  37.412  32.586  1.00  0.00    -0.237 OA
ATOM     73  O   UNL A   1      46.833  37.482  30.981  1.00  0.00    -0.744 OA
ENDBRANCH  69  70
ENDBRANCH  48  62
BRANCH  49  74
ATOM     74  C   UNL A   1      42.606  23.555  27.395  1.00  0.00     0.058 A 
ATOM     75  C   UNL A   1      42.547  23.231  26.033  1.00  0.00     0.135 A 
ATOM     76  C   UNL A   1      42.456  22.512  28.325  1.00  0.00     0.135 A 
ATOM     77  F   UNL A   1      42.670  24.196  25.109  1.00  0.00    -0.206 F 
ATOM     78  C   UNL A   1      42.371  21.919  25.606  1.00  0.00     0.059 A 
ATOM     79  C   UNL A   1      42.305  21.191  27.922  1.00  0.00     0.059 A 
ATOM     80  F   UNL A   1      42.516  22.772  29.641  1.00  0.00    -0.206 F 
ATOM     81  C   UNL A   1      42.264  20.903  26.559  1.00  0.00     0.060 A 
BRANCH  81  82
ATOM     82  S   UNL A   1      42.158  19.186  26.007  1.00  0.00     0.124 S 
ATOM     83  O   UNL A   1      40.733  19.058  25.725  1.00  0.00    -0.237 OA
ATOM     84  O   UNL A   1      43.042  19.173  24.847  1.00  0.00    -0.237 OA
ATOM     85  O   UNL A   1      42.646  18.437  27.162  1.00  0.00    -0.744 OA
ENDBRANCH  81  82
ENDBRANCH  49  74
BRANCH  61  86
ATOM     86  C   UNL A   1      48.435  27.350  27.856  1.00  0.00     0.058 A 
ATOM     87  C   UNL A   1      49.269  26.836  28.859  1.00  0.00     0.135 A 
ATOM     88  C   UNL A   1      48.969  27.512  26.568  1.00  0.00     0.135 A 
ATOM     89  F   UNL A   1      48.804  26.672  30.107  1.00  0.00    -0.206 F 
ATOM     90  C   UNL A   1      50.592  26.497  28.595  1.00  0.00     0.059 A 
ATOM     91  C   UNL A   1      50.285  27.167  26.280  1.00  0.00     0.059 A 
ATOM     92  F   UNL A   1      48.206  27.996  25.576  1.00  0.00    -0.206 F 
ATOM     93  C   UNL A   1      51.091  26.666  27.301  1.00  0.00     0.060 A 
BRANCH  93  94
ATOM     94  S   UNL A   1      52.796  26.183  26.958  1.00  0.00     0.124 S 
ATOM     95  O   UNL A   1      52.620  24.828  26.443  1.00  0.00    -0.237 OA
ATOM     96  O   UNL A   1      53.217  27.183  25.981  1.00  0.00    -0.237 OA
ATOM     97  O   UNL A   1      53.444  26.279  28.262  1.00  0.00    -0.744 OA
ENDBRANCH  93  94
ENDBRANCH  61  86
ENDBRANCH  35  36
ENDBRANCH  28  30
ENDBRANCH  27  28
ENDBRANCH  26  27
ENDBRANCH   1  26
TORSDOF 20
ENDMDL
MODEL 2
REMARK VINA RESULT:     -10.7      4.624      7.319
REMARK SMILES CCSc1nc(CC(=O)N[C@@H](C(=O)OCCOC(=O)c2ccc(-c3c4nc(c(-c5c(F)cc(S(=O)(=O)[O-])cc5F)c5ccc([nH]5)c(-c5c(F)cc(S(=O)(=O)[O-])cc5F)c5nc(c(-c6c(F)cc(S(=O)(=O)[O-])cc6F)c6ccc3[nH]6)C=C5)C=C4)cc2)C2=C(C)N=N[C@@H]2C)cs1
REMARK SMILES IDX 15 1 14 2 12 3 13 4 11 5 10 6 8 7 9 8 7 10 6 11 4 12 5 13
REMARK SMILES IDX 94 14 93 15 3 16 2 17 1 18 86 19 87 20 91 21 88 22 89 23
REMARK SMILES IDX 90 24 92 25 16 26 17 27 18 28 19 29 20 30 21 31 85 32 22 33
REMARK SMILES IDX 84 34 23 35 24 36 25 37 78 38 26 39 83 40 77 41 79 42 27 43
REMARK SMILES IDX 82 44 76 45 75 46 28 48 62 49 41 50 61 51 42 52 45 53 60 54
REMARK SMILES IDX 80 55 43 56 44 57 59 59 81 60 46 61 29 62 30 63 39 64 31 65
REMARK SMILES IDX 32 66 38 67 40 68 33 69 34 70 35 71 36 72 37 73 63 74 64 75
REMARK SMILES IDX 73 76 65 77 66 78 72 79 74 80 67 81 68 82 69 83 70 84 71 85
REMARK SMILES IDX 47 86 48 87 57 88 49 89 50 90 56 91 58 92 51 93 52 94 53 95
REMARK SMILES IDX 54 96 55 97
REMARK H PARENT 10 9 79 47 45 58
REMARK Flexibility Score: inf
ROOT
ATOM      1  C   UNL A   1      34.374  33.827  29.479  1.00  0.00     0.274 C 
ENDROOT
BRANCH   1   2
ATOM      2  O   UNL A   1      35.501  33.169  30.096  1.00  0.00    -0.460 OA
BRANCH   2   3
ATOM      3  C   UNL A   1      35.304  32.658  31.349  1.00  0.00     0.333 C 
ATOM      4  O   UNL A   1      34.219  32.630  31.920  1.00  0.00    -0.249 OA
BRANCH   3   5
ATOM      5  C   UNL A   1      36.635  32.192  32.006  1.00  0.00     0.223 C 
BRANCH   5   6
ATOM      6  N   UNL A   1      36.521  31.013  32.862  1.00  0.00    -0.339 N 
ATOM      7  C   UNL A   1      37.454  30.043  33.082  1.00  0.00     0.226 C 
ATOM      8  O   UNL A   1      37.128  29.036  33.714  1.00  0.00    -0.275 OA
ATOM      9  H   UNL A   1      35.666  30.907  33.338  1.00  0.00     0.164 HD
BRANCH   7  10
ATOM     10  C   UNL A   1      38.869  30.214  32.565  1.00  0.00     0.157 C 
BRANCH  10  11
ATOM     11  C   UNL A   1      39.842  30.293  33.690  1.00  0.00     0.062 A 
ATOM     12  C   UNL A   1      41.656  29.602  34.772  1.00  0.00     0.150 A 
ATOM     13  N   UNL A   1      40.925  29.426  33.693  1.00  0.00    -0.234 NA
ATOM     14  S   UNL A   1      41.091  30.821  35.838  1.00  0.00    -0.116 S 
ATOM     15  C   UNL A   1      39.779  31.133  34.785  1.00  0.00     0.092 A 
BRANCH  12  16
ATOM     16  S   UNL A   1      43.026  28.548  35.051  1.00  0.00    -0.096 SA
BRANCH  16  17
ATOM     17  C   UNL A   1      43.504  27.988  33.397  1.00  0.00     0.074 C 
ATOM     18  C   UNL A   1      44.273  29.050  32.631  1.00  0.00     0.016 C 
ENDBRANCH  16  17
ENDBRANCH  12  16
ENDBRANCH  10  11
ENDBRANCH   7  10
ENDBRANCH   5   6
BRANCH   5  19
ATOM     19  C   UNL A   1      37.338  33.253  32.779  1.00  0.00     0.012 C 
ATOM     20  C   UNL A   1      37.003  33.834  33.939  1.00  0.00     0.064 C 
ATOM     21  C   UNL A   1      38.690  33.794  32.466  1.00  0.00     0.156 C 
ATOM     22  C   UNL A   1      35.786  33.639  34.770  1.00  0.00     0.069 C 
ATOM     23  N   UNL A   1      37.958  34.713  34.383  1.00  0.00    -0.160 NA
ATOM     24  N   UNL A   1      38.935  34.736  33.588  1.00  0.00    -0.181 NA
ATOM     25  C   UNL A   1      38.831  34.545  31.155  1.00  0.00     0.040 C 
ENDBRANCH   5  19
ENDBRANCH   3   5
ENDBRANCH   2   3
ENDBRANCH   1   2
BRANCH   1  26
ATOM     26  C   UNL A   1      33.875  33.061  28.259  1.00  0.00     0.275 C 
BRANCH  26  27
ATOM     27  O   UNL A   1      34.935  32.228  27.769  1.00  0.00    -0.458 OA
BRANCH  27  28
ATOM     28  C   UNL A   1      34.730  30.896  27.842  1.00  0.00     0.338 C 
ATOM     29  O   UNL A   1      33.663  30.312  27.720  1.00  0.00    -0.246 OA
BRANCH  28  30
ATOM     30  C   UNL A   1      36.018  30.198  28.036  1.00  0.00     0.060 A 
ATOM     31  C   UNL A   1      36.346  29.640  29.271  1.00  0.00     0.016 A 
ATOM     32  C   UNL A   1      36.969  30.226  27.016  1.00  0.00     0.016 A 
ATOM     33  C   UNL A   1      37.659  29.243  29.530  1.00  0.00     0.010 A 
ATOM     34  C   UNL A   1      38.248  29.710  27.244  1.00  0.00     0.010 A 
ATOM     35  C   UNL A   1      38.628  29.253  28.520  1.00  0.00    -0.014 A 
BRANCH  35  36
ATOM     36  C   UNL A   1      40.039  28.832  28.773  1.00  0.00     0.031 A 
ATOM     37  C   UNL A   1      41.039  29.838  29.286  1.00  0.00     0.074 A 
ATOM     38  C   UNL A   1      40.455  27.572  28.531  1.00  0.00     0.049 A 
ATOM     39  N   UNL A   1      42.344  29.822  29.208  1.00  0.00    -0.248 NA
ATOM     40  C   UNL A   1      40.493  31.034  29.952  1.00  0.00     0.031 C 
ATOM     41  C   UNL A   1      39.608  26.453  28.115  1.00  0.00     0.029 A 
ATOM     42  N   UNL A   1      41.715  27.024  28.588  1.00  0.00    -0.354 N 
ATOM     43  C   UNL A   1      42.772  31.040  29.727  1.00  0.00     0.074 A 
ATOM     44  C   UNL A   1      41.587  31.760  30.147  1.00  0.00     0.031 C 
ATOM     45  C   UNL A   1      40.359  25.350  27.992  1.00  0.00     0.029 A 
ATOM     46  C   UNL A   1      41.759  25.710  28.187  1.00  0.00     0.049 A 
ATOM     47  H   UNL A   1      42.509  27.523  28.889  1.00  0.00     0.167 HD
ATOM     48  C   UNL A   1      44.037  31.514  29.823  1.00  0.00     0.037 A 
ATOM     49  C   UNL A   1      42.800  24.898  27.918  1.00  0.00     0.037 A 
ATOM     50  C   UNL A   1      45.210  30.749  29.487  1.00  0.00     0.049 A 
ATOM     51  C   UNL A   1      44.195  25.439  28.012  1.00  0.00     0.074 A 
ATOM     52  C   UNL A   1      46.538  31.135  29.539  1.00  0.00     0.029 A 
ATOM     53  N   UNL A   1      45.195  29.425  29.072  1.00  0.00    -0.354 N 
ATOM     54  N   UNL A   1      44.587  26.644  28.350  1.00  0.00    -0.248 NA
ATOM     55  C   UNL A   1      45.288  24.527  27.650  1.00  0.00     0.031 C 
ATOM     56  C   UNL A   1      47.326  30.049  29.142  1.00  0.00     0.029 A 
ATOM     57  C   UNL A   1      46.490  28.978  28.870  1.00  0.00     0.049 A 
ATOM     58  H   UNL A   1      44.384  28.883  28.941  1.00  0.00     0.167 HD
ATOM     59  C   UNL A   1      45.972  26.636  28.237  1.00  0.00     0.074 A 
ATOM     60  C   UNL A   1      46.351  25.303  27.815  1.00  0.00     0.031 C 
ATOM     61  C   UNL A   1      46.847  27.646  28.456  1.00  0.00     0.037 A 
BRANCH  48  62
ATOM     62  C   UNL A   1      44.227  32.939  30.262  1.00  0.00     0.058 A 
ATOM     63  C   UNL A   1      44.435  33.289  31.603  1.00  0.00     0.135 A 
ATOM     64  C   UNL A   1      44.260  33.967  29.304  1.00  0.00     0.135 A 
ATOM     65  F   UNL A   1      44.397  32.350  32.561  1.00  0.00    -0.206 F 
ATOM     66  C   UNL A   1      44.659  34.610  31.982  1.00  0.00     0.059 A 
ATOM     67  C   UNL A   1      44.502  35.291  29.657  1.00  0.00     0.059 A 
ATOM     68  F   UNL A   1      44.065  33.685  28.006  1.00  0.00    -0.206 F 
ATOM     69  C   UNL A   1      44.691  35.605  31.001  1.00  0.00     0.060 A 
BRANCH  69  70
ATOM     70  S   UNL A   1      45.006  37.313  31.497  1.00  0.00     0.124 S 
ATOM     71  O   UNL A   1      43.795  37.980  31.028  1.00  0.00    -0.237 OA
ATOM     72  O   UNL A   1      45.147  37.202  32.946  1.00  0.00    -0.237 OA
ATOM     73  O   UNL A   1      46.229  37.655  30.778  1.00  0.00    -0.744 OA
ENDBRANCH  69  70
ENDBRANCH  48  62
BRANCH  49  74
ATOM     74  C   UNL A   1      42.537  23.514  27.446  1.00  0.00     0.058 A 
ATOM     75  C   UNL A   1      42.535  23.205  26.079  1.00  0.00     0.135 A 
ATOM     76  C   UNL A   1      42.365  22.460  28.359  1.00  0.00     0.135 A 
ATOM     77  F   UNL A   1      42.679  24.182  25.171  1.00  0.00    -0.206 F 
ATOM     78  C   UNL A   1      42.393  21.896  25.632  1.00  0.00     0.059 A 
ATOM     79  C   UNL A   1      42.248  21.141  27.936  1.00  0.00     0.059 A 
ATOM     80  F   UNL A   1      42.372  22.705  29.678  1.00  0.00    -0.206 F 
ATOM     81  C   UNL A   1      42.263  20.868  26.569  1.00  0.00     0.060 A 
BRANCH  81  82
ATOM     82  S   UNL A   1      42.201  19.156  25.995  1.00  0.00     0.124 S 
ATOM     83  O   UNL A   1      42.700  18.439  27.162  1.00  0.00    -0.237 OA
ATOM     84  O   UNL A   1      40.785  18.977  25.692  1.00  0.00    -0.237 OA
ATOM     85  O   UNL A   1      43.083  19.165  24.831  1.00  0.00    -0.744 OA
ENDBRANCH  81  82
ENDBRANCH  49  74
BRANCH  61  86
ATOM     86  C   UNL A   1      48.303  27.345  28.270  1.00  0.00     0.058 A 
ATOM     87  C   UNL A   1      48.921  27.474  27.018  1.00  0.00     0.135 A 
ATOM     88  C   UNL A   1      49.098  26.981  29.367  1.00  0.00     0.135 A 
ATOM     89  F   UNL A   1      48.199  27.811  25.939  1.00  0.00    -0.206 F 
ATOM     90  C   UNL A   1      50.284  27.244  26.858  1.00  0.00     0.059 A 
ATOM     91  C   UNL A   1      50.464  26.761  29.233  1.00  0.00     0.059 A 
ATOM     92  F   UNL A   1      48.550  26.851  30.585  1.00  0.00    -0.206 F 
ATOM     93  C   UNL A   1      51.048  26.889  27.972  1.00  0.00     0.060 A 
BRANCH  93  94
ATOM     94  S   UNL A   1      52.822  26.635  27.764  1.00  0.00     0.124 S 
ATOM     95  O   UNL A   1      52.851  25.476  26.876  1.00  0.00    -0.237 OA
ATOM     96  O   UNL A   1      53.255  27.897  27.172  1.00  0.00    -0.237 OA
ATOM     97  O   UNL A   1      53.291  26.395  29.125  1.00  0.00    -0.744 OA
ENDBRANCH  93  94
ENDBRANCH  61  86
ENDBRANCH  35  36
ENDBRANCH  28  30
ENDBRANCH  27  28
ENDBRANCH  26  27
ENDBRANCH   1  26
TORSDOF 20
ENDMDL
MODEL 3
REMARK VINA RESULT:     -10.6      4.537     10.000
REMARK SMILES CCSc1nc(CC(=O)N[C@@H](C(=O)OCCOC(=O)c2ccc(-c3c4nc(c(-c5c(F)cc(S(=O)(=O)[O-])cc5F)c5ccc([nH]5)c(-c5c(F)cc(S(=O)(=O)[O-])cc5F)c5nc(c(-c6c(F)cc(S(=O)(=O)[O-])cc6F)c6ccc3[nH]6)C=C5)C=C4)cc2)C2=C(C)N=N[C@@H]2C)cs1
REMARK SMILES IDX 15 1 14 2 12 3 13 4 11 5 10 6 8 7 9 8 7 10 6 11 4 12 5 13
REMARK SMILES IDX 94 14 93 15 3 16 2 17 1 18 86 19 87 20 91 21 88 22 89 23
REMARK SMILES IDX 90 24 92 25 16 26 17 27 18 28 19 29 20 30 21 31 85 32 22 33
REMARK SMILES IDX 84 34 23 35 24 36 25 37 78 38 26 39 83 40 77 41 79 42 27 43
REMARK SMILES IDX 82 44 76 45 75 46 28 48 62 49 41 50 61 51 42 52 45 53 60 54
REMARK SMILES IDX 80 55 43 56 44 57 59 59 81 60 46 61 29 62 30 63 39 64 31 65
REMARK SMILES IDX 32 66 38 67 40 68 33 69 34 70 35 71 36 72 37 73 63 74 64 75
REMARK SMILES IDX 73 76 65 77 66 78 72 79 74 80 67 81 68 82 69 83 70 84 71 85
REMARK SMILES IDX 47 86 48 87 57 88 49 89 50 90 56 91 58 92 51 93 52 94 53 95
REMARK SMILES IDX 54 96 55 97
REMARK H PARENT 10 9 79 47 45 58
REMARK Flexibility Score: inf
ROOT
ATOM      1  C   UNL A   1      36.068  22.625  26.457  1.00  0.00     0.274 C 
ENDROOT
BRANCH   1   2
ATOM      2  O   UNL A   1      34.733  22.231  26.079  1.00  0.00    -0.460 OA
BRANCH   2   3
ATOM      3  C   UNL A   1      34.626  21.257  25.126  1.00  0.00     0.333 C 
ATOM      4  O   UNL A   1      35.565  20.580  24.723  1.00  0.00    -0.249 OA
BRANCH   3   5
ATOM      5  C   UNL A   1      33.185  21.162  24.545  1.00  0.00     0.223 C 
BRANCH   5   6
ATOM      6  N   UNL A   1      32.117  21.480  25.490  1.00  0.00    -0.339 N 
ATOM      7  C   UNL A   1      31.194  22.481  25.407  1.00  0.00     0.226 C 
ATOM      8  O   UNL A   1      30.464  22.700  26.376  1.00  0.00    -0.275 OA
ATOM      9  H   UNL A   1      32.057  20.901  26.284  1.00  0.00     0.164 HD
BRANCH   7  10
ATOM     10  C   UNL A   1      31.068  23.299  24.137  1.00  0.00     0.157 C 
BRANCH  10  11
ATOM     11  C   UNL A   1      31.841  24.568  24.242  1.00  0.00     0.062 A 
ATOM     12  C   UNL A   1      31.973  26.777  24.447  1.00  0.00     0.150 A 
ATOM     13  N   UNL A   1      31.145  25.756  24.415  1.00  0.00    -0.234 NA
ATOM     14  S   UNL A   1      33.630  26.371  24.281  1.00  0.00    -0.116 S 
ATOM     15  C   UNL A   1      33.211  24.716  24.156  1.00  0.00     0.092 A 
BRANCH  12  16
ATOM     16  S   UNL A   1      31.319  28.398  24.555  1.00  0.00    -0.096 SA
BRANCH  16  17
ATOM     17  C   UNL A   1      31.642  28.898  26.265  1.00  0.00     0.074 C 
ATOM     18  C   UNL A   1      31.953  27.712  27.160  1.00  0.00     0.016 C 
ENDBRANCH  16  17
ENDBRANCH  12  16
ENDBRANCH  10  11
ENDBRANCH   7  10
ENDBRANCH   5   6
BRANCH   5  19
ATOM     19  C   UNL A   1      32.865  19.850  23.917  1.00  0.00     0.012 C 
ATOM     20  C   UNL A   1      32.308  19.581  22.729  1.00  0.00     0.064 C 
ATOM     21  C   UNL A   1      33.256  18.519  24.457  1.00  0.00     0.156 C 
ATOM     22  C   UNL A   1      31.778  20.520  21.705  1.00  0.00     0.069 C 
ATOM     23  N   UNL A   1      32.257  18.236  22.463  1.00  0.00    -0.160 NA
ATOM     24  N   UNL A   1      32.776  17.584  23.409  1.00  0.00    -0.181 NA
ATOM     25  C   UNL A   1      32.642  18.122  25.788  1.00  0.00     0.040 C 
ENDBRANCH   5  19
ENDBRANCH   3   5
ENDBRANCH   2   3
ENDBRANCH   1   2
BRANCH   1  26
ATOM     26  C   UNL A   1      36.472  23.942  25.805  1.00  0.00     0.275 C 
BRANCH  26  27
ATOM     27  O   UNL A   1      37.742  23.770  25.161  1.00  0.00    -0.458 OA
BRANCH  27  28
ATOM     28  C   UNL A   1      38.729  23.241  25.916  1.00  0.00     0.338 C 
ATOM     29  O   UNL A   1      39.152  22.096  25.870  1.00  0.00    -0.246 OA
BRANCH  28  30
ATOM     30  C   UNL A   1      39.297  24.279  26.801  1.00  0.00     0.060 A 
ATOM     31  C   UNL A   1      38.972  24.315  28.157  1.00  0.00     0.016 A 
ATOM     32  C   UNL A   1      40.049  25.314  26.244  1.00  0.00     0.016 A 
ATOM     33  C   UNL A   1      39.273  25.446  28.917  1.00  0.00     0.010 A 
ATOM     34  C   UNL A   1      40.457  26.386  27.044  1.00  0.00     0.010 A 
ATOM     35  C   UNL A   1      40.035  26.492  28.383  1.00  0.00    -0.014 A 
BRANCH  35  36
ATOM     36  C   UNL A   1      40.371  27.712  29.177  1.00  0.00     0.031 A 
ATOM     37  C   UNL A   1      41.638  27.746  29.994  1.00  0.00     0.074 A 
ATOM     38  C   UNL A   1      39.554  28.784  29.205  1.00  0.00     0.049 A 
ATOM     39  N   UNL A   1      41.937  28.490  31.027  1.00  0.00    -0.248 NA
ATOM     40  C   UNL A   1      42.699  26.797  29.612  1.00  0.00     0.031 C 
ATOM     41  C   UNL A   1      38.335  28.956  28.412  1.00  0.00     0.029 A 
ATOM     42  N   UNL A   1      39.624  29.939  29.950  1.00  0.00    -0.354 N 
ATOM     43  C   UNL A   1      43.174  28.039  31.477  1.00  0.00     0.074 A 
ATOM     44  C   UNL A   1      43.586  26.976  30.583  1.00  0.00     0.031 C 
ATOM     45  C   UNL A   1      37.796  30.153  28.682  1.00  0.00     0.029 A 
ATOM     46  C   UNL A   1      38.551  30.776  29.763  1.00  0.00     0.049 A 
ATOM     47  H   UNL A   1      40.371  30.145  30.557  1.00  0.00     0.167 HD
ATOM     48  C   UNL A   1      43.885  28.465  32.548  1.00  0.00     0.037 A 
ATOM     49  C   UNL A   1      38.157  31.877  30.433  1.00  0.00     0.037 A 
ATOM     50  C   UNL A   1      43.505  29.584  33.371  1.00  0.00     0.049 A 
ATOM     51  C   UNL A   1      38.943  32.330  31.627  1.00  0.00     0.074 A 
ATOM     52  C   UNL A   1      44.149  30.095  34.485  1.00  0.00     0.029 A 
ATOM     53  N   UNL A   1      42.400  30.390  33.143  1.00  0.00    -0.354 N 
ATOM     54  N   UNL A   1      40.026  31.802  32.144  1.00  0.00    -0.248 NA
ATOM     55  C   UNL A   1      38.434  33.500  32.353  1.00  0.00     0.031 C 
ATOM     56  C   UNL A   1      43.424  31.202  34.940  1.00  0.00     0.029 A 
ATOM     57  C   UNL A   1      42.345  31.397  34.092  1.00  0.00     0.049 A 
ATOM     58  H   UNL A   1      41.750  30.266  32.415  1.00  0.00     0.167 HD
ATOM     59  C   UNL A   1      40.326  32.573  33.260  1.00  0.00     0.074 A 
ATOM     60  C   UNL A   1      39.320  33.614  33.334  1.00  0.00     0.031 C 
ATOM     61  C   UNL A   1      41.340  32.426  34.146  1.00  0.00     0.037 A 
BRANCH  48  62
ATOM     62  C   UNL A   1      45.119  27.696  32.929  1.00  0.00     0.058 A 
ATOM     63  C   UNL A   1      45.070  26.552  33.737  1.00  0.00     0.135 A 
ATOM     64  C   UNL A   1      46.370  28.086  32.421  1.00  0.00     0.135 A 
ATOM     65  F   UNL A   1      43.904  26.144  34.262  1.00  0.00    -0.206 F 
ATOM     66  C   UNL A   1      46.220  25.825  34.037  1.00  0.00     0.059 A 
ATOM     67  C   UNL A   1      47.529  27.364  32.690  1.00  0.00     0.059 A 
ATOM     68  F   UNL A   1      46.472  29.176  31.643  1.00  0.00    -0.206 F 
ATOM     69  C   UNL A   1      47.446  26.240  33.509  1.00  0.00     0.060 A 
BRANCH  69  70
ATOM     70  S   UNL A   1      48.929  25.280  33.882  1.00  0.00     0.124 S 
ATOM     71  O   UNL A   1      48.353  24.069  34.459  1.00  0.00    -0.237 OA
ATOM     72  O   UNL A   1      49.545  25.124  32.568  1.00  0.00    -0.237 OA
ATOM     73  O   UNL A   1      49.660  26.133  34.814  1.00  0.00    -0.744 OA
ENDBRANCH  69  70
ENDBRANCH  48  62
BRANCH  49  74
ATOM     74  C   UNL A   1      36.902  32.562  30.027  1.00  0.00     0.058 A 
ATOM     75  C   UNL A   1      35.704  32.343  30.719  1.00  0.00     0.135 A 
ATOM     76  C   UNL A   1      36.900  33.513  28.993  1.00  0.00     0.135 A 
ATOM     77  F   UNL A   1      35.655  31.433  31.704  1.00  0.00    -0.206 F 
ATOM     78  C   UNL A   1      34.549  33.056  30.414  1.00  0.00     0.059 A 
ATOM     79  C   UNL A   1      35.765  34.256  28.687  1.00  0.00     0.059 A 
ATOM     80  F   UNL A   1      38.026  33.766  28.309  1.00  0.00    -0.206 F 
ATOM     81  C   UNL A   1      34.593  34.020  29.405  1.00  0.00     0.060 A 
BRANCH  81  82
ATOM     82  S   UNL A   1      33.130  35.032  29.089  1.00  0.00     0.124 S 
ATOM     83  O   UNL A   1      33.731  36.295  28.677  1.00  0.00    -0.237 OA
ATOM     84  O   UNL A   1      32.447  34.279  28.042  1.00  0.00    -0.237 OA
ATOM     85  O   UNL A   1      32.451  35.044  30.382  1.00  0.00    -0.744 OA
ENDBRANCH  81  82
ENDBRANCH  49  74
BRANCH  61  86
ATOM     86  C   UNL A   1      41.430  33.427  35.258  1.00  0.00     0.058 A 
ATOM     87  C   UNL A   1      42.136  34.628  35.103  1.00  0.00     0.135 A 
ATOM     88  C   UNL A   1      40.754  33.207  36.468  1.00  0.00     0.135 A 
ATOM     89  F   UNL A   1      42.805  34.878  33.967  1.00  0.00    -0.206 F 
ATOM     90  C   UNL A   1      42.175  35.579  36.118  1.00  0.00     0.059 A 
ATOM     91  C   UNL A   1      40.768  34.149  37.489  1.00  0.00     0.059 A 
ATOM     92  F   UNL A   1      40.061  32.073  36.657  1.00  0.00    -0.206 F 
ATOM     93  C   UNL A   1      41.487  35.331  37.308  1.00  0.00     0.060 A 
BRANCH  93  94
ATOM     94  S   UNL A   1      41.507  36.588  38.602  1.00  0.00     0.124 S 
ATOM     95  O   UNL A   1      41.641  35.770  39.804  1.00  0.00    -0.237 OA
ATOM     96  O   UNL A   1      42.675  37.389  38.247  1.00  0.00    -0.237 OA
ATOM     97  O   UNL A   1      40.222  37.261  38.440  1.00  0.00    -0.744 OA
ENDBRANCH  93  94
ENDBRANCH  61  86
ENDBRANCH  35  36
ENDBRANCH  28  30
ENDBRANCH  27  28
ENDBRANCH  26  27
ENDBRANCH   1  26
TORSDOF 20
ENDMDL
