MODEL 1
REMARK VINA RESULT:     -12.5      0.000      0.000
REMARK SMILES C[C@H]1[C@H](C)CC[C@@]2(C(=O)OCCOC(=O)c3ccc(-c4c5nc(c(-c6c(F)cc(S(=O)(=O)[O-])cc6F)c6ccc([nH]6)c(-c6c(F)cc(S(=O)(=O)[O-])cc6F)c6nc(c(-c7c(F)cc(S(=O)(=O)[O-])cc7F)c7ccc4[nH]7)C=C6)C=C5)cc3)CC[C@@]3(C)C(=CC[C@@H]4[C@@]5(C)CC[C@H](O)C(C)(C)[C@@H]5CC[C@]43C)[C@H]12
REMARK SMILES IDX 12 1 11 2 10 3 8 4 9 5 7 6 1 7 2 8 3 9 104 10 4 11 5 12
REMARK SMILES IDX 86 13 6 14 82 15 84 16 87 17 83 18 85 19 102 20 88 21 89 22
REMARK SMILES IDX 101 23 103 24 90 25 100 26 91 27 92 28 99 29 93 30 96 31
REMARK SMILES IDX 94 32 97 33 98 34 95 35 13 37 14 38 15 39 16 40 17 41 81 42
REMARK SMILES IDX 18 43 80 44 19 45 20 46 21 47 74 48 22 49 79 50 73 51 75 52
REMARK SMILES IDX 23 53 78 54 72 55 71 56 24 58 58 59 37 60 57 61 38 62 41 63
REMARK SMILES IDX 56 64 76 65 39 66 40 67 55 69 77 70 42 71 25 72 26 73 35 74
REMARK SMILES IDX 27 75 28 76 34 77 36 78 29 79 30 80 31 81 32 82 33 83 59 84
REMARK SMILES IDX 60 85 69 86 61 87 62 88 68 89 70 90 63 91 64 92 65 93 66 94
REMARK SMILES IDX 67 95 43 96 44 97 53 98 45 99 46 100 52 101 54 102 47 103
REMARK SMILES IDX 48 104 49 105 50 106 51 107
REMARK H PARENT 95 36 75 57 41 68
REMARK Flexibility Score: inf
ROOT
ATOM      1  C   UNL A   1      37.532  23.597  26.130  1.00  0.00     0.275 C 
ENDROOT
BRANCH   1   2
ATOM      2  C   UNL A   1      36.270  23.043  26.817  1.00  0.00     0.274 C 
BRANCH   2   3
ATOM      3  O   UNL A   1      35.014  23.191  26.120  1.00  0.00    -0.462 OA
BRANCH   3   4
ATOM      4  C   UNL A   1      34.446  22.010  25.756  1.00  0.00     0.312 C 
ATOM      5  O   UNL A   1      33.730  21.398  26.523  1.00  0.00    -0.252 OA
BRANCH   4   6
ATOM      6  C   UNL A   1      34.945  21.403  24.426  1.00  0.00     0.075 C 
ATOM      7  C   UNL A   1      31.939  19.216  23.150  1.00  0.00     0.008 C 
ATOM      8  C   UNL A   1      33.036  19.698  24.113  1.00  0.00    -0.003 C 
ATOM      9  C   UNL A   1      34.073  18.545  24.338  1.00  0.00    -0.011 C 
ATOM     10  C   UNL A   1      33.699  21.021  23.573  1.00  0.00     0.036 C 
ATOM     11  C   UNL A   1      33.457  17.325  25.044  1.00  0.00     0.008 C 
ATOM     12  C   UNL A   1      35.293  18.965  25.161  1.00  0.00     0.005 C 
ATOM     13  C   UNL A   1      32.840  22.330  23.468  1.00  0.00    -0.063 C 
ATOM     14  C   UNL A   1      35.927  20.245  24.660  1.00  0.00     0.020 C 
ATOM     15  C   UNL A   1      35.734  22.472  23.612  1.00  0.00     0.020 C 
ATOM     16  C   UNL A   1      33.495  23.563  22.746  1.00  0.00    -0.006 C 
ATOM     17  C   UNL A   1      31.717  22.476  24.202  1.00  0.00    -0.027 C 
ATOM     18  C   UNL A   1      34.958  23.748  23.265  1.00  0.00     0.013 C 
ATOM     19  C   UNL A   1      33.617  23.231  21.236  1.00  0.00     0.017 C 
ATOM     20  C   UNL A   1      32.617  24.965  22.950  1.00  0.00    -0.020 C 
ATOM     21  C   UNL A   1      31.121  23.796  24.613  1.00  0.00     0.032 C 
ATOM     22  C   UNL A   1      32.090  24.984  24.431  1.00  0.00     0.006 C 
ATOM     23  C   UNL A   1      33.462  26.240  22.704  1.00  0.00     0.008 C 
ATOM     24  C   UNL A   1      31.448  25.013  21.932  1.00  0.00     0.012 C 
ATOM     25  C   UNL A   1      31.607  26.362  25.087  1.00  0.00    -0.025 C 
ATOM     26  C   UNL A   1      32.820  27.554  23.175  1.00  0.00     0.005 C 
ATOM     27  C   UNL A   1      30.143  26.666  24.722  1.00  0.00     0.012 C 
ATOM     28  C   UNL A   1      31.686  26.219  26.643  1.00  0.00     0.010 C 
ATOM     29  C   UNL A   1      32.610  27.509  24.698  1.00  0.00     0.003 C 
ATOM     30  C   UNL A   1      31.486  27.523  27.420  1.00  0.00     0.033 C 
ATOM     31  C   UNL A   1      32.395  28.905  25.410  1.00  0.00    -0.006 C 
ATOM     32  C   UNL A   1      32.389  28.664  26.952  1.00  0.00     0.120 C 
ATOM     33  C   UNL A   1      31.136  29.666  24.950  1.00  0.00     0.014 C 
ATOM     34  C   UNL A   1      33.582  29.862  25.094  1.00  0.00     0.014 C 
BRANCH  32  35
ATOM     35  O   UNL A   1      32.051  29.840  27.688  1.00  0.00    -0.393 OA
ATOM     36  H   UNL A   1      32.568  29.868  28.508  1.00  0.00     0.210 HD
ENDBRANCH  32  35
ENDBRANCH   4   6
ENDBRANCH   3   4
ENDBRANCH   2   3
ENDBRANCH   1   2
BRANCH   1  37
ATOM     37  O   UNL A   1      38.490  22.592  25.756  1.00  0.00    -0.458 OA
BRANCH  37  38
ATOM     38  C   UNL A   1      39.729  22.737  26.299  1.00  0.00     0.338 C 
ATOM     39  O   UNL A   1      40.673  21.976  26.137  1.00  0.00    -0.246 OA
BRANCH  38  40
ATOM     40  C   UNL A   1      39.857  24.079  26.935  1.00  0.00     0.060 A 
ATOM     41  C   UNL A   1      40.465  25.117  26.205  1.00  0.00     0.016 A 
ATOM     42  C   UNL A   1      39.310  24.354  28.184  1.00  0.00     0.016 A 
ATOM     43  C   UNL A   1      40.519  26.426  26.707  1.00  0.00     0.010 A 
ATOM     44  C   UNL A   1      39.377  25.655  28.686  1.00  0.00     0.010 A 
ATOM     45  C   UNL A   1      39.991  26.704  27.969  1.00  0.00    -0.014 A 
BRANCH  45  46
ATOM     46  C   UNL A   1      40.335  27.941  28.728  1.00  0.00     0.031 A 
ATOM     47  C   UNL A   1      41.593  27.870  29.551  1.00  0.00     0.074 A 
ATOM     48  C   UNL A   1      39.557  29.040  28.802  1.00  0.00     0.049 A 
ATOM     49  N   UNL A   1      42.047  28.691  30.459  1.00  0.00    -0.248 NA
ATOM     50  C   UNL A   1      42.441  26.683  29.331  1.00  0.00     0.031 C 
ATOM     51  C   UNL A   1      38.349  29.289  28.028  1.00  0.00     0.029 A 
ATOM     52  N   UNL A   1      39.648  30.144  29.619  1.00  0.00    -0.354 N 
ATOM     53  C   UNL A   1      43.230  28.120  30.905  1.00  0.00     0.074 A 
ATOM     54  C   UNL A   1      43.360  26.833  30.265  1.00  0.00     0.031 C 
ATOM     55  C   UNL A   1      37.745  30.404  28.481  1.00  0.00     0.029 A 
ATOM     56  C   UNL A   1      38.555  30.980  29.552  1.00  0.00     0.049 A 
ATOM     57  H   UNL A   1      40.424  30.321  30.199  1.00  0.00     0.167 HD
ATOM     58  C   UNL A   1      44.172  28.648  31.717  1.00  0.00     0.037 A 
ATOM     59  C   UNL A   1      38.251  32.085  30.266  1.00  0.00     0.037 A 
ATOM     60  C   UNL A   1      44.067  29.939  32.328  1.00  0.00     0.049 A 
ATOM     61  C   UNL A   1      39.264  32.620  31.250  1.00  0.00     0.074 A 
ATOM     62  C   UNL A   1      44.989  30.597  33.117  1.00  0.00     0.029 A 
ATOM     63  N   UNL A   1      42.963  30.770  32.212  1.00  0.00    -0.354 N 
ATOM     64  N   UNL A   1      40.428  32.118  31.588  1.00  0.00    -0.248 NA
ATOM     65  C   UNL A   1      38.949  33.897  31.908  1.00  0.00     0.031 C 
ATOM     66  C   UNL A   1      44.432  31.822  33.501  1.00  0.00     0.029 A 
ATOM     67  C   UNL A   1      43.177  31.935  32.923  1.00  0.00     0.049 A 
ATOM     68  H   UNL A   1      42.150  30.562  31.699  1.00  0.00     0.167 HD
ATOM     69  C   UNL A   1      41.013  33.052  32.437  1.00  0.00     0.074 A 
ATOM     70  C   UNL A   1      40.067  34.136  32.583  1.00  0.00     0.031 C 
ATOM     71  C   UNL A   1      42.236  33.024  33.023  1.00  0.00     0.037 A 
BRANCH  58  72
ATOM     72  C   UNL A   1      45.405  27.821  31.926  1.00  0.00     0.058 A 
ATOM     73  C   UNL A   1      45.512  26.953  33.027  1.00  0.00     0.135 A 
ATOM     74  C   UNL A   1      46.512  27.947  31.076  1.00  0.00     0.135 A 
ATOM     75  F   UNL A   1      44.490  26.823  33.888  1.00  0.00    -0.206 F 
ATOM     76  C   UNL A   1      46.694  26.283  33.310  1.00  0.00     0.059 A 
ATOM     77  C   UNL A   1      47.695  27.260  31.323  1.00  0.00     0.059 A 
ATOM     78  F   UNL A   1      46.461  28.768  30.016  1.00  0.00    -0.206 F 
ATOM     79  C   UNL A   1      47.784  26.451  32.457  1.00  0.00     0.060 A 
BRANCH  79  80
ATOM     80  S   UNL A   1      49.326  25.604  32.858  1.00  0.00     0.124 S 
ATOM     81  O   UNL A   1      50.042  26.640  33.597  1.00  0.00    -0.237 OA
ATOM     82  O   UNL A   1      48.863  24.469  33.650  1.00  0.00    -0.237 OA
ATOM     83  O   UNL A   1      49.878  25.268  31.550  1.00  0.00    -0.744 OA
ENDBRANCH  79  80
ENDBRANCH  58  72
BRANCH  59  84
ATOM     84  C   UNL A   1      36.966  32.811  30.051  1.00  0.00     0.058 A 
ATOM     85  C   UNL A   1      36.872  33.847  29.109  1.00  0.00     0.135 A 
ATOM     86  C   UNL A   1      35.828  32.531  30.823  1.00  0.00     0.135 A 
ATOM     87  F   UNL A   1      37.936  34.165  28.356  1.00  0.00    -0.206 F 
ATOM     88  C   UNL A   1      35.709  34.598  28.957  1.00  0.00     0.059 A 
ATOM     89  C   UNL A   1      34.646  33.258  30.679  1.00  0.00     0.059 A 
ATOM     90  F   UNL A   1      35.860  31.549  31.737  1.00  0.00    -0.206 F 
ATOM     91  C   UNL A   1      34.601  34.298  29.751  1.00  0.00     0.060 A 
BRANCH  91  92
ATOM     92  S   UNL A   1      33.095  35.277  29.535  1.00  0.00     0.124 S 
ATOM     93  O   UNL A   1      32.401  34.526  28.494  1.00  0.00    -0.237 OA
ATOM     94  O   UNL A   1      32.501  35.220  30.866  1.00  0.00    -0.237 OA
ATOM     95  O   UNL A   1      33.599  36.587  29.136  1.00  0.00    -0.744 OA
ENDBRANCH  91  92
ENDBRANCH  59  84
BRANCH  71  96
ATOM     96  C   UNL A   1      42.666  34.227  33.812  1.00  0.00     0.058 A 
ATOM     97  C   UNL A   1      42.496  34.299  35.202  1.00  0.00     0.135 A 
ATOM     98  C   UNL A   1      43.350  35.276  33.176  1.00  0.00     0.135 A 
ATOM     99  F   UNL A   1      41.844  33.325  35.855  1.00  0.00    -0.206 F 
ATOM    100  C   UNL A   1      42.984  35.376  35.934  1.00  0.00     0.059 A 
ATOM    101  C   UNL A   1      43.867  36.350  33.891  1.00  0.00     0.059 A 
ATOM    102  F   UNL A   1      43.547  35.247  31.847  1.00  0.00    -0.206 F 
ATOM    103  C   UNL A   1      43.676  36.393  35.272  1.00  0.00     0.060 A 
BRANCH 103 104
ATOM    104  S   UNL A   1      44.368  37.748  36.242  1.00  0.00     0.124 S 
ATOM    105  O   UNL A   1      44.183  38.881  35.341  1.00  0.00    -0.237 OA
ATOM    106  O   UNL A   1      43.525  37.743  37.434  1.00  0.00    -0.237 OA
ATOM    107  O   UNL A   1      45.752  37.338  36.460  1.00  0.00    -0.744 OA
ENDBRANCH 103 104
ENDBRANCH  71  96
ENDBRANCH  45  46
ENDBRANCH  38  40
ENDBRANCH  37  38
ENDBRANCH   1  37
TORSDOF 15
ENDMDL
MODEL 2
REMARK VINA RESULT:     -12.1      2.035      2.675
REMARK SMILES C[C@H]1[C@H](C)CC[C@@]2(C(=O)OCCOC(=O)c3ccc(-c4c5nc(c(-c6c(F)cc(S(=O)(=O)[O-])cc6F)c6ccc([nH]6)c(-c6c(F)cc(S(=O)(=O)[O-])cc6F)c6nc(c(-c7c(F)cc(S(=O)(=O)[O-])cc7F)c7ccc4[nH]7)C=C6)C=C5)cc3)CC[C@@]3(C)C(=CC[C@@H]4[C@@]5(C)CC[C@H](O)C(C)(C)[C@@H]5CC[C@]43C)[C@H]12
REMARK SMILES IDX 12 1 11 2 10 3 8 4 9 5 7 6 1 7 2 8 3 9 104 10 4 11 5 12
REMARK SMILES IDX 86 13 6 14 82 15 84 16 87 17 83 18 85 19 102 20 88 21 89 22
REMARK SMILES IDX 101 23 103 24 90 25 100 26 91 27 92 28 99 29 93 30 96 31
REMARK SMILES IDX 94 32 97 33 98 34 95 35 13 37 14 38 15 39 16 40 17 41 81 42
REMARK SMILES IDX 18 43 80 44 19 45 20 46 21 47 74 48 22 49 79 50 73 51 75 52
REMARK SMILES IDX 23 53 78 54 72 55 71 56 24 58 58 59 37 60 57 61 38 62 41 63
REMARK SMILES IDX 56 64 76 65 39 66 40 67 55 69 77 70 42 71 25 72 26 73 35 74
REMARK SMILES IDX 27 75 28 76 34 77 36 78 29 79 30 80 31 81 32 82 33 83 59 84
REMARK SMILES IDX 60 85 69 86 61 87 62 88 68 89 70 90 63 91 64 92 65 93 66 94
REMARK SMILES IDX 67 95 43 96 44 97 53 98 45 99 46 100 52 101 54 102 47 103
REMARK SMILES IDX 48 104 49 105 50 106 51 107
REMARK H PARENT 95 36 75 57 41 68
REMARK Flexibility Score: inf
ROOT
ATOM      1  C   UNL A   1      37.371  23.510  26.135  1.00  0.00     0.275 C 
ENDROOT
BRANCH   1   2
ATOM      2  C   UNL A   1      36.065  23.106  26.842  1.00  0.00     0.274 C 
BRANCH   2   3
ATOM      3  O   UNL A   1      34.842  23.182  26.077  1.00  0.00    -0.462 OA
BRANCH   3   4
ATOM      4  C   UNL A   1      34.329  21.969  25.741  1.00  0.00     0.312 C 
ATOM      5  O   UNL A   1      33.656  21.335  26.527  1.00  0.00    -0.252 OA
BRANCH   4   6
ATOM      6  C   UNL A   1      34.837  21.366  24.412  1.00  0.00     0.075 C 
ATOM      7  C   UNL A   1      31.818  19.236  23.074  1.00  0.00     0.008 C 
ATOM      8  C   UNL A   1      32.909  19.692  24.057  1.00  0.00    -0.003 C 
ATOM      9  C   UNL A   1      33.924  18.522  24.287  1.00  0.00    -0.011 C 
ATOM     10  C   UNL A   1      33.598  21.009  23.538  1.00  0.00     0.036 C 
ATOM     11  C   UNL A   1      33.281  17.305  24.973  1.00  0.00     0.008 C 
ATOM     12  C   UNL A   1      35.139  18.916  25.130  1.00  0.00     0.005 C 
ATOM     13  C   UNL A   1      32.761  22.333  23.432  1.00  0.00    -0.063 C 
ATOM     14  C   UNL A   1      35.799  20.191  24.650  1.00  0.00     0.020 C 
ATOM     15  C   UNL A   1      35.655  22.429  23.619  1.00  0.00     0.020 C 
ATOM     16  C   UNL A   1      33.444  23.562  22.731  1.00  0.00    -0.006 C 
ATOM     17  C   UNL A   1      31.630  22.489  24.152  1.00  0.00    -0.027 C 
ATOM     18  C   UNL A   1      34.903  23.720  23.272  1.00  0.00     0.013 C 
ATOM     19  C   UNL A   1      33.584  23.241  21.220  1.00  0.00     0.017 C 
ATOM     20  C   UNL A   1      32.585  24.975  22.935  1.00  0.00    -0.020 C 
ATOM     21  C   UNL A   1      31.047  23.814  24.566  1.00  0.00     0.032 C 
ATOM     22  C   UNL A   1      32.037  24.989  24.407  1.00  0.00     0.006 C 
ATOM     23  C   UNL A   1      33.453  26.239  22.712  1.00  0.00     0.008 C 
ATOM     24  C   UNL A   1      31.431  25.050  21.901  1.00  0.00     0.012 C 
ATOM     25  C   UNL A   1      31.565  26.368  25.069  1.00  0.00    -0.025 C 
ATOM     26  C   UNL A   1      32.823  27.558  23.185  1.00  0.00     0.005 C 
ATOM     27  C   UNL A   1      30.111  26.697  24.685  1.00  0.00     0.012 C 
ATOM     28  C   UNL A   1      31.619  26.211  26.625  1.00  0.00     0.010 C 
ATOM     29  C   UNL A   1      32.591  27.504  24.705  1.00  0.00     0.003 C 
ATOM     30  C   UNL A   1      31.428  27.511  27.410  1.00  0.00     0.033 C 
ATOM     31  C   UNL A   1      32.387  28.897  25.426  1.00  0.00    -0.006 C 
ATOM     32  C   UNL A   1      32.354  28.642  26.965  1.00  0.00     0.120 C 
ATOM     33  C   UNL A   1      31.146  29.680  24.954  1.00  0.00     0.014 C 
ATOM     34  C   UNL A   1      33.592  29.838  25.135  1.00  0.00     0.014 C 
BRANCH  32  35
ATOM     35  O   UNL A   1      32.023  29.817  27.706  1.00  0.00    -0.393 OA
ATOM     36  H   UNL A   1      31.664  29.563  28.571  1.00  0.00     0.210 HD
ENDBRANCH  32  35
ENDBRANCH   4   6
ENDBRANCH   3   4
ENDBRANCH   2   3
ENDBRANCH   1   2
BRANCH   1  37
ATOM     37  O   UNL A   1      38.255  22.412  25.854  1.00  0.00    -0.458 OA
BRANCH  37  38
ATOM     38  C   UNL A   1      39.445  22.438  26.514  1.00  0.00     0.338 C 
ATOM     39  O   UNL A   1      40.237  21.509  26.595  1.00  0.00    -0.246 OA
BRANCH  38  40
ATOM     40  C   UNL A   1      39.769  23.831  26.935  1.00  0.00     0.060 A 
ATOM     41  C   UNL A   1      40.314  24.713  25.985  1.00  0.00     0.016 A 
ATOM     42  C   UNL A   1      39.459  24.304  28.206  1.00  0.00     0.016 A 
ATOM     43  C   UNL A   1      40.540  26.064  26.291  1.00  0.00     0.010 A 
ATOM     44  C   UNL A   1      39.697  25.646  28.511  1.00  0.00     0.010 A 
ATOM     45  C   UNL A   1      40.251  26.540  27.571  1.00  0.00    -0.014 A 
BRANCH  45  46
ATOM     46  C   UNL A   1      40.801  27.825  28.093  1.00  0.00     0.031 A 
ATOM     47  C   UNL A   1      42.298  27.880  28.239  1.00  0.00     0.074 A 
ATOM     48  C   UNL A   1      40.055  28.861  28.524  1.00  0.00     0.049 A 
ATOM     49  N   UNL A   1      43.048  28.764  28.839  1.00  0.00    -0.248 NA
ATOM     50  C   UNL A   1      43.045  26.757  27.643  1.00  0.00     0.031 C 
ATOM     51  C   UNL A   1      38.609  28.990  28.399  1.00  0.00     0.029 A 
ATOM     52  N   UNL A   1      40.419  29.996  29.214  1.00  0.00    -0.354 N 
ATOM     53  C   UNL A   1      44.347  28.303  28.683  1.00  0.00     0.074 A 
ATOM     54  C   UNL A   1      44.276  27.009  28.047  1.00  0.00     0.031 C 
ATOM     55  C   UNL A   1      38.191  30.069  29.088  1.00  0.00     0.029 A 
ATOM     56  C   UNL A   1      39.352  30.742  29.666  1.00  0.00     0.049 A 
ATOM     57  H   UNL A   1      41.358  30.252  29.370  1.00  0.00     0.167 HD
ATOM     58  C   UNL A   1      45.509  28.929  28.969  1.00  0.00     0.037 A 
ATOM     59  C   UNL A   1      39.320  31.843  30.446  1.00  0.00     0.037 A 
ATOM     60  C   UNL A   1      45.589  30.228  29.568  1.00  0.00     0.049 A 
ATOM     61  C   UNL A   1      40.623  32.488  30.853  1.00  0.00     0.074 A 
ATOM     62  C   UNL A   1      46.712  30.982  29.844  1.00  0.00     0.029 A 
ATOM     63  N   UNL A   1      44.491  30.967  29.981  1.00  0.00    -0.354 N 
ATOM     64  N   UNL A   1      41.850  32.091  30.611  1.00  0.00    -0.248 NA
ATOM     65  C   UNL A   1      40.541  33.758  31.590  1.00  0.00     0.031 C 
ATOM     66  C   UNL A   1      46.294  32.172  30.450  1.00  0.00     0.029 A 
ATOM     67  C   UNL A   1      44.909  32.168  30.520  1.00  0.00     0.049 A 
ATOM     68  H   UNL A   1      43.553  30.678  29.902  1.00  0.00     0.167 HD
ATOM     69  C   UNL A   1      42.680  33.095  31.098  1.00  0.00     0.074 A 
ATOM     70  C   UNL A   1      41.819  34.107  31.672  1.00  0.00     0.031 C 
ATOM     71  C   UNL A   1      44.032  33.182  31.051  1.00  0.00     0.037 A 
BRANCH  58  72
ATOM     72  C   UNL A   1      46.764  28.209  28.578  1.00  0.00     0.058 A 
ATOM     73  C   UNL A   1      47.384  28.459  27.341  1.00  0.00     0.135 A 
ATOM     74  C   UNL A   1      47.310  27.213  29.400  1.00  0.00     0.135 A 
ATOM     75  F   UNL A   1      46.879  29.381  26.506  1.00  0.00    -0.206 F 
ATOM     76  C   UNL A   1      48.466  27.707  26.907  1.00  0.00     0.059 A 
ATOM     77  C   UNL A   1      48.414  26.469  28.998  1.00  0.00     0.059 A 
ATOM     78  F   UNL A   1      46.750  26.933  30.586  1.00  0.00    -0.206 F 
ATOM     79  C   UNL A   1      48.968  26.707  27.739  1.00  0.00     0.060 A 
BRANCH  79  80
ATOM     80  S   UNL A   1      50.351  25.711  27.146  1.00  0.00     0.124 S 
ATOM     81  O   UNL A   1      51.493  26.514  27.575  1.00  0.00    -0.237 OA
ATOM     82  O   UNL A   1      50.159  24.452  27.859  1.00  0.00    -0.237 OA
ATOM     83  O   UNL A   1      50.131  25.651  25.704  1.00  0.00    -0.744 OA
ENDBRANCH  79  80
ENDBRANCH  58  72
BRANCH  59  84
ATOM     84  C   UNL A   1      38.025  32.459  30.855  1.00  0.00     0.058 A 
ATOM     85  C   UNL A   1      37.409  33.439  30.061  1.00  0.00     0.135 A 
ATOM     86  C   UNL A   1      37.409  32.131  32.073  1.00  0.00     0.135 A 
ATOM     87  F   UNL A   1      37.965  33.800  28.894  1.00  0.00    -0.206 F 
ATOM     88  C   UNL A   1      36.248  34.092  30.468  1.00  0.00     0.059 A 
ATOM     89  C   UNL A   1      36.237  32.758  32.496  1.00  0.00     0.059 A 
ATOM     90  F   UNL A   1      37.952  31.199  32.871  1.00  0.00    -0.206 F 
ATOM     91  C   UNL A   1      35.672  33.748  31.692  1.00  0.00     0.060 A 
BRANCH  91  92
ATOM     92  S   UNL A   1      34.159  34.598  32.201  1.00  0.00     0.124 S 
ATOM     93  O   UNL A   1      34.694  35.780  32.868  1.00  0.00    -0.237 OA
ATOM     94  O   UNL A   1      33.496  34.833  30.922  1.00  0.00    -0.237 OA
ATOM     95  O   UNL A   1      33.503  33.628  33.071  1.00  0.00    -0.744 OA
ENDBRANCH  91  92
ENDBRANCH  59  84
BRANCH  71  96
ATOM     96  C   UNL A   1      44.675  34.441  31.559  1.00  0.00     0.058 A 
ATOM     97  C   UNL A   1      44.853  35.564  30.738  1.00  0.00     0.135 A 
ATOM     98  C   UNL A   1      45.024  34.553  32.915  1.00  0.00     0.135 A 
ATOM     99  F   UNL A   1      44.541  35.505  29.434  1.00  0.00    -0.206 F 
ATOM    100  C   UNL A   1      45.362  36.755  31.244  1.00  0.00     0.059 A 
ATOM    101  C   UNL A   1      45.510  35.741  33.448  1.00  0.00     0.059 A 
ATOM    102  F   UNL A   1      44.861  33.508  33.743  1.00  0.00    -0.206 F 
ATOM    103  C   UNL A   1      45.679  36.837  32.602  1.00  0.00     0.060 A 
BRANCH 103 104
ATOM    104  S   UNL A   1      46.270  38.410  33.263  1.00  0.00     0.124 S 
ATOM    105  O   UNL A   1      46.404  39.208  32.050  1.00  0.00    -0.237 OA
ATOM    106  O   UNL A   1      45.186  38.799  34.161  1.00  0.00    -0.237 OA
ATOM    107  O   UNL A   1      47.522  38.052  33.923  1.00  0.00    -0.744 OA
ENDBRANCH 103 104
ENDBRANCH  71  96
ENDBRANCH  45  46
ENDBRANCH  38  40
ENDBRANCH  37  38
ENDBRANCH   1  37
TORSDOF 15
ENDMDL
MODEL 3
REMARK VINA RESULT:     -11.8      5.594     13.916
REMARK SMILES C[C@H]1[C@H](C)CC[C@@]2(C(=O)OCCOC(=O)c3ccc(-c4c5nc(c(-c6c(F)cc(S(=O)(=O)[O-])cc6F)c6ccc([nH]6)c(-c6c(F)cc(S(=O)(=O)[O-])cc6F)c6nc(c(-c7c(F)cc(S(=O)(=O)[O-])cc7F)c7ccc4[nH]7)C=C6)C=C5)cc3)CC[C@@]3(C)C(=CC[C@@H]4[C@@]5(C)CC[C@H](O)C(C)(C)[C@@H]5CC[C@]43C)[C@H]12
REMARK SMILES IDX 12 1 11 2 10 3 8 4 9 5 7 6 1 7 2 8 3 9 104 10 4 11 5 12
REMARK SMILES IDX 86 13 6 14 82 15 84 16 87 17 83 18 85 19 102 20 88 21 89 22
REMARK SMILES IDX 101 23 103 24 90 25 100 26 91 27 92 28 99 29 93 30 96 31
REMARK SMILES IDX 94 32 97 33 98 34 95 35 13 37 14 38 15 39 16 40 17 41 81 42
REMARK SMILES IDX 18 43 80 44 19 45 20 46 21 47 74 48 22 49 79 50 73 51 75 52
REMARK SMILES IDX 23 53 78 54 72 55 71 56 24 58 58 59 37 60 57 61 38 62 41 63
REMARK SMILES IDX 56 64 76 65 39 66 40 67 55 69 77 70 42 71 25 72 26 73 35 74
REMARK SMILES IDX 27 75 28 76 34 77 36 78 29 79 30 80 31 81 32 82 33 83 59 84
REMARK SMILES IDX 60 85 69 86 61 87 62 88 68 89 70 90 63 91 64 92 65 93 66 94
REMARK SMILES IDX 67 95 43 96 44 97 53 98 45 99 46 100 52 101 54 102 47 103
REMARK SMILES IDX 48 104 49 105 50 106 51 107
REMARK H PARENT 95 36 75 57 41 68
REMARK Flexibility Score: inf
ROOT
ATOM      1  C   UNL A   1      47.642  24.994  38.152  1.00  0.00     0.275 C 
ENDROOT
BRANCH   1   2
ATOM      2  C   UNL A   1      47.650  23.895  39.230  1.00  0.00     0.274 C 
BRANCH   2   3
ATOM      3  O   UNL A   1      48.884  23.677  39.949  1.00  0.00    -0.462 OA
BRANCH   3   4
ATOM      4  C   UNL A   1      49.264  22.373  40.004  1.00  0.00     0.312 C 
ATOM      5  O   UNL A   1      48.488  21.510  40.361  1.00  0.00    -0.252 OA
BRANCH   4   6
ATOM      6  C   UNL A   1      50.772  22.100  39.806  1.00  0.00     0.075 C 
ATOM      7  C   UNL A   1      51.077  18.182  39.817  1.00  0.00     0.008 C 
ATOM      8  C   UNL A   1      50.719  19.580  40.348  1.00  0.00    -0.003 C 
ATOM      9  C   UNL A   1      51.549  19.873  41.643  1.00  0.00    -0.011 C 
ATOM     10  C   UNL A   1      50.931  20.664  39.225  1.00  0.00     0.036 C 
ATOM     11  C   UNL A   1      51.194  18.926  42.801  1.00  0.00     0.008 C 
ATOM     12  C   UNL A   1      51.385  21.300  42.171  1.00  0.00     0.005 C 
ATOM     13  C   UNL A   1      50.038  20.628  37.935  1.00  0.00    -0.063 C 
ATOM     14  C   UNL A   1      51.570  22.349  41.095  1.00  0.00     0.020 C 
ATOM     15  C   UNL A   1      51.359  23.080  38.747  1.00  0.00     0.020 C 
ATOM     16  C   UNL A   1      50.420  21.610  36.769  1.00  0.00    -0.006 C 
ATOM     17  C   UNL A   1      48.846  19.994  37.942  1.00  0.00    -0.027 C 
ATOM     18  C   UNL A   1      50.705  23.029  37.361  1.00  0.00     0.013 C 
ATOM     19  C   UNL A   1      51.758  21.130  36.150  1.00  0.00     0.017 C 
ATOM     20  C   UNL A   1      49.246  21.691  35.589  1.00  0.00    -0.020 C 
ATOM     21  C   UNL A   1      47.694  20.315  37.028  1.00  0.00     0.032 C 
ATOM     22  C   UNL A   1      47.848  21.672  36.308  1.00  0.00     0.006 C 
ATOM     23  C   UNL A   1      49.349  22.977  34.730  1.00  0.00     0.008 C 
ATOM     24  C   UNL A   1      49.394  20.498  34.609  1.00  0.00     0.012 C 
ATOM     25  C   UNL A   1      46.545  22.181  35.529  1.00  0.00    -0.025 C 
ATOM     26  C   UNL A   1      48.130  23.272  33.843  1.00  0.00     0.005 C 
ATOM     27  C   UNL A   1      45.945  21.059  34.663  1.00  0.00     0.012 C 
ATOM     28  C   UNL A   1      45.467  22.587  36.588  1.00  0.00     0.010 C 
ATOM     29  C   UNL A   1      46.889  23.489  34.727  1.00  0.00     0.003 C 
ATOM     30  C   UNL A   1      44.249  23.318  36.019  1.00  0.00     0.033 C 
ATOM     31  C   UNL A   1      45.674  24.238  34.045  1.00  0.00    -0.006 C 
ATOM     32  C   UNL A   1      44.604  24.520  35.145  1.00  0.00     0.120 C 
ATOM     33  C   UNL A   1      45.067  23.496  32.839  1.00  0.00     0.014 C 
ATOM     34  C   UNL A   1      46.136  25.614  33.481  1.00  0.00     0.014 C 
BRANCH  32  35
ATOM     35  O   UNL A   1      43.397  25.061  34.607  1.00  0.00    -0.393 OA
ATOM     36  H   UNL A   1      42.692  25.002  35.271  1.00  0.00     0.210 HD
ENDBRANCH  32  35
ENDBRANCH   4   6
ENDBRANCH   3   4
ENDBRANCH   2   3
ENDBRANCH   1   2
BRANCH   1  37
ATOM     37  O   UNL A   1      47.039  26.229  38.572  1.00  0.00    -0.458 OA
BRANCH  37  38
ATOM     38  C   UNL A   1      47.389  27.325  37.845  1.00  0.00     0.338 C 
ATOM     39  O   UNL A   1      48.527  27.743  37.686  1.00  0.00    -0.246 OA
BRANCH  38  40
ATOM     40  C   UNL A   1      46.217  27.821  37.067  1.00  0.00     0.060 A 
ATOM     41  C   UNL A   1      46.443  28.707  35.998  1.00  0.00     0.016 A 
ATOM     42  C   UNL A   1      44.928  27.359  37.309  1.00  0.00     0.016 A 
ATOM     43  C   UNL A   1      45.394  29.124  35.164  1.00  0.00     0.010 A 
ATOM     44  C   UNL A   1      43.884  27.786  36.485  1.00  0.00     0.010 A 
ATOM     45  C   UNL A   1      44.095  28.681  35.415  1.00  0.00    -0.014 A 
BRANCH  45  46
ATOM     46  C   UNL A   1      42.893  29.352  34.841  1.00  0.00     0.031 A 
ATOM     47  C   UNL A   1      42.515  28.929  33.446  1.00  0.00     0.074 A 
ATOM     48  C   UNL A   1      42.214  30.355  35.434  1.00  0.00     0.049 A 
ATOM     49  N   UNL A   1      41.659  29.458  32.614  1.00  0.00    -0.248 NA
ATOM     50  C   UNL A   1      43.233  27.756  32.913  1.00  0.00     0.031 C 
ATOM     51  C   UNL A   1      42.413  30.838  36.794  1.00  0.00     0.029 A 
ATOM     52  N   UNL A   1      41.240  31.191  34.936  1.00  0.00    -0.354 N 
ATOM     53  C   UNL A   1      41.736  28.676  31.470  1.00  0.00     0.074 A 
ATOM     54  C   UNL A   1      42.802  27.722  31.667  1.00  0.00     0.031 C 
ATOM     55  C   UNL A   1      41.681  31.952  36.988  1.00  0.00     0.029 A 
ATOM     56  C   UNL A   1      40.917  32.235  35.775  1.00  0.00     0.049 A 
ATOM     57  H   UNL A   1      40.813  31.055  34.058  1.00  0.00     0.167 HD
ATOM     58  C   UNL A   1      40.941  28.692  30.378  1.00  0.00     0.037 A 
ATOM     59  C   UNL A   1      40.095  33.289  35.587  1.00  0.00     0.037 A 
ATOM     60  C   UNL A   1      39.860  29.612  30.191  1.00  0.00     0.049 A 
ATOM     61  C   UNL A   1      39.279  33.361  34.318  1.00  0.00     0.074 A 
ATOM     62  C   UNL A   1      38.953  29.677  29.152  1.00  0.00     0.029 A 
ATOM     63  N   UNL A   1      39.542  30.633  31.074  1.00  0.00    -0.354 N 
ATOM     64  N   UNL A   1      39.292  32.554  33.283  1.00  0.00    -0.248 NA
ATOM     65  C   UNL A   1      38.300  34.453  34.212  1.00  0.00     0.031 C 
ATOM     66  C   UNL A   1      38.097  30.756  29.395  1.00  0.00     0.029 A 
ATOM     67  C   UNL A   1      38.454  31.341  30.600  1.00  0.00     0.049 A 
ATOM     68  H   UNL A   1      40.019  30.824  31.914  1.00  0.00     0.167 HD
ATOM     69  C   UNL A   1      38.275  32.995  32.443  1.00  0.00     0.074 A 
ATOM     70  C   UNL A   1      37.685  34.156  33.074  1.00  0.00     0.031 C 
ATOM     71  C   UNL A   1      37.854  32.471  31.265  1.00  0.00     0.037 A 
BRANCH  58  72
ATOM     72  C   UNL A   1      41.212  27.638  29.347  1.00  0.00     0.058 A 
ATOM     73  C   UNL A   1      40.368  26.520  29.222  1.00  0.00     0.135 A 
ATOM     74  C   UNL A   1      42.352  27.698  28.534  1.00  0.00     0.135 A 
ATOM     75  F   UNL A   1      39.281  26.401  30.000  1.00  0.00    -0.206 F 
ATOM     76  C   UNL A   1      40.676  25.471  28.367  1.00  0.00     0.059 A 
ATOM     77  C   UNL A   1      42.663  26.673  27.648  1.00  0.00     0.059 A 
ATOM     78  F   UNL A   1      43.191  28.741  28.623  1.00  0.00    -0.206 F 
ATOM     79  C   UNL A   1      41.833  25.552  27.591  1.00  0.00     0.060 A 
BRANCH  79  80
ATOM     80  S   UNL A   1      42.242  24.164  26.513  1.00  0.00     0.124 S 
ATOM     81  O   UNL A   1      42.618  24.854  25.282  1.00  0.00    -0.237 OA
ATOM     82  O   UNL A   1      43.335  23.519  27.235  1.00  0.00    -0.237 OA
ATOM     83  O   UNL A   1      40.999  23.403  26.454  1.00  0.00    -0.744 OA
ENDBRANCH  79  80
ENDBRANCH  58  72
BRANCH  59  84
ATOM     84  C   UNL A   1      39.937  34.339  36.634  1.00  0.00     0.058 A 
ATOM     85  C   UNL A   1      40.723  35.502  36.614  1.00  0.00     0.135 A 
ATOM     86  C   UNL A   1      39.046  34.176  37.706  1.00  0.00     0.135 A 
ATOM     87  F   UNL A   1      41.601  35.698  35.619  1.00  0.00    -0.206 F 
ATOM     88  C   UNL A   1      40.655  36.451  37.631  1.00  0.00     0.059 A 
ATOM     89  C   UNL A   1      38.948  35.120  38.729  1.00  0.00     0.059 A 
ATOM     90  F   UNL A   1      38.268  33.085  37.775  1.00  0.00    -0.206 F 
ATOM     91  C   UNL A   1      39.767  36.249  38.688  1.00  0.00     0.060 A 
BRANCH  91  92
ATOM     92  S   UNL A   1      39.685  37.496  39.995  1.00  0.00     0.124 S 
ATOM     93  O   UNL A   1      41.000  38.119  39.893  1.00  0.00    -0.237 OA
ATOM     94  O   UNL A   1      38.556  38.315  39.564  1.00  0.00    -0.237 OA
ATOM     95  O   UNL A   1      39.454  36.707  41.201  1.00  0.00    -0.744 OA
ENDBRANCH  91  92
ENDBRANCH  59  84
BRANCH  71  96
ATOM     96  C   UNL A   1      36.650  33.086  30.611  1.00  0.00     0.058 A 
ATOM     97  C   UNL A   1      35.351  32.855  31.085  1.00  0.00     0.135 A 
ATOM     98  C   UNL A   1      36.815  34.000  29.557  1.00  0.00     0.135 A 
ATOM     99  F   UNL A   1      35.141  31.986  32.086  1.00  0.00    -0.206 F 
ATOM    100  C   UNL A   1      34.254  33.505  30.531  1.00  0.00     0.059 A 
ATOM    101  C   UNL A   1      35.735  34.680  29.005  1.00  0.00     0.059 A 
ATOM    102  F   UNL A   1      38.041  34.263  29.075  1.00  0.00    -0.206 F 
ATOM    103  C   UNL A   1      34.456  34.422  29.497  1.00  0.00     0.060 A 
BRANCH 103 104
ATOM    104  S   UNL A   1      33.033  35.314  28.835  1.00  0.00     0.124 S 
ATOM    105  O   UNL A   1      32.534  34.375  27.837  1.00  0.00    -0.237 OA
ATOM    106  O   UNL A   1      32.195  35.487  30.018  1.00  0.00    -0.237 OA
ATOM    107  O   UNL A   1      33.619  36.542  28.306  1.00  0.00    -0.744 OA
ENDBRANCH 103 104
ENDBRANCH  71  96
ENDBRANCH  45  46
ENDBRANCH  38  40
ENDBRANCH  37  38
ENDBRANCH   1  37
TORSDOF 15
ENDMDL
