MODEL 1
REMARK VINA RESULT:      -9.5      0.000      0.000
REMARK SMILES CC(C)C[C@H](NC(=O)CNC(=O)[C@@H]([NH3+])C(C)C)C(=O)OCCOC(=O)c1ccc(-c2c3nc(c(-c4c(F)cc(S(=O)(=O)[O-])cc4F)c4ccc([nH]4)c(-c4c(F)cc(S(=O)(=O)[O-])cc4F)c4nc(c(-c5c(F)cc(S(=O)(=O)[O-])cc5F)c5ccc2[nH]5)C=C4)C=C3)cc1
REMARK SMILES IDX 21 1 20 2 18 3 19 4 5 5 4 6 2 7 1 8 3 9 6 10 7 11 8 13 9 14
REMARK SMILES IDX 10 15 11 16 12 18 13 19 14 20 15 24 16 25 17 26 22 27 23 28
REMARK SMILES IDX 24 29 25 30 26 31 27 32 91 33 28 34 90 35 29 36 30 37 31 38
REMARK SMILES IDX 84 39 32 40 89 41 83 42 85 43 33 44 88 45 82 46 81 47 34 49
REMARK SMILES IDX 68 50 47 51 67 52 48 53 51 54 66 55 86 56 49 57 50 58 65 60
REMARK SMILES IDX 87 61 52 62 35 63 36 64 45 65 37 66 38 67 44 68 46 69 39 70
REMARK SMILES IDX 40 71 41 72 42 73 43 74 69 75 70 76 79 77 71 78 72 79 78 80
REMARK SMILES IDX 80 81 73 82 74 83 75 84 76 85 77 86 53 87 54 88 63 89 55 90
REMARK SMILES IDX 56 91 62 92 64 93 57 94 58 95 59 96 60 97 61 98
REMARK H PARENT 6 12 10 17 14 21 14 22 14 23 85 48 51 59
REMARK Flexibility Score: inf
ROOT
ATOM      1  C   UNL A   1      33.396  29.904  27.202  1.00  0.00     0.274 C 
ENDROOT
BRANCH   1   2
ATOM      2  O   UNL A   1      33.441  28.462  27.177  1.00  0.00    -0.461 OA
BRANCH   2   3
ATOM      3  C   UNL A   1      32.233  27.857  26.997  1.00  0.00     0.328 C 
ATOM      4  O   UNL A   1      31.361  27.806  27.860  1.00  0.00    -0.250 OA
BRANCH   3   5
ATOM      5  C   UNL A   1      32.104  27.137  25.642  1.00  0.00     0.192 C 
BRANCH   5   6
ATOM      6  C   UNL A   1      30.846  27.603  24.882  1.00  0.00     0.040 C 
BRANCH   6   7
ATOM      7  C   UNL A   1      31.013  28.667  23.775  1.00  0.00    -0.015 C 
ATOM      8  C   UNL A   1      30.431  30.037  24.113  1.00  0.00     0.007 C 
ATOM      9  C   UNL A   1      32.502  28.838  23.455  1.00  0.00     0.007 C 
ENDBRANCH   6   7
ENDBRANCH   5   6
BRANCH   5  10
ATOM     10  N   UNL A   1      32.077  25.674  25.750  1.00  0.00    -0.341 N 
ATOM     11  C   UNL A   1      32.984  24.759  25.289  1.00  0.00     0.240 C 
ATOM     12  H   UNL A   1      31.298  25.297  26.221  1.00  0.00     0.164 HD
ATOM     13  O   UNL A   1      32.712  23.562  25.412  1.00  0.00    -0.273 OA
BRANCH  11  14
ATOM     14  C   UNL A   1      34.321  25.209  24.664  1.00  0.00     0.216 C 
BRANCH  14  15
ATOM     15  N   UNL A   1      34.979  24.136  23.939  1.00  0.00    -0.342 N 
ATOM     16  C   UNL A   1      35.953  23.264  24.311  1.00  0.00     0.278 C 
ATOM     17  H   UNL A   1      34.662  24.020  23.015  1.00  0.00     0.164 HD
ATOM     18  O   UNL A   1      36.346  22.480  23.438  1.00  0.00    -0.268 OA
BRANCH  16  19
ATOM     19  C   UNL A   1      36.561  23.202  25.742  1.00  0.00     0.273 C 
BRANCH  19  20
ATOM     20  N   UNL A   1      36.108  21.988  26.451  1.00  0.00    -0.347 N 
ATOM     21  H   UNL A   1      35.179  22.148  26.841  1.00  0.00     0.345 HD
ATOM     22  H   UNL A   1      36.760  21.770  27.204  1.00  0.00     0.345 HD
ATOM     23  H   UNL A   1      36.071  21.206  25.797  1.00  0.00     0.345 HD
ENDBRANCH  19  20
BRANCH  19  24
ATOM     24  C   UNL A   1      38.096  23.372  25.759  1.00  0.00     0.051 C 
ATOM     25  C   UNL A   1      38.504  24.384  26.837  1.00  0.00     0.014 C 
ATOM     26  C   UNL A   1      38.822  22.052  26.057  1.00  0.00     0.014 C 
ENDBRANCH  19  24
ENDBRANCH  16  19
ENDBRANCH  14  15
ENDBRANCH  11  14
ENDBRANCH   5  10
ENDBRANCH   3   5
ENDBRANCH   2   3
ENDBRANCH   1   2
BRANCH   1  27
ATOM     27  C   UNL A   1      34.726  30.534  27.632  1.00  0.00     0.275 C 
BRANCH  27  28
ATOM     28  O   UNL A   1      35.712  29.550  27.997  1.00  0.00    -0.458 OA
BRANCH  28  29
ATOM     29  C   UNL A   1      36.300  29.783  29.195  1.00  0.00     0.338 C 
ATOM     30  O   UNL A   1      35.728  29.912  30.265  1.00  0.00    -0.246 OA
BRANCH  29  31
ATOM     31  C   UNL A   1      37.772  29.706  29.096  1.00  0.00     0.060 A 
ATOM     32  C   UNL A   1      38.294  29.575  27.810  1.00  0.00     0.016 A 
ATOM     33  C   UNL A   1      38.625  29.669  30.203  1.00  0.00     0.016 A 
ATOM     34  C   UNL A   1      39.661  29.399  27.616  1.00  0.00     0.010 A 
ATOM     35  C   UNL A   1      40.006  29.482  30.008  1.00  0.00     0.010 A 
ATOM     36  C   UNL A   1      40.530  29.339  28.712  1.00  0.00    -0.014 A 
BRANCH  36  37
ATOM     37  C   UNL A   1      41.952  28.992  28.457  1.00  0.00     0.031 A 
ATOM     38  C   UNL A   1      42.295  27.587  28.046  1.00  0.00     0.074 A 
ATOM     39  C   UNL A   1      42.910  29.936  28.464  1.00  0.00     0.049 A 
ATOM     40  N   UNL A   1      43.445  27.087  27.678  1.00  0.00    -0.248 NA
ATOM     41  C   UNL A   1      41.184  26.623  28.037  1.00  0.00     0.031 C 
ATOM     42  C   UNL A   1      42.699  31.353  28.756  1.00  0.00     0.029 A 
ATOM     43  N   UNL A   1      44.250  29.851  28.170  1.00  0.00    -0.354 N 
ATOM     44  C   UNL A   1      43.204  25.746  27.403  1.00  0.00     0.074 A 
ATOM     45  C   UNL A   1      41.794  25.515  27.642  1.00  0.00     0.031 C 
ATOM     46  C   UNL A   1      43.862  32.010  28.590  1.00  0.00     0.029 A 
ATOM     47  C   UNL A   1      44.908  31.057  28.216  1.00  0.00     0.049 A 
ATOM     48  H   UNL A   1      44.698  29.002  27.945  1.00  0.00     0.167 HD
ATOM     49  C   UNL A   1      44.075  24.788  27.006  1.00  0.00     0.037 A 
ATOM     50  C   UNL A   1      46.203  31.356  27.986  1.00  0.00     0.037 A 
ATOM     51  C   UNL A   1      45.483  25.001  26.794  1.00  0.00     0.049 A 
ATOM     52  C   UNL A   1      47.169  30.258  27.613  1.00  0.00     0.074 A 
ATOM     53  C   UNL A   1      46.449  24.077  26.439  1.00  0.00     0.029 A 
ATOM     54  N   UNL A   1      46.128  26.221  26.929  1.00  0.00    -0.354 N 
ATOM     55  N   UNL A   1      46.930  28.989  27.376  1.00  0.00    -0.248 NA
ATOM     56  C   UNL A   1      48.587  30.633  27.489  1.00  0.00     0.031 C 
ATOM     57  C   UNL A   1      47.688  24.729  26.403  1.00  0.00     0.029 A 
ATOM     58  C   UNL A   1      47.483  26.070  26.687  1.00  0.00     0.049 A 
ATOM     59  H   UNL A   1      45.688  27.070  27.164  1.00  0.00     0.167 HD
ATOM     60  C   UNL A   1      48.161  28.424  27.050  1.00  0.00     0.074 A 
ATOM     61  C   UNL A   1      49.140  29.488  27.108  1.00  0.00     0.031 C 
ATOM     62  C   UNL A   1      48.452  27.137  26.732  1.00  0.00     0.037 A 
BRANCH  49  63
ATOM     63  C   UNL A   1      43.529  23.398  26.856  1.00  0.00     0.058 A 
ATOM     64  C   UNL A   1      43.381  22.534  27.953  1.00  0.00     0.135 A 
ATOM     65  C   UNL A   1      43.176  22.917  25.586  1.00  0.00     0.135 A 
ATOM     66  F   UNL A   1      43.726  22.941  29.184  1.00  0.00    -0.206 F 
ATOM     67  C   UNL A   1      42.940  21.225  27.788  1.00  0.00     0.059 A 
ATOM     68  C   UNL A   1      42.712  21.619  25.401  1.00  0.00     0.059 A 
ATOM     69  F   UNL A   1      43.303  23.704  24.506  1.00  0.00    -0.206 F 
ATOM     70  C   UNL A   1      42.620  20.774  26.506  1.00  0.00     0.060 A 
BRANCH  70  71
ATOM     71  S   UNL A   1      42.097  19.060  26.293  1.00  0.00     0.124 S 
ATOM     72  O   UNL A   1      43.104  18.564  25.361  1.00  0.00    -0.237 OA
ATOM     73  O   UNL A   1      42.178  18.535  27.652  1.00  0.00    -0.237 OA
ATOM     74  O   UNL A   1      40.747  19.182  25.752  1.00  0.00    -0.744 OA
ENDBRANCH  70  71
ENDBRANCH  49  63
BRANCH  50  75
ATOM     75  C   UNL A   1      46.685  32.760  28.102  1.00  0.00     0.058 A 
ATOM     76  C   UNL A   1      47.262  33.230  29.292  1.00  0.00     0.135 A 
ATOM     77  C   UNL A   1      46.543  33.669  27.042  1.00  0.00     0.135 A 
ATOM     78  F   UNL A   1      47.405  32.402  30.339  1.00  0.00    -0.206 F 
ATOM     79  C   UNL A   1      47.667  34.553  29.435  1.00  0.00     0.059 A 
ATOM     80  C   UNL A   1      46.964  34.991  27.152  1.00  0.00     0.059 A 
ATOM     81  F   UNL A   1      46.000  33.270  25.882  1.00  0.00    -0.206 F 
ATOM     82  C   UNL A   1      47.512  35.427  28.357  1.00  0.00     0.060 A 
BRANCH  82  83
ATOM     83  S   UNL A   1      48.075  37.135  28.535  1.00  0.00     0.124 S 
ATOM     84  O   UNL A   1      49.018  37.019  29.640  1.00  0.00    -0.237 OA
ATOM     85  O   UNL A   1      48.654  37.406  27.223  1.00  0.00    -0.237 OA
ATOM     86  O   UNL A   1      46.842  37.861  28.828  1.00  0.00    -0.744 OA
ENDBRANCH  82  83
ENDBRANCH  50  75
BRANCH  62  87
ATOM     87  C   UNL A   1      49.879  26.806  26.381  1.00  0.00     0.058 A 
ATOM     88  C   UNL A   1      50.796  26.358  27.345  1.00  0.00     0.135 A 
ATOM     89  C   UNL A   1      50.318  26.885  25.049  1.00  0.00     0.135 A 
ATOM     90  F   UNL A   1      50.430  26.266  28.634  1.00  0.00    -0.206 F 
ATOM     91  C   UNL A   1      52.105  26.024  27.006  1.00  0.00     0.059 A 
ATOM     92  C   UNL A   1      51.615  26.533  24.683  1.00  0.00     0.059 A 
ATOM     93  F   UNL A   1      49.481  27.294  24.084  1.00  0.00    -0.206 F 
ATOM     94  C   UNL A   1      52.505  26.115  25.672  1.00  0.00     0.060 A 
BRANCH  94  95
ATOM     95  S   UNL A   1      54.196  25.650  25.236  1.00  0.00     0.124 S 
ATOM     96  O   UNL A   1      54.237  25.988  23.817  1.00  0.00    -0.237 OA
ATOM     97  O   UNL A   1      54.993  26.501  26.114  1.00  0.00    -0.237 OA
ATOM     98  O   UNL A   1      54.244  24.223  25.544  1.00  0.00    -0.744 OA
ENDBRANCH  94  95
ENDBRANCH  62  87
ENDBRANCH  36  37
ENDBRANCH  29  31
ENDBRANCH  28  29
ENDBRANCH  27  28
ENDBRANCH   1  27
TORSDOF 22
ENDMDL
MODEL 2
REMARK VINA RESULT:      -9.3      0.976      8.378
REMARK SMILES CC(C)C[C@H](NC(=O)CNC(=O)[C@@H]([NH3+])C(C)C)C(=O)OCCOC(=O)c1ccc(-c2c3nc(c(-c4c(F)cc(S(=O)(=O)[O-])cc4F)c4ccc([nH]4)c(-c4c(F)cc(S(=O)(=O)[O-])cc4F)c4nc(c(-c5c(F)cc(S(=O)(=O)[O-])cc5F)c5ccc2[nH]5)C=C4)C=C3)cc1
REMARK SMILES IDX 21 1 20 2 18 3 19 4 5 5 4 6 2 7 1 8 3 9 6 10 7 11 8 13 9 14
REMARK SMILES IDX 10 15 11 16 12 18 13 19 14 20 15 24 16 25 17 26 22 27 23 28
REMARK SMILES IDX 24 29 25 30 26 31 27 32 91 33 28 34 90 35 29 36 30 37 31 38
REMARK SMILES IDX 84 39 32 40 89 41 83 42 85 43 33 44 88 45 82 46 81 47 34 49
REMARK SMILES IDX 68 50 47 51 67 52 48 53 51 54 66 55 86 56 49 57 50 58 65 60
REMARK SMILES IDX 87 61 52 62 35 63 36 64 45 65 37 66 38 67 44 68 46 69 39 70
REMARK SMILES IDX 40 71 41 72 42 73 43 74 69 75 70 76 79 77 71 78 72 79 78 80
REMARK SMILES IDX 80 81 73 82 74 83 75 84 76 85 77 86 53 87 54 88 63 89 55 90
REMARK SMILES IDX 56 91 62 92 64 93 57 94 58 95 59 96 60 97 61 98
REMARK H PARENT 6 12 10 17 14 21 14 22 14 23 85 48 51 59
REMARK Flexibility Score: inf
ROOT
ATOM      1  C   UNL A   1      33.365  29.486  27.223  1.00  0.00     0.274 C 
ENDROOT
BRANCH   1   2
ATOM      2  O   UNL A   1      33.622  28.155  26.729  1.00  0.00    -0.461 OA
BRANCH   2   3
ATOM      3  C   UNL A   1      33.284  27.956  25.422  1.00  0.00     0.328 C 
ATOM      4  O   UNL A   1      33.764  28.593  24.490  1.00  0.00    -0.250 OA
BRANCH   3   5
ATOM      5  C   UNL A   1      32.152  26.930  25.232  1.00  0.00     0.192 C 
BRANCH   5   6
ATOM      6  C   UNL A   1      30.786  27.629  25.079  1.00  0.00     0.040 C 
BRANCH   6   7
ATOM      7  C   UNL A   1      30.062  27.529  23.719  1.00  0.00    -0.015 C 
ATOM      8  C   UNL A   1      30.958  27.150  22.543  1.00  0.00     0.007 C 
ATOM      9  C   UNL A   1      28.931  26.498  23.820  1.00  0.00     0.007 C 
ENDBRANCH   6   7
ENDBRANCH   5   6
BRANCH   5  10
ATOM     10  N   UNL A   1      32.060  25.943  26.314  1.00  0.00    -0.341 N 
ATOM     11  C   UNL A   1      31.758  24.611  26.243  1.00  0.00     0.240 C 
ATOM     12  H   UNL A   1      32.242  26.287  27.219  1.00  0.00     0.164 HD
ATOM     13  O   UNL A   1      31.646  23.985  27.300  1.00  0.00    -0.273 OA
BRANCH  11  14
ATOM     14  C   UNL A   1      31.594  23.904  24.880  1.00  0.00     0.216 C 
BRANCH  14  15
ATOM     15  N   UNL A   1      32.562  24.363  23.901  1.00  0.00    -0.342 N 
ATOM     16  C   UNL A   1      33.893  24.117  23.767  1.00  0.00     0.278 C 
ATOM     17  H   UNL A   1      32.189  24.958  23.212  1.00  0.00     0.164 HD
ATOM     18  O   UNL A   1      34.465  24.702  22.839  1.00  0.00    -0.268 OA
BRANCH  16  19
ATOM     19  C   UNL A   1      34.693  23.150  24.688  1.00  0.00     0.273 C 
BRANCH  19  20
ATOM     20  N   UNL A   1      34.213  21.762  24.533  1.00  0.00    -0.347 N 
ATOM     21  H   UNL A   1      33.336  21.761  24.013  1.00  0.00     0.345 HD
ATOM     22  H   UNL A   1      34.063  21.349  25.453  1.00  0.00     0.345 HD
ATOM     23  H   UNL A   1      34.909  21.217  24.025  1.00  0.00     0.345 HD
ENDBRANCH  19  20
BRANCH  19  24
ATOM     24  C   UNL A   1      36.223  23.281  24.524  1.00  0.00     0.051 C 
ATOM     25  C   UNL A   1      36.858  23.752  25.838  1.00  0.00     0.014 C 
ATOM     26  C   UNL A   1      36.880  21.948  24.137  1.00  0.00     0.014 C 
ENDBRANCH  19  24
ENDBRANCH  16  19
ENDBRANCH  14  15
ENDBRANCH  11  14
ENDBRANCH   5  10
ENDBRANCH   3   5
ENDBRANCH   2   3
ENDBRANCH   1   2
BRANCH   1  27
ATOM     27  C   UNL A   1      34.644  30.232  27.617  1.00  0.00     0.275 C 
BRANCH  27  28
ATOM     28  O   UNL A   1      35.518  29.435  28.439  1.00  0.00    -0.458 OA
BRANCH  28  29
ATOM     29  C   UNL A   1      36.265  30.161  29.306  1.00  0.00     0.338 C 
ATOM     30  O   UNL A   1      35.846  30.809  30.251  1.00  0.00    -0.246 OA
BRANCH  29  31
ATOM     31  C   UNL A   1      37.710  29.953  29.075  1.00  0.00     0.060 A 
ATOM     32  C   UNL A   1      38.105  29.812  27.746  1.00  0.00     0.016 A 
ATOM     33  C   UNL A   1      38.648  29.807  30.102  1.00  0.00     0.016 A 
ATOM     34  C   UNL A   1      39.428  29.518  27.429  1.00  0.00     0.010 A 
ATOM     35  C   UNL A   1      39.983  29.501  29.782  1.00  0.00     0.010 A 
ATOM     36  C   UNL A   1      40.378  29.347  28.442  1.00  0.00    -0.014 A 
BRANCH  36  37
ATOM     37  C   UNL A   1      41.735  28.880  28.056  1.00  0.00     0.031 A 
ATOM     38  C   UNL A   1      42.892  29.833  28.174  1.00  0.00     0.074 A 
ATOM     39  C   UNL A   1      41.961  27.595  27.729  1.00  0.00     0.049 A 
ATOM     40  N   UNL A   1      44.168  29.616  27.992  1.00  0.00    -0.248 NA
ATOM     41  C   UNL A   1      42.562  31.212  28.566  1.00  0.00     0.031 C 
ATOM     42  C   UNL A   1      40.944  26.547  27.665  1.00  0.00     0.029 A 
ATOM     43  N   UNL A   1      43.134  26.942  27.433  1.00  0.00    -0.354 N 
ATOM     44  C   UNL A   1      44.797  30.831  28.233  1.00  0.00     0.074 A 
ATOM     45  C   UNL A   1      43.759  31.779  28.582  1.00  0.00     0.031 C 
ATOM     46  C   UNL A   1      41.543  25.375  27.386  1.00  0.00     0.029 A 
ATOM     47  C   UNL A   1      42.980  25.593  27.215  1.00  0.00     0.049 A 
ATOM     48  H   UNL A   1      44.006  27.399  27.384  1.00  0.00     0.167 HD
ATOM     49  C   UNL A   1      46.114  31.139  28.156  1.00  0.00     0.037 A 
ATOM     50  C   UNL A   1      43.892  24.647  26.911  1.00  0.00     0.037 A 
ATOM     51  C   UNL A   1      47.149  30.211  27.782  1.00  0.00     0.049 A 
ATOM     52  C   UNL A   1      45.345  25.030  26.761  1.00  0.00     0.074 A 
ATOM     53  C   UNL A   1      48.504  30.449  27.629  1.00  0.00     0.029 A 
ATOM     54  N   UNL A   1      46.944  28.871  27.489  1.00  0.00    -0.354 N 
ATOM     55  N   UNL A   1      45.923  26.189  26.973  1.00  0.00    -0.248 NA
ATOM     56  C   UNL A   1      46.268  23.974  26.316  1.00  0.00     0.031 C 
ATOM     57  C   UNL A   1      49.112  29.263  27.200  1.00  0.00     0.029 A 
ATOM     58  C   UNL A   1      48.142  28.275  27.135  1.00  0.00     0.049 A 
ATOM     59  H   UNL A   1      46.073  28.413  27.527  1.00  0.00     0.167 HD
ATOM     60  C   UNL A   1      47.277  25.993  26.714  1.00  0.00     0.074 A 
ATOM     61  C   UNL A   1      47.435  24.604  26.341  1.00  0.00     0.031 C 
ATOM     62  C   UNL A   1      48.297  26.886  26.778  1.00  0.00     0.037 A 
BRANCH  49  63
ATOM     63  C   UNL A   1      46.489  32.570  28.406  1.00  0.00     0.058 A 
ATOM     64  C   UNL A   1      46.483  33.531  27.384  1.00  0.00     0.135 A 
ATOM     65  C   UNL A   1      46.889  32.975  29.690  1.00  0.00     0.135 A 
ATOM     66  F   UNL A   1      46.130  33.187  26.135  1.00  0.00    -0.206 F 
ATOM     67  C   UNL A   1      46.901  34.838  27.616  1.00  0.00     0.059 A 
ATOM     68  C   UNL A   1      47.289  34.282  29.950  1.00  0.00     0.059 A 
ATOM     69  F   UNL A   1      46.914  32.093  30.700  1.00  0.00    -0.206 F 
ATOM     70  C   UNL A   1      47.314  35.200  28.901  1.00  0.00     0.060 A 
BRANCH  70  71
ATOM     71  S   UNL A   1      47.902  36.882  29.183  1.00  0.00     0.124 S 
ATOM     72  O   UNL A   1      48.045  37.371  27.816  1.00  0.00    -0.237 OA
ATOM     73  O   UNL A   1      46.813  37.471  29.956  1.00  0.00    -0.237 OA
ATOM     74  O   UNL A   1      49.150  36.686  29.913  1.00  0.00    -0.744 OA
ENDBRANCH  70  71
ENDBRANCH  49  63
BRANCH  50  75
ATOM     75  C   UNL A   1      43.474  23.231  26.718  1.00  0.00     0.058 A 
ATOM     76  C   UNL A   1      43.158  22.416  27.816  1.00  0.00     0.135 A 
ATOM     77  C   UNL A   1      43.420  22.655  25.440  1.00  0.00     0.135 A 
ATOM     78  F   UNL A   1      43.210  22.918  29.060  1.00  0.00    -0.206 F 
ATOM     79  C   UNL A   1      42.818  21.076  27.657  1.00  0.00     0.059 A 
ATOM     80  C   UNL A   1      43.059  21.324  25.253  1.00  0.00     0.059 A 
ATOM     81  F   UNL A   1      43.711  23.391  24.356  1.00  0.00    -0.206 F 
ATOM     82  C   UNL A   1      42.772  20.539  26.369  1.00  0.00     0.060 A 
BRANCH  82  83
ATOM     83  S   UNL A   1      42.294  18.808  26.165  1.00  0.00     0.124 S 
ATOM     84  O   UNL A   1      42.486  18.291  27.515  1.00  0.00    -0.237 OA
ATOM     85  O   UNL A   1      40.911  18.923  25.713  1.00  0.00    -0.237 OA
ATOM     86  O   UNL A   1      43.235  18.321  25.161  1.00  0.00    -0.744 OA
ENDBRANCH  82  83
ENDBRANCH  50  75
BRANCH  62  87
ATOM     87  C   UNL A   1      49.687  26.388  26.478  1.00  0.00     0.058 A 
ATOM     88  C   UNL A   1      50.231  26.441  25.187  1.00  0.00     0.135 A 
ATOM     89  C   UNL A   1      50.504  25.903  27.513  1.00  0.00     0.135 A 
ATOM     90  F   UNL A   1      49.494  26.895  24.160  1.00  0.00    -0.206 F 
ATOM     91  C   UNL A   1      51.529  26.008  24.924  1.00  0.00     0.059 A 
ATOM     92  C   UNL A   1      51.812  25.487  27.278  1.00  0.00     0.059 A 
ATOM     93  F   UNL A   1      50.039  25.841  28.770  1.00  0.00    -0.206 F 
ATOM     94  C   UNL A   1      52.312  25.531  25.978  1.00  0.00     0.060 A 
BRANCH  94  95
ATOM     95  S   UNL A   1      54.004  25.001  25.634  1.00  0.00     0.124 S 
ATOM     96  O   UNL A   1      54.703  25.453  26.833  1.00  0.00    -0.237 OA
ATOM     97  O   UNL A   1      53.859  23.555  25.493  1.00  0.00    -0.237 OA
ATOM     98  O   UNL A   1      54.339  25.714  24.405  1.00  0.00    -0.744 OA
ENDBRANCH  94  95
ENDBRANCH  62  87
ENDBRANCH  36  37
ENDBRANCH  29  31
ENDBRANCH  28  29
ENDBRANCH  27  28
ENDBRANCH   1  27
TORSDOF 22
ENDMDL
MODEL 3
REMARK VINA RESULT:      -9.3      3.735      8.779
REMARK SMILES CC(C)C[C@H](NC(=O)CNC(=O)[C@@H]([NH3+])C(C)C)C(=O)OCCOC(=O)c1ccc(-c2c3nc(c(-c4c(F)cc(S(=O)(=O)[O-])cc4F)c4ccc([nH]4)c(-c4c(F)cc(S(=O)(=O)[O-])cc4F)c4nc(c(-c5c(F)cc(S(=O)(=O)[O-])cc5F)c5ccc2[nH]5)C=C4)C=C3)cc1
REMARK SMILES IDX 21 1 20 2 18 3 19 4 5 5 4 6 2 7 1 8 3 9 6 10 7 11 8 13 9 14
REMARK SMILES IDX 10 15 11 16 12 18 13 19 14 20 15 24 16 25 17 26 22 27 23 28
REMARK SMILES IDX 24 29 25 30 26 31 27 32 91 33 28 34 90 35 29 36 30 37 31 38
REMARK SMILES IDX 84 39 32 40 89 41 83 42 85 43 33 44 88 45 82 46 81 47 34 49
REMARK SMILES IDX 68 50 47 51 67 52 48 53 51 54 66 55 86 56 49 57 50 58 65 60
REMARK SMILES IDX 87 61 52 62 35 63 36 64 45 65 37 66 38 67 44 68 46 69 39 70
REMARK SMILES IDX 40 71 41 72 42 73 43 74 69 75 70 76 79 77 71 78 72 79 78 80
REMARK SMILES IDX 80 81 73 82 74 83 75 84 76 85 77 86 53 87 54 88 63 89 55 90
REMARK SMILES IDX 56 91 62 92 64 93 57 94 58 95 59 96 60 97 61 98
REMARK H PARENT 6 12 10 17 14 21 14 22 14 23 85 48 51 59
REMARK Flexibility Score: inf
ROOT
ATOM      1  C   UNL A   1      35.748  22.286  24.502  1.00  0.00     0.274 C 
ENDROOT
BRANCH   1   2
ATOM      2  O   UNL A   1      35.386  23.600  24.028  1.00  0.00    -0.461 OA
BRANCH   2   3
ATOM      3  C   UNL A   1      34.221  23.650  23.321  1.00  0.00     0.328 C 
ATOM      4  O   UNL A   1      34.116  23.289  22.154  1.00  0.00    -0.250 OA
BRANCH   3   5
ATOM      5  C   UNL A   1      33.065  24.314  24.092  1.00  0.00     0.192 C 
BRANCH   5   6
ATOM      6  C   UNL A   1      33.173  25.851  24.043  1.00  0.00     0.040 C 
BRANCH   6   7
ATOM      7  C   UNL A   1      32.879  26.647  25.333  1.00  0.00    -0.015 C 
ATOM      8  C   UNL A   1      33.863  27.777  25.625  1.00  0.00     0.007 C 
ATOM      9  C   UNL A   1      31.468  27.241  25.253  1.00  0.00     0.007 C 
ENDBRANCH   6   7
ENDBRANCH   5   6
BRANCH   5  10
ATOM     10  N   UNL A   1      32.970  23.891  25.495  1.00  0.00    -0.341 N 
ATOM     11  C   UNL A   1      32.543  22.697  26.007  1.00  0.00     0.240 C 
ATOM     12  H   UNL A   1      33.253  24.560  26.159  1.00  0.00     0.164 HD
ATOM     13  O   UNL A   1      32.458  22.591  27.233  1.00  0.00    -0.273 OA
BRANCH  11  14
ATOM     14  C   UNL A   1      32.208  21.508  25.082  1.00  0.00     0.216 C 
BRANCH  14  15
ATOM     15  N   UNL A   1      32.193  20.243  25.796  1.00  0.00    -0.342 N 
ATOM     16  C   UNL A   1      32.741  19.035  25.498  1.00  0.00     0.278 C 
ATOM     17  H   UNL A   1      31.698  20.264  26.646  1.00  0.00     0.164 HD
ATOM     18  O   UNL A   1      32.510  18.119  26.296  1.00  0.00    -0.268 OA
BRANCH  16  19
ATOM     19  C   UNL A   1      33.630  18.771  24.248  1.00  0.00     0.273 C 
BRANCH  19  20
ATOM     20  N   UNL A   1      35.041  18.578  24.640  1.00  0.00    -0.347 N 
ATOM     21  H   UNL A   1      35.216  19.052  25.526  1.00  0.00     0.345 HD
ATOM     22  H   UNL A   1      35.650  18.967  23.921  1.00  0.00     0.345 HD
ATOM     23  H   UNL A   1      35.232  17.581  24.744  1.00  0.00     0.345 HD
ENDBRANCH  19  20
BRANCH  19  24
ATOM     24  C   UNL A   1      33.094  17.635  23.349  1.00  0.00     0.051 C 
ATOM     25  C   UNL A   1      32.506  18.214  22.057  1.00  0.00     0.014 C 
ATOM     26  C   UNL A   1      34.194  16.638  22.957  1.00  0.00     0.014 C 
ENDBRANCH  19  24
ENDBRANCH  16  19
ENDBRANCH  14  15
ENDBRANCH  11  14
ENDBRANCH   5  10
ENDBRANCH   3   5
ENDBRANCH   2   3
ENDBRANCH   1   2
BRANCH   1  27
ATOM     27  C   UNL A   1      37.248  22.145  24.779  1.00  0.00     0.275 C 
BRANCH  27  28
ATOM     28  O   UNL A   1      37.615  22.608  26.093  1.00  0.00    -0.458 OA
BRANCH  28  29
ATOM     29  C   UNL A   1      38.952  22.716  26.281  1.00  0.00     0.338 C 
ATOM     30  O   UNL A   1      39.800  21.928  25.895  1.00  0.00    -0.246 OA
BRANCH  29  31
ATOM     31  C   UNL A   1      39.306  24.014  26.891  1.00  0.00     0.060 A 
ATOM     32  C   UNL A   1      39.956  24.925  26.061  1.00  0.00     0.016 A 
ATOM     33  C   UNL A   1      39.106  24.319  28.241  1.00  0.00     0.016 A 
ATOM     34  C   UNL A   1      40.416  26.138  26.565  1.00  0.00     0.010 A 
ATOM     35  C   UNL A   1      39.579  25.542  28.752  1.00  0.00     0.010 A 
ATOM     36  C   UNL A   1      40.244  26.455  27.917  1.00  0.00    -0.014 A 
BRANCH  36  37
ATOM     37  C   UNL A   1      40.892  27.688  28.434  1.00  0.00     0.031 A 
ATOM     38  C   UNL A   1      42.374  27.861  28.249  1.00  0.00     0.074 A 
ATOM     39  C   UNL A   1      40.161  28.696  28.943  1.00  0.00     0.049 A 
ATOM     40  N   UNL A   1      43.130  28.891  28.527  1.00  0.00    -0.248 NA
ATOM     41  C   UNL A   1      43.093  26.723  27.658  1.00  0.00     0.031 C 
ATOM     42  C   UNL A   1      38.708  28.695  29.094  1.00  0.00     0.029 A 
ATOM     43  N   UNL A   1      40.543  29.940  29.386  1.00  0.00    -0.354 N 
ATOM     44  C   UNL A   1      44.418  28.524  28.156  1.00  0.00     0.074 A 
ATOM     45  C   UNL A   1      44.337  27.178  27.628  1.00  0.00     0.031 C 
ATOM     46  C   UNL A   1      38.317  29.896  29.561  1.00  0.00     0.029 A 
ATOM     47  C   UNL A   1      39.494  30.738  29.776  1.00  0.00     0.049 A 
ATOM     48  H   UNL A   1      41.483  30.234  29.419  1.00  0.00     0.167 HD
ATOM     49  C   UNL A   1      45.568  29.232  28.261  1.00  0.00     0.037 A 
ATOM     50  C   UNL A   1      39.486  32.000  30.253  1.00  0.00     0.037 A 
ATOM     51  C   UNL A   1      45.664  30.559  28.812  1.00  0.00     0.049 A 
ATOM     52  C   UNL A   1      40.789  32.743  30.426  1.00  0.00     0.074 A 
ATOM     53  C   UNL A   1      46.795  31.333  29.001  1.00  0.00     0.029 A 
ATOM     54  N   UNL A   1      44.589  31.305  29.271  1.00  0.00    -0.354 N 
ATOM     55  N   UNL A   1      42.003  32.376  30.090  1.00  0.00    -0.248 NA
ATOM     56  C   UNL A   1      40.718  34.070  31.058  1.00  0.00     0.031 C 
ATOM     57  C   UNL A   1      46.410  32.529  29.618  1.00  0.00     0.029 A 
ATOM     58  C   UNL A   1      45.032  32.521  29.765  1.00  0.00     0.049 A 
ATOM     59  H   UNL A   1      43.649  31.012  29.250  1.00  0.00     0.167 HD
ATOM     60  C   UNL A   1      42.834  33.436  30.445  1.00  0.00     0.074 A 
ATOM     61  C   UNL A   1      41.985  34.462  31.010  1.00  0.00     0.031 C 
ATOM     62  C   UNL A   1      44.180  33.546  30.314  1.00  0.00     0.037 A 
BRANCH  49  63
ATOM     63  C   UNL A   1      46.830  28.538  27.840  1.00  0.00     0.058 A 
ATOM     64  C   UNL A   1      47.292  28.571  26.515  1.00  0.00     0.135 A 
ATOM     65  C   UNL A   1      47.572  27.803  28.778  1.00  0.00     0.135 A 
ATOM     66  F   UNL A   1      46.606  29.242  25.577  1.00  0.00    -0.206 F 
ATOM     67  C   UNL A   1      48.425  27.864  26.126  1.00  0.00     0.059 A 
ATOM     68  C   UNL A   1      48.720  27.107  28.416  1.00  0.00     0.059 A 
ATOM     69  F   UNL A   1      47.169  27.738  30.057  1.00  0.00    -0.206 F 
ATOM     70  C   UNL A   1      49.125  27.125  27.082  1.00  0.00     0.060 A 
BRANCH  70  71
ATOM     71  S   UNL A   1      50.565  26.170  26.560  1.00  0.00     0.124 S 
ATOM     72  O   UNL A   1      50.366  26.115  25.116  1.00  0.00    -0.237 OA
ATOM     73  O   UNL A   1      51.675  27.000  27.016  1.00  0.00    -0.237 OA
ATOM     74  O   UNL A   1      50.404  24.902  27.265  1.00  0.00    -0.744 OA
ENDBRANCH  70  71
ENDBRANCH  49  63
BRANCH  50  75
ATOM     75  C   UNL A   1      38.201  32.661  30.613  1.00  0.00     0.058 A 
ATOM     76  C   UNL A   1      37.719  32.634  31.931  1.00  0.00     0.135 A 
ATOM     77  C   UNL A   1      37.413  33.299  29.643  1.00  0.00     0.135 A 
ATOM     78  F   UNL A   1      38.430  32.023  32.891  1.00  0.00    -0.206 F 
ATOM     79  C   UNL A   1      36.494  33.199  32.272  1.00  0.00     0.059 A 
ATOM     80  C   UNL A   1      36.196  33.894  29.964  1.00  0.00     0.059 A 
ATOM     81  F   UNL A   1      37.829  33.355  28.368  1.00  0.00    -0.206 F 
ATOM     82  C   UNL A   1      35.739  33.827  31.280  1.00  0.00     0.060 A 
BRANCH  82  83
ATOM     83  S   UNL A   1      34.168  34.593  31.735  1.00  0.00     0.124 S 
ATOM     84  O   UNL A   1      33.512  34.710  30.438  1.00  0.00    -0.237 OA
ATOM     85  O   UNL A   1      33.601  33.610  32.654  1.00  0.00    -0.237 OA
ATOM     86  O   UNL A   1      34.579  35.851  32.352  1.00  0.00    -0.744 OA
ENDBRANCH  82  83
ENDBRANCH  50  75
BRANCH  62  87
ATOM     87  C   UNL A   1      44.825  34.835  30.752  1.00  0.00     0.058 A 
ATOM     88  C   UNL A   1      45.336  35.007  32.047  1.00  0.00     0.135 A 
ATOM     89  C   UNL A   1      44.982  35.894  29.841  1.00  0.00     0.135 A 
ATOM     90  F   UNL A   1      45.211  34.029  32.959  1.00  0.00    -0.206 F 
ATOM     91  C   UNL A   1      45.958  36.192  32.433  1.00  0.00     0.059 A 
ATOM     92  C   UNL A   1      45.623  37.077  30.198  1.00  0.00     0.059 A 
ATOM     93  F   UNL A   1      44.524  35.779  28.585  1.00  0.00    -0.206 F 
ATOM     94  C   UNL A   1      46.097  37.222  31.501  1.00  0.00     0.060 A 
BRANCH  94  95
ATOM     95  S   UNL A   1      46.934  38.743  32.001  1.00  0.00     0.124 S 
ATOM     96  O   UNL A   1      46.426  39.694  31.019  1.00  0.00    -0.237 OA
ATOM     97  O   UNL A   1      46.459  38.929  33.369  1.00  0.00    -0.237 OA
ATOM     98  O   UNL A   1      48.350  38.406  31.876  1.00  0.00    -0.744 OA
ENDBRANCH  94  95
ENDBRANCH  62  87
ENDBRANCH  36  37
ENDBRANCH  29  31
ENDBRANCH  28  29
ENDBRANCH  27  28
ENDBRANCH   1  27
TORSDOF 22
ENDMDL
