MODEL 1
REMARK VINA RESULT:     -11.8      0.000      0.000
REMARK SMILES C[C@@H](C(=O)OCCOC(=O)c1ccc(-c2c3nc(c(-c4c(F)cc(S(=O)(=O)[O-])cc4F)c4ccc([nH]4)c(-c4c(F)cc(S(=O)(=O)[O-])cc4F)c4nc(c(-c5c(F)cc(S(=O)(=O)[O-])cc5F)c5ccc2[nH]5)C=C4)C=C3)cc1)c1ccc(C[C@H]2CCC[C@H]2O)cc1
REMARK SMILES IDX 6 1 5 2 3 3 4 4 2 5 1 6 77 7 78 8 89 9 79 10 88 11 80 12
REMARK SMILES IDX 81 13 82 14 83 15 86 16 84 17 85 18 87 19 7 21 8 22 9 23
REMARK SMILES IDX 10 24 11 25 12 26 76 27 13 28 75 29 14 30 15 31 16 32 69 33
REMARK SMILES IDX 17 34 74 35 68 36 70 37 18 38 73 39 67 40 66 41 19 43 53 44
REMARK SMILES IDX 32 45 52 46 33 47 36 48 51 49 71 50 34 51 35 52 50 54 72 55
REMARK SMILES IDX 37 56 20 57 21 58 30 59 22 60 23 61 29 62 31 63 24 64 25 65
REMARK SMILES IDX 26 66 27 67 28 68 54 69 55 70 64 71 56 72 57 73 63 74 65 75
REMARK SMILES IDX 58 76 59 77 60 78 61 79 62 80 38 81 39 82 48 83 40 84 41 85
REMARK SMILES IDX 47 86 49 87 42 88 43 89 44 90 45 91 46 92
REMARK H PARENT 87 20 70 42 36 53
REMARK Flexibility Score: inf
ROOT
ATOM      1  C   UNL A   1      32.940  30.059  27.258  1.00  0.00     0.274 C 
ENDROOT
BRANCH   1   2
ATOM      2  O   UNL A   1      33.138  28.633  27.362  1.00  0.00    -0.462 OA
BRANCH   2   3
ATOM      3  C   UNL A   1      32.039  27.843  27.224  1.00  0.00     0.313 C 
ATOM      4  O   UNL A   1      31.088  27.845  27.997  1.00  0.00    -0.252 OA
BRANCH   3   5
ATOM      5  C   UNL A   1      32.144  26.906  26.013  1.00  0.00     0.126 C 
ATOM      6  C   UNL A   1      33.577  26.590  25.580  1.00  0.00     0.025 C 
BRANCH   5   7
ATOM      7  C   UNL A   1      31.312  27.423  24.852  1.00  0.00    -0.034 A 
ATOM      8  C   UNL A   1      31.667  28.595  24.173  1.00  0.00     0.005 A 
ATOM      9  C   UNL A   1      30.128  26.770  24.480  1.00  0.00     0.005 A 
ATOM     10  C   UNL A   1      30.813  29.149  23.219  1.00  0.00     0.004 A 
ATOM     11  C   UNL A   1      29.276  27.327  23.522  1.00  0.00     0.004 A 
ATOM     12  C   UNL A   1      29.581  28.554  22.927  1.00  0.00    -0.048 A 
BRANCH  12  13
ATOM     13  C   UNL A   1      28.592  29.259  22.031  1.00  0.00     0.041 C 
BRANCH  13  14
ATOM     14  C   UNL A   1      28.745  30.782  21.856  1.00  0.00     0.022 C 
ATOM     15  C   UNL A   1      28.026  31.416  20.657  1.00  0.00     0.007 C 
ATOM     16  C   UNL A   1      28.350  31.689  23.026  1.00  0.00     0.117 C 
ATOM     17  C   UNL A   1      27.844  32.898  21.017  1.00  0.00     0.003 C 
ATOM     18  C   UNL A   1      28.442  33.077  22.411  1.00  0.00     0.032 C 
BRANCH  16  19
ATOM     19  O   UNL A   1      27.022  31.507  23.499  1.00  0.00    -0.393 OA
ATOM     20  H   UNL A   1      26.473  32.257  23.220  1.00  0.00     0.210 HD
ENDBRANCH  16  19
ENDBRANCH  13  14
ENDBRANCH  12  13
ENDBRANCH   5   7
ENDBRANCH   3   5
ENDBRANCH   2   3
ENDBRANCH   1   2
BRANCH   1  21
ATOM     21  C   UNL A   1      34.260  30.759  27.567  1.00  0.00     0.275 C 
BRANCH  21  22
ATOM     22  O   UNL A   1      35.055  29.878  28.377  1.00  0.00    -0.458 OA
BRANCH  22  23
ATOM     23  C   UNL A   1      36.052  30.446  29.097  1.00  0.00     0.338 C 
ATOM     24  O   UNL A   1      35.933  31.331  29.927  1.00  0.00    -0.246 OA
BRANCH  23  25
ATOM     25  C   UNL A   1      37.349  29.831  28.721  1.00  0.00     0.060 A 
ATOM     26  C   UNL A   1      38.165  29.250  29.686  1.00  0.00     0.016 A 
ATOM     27  C   UNL A   1      37.797  29.902  27.396  1.00  0.00     0.016 A 
ATOM     28  C   UNL A   1      39.446  28.824  29.335  1.00  0.00     0.010 A 
ATOM     29  C   UNL A   1      39.063  29.404  27.042  1.00  0.00     0.010 A 
ATOM     30  C   UNL A   1      39.928  28.895  28.020  1.00  0.00    -0.014 A 
BRANCH  30  31
ATOM     31  C   UNL A   1      41.359  28.543  27.751  1.00  0.00     0.031 A 
ATOM     32  C   UNL A   1      42.467  29.470  28.196  1.00  0.00     0.074 A 
ATOM     33  C   UNL A   1      41.694  27.334  27.250  1.00  0.00     0.049 A 
ATOM     34  N   UNL A   1      43.758  29.360  28.005  1.00  0.00    -0.248 NA
ATOM     35  C   UNL A   1      42.080  30.681  28.939  1.00  0.00     0.031 C 
ATOM     36  C   UNL A   1      40.747  26.294  26.845  1.00  0.00     0.029 A 
ATOM     37  N   UNL A   1      42.922  26.731  27.093  1.00  0.00    -0.354 N 
ATOM     38  C   UNL A   1      44.318  30.541  28.483  1.00  0.00     0.074 A 
ATOM     39  C   UNL A   1      43.238  31.319  29.047  1.00  0.00     0.031 C 
ATOM     40  C   UNL A   1      41.411  25.141  26.663  1.00  0.00     0.029 A 
ATOM     41  C   UNL A   1      42.840  25.378  26.836  1.00  0.00     0.049 A 
ATOM     42  H   UNL A   1      43.776  27.217  27.159  1.00  0.00     0.167 HD
ATOM     43  C   UNL A   1      45.606  30.954  28.406  1.00  0.00     0.037 A 
ATOM     44  C   UNL A   1      43.807  24.438  26.768  1.00  0.00     0.037 A 
ATOM     45  C   UNL A   1      46.688  30.138  27.919  1.00  0.00     0.049 A 
ATOM     46  C   UNL A   1      45.248  24.873  26.811  1.00  0.00     0.074 A 
ATOM     47  C   UNL A   1      48.006  30.491  27.688  1.00  0.00     0.029 A 
ATOM     48  N   UNL A   1      46.582  28.786  27.631  1.00  0.00    -0.354 N 
ATOM     49  N   UNL A   1      45.746  26.055  27.082  1.00  0.00    -0.248 NA
ATOM     50  C   UNL A   1      46.255  23.858  26.466  1.00  0.00     0.031 C 
ATOM     51  C   UNL A   1      48.693  29.356  27.239  1.00  0.00     0.029 A 
ATOM     52  C   UNL A   1      47.809  28.290  27.226  1.00  0.00     0.049 A 
ATOM     53  H   UNL A   1      45.755  28.257  27.704  1.00  0.00     0.167 HD
ATOM     54  C   UNL A   1      47.116  25.942  26.869  1.00  0.00     0.074 A 
ATOM     55  C   UNL A   1      47.379  24.556  26.544  1.00  0.00     0.031 C 
ATOM     56  C   UNL A   1      48.060  26.914  26.885  1.00  0.00     0.037 A 
BRANCH  43  57
ATOM     57  C   UNL A   1      45.888  32.393  28.728  1.00  0.00     0.058 A 
ATOM     58  C   UNL A   1      46.400  32.815  29.962  1.00  0.00     0.135 A 
ATOM     59  C   UNL A   1      45.641  33.371  27.749  1.00  0.00     0.135 A 
ATOM     60  F   UNL A   1      46.632  31.925  30.939  1.00  0.00    -0.206 F 
ATOM     61  C   UNL A   1      46.637  34.164  30.223  1.00  0.00     0.059 A 
ATOM     62  C   UNL A   1      45.888  34.719  27.980  1.00  0.00     0.059 A 
ATOM     63  F   UNL A   1      45.148  33.018  26.551  1.00  0.00    -0.206 F 
ATOM     64  C   UNL A   1      46.372  35.108  29.228  1.00  0.00     0.060 A 
BRANCH  64  65
ATOM     65  S   UNL A   1      46.666  36.856  29.576  1.00  0.00     0.124 S 
ATOM     66  O   UNL A   1      45.429  37.227  30.258  1.00  0.00    -0.237 OA
ATOM     67  O   UNL A   1      47.861  36.815  30.411  1.00  0.00    -0.237 OA
ATOM     68  O   UNL A   1      46.850  37.439  28.251  1.00  0.00    -0.744 OA
ENDBRANCH  64  65
ENDBRANCH  43  57
BRANCH  44  69
ATOM     69  C   UNL A   1      43.473  22.990  26.655  1.00  0.00     0.058 A 
ATOM     70  C   UNL A   1      43.630  22.330  25.425  1.00  0.00     0.135 A 
ATOM     71  C   UNL A   1      42.982  22.241  27.734  1.00  0.00     0.135 A 
ATOM     72  F   UNL A   1      44.089  23.002  24.358  1.00  0.00    -0.206 F 
ATOM     73  C   UNL A   1      43.308  20.986  25.266  1.00  0.00     0.059 A 
ATOM     74  C   UNL A   1      42.682  20.887  27.608  1.00  0.00     0.059 A 
ATOM     75  F   UNL A   1      42.807  22.819  28.932  1.00  0.00    -0.206 F 
ATOM     76  C   UNL A   1      42.834  20.272  26.365  1.00  0.00     0.060 A 
BRANCH  76  77
ATOM     77  S   UNL A   1      42.463  18.512  26.187  1.00  0.00     0.124 S 
ATOM     78  O   UNL A   1      41.073  18.551  25.751  1.00  0.00    -0.237 OA
ATOM     79  O   UNL A   1      43.434  18.080  25.186  1.00  0.00    -0.237 OA
ATOM     80  O   UNL A   1      42.694  17.995  27.532  1.00  0.00    -0.744 OA
ENDBRANCH  76  77
ENDBRANCH  44  69
BRANCH  56  81
ATOM     81  C   UNL A   1      49.449  26.531  26.462  1.00  0.00     0.058 A 
ATOM     82  C   UNL A   1      50.354  25.984  27.386  1.00  0.00     0.135 A 
ATOM     83  C   UNL A   1      49.865  26.650  25.128  1.00  0.00     0.135 A 
ATOM     84  F   UNL A   1      50.003  25.851  28.675  1.00  0.00    -0.206 F 
ATOM     85  C   UNL A   1      51.629  25.584  27.008  1.00  0.00     0.059 A 
ATOM     86  C   UNL A   1      51.132  26.239  24.721  1.00  0.00     0.059 A 
ATOM     87  F   UNL A   1      49.036  27.160  24.203  1.00  0.00    -0.206 F 
ATOM     88  C   UNL A   1      52.010  25.715  25.671  1.00  0.00     0.060 A 
BRANCH  88  89
ATOM     89  S   UNL A   1      53.656  25.155  25.185  1.00  0.00     0.124 S 
ATOM     90  O   UNL A   1      53.809  25.790  23.880  1.00  0.00    -0.237 OA
ATOM     91  O   UNL A   1      54.499  25.690  26.251  1.00  0.00    -0.237 OA
ATOM     92  O   UNL A   1      53.528  23.702  25.166  1.00  0.00    -0.744 OA
ENDBRANCH  88  89
ENDBRANCH  56  81
ENDBRANCH  30  31
ENDBRANCH  23  25
ENDBRANCH  22  23
ENDBRANCH  21  22
ENDBRANCH   1  21
TORSDOF 18
ENDMDL
MODEL 2
REMARK VINA RESULT:     -11.6      6.251     11.682
REMARK SMILES C[C@@H](C(=O)OCCOC(=O)c1ccc(-c2c3nc(c(-c4c(F)cc(S(=O)(=O)[O-])cc4F)c4ccc([nH]4)c(-c4c(F)cc(S(=O)(=O)[O-])cc4F)c4nc(c(-c5c(F)cc(S(=O)(=O)[O-])cc5F)c5ccc2[nH]5)C=C4)C=C3)cc1)c1ccc(C[C@H]2CCC[C@H]2O)cc1
REMARK SMILES IDX 6 1 5 2 3 3 4 4 2 5 1 6 77 7 78 8 89 9 79 10 88 11 80 12
REMARK SMILES IDX 81 13 82 14 83 15 86 16 84 17 85 18 87 19 7 21 8 22 9 23
REMARK SMILES IDX 10 24 11 25 12 26 76 27 13 28 75 29 14 30 15 31 16 32 69 33
REMARK SMILES IDX 17 34 74 35 68 36 70 37 18 38 73 39 67 40 66 41 19 43 53 44
REMARK SMILES IDX 32 45 52 46 33 47 36 48 51 49 71 50 34 51 35 52 50 54 72 55
REMARK SMILES IDX 37 56 20 57 21 58 30 59 22 60 23 61 29 62 31 63 24 64 25 65
REMARK SMILES IDX 26 66 27 67 28 68 54 69 55 70 64 71 56 72 57 73 63 74 65 75
REMARK SMILES IDX 58 76 59 77 60 78 61 79 62 80 38 81 39 82 48 83 40 84 41 85
REMARK SMILES IDX 47 86 49 87 42 88 43 89 44 90 45 91 46 92
REMARK H PARENT 87 20 70 42 36 53
REMARK Flexibility Score: inf
ROOT
ATOM      1  C   UNL A   1      34.378  34.391  29.417  1.00  0.00     0.274 C 
ENDROOT
BRANCH   1   2
ATOM      2  O   UNL A   1      33.914  34.044  30.738  1.00  0.00    -0.462 OA
BRANCH   2   3
ATOM      3  C   UNL A   1      34.762  33.326  31.524  1.00  0.00     0.313 C 
ATOM      4  O   UNL A   1      35.018  32.139  31.355  1.00  0.00    -0.252 OA
BRANCH   3   5
ATOM      5  C   UNL A   1      35.327  34.158  32.683  1.00  0.00     0.126 C 
ATOM      6  C   UNL A   1      34.615  35.493  32.910  1.00  0.00     0.025 C 
BRANCH   5   7
ATOM      7  C   UNL A   1      36.828  34.344  32.538  1.00  0.00    -0.034 A 
ATOM      8  C   UNL A   1      37.451  34.240  31.288  1.00  0.00     0.005 A 
ATOM      9  C   UNL A   1      37.630  34.556  33.668  1.00  0.00     0.005 A 
ATOM     10  C   UNL A   1      38.843  34.251  31.186  1.00  0.00     0.004 A 
ATOM     11  C   UNL A   1      39.024  34.568  33.562  1.00  0.00     0.004 A 
ATOM     12  C   UNL A   1      39.645  34.353  32.328  1.00  0.00    -0.048 A 
BRANCH  12  13
ATOM     13  C   UNL A   1      41.141  34.181  32.222  1.00  0.00     0.041 C 
BRANCH  13  14
ATOM     14  C   UNL A   1      41.672  32.804  31.781  1.00  0.00     0.022 C 
ATOM     15  C   UNL A   1      41.543  32.459  30.290  1.00  0.00     0.007 C 
ATOM     16  C   UNL A   1      43.128  32.451  32.101  1.00  0.00     0.117 C 
ATOM     17  C   UNL A   1      42.604  31.382  30.019  1.00  0.00     0.003 C 
ATOM     18  C   UNL A   1      43.323  31.146  31.345  1.00  0.00     0.032 C 
BRANCH  16  19
ATOM     19  O   UNL A   1      44.086  33.384  31.620  1.00  0.00    -0.393 OA
ATOM     20  H   UNL A   1      43.973  34.231  32.079  1.00  0.00     0.210 HD
ENDBRANCH  16  19
ENDBRANCH  13  14
ENDBRANCH  12  13
ENDBRANCH   5   7
ENDBRANCH   3   5
ENDBRANCH   2   3
ENDBRANCH   1   2
BRANCH   1  21
ATOM     21  C   UNL A   1      33.610  33.557  28.395  1.00  0.00     0.275 C 
BRANCH  21  22
ATOM     22  O   UNL A   1      34.564  32.932  27.521  1.00  0.00    -0.458 OA
BRANCH  22  23
ATOM     23  C   UNL A   1      34.531  31.579  27.452  1.00  0.00     0.338 C 
ATOM     24  O   UNL A   1      33.643  30.900  26.967  1.00  0.00    -0.246 OA
BRANCH  23  25
ATOM     25  C   UNL A   1      35.757  31.020  28.072  1.00  0.00     0.060 A 
ATOM     26  C   UNL A   1      35.789  29.705  28.522  1.00  0.00     0.016 A 
ATOM     27  C   UNL A   1      36.871  31.844  28.281  1.00  0.00     0.016 A 
ATOM     28  C   UNL A   1      36.894  29.253  29.243  1.00  0.00     0.010 A 
ATOM     29  C   UNL A   1      38.007  31.354  28.948  1.00  0.00     0.010 A 
ATOM     30  C   UNL A   1      38.017  30.058  29.480  1.00  0.00    -0.014 A 
BRANCH  30  31
ATOM     31  C   UNL A   1      39.102  29.544  30.377  1.00  0.00     0.031 A 
ATOM     32  C   UNL A   1      40.246  28.739  29.804  1.00  0.00     0.074 A 
ATOM     33  C   UNL A   1      39.163  29.914  31.675  1.00  0.00     0.049 A 
ATOM     34  N   UNL A   1      41.244  28.167  30.429  1.00  0.00    -0.248 NA
ATOM     35  C   UNL A   1      40.268  28.537  28.346  1.00  0.00     0.031 C 
ATOM     36  C   UNL A   1      38.181  30.754  32.363  1.00  0.00     0.029 A 
ATOM     37  N   UNL A   1      40.143  29.721  32.623  1.00  0.00    -0.354 N 
ATOM     38  C   UNL A   1      41.932  27.436  29.465  1.00  0.00     0.074 A 
ATOM     39  C   UNL A   1      41.286  27.700  28.199  1.00  0.00     0.031 C 
ATOM     40  C   UNL A   1      38.688  31.148  33.542  1.00  0.00     0.029 A 
ATOM     41  C   UNL A   1      39.984  30.509  33.745  1.00  0.00     0.049 A 
ATOM     42  H   UNL A   1      40.886  29.085  32.512  1.00  0.00     0.167 HD
ATOM     43  C   UNL A   1      42.970  26.583  29.637  1.00  0.00     0.037 A 
ATOM     44  C   UNL A   1      40.800  30.705  34.801  1.00  0.00     0.037 A 
ATOM     45  C   UNL A   1      43.659  26.390  30.887  1.00  0.00     0.049 A 
ATOM     46  C   UNL A   1      42.031  29.849  34.938  1.00  0.00     0.074 A 
ATOM     47  C   UNL A   1      44.644  25.471  31.203  1.00  0.00     0.029 A 
ATOM     48  N   UNL A   1      43.463  27.168  32.018  1.00  0.00    -0.354 N 
ATOM     49  N   UNL A   1      42.557  29.014  34.075  1.00  0.00    -0.248 NA
ATOM     50  C   UNL A   1      42.738  29.908  36.227  1.00  0.00     0.031 C 
ATOM     51  C   UNL A   1      45.029  25.679  32.534  1.00  0.00     0.029 A 
ATOM     52  C   UNL A   1      44.308  26.752  33.032  1.00  0.00     0.049 A 
ATOM     53  H   UNL A   1      42.818  27.908  32.088  1.00  0.00     0.167 HD
ATOM     54  C   UNL A   1      43.611  28.399  34.741  1.00  0.00     0.074 A 
ATOM     55  C   UNL A   1      43.710  29.026  36.042  1.00  0.00     0.031 C 
ATOM     56  C   UNL A   1      44.387  27.367  34.331  1.00  0.00     0.037 A 
BRANCH  43  57
ATOM     57  C   UNL A   1      43.331  25.695  28.481  1.00  0.00     0.058 A 
ATOM     58  C   UNL A   1      42.763  24.429  28.281  1.00  0.00     0.135 A 
ATOM     59  C   UNL A   1      44.273  26.149  27.542  1.00  0.00     0.135 A 
ATOM     60  F   UNL A   1      41.876  23.939  29.160  1.00  0.00    -0.206 F 
ATOM     61  C   UNL A   1      43.136  23.633  27.200  1.00  0.00     0.059 A 
ATOM     62  C   UNL A   1      44.645  25.380  26.446  1.00  0.00     0.059 A 
ATOM     63  F   UNL A   1      44.848  27.353  27.690  1.00  0.00    -0.206 F 
ATOM     64  C   UNL A   1      44.082  24.115  26.292  1.00  0.00     0.060 A 
BRANCH  64  65
ATOM     65  S   UNL A   1      44.573  23.073  24.901  1.00  0.00     0.124 S 
ATOM     66  O   UNL A   1      45.615  23.887  24.282  1.00  0.00    -0.237 OA
ATOM     67  O   UNL A   1      45.030  21.856  25.563  1.00  0.00    -0.237 OA
ATOM     68  O   UNL A   1      43.342  22.936  24.128  1.00  0.00    -0.744 OA
ENDBRANCH  64  65
ENDBRANCH  43  57
BRANCH  44  69
ATOM     69  C   UNL A   1      40.507  31.749  35.824  1.00  0.00     0.058 A 
ATOM     70  C   UNL A   1      39.417  31.587  36.697  1.00  0.00     0.135 A 
ATOM     71  C   UNL A   1      41.268  32.919  35.950  1.00  0.00     0.135 A 
ATOM     72  F   UNL A   1      38.651  30.488  36.613  1.00  0.00    -0.206 F 
ATOM     73  C   UNL A   1      39.090  32.545  37.650  1.00  0.00     0.059 A 
ATOM     74  C   UNL A   1      40.979  33.879  36.917  1.00  0.00     0.059 A 
ATOM     75  F   UNL A   1      42.317  33.132  35.141  1.00  0.00    -0.206 F 
ATOM     76  C   UNL A   1      39.879  33.690  37.753  1.00  0.00     0.060 A 
BRANCH  76  77
ATOM     77  S   UNL A   1      39.498  34.918  39.023  1.00  0.00     0.124 S 
ATOM     78  O   UNL A   1      39.279  36.112  38.216  1.00  0.00    -0.237 OA
ATOM     79  O   UNL A   1      38.315  34.357  39.666  1.00  0.00    -0.237 OA
ATOM     80  O   UNL A   1      40.705  34.918  39.844  1.00  0.00    -0.744 OA
ENDBRANCH  76  77
ENDBRANCH  44  69
BRANCH  56  81
ATOM     81  C   UNL A   1      45.356  26.796  35.326  1.00  0.00     0.058 A 
ATOM     82  C   UNL A   1      46.665  27.296  35.418  1.00  0.00     0.135 A 
ATOM     83  C   UNL A   1      44.969  25.796  36.231  1.00  0.00     0.135 A 
ATOM     84  F   UNL A   1      47.083  28.253  34.574  1.00  0.00    -0.206 F 
ATOM     85  C   UNL A   1      47.565  26.812  36.360  1.00  0.00     0.059 A 
ATOM     86  C   UNL A   1      45.848  25.309  37.195  1.00  0.00     0.059 A 
ATOM     87  F   UNL A   1      43.727  25.290  36.190  1.00  0.00    -0.206 F 
ATOM     88  C   UNL A   1      47.147  25.817  37.246  1.00  0.00     0.060 A 
BRANCH  88  89
ATOM     89  S   UNL A   1      48.313  25.225  38.490  1.00  0.00     0.124 S 
ATOM     90  O   UNL A   1      49.289  26.310  38.519  1.00  0.00    -0.237 OA
ATOM     91  O   UNL A   1      47.472  25.099  39.677  1.00  0.00    -0.237 OA
ATOM     92  O   UNL A   1      48.792  23.964  37.932  1.00  0.00    -0.744 OA
ENDBRANCH  88  89
ENDBRANCH  56  81
ENDBRANCH  30  31
ENDBRANCH  23  25
ENDBRANCH  22  23
ENDBRANCH  21  22
ENDBRANCH   1  21
TORSDOF 18
ENDMDL
MODEL 3
REMARK VINA RESULT:     -11.5      0.964      8.329
REMARK SMILES C[C@@H](C(=O)OCCOC(=O)c1ccc(-c2c3nc(c(-c4c(F)cc(S(=O)(=O)[O-])cc4F)c4ccc([nH]4)c(-c4c(F)cc(S(=O)(=O)[O-])cc4F)c4nc(c(-c5c(F)cc(S(=O)(=O)[O-])cc5F)c5ccc2[nH]5)C=C4)C=C3)cc1)c1ccc(C[C@H]2CCC[C@H]2O)cc1
REMARK SMILES IDX 6 1 5 2 3 3 4 4 2 5 1 6 77 7 78 8 89 9 79 10 88 11 80 12
REMARK SMILES IDX 81 13 82 14 83 15 86 16 84 17 85 18 87 19 7 21 8 22 9 23
REMARK SMILES IDX 10 24 11 25 12 26 76 27 13 28 75 29 14 30 15 31 16 32 69 33
REMARK SMILES IDX 17 34 74 35 68 36 70 37 18 38 73 39 67 40 66 41 19 43 53 44
REMARK SMILES IDX 32 45 52 46 33 47 36 48 51 49 71 50 34 51 35 52 50 54 72 55
REMARK SMILES IDX 37 56 20 57 21 58 30 59 22 60 23 61 29 62 31 63 24 64 25 65
REMARK SMILES IDX 26 66 27 67 28 68 54 69 55 70 64 71 56 72 57 73 63 74 65 75
REMARK SMILES IDX 58 76 59 77 60 78 61 79 62 80 38 81 39 82 48 83 40 84 41 85
REMARK SMILES IDX 47 86 49 87 42 88 43 89 44 90 45 91 46 92
REMARK H PARENT 87 20 70 42 36 53
REMARK Flexibility Score: inf
ROOT
ATOM      1  C   UNL A   1      33.381  30.124  26.934  1.00  0.00     0.274 C 
ENDROOT
BRANCH   1   2
ATOM      2  O   UNL A   1      33.462  28.724  27.271  1.00  0.00    -0.462 OA
BRANCH   2   3
ATOM      3  C   UNL A   1      32.316  27.996  27.178  1.00  0.00     0.313 C 
ATOM      4  O   UNL A   1      31.400  28.049  27.991  1.00  0.00    -0.252 OA
BRANCH   3   5
ATOM      5  C   UNL A   1      32.317  27.060  25.963  1.00  0.00     0.126 C 
ATOM      6  C   UNL A   1      33.678  26.913  25.279  1.00  0.00     0.025 C 
BRANCH   5   7
ATOM      7  C   UNL A   1      31.235  27.453  24.972  1.00  0.00    -0.034 A 
ATOM      8  C   UNL A   1      31.188  28.741  24.426  1.00  0.00     0.005 A 
ATOM      9  C   UNL A   1      30.217  26.548  24.637  1.00  0.00     0.005 A 
ATOM     10  C   UNL A   1      30.103  29.143  23.646  1.00  0.00     0.004 A 
ATOM     11  C   UNL A   1      29.132  26.954  23.854  1.00  0.00     0.004 A 
ATOM     12  C   UNL A   1      29.034  28.273  23.403  1.00  0.00    -0.048 A 
BRANCH  12  13
ATOM     13  C   UNL A   1      27.789  28.777  22.714  1.00  0.00     0.041 C 
BRANCH  13  14
ATOM     14  C   UNL A   1      27.667  30.294  22.480  1.00  0.00     0.022 C 
ATOM     15  C   UNL A   1      28.285  31.210  23.546  1.00  0.00     0.007 C 
ATOM     16  C   UNL A   1      28.202  30.871  21.165  1.00  0.00     0.117 C 
ATOM     17  C   UNL A   1      28.548  32.550  22.843  1.00  0.00     0.003 C 
ATOM     18  C   UNL A   1      28.094  32.371  21.396  1.00  0.00     0.032 C 
BRANCH  16  19
ATOM     19  O   UNL A   1      29.564  30.567  20.892  1.00  0.00    -0.393 OA
ATOM     20  H   UNL A   1      29.614  29.939  20.154  1.00  0.00     0.210 HD
ENDBRANCH  16  19
ENDBRANCH  13  14
ENDBRANCH  12  13
ENDBRANCH   5   7
ENDBRANCH   3   5
ENDBRANCH   2   3
ENDBRANCH   1   2
BRANCH   1  21
ATOM     21  C   UNL A   1      34.109  30.928  28.008  1.00  0.00     0.275 C 
BRANCH  21  22
ATOM     22  O   UNL A   1      35.508  30.607  27.936  1.00  0.00    -0.458 OA
BRANCH  22  23
ATOM     23  C   UNL A   1      36.163  30.475  29.115  1.00  0.00     0.338 C 
ATOM     24  O   UNL A   1      35.742  30.783  30.217  1.00  0.00    -0.246 OA
BRANCH  23  25
ATOM     25  C   UNL A   1      37.506  29.892  28.874  1.00  0.00     0.060 A 
ATOM     26  C   UNL A   1      38.317  29.512  29.937  1.00  0.00     0.016 A 
ATOM     27  C   UNL A   1      37.998  29.793  27.566  1.00  0.00     0.016 A 
ATOM     28  C   UNL A   1      39.632  29.119  29.692  1.00  0.00     0.010 A 
ATOM     29  C   UNL A   1      39.304  29.327  27.327  1.00  0.00     0.010 A 
ATOM     30  C   UNL A   1      40.158  29.023  28.396  1.00  0.00    -0.014 A 
BRANCH  30  31
ATOM     31  C   UNL A   1      41.617  28.724  28.224  1.00  0.00     0.031 A 
ATOM     32  C   UNL A   1      42.059  27.392  27.663  1.00  0.00     0.074 A 
ATOM     33  C   UNL A   1      42.549  29.681  28.421  1.00  0.00     0.049 A 
ATOM     34  N   UNL A   1      43.273  26.933  27.493  1.00  0.00    -0.248 NA
ATOM     35  C   UNL A   1      41.007  26.448  27.251  1.00  0.00     0.031 C 
ATOM     36  C   UNL A   1      42.280  31.044  28.885  1.00  0.00     0.029 A 
ATOM     37  N   UNL A   1      43.900  29.693  28.155  1.00  0.00    -0.354 N 
ATOM     38  C   UNL A   1      43.130  25.612  27.083  1.00  0.00     0.074 A 
ATOM     39  C   UNL A   1      41.712  25.365  26.951  1.00  0.00     0.031 C 
ATOM     40  C   UNL A   1      43.376  31.796  28.700  1.00  0.00     0.029 A 
ATOM     41  C   UNL A   1      44.459  30.953  28.204  1.00  0.00     0.049 A 
ATOM     42  H   UNL A   1      44.418  28.881  27.950  1.00  0.00     0.167 HD
ATOM     43  C   UNL A   1      44.095  24.681  26.890  1.00  0.00     0.037 A 
ATOM     44  C   UNL A   1      45.694  31.378  27.867  1.00  0.00     0.037 A 
ATOM     45  C   UNL A   1      45.507  24.958  26.942  1.00  0.00     0.049 A 
ATOM     46  C   UNL A   1      46.746  30.357  27.522  1.00  0.00     0.074 A 
ATOM     47  C   UNL A   1      46.569  24.073  26.877  1.00  0.00     0.029 A 
ATOM     48  N   UNL A   1      46.054  26.229  27.026  1.00  0.00    -0.354 N 
ATOM     49  N   UNL A   1      46.613  29.068  27.326  1.00  0.00    -0.248 NA
ATOM     50  C   UNL A   1      48.132  30.841  27.428  1.00  0.00     0.031 C 
ATOM     51  C   UNL A   1      47.759  24.808  26.944  1.00  0.00     0.029 A 
ATOM     52  C   UNL A   1      47.436  26.153  27.014  1.00  0.00     0.049 A 
ATOM     53  H   UNL A   1      45.535  27.063  27.086  1.00  0.00     0.167 HD
ATOM     54  C   UNL A   1      47.903  28.579  27.155  1.00  0.00     0.074 A 
ATOM     55  C   UNL A   1      48.792  29.720  27.174  1.00  0.00     0.031 C 
ATOM     56  C   UNL A   1      48.316  27.292  27.053  1.00  0.00     0.037 A 
BRANCH  43  57
ATOM     57  C   UNL A   1      43.655  23.253  26.741  1.00  0.00     0.058 A 
ATOM     58  C   UNL A   1      43.092  22.512  27.789  1.00  0.00     0.135 A 
ATOM     59  C   UNL A   1      43.799  22.622  25.493  1.00  0.00     0.135 A 
ATOM     60  F   UNL A   1      42.955  23.059  29.006  1.00  0.00    -0.206 F 
ATOM     61  C   UNL A   1      42.708  21.184  27.610  1.00  0.00     0.059 A 
ATOM     62  C   UNL A   1      43.404  21.306  25.286  1.00  0.00     0.059 A 
ATOM     63  F   UNL A   1      44.335  23.288  24.457  1.00  0.00    -0.206 F 
ATOM     64  C   UNL A   1      42.873  20.589  26.357  1.00  0.00     0.060 A 
BRANCH  64  65
ATOM     65  S   UNL A   1      42.388  18.863  26.135  1.00  0.00     0.124 S 
ATOM     66  O   UNL A   1      42.635  18.319  27.467  1.00  0.00    -0.237 OA
ATOM     67  O   UNL A   1      40.985  18.977  25.749  1.00  0.00    -0.237 OA
ATOM     68  O   UNL A   1      43.287  18.390  25.087  1.00  0.00    -0.744 OA
ENDBRANCH  64  65
ENDBRANCH  43  57
BRANCH  44  69
ATOM     69  C   UNL A   1      46.030  32.830  27.827  1.00  0.00     0.058 A 
ATOM     70  C   UNL A   1      45.756  33.581  26.672  1.00  0.00     0.135 A 
ATOM     71  C   UNL A   1      46.636  33.495  28.903  1.00  0.00     0.135 A 
ATOM     72  F   UNL A   1      45.184  32.991  25.610  1.00  0.00    -0.206 F 
ATOM     73  C   UNL A   1      46.074  34.932  26.580  1.00  0.00     0.059 A 
ATOM     74  C   UNL A   1      46.936  34.854  28.847  1.00  0.00     0.059 A 
ATOM     75  F   UNL A   1      46.925  32.829  30.031  1.00  0.00    -0.206 F 
ATOM     76  C   UNL A   1      46.664  35.561  27.675  1.00  0.00     0.060 A 
BRANCH  76  77
ATOM     77  S   UNL A   1      47.034  37.327  27.590  1.00  0.00     0.124 S 
ATOM     78  O   UNL A   1      45.882  37.899  28.277  1.00  0.00    -0.237 OA
ATOM     79  O   UNL A   1      48.308  37.422  28.296  1.00  0.00    -0.237 OA
ATOM     80  O   UNL A   1      47.106  37.575  26.154  1.00  0.00    -0.744 OA
ENDBRANCH  76  77
ENDBRANCH  44  69
BRANCH  56  81
ATOM     81  C   UNL A   1      49.796  27.044  27.035  1.00  0.00     0.058 A 
ATOM     82  C   UNL A   1      50.503  26.840  28.232  1.00  0.00     0.135 A 
ATOM     83  C   UNL A   1      50.506  26.947  25.829  1.00  0.00     0.135 A 
ATOM     84  F   UNL A   1      49.868  26.922  29.412  1.00  0.00    -0.206 F 
ATOM     85  C   UNL A   1      51.865  26.567  28.237  1.00  0.00     0.059 A 
ATOM     86  C   UNL A   1      51.868  26.656  25.808  1.00  0.00     0.059 A 
ATOM     87  F   UNL A   1      49.877  27.126  24.657  1.00  0.00    -0.206 F 
ATOM     88  C   UNL A   1      52.540  26.477  27.018  1.00  0.00     0.060 A 
BRANCH  88  89
ATOM     89  S   UNL A   1      54.302  26.083  27.036  1.00  0.00     0.124 S 
ATOM     90  O   UNL A   1      54.296  24.685  26.618  1.00  0.00    -0.237 OA
ATOM     91  O   UNL A   1      54.847  27.030  26.068  1.00  0.00    -0.237 OA
ATOM     92  O   UNL A   1      54.688  26.322  28.423  1.00  0.00    -0.744 OA
ENDBRANCH  88  89
ENDBRANCH  56  81
ENDBRANCH  30  31
ENDBRANCH  23  25
ENDBRANCH  22  23
ENDBRANCH  21  22
ENDBRANCH   1  21
TORSDOF 18
ENDMDL
