MODEL 1
REMARK VINA RESULT:     -12.2      0.000      0.000
REMARK SMILES CC1(C)[C@@](C)(C(=O)Nc2ccc(Cl)cc2Cl)CC[C@]1(C)C(=O)OCCOC(=O)c1ccc(-c2c3nc(c(-c4c(F)cc(S(=O)(=O)[O-])cc4F)c4ccc([nH]4)c(-c4c(F)cc(S(=O)(=O)[O-])cc4F)c4nc(c(-c5c(F)cc(S(=O)(=O)[O-])cc5F)c5ccc2[nH]5)C=C4)C=C3)cc1
REMARK SMILES IDX 25 1 24 2 23 3 21 4 22 5 19 6 1 7 2 8 3 9 4 10 5 11 17 12
REMARK SMILES IDX 18 13 20 14 6 15 7 16 8 17 9 19 10 20 15 21 11 22 14 23
REMARK SMILES IDX 16 24 12 25 13 26 26 27 27 28 28 29 29 30 30 31 94 32 31 33
REMARK SMILES IDX 93 34 32 35 33 36 34 37 87 38 35 39 92 40 86 41 88 42 36 43
REMARK SMILES IDX 91 44 85 45 84 46 37 48 71 49 50 50 70 51 51 52 54 53 69 54
REMARK SMILES IDX 89 55 52 56 53 57 68 59 90 60 55 61 38 62 39 63 48 64 40 65
REMARK SMILES IDX 41 66 47 67 49 68 42 69 43 70 44 71 45 72 46 73 72 74 73 75
REMARK SMILES IDX 82 76 74 77 75 78 81 79 83 80 76 81 77 82 78 83 79 84 80 85
REMARK SMILES IDX 56 86 57 87 66 88 58 89 59 90 65 91 67 92 60 93 61 94 62 95
REMARK SMILES IDX 63 96 64 97
REMARK H PARENT 8 18 88 47 54 58
REMARK Flexibility Score: inf
ROOT
ATOM      1  C   UNL A   1      32.961  30.306  27.175  1.00  0.00     0.275 C 
ENDROOT
BRANCH   1   2
ATOM      2  C   UNL A   1      32.689  29.840  25.741  1.00  0.00     0.274 C 
BRANCH   2   3
ATOM      3  O   UNL A   1      31.477  29.055  25.682  1.00  0.00    -0.462 OA
BRANCH   3   4
ATOM      4  C   UNL A   1      31.212  28.402  24.520  1.00  0.00     0.312 C 
ATOM      5  O   UNL A   1      30.835  28.964  23.498  1.00  0.00    -0.252 OA
BRANCH   4   6
ATOM      6  C   UNL A   1      31.327  26.864  24.652  1.00  0.00     0.071 C 
ATOM      7  C   UNL A   1      33.588  26.298  25.666  1.00  0.00     0.013 C 
ATOM      8  C   UNL A   1      32.765  26.222  24.357  1.00  0.00    -0.005 C 
ATOM      9  C   UNL A   1      33.567  26.993  23.272  1.00  0.00     0.013 C 
ATOM     10  C   UNL A   1      32.458  24.761  23.771  1.00  0.00     0.053 C 
ATOM     11  C   UNL A   1      33.344  24.172  22.637  1.00  0.00     0.022 C 
ATOM     12  C   UNL A   1      31.109  25.011  23.014  1.00  0.00     0.018 C 
ATOM     13  C   UNL A   1      30.384  26.183  23.644  1.00  0.00     0.020 C 
ATOM     14  C   UNL A   1      30.761  26.587  26.066  1.00  0.00     0.024 C 
BRANCH  10  15
ATOM     15  C   UNL A   1      32.231  23.651  24.827  1.00  0.00     0.230 C 
ATOM     16  O   UNL A   1      31.087  23.422  25.246  1.00  0.00    -0.274 OA
ATOM     17  N   UNL A   1      33.180  22.825  25.348  1.00  0.00    -0.324 N 
ATOM     18  H   UNL A   1      32.755  22.088  25.843  1.00  0.00     0.170 HD
BRANCH  17  19
ATOM     19  C   UNL A   1      34.584  22.699  25.400  1.00  0.00     0.060 A 
ATOM     20  C   UNL A   1      35.470  23.735  25.676  1.00  0.00     0.029 A 
ATOM     21  C   UNL A   1      35.140  21.411  25.232  1.00  0.00     0.066 A 
ATOM     22  C   UNL A   1      36.844  23.514  25.822  1.00  0.00     0.023 A 
ATOM     23  C   UNL A   1      36.516  21.181  25.352  1.00  0.00     0.043 A 
ATOM     24  Cl  UNL A   1      34.134  20.050  24.859  1.00  0.00    -0.082 Cl
ATOM     25  C   UNL A   1      37.361  22.238  25.664  1.00  0.00     0.042 A 
ATOM     26  Cl  UNL A   1      39.047  21.969  25.862  1.00  0.00    -0.084 Cl
ENDBRANCH  17  19
ENDBRANCH  10  15
ENDBRANCH   4   6
ENDBRANCH   3   4
ENDBRANCH   2   3
ENDBRANCH   1   2
BRANCH   1  27
ATOM     27  O   UNL A   1      34.252  29.825  27.577  1.00  0.00    -0.458 OA
BRANCH  27  28
ATOM     28  C   UNL A   1      34.938  30.583  28.466  1.00  0.00     0.338 C 
ATOM     29  O   UNL A   1      34.488  31.493  29.138  1.00  0.00    -0.246 OA
BRANCH  28  30
ATOM     30  C   UNL A   1      36.342  30.103  28.538  1.00  0.00     0.060 A 
ATOM     31  C   UNL A   1      36.889  29.693  29.753  1.00  0.00     0.016 A 
ATOM     32  C   UNL A   1      37.152  30.123  27.403  1.00  0.00     0.016 A 
ATOM     33  C   UNL A   1      38.242  29.384  29.863  1.00  0.00     0.010 A 
ATOM     34  C   UNL A   1      38.487  29.701  27.492  1.00  0.00     0.010 A 
ATOM     35  C   UNL A   1      39.057  29.343  28.728  1.00  0.00    -0.014 A 
BRANCH  35  36
ATOM     36  C   UNL A   1      40.491  28.936  28.825  1.00  0.00     0.031 A 
ATOM     37  C   UNL A   1      41.535  29.945  29.227  1.00  0.00     0.074 A 
ATOM     38  C   UNL A   1      40.875  27.673  28.535  1.00  0.00     0.049 A 
ATOM     39  N   UNL A   1      42.835  29.892  29.092  1.00  0.00    -0.248 NA
ATOM     40  C   UNL A   1      41.048  31.190  29.844  1.00  0.00     0.031 C 
ATOM     41  C   UNL A   1      39.982  26.567  28.185  1.00  0.00     0.029 A 
ATOM     42  N   UNL A   1      42.128  27.107  28.484  1.00  0.00    -0.354 N 
ATOM     43  C   UNL A   1      43.314  31.123  29.527  1.00  0.00     0.074 A 
ATOM     44  C   UNL A   1      42.166  31.896  29.948  1.00  0.00     0.031 C 
ATOM     45  C   UNL A   1      40.706  25.455  27.991  1.00  0.00     0.029 A 
ATOM     46  C   UNL A   1      42.120  25.788  28.092  1.00  0.00     0.049 A 
ATOM     47  H   UNL A   1      42.951  27.600  28.707  1.00  0.00     0.167 HD
ATOM     48  C   UNL A   1      44.594  31.566  29.557  1.00  0.00     0.037 A 
ATOM     49  C   UNL A   1      43.129  24.952  27.781  1.00  0.00     0.037 A 
ATOM     50  C   UNL A   1      45.736  30.760  29.205  1.00  0.00     0.049 A 
ATOM     51  C   UNL A   1      44.541  25.463  27.817  1.00  0.00     0.074 A 
ATOM     52  C   UNL A   1      47.075  31.113  29.213  1.00  0.00     0.029 A 
ATOM     53  N   UNL A   1      45.675  29.433  28.808  1.00  0.00    -0.354 N 
ATOM     54  N   UNL A   1      44.973  26.661  28.131  1.00  0.00    -0.248 NA
ATOM     55  C   UNL A   1      45.599  24.520  27.427  1.00  0.00     0.031 C 
ATOM     56  C   UNL A   1      47.822  30.004  28.797  1.00  0.00     0.029 A 
ATOM     57  C   UNL A   1      46.952  28.952  28.566  1.00  0.00     0.049 A 
ATOM     58  H   UNL A   1      44.847  28.910  28.712  1.00  0.00     0.167 HD
ATOM     59  C   UNL A   1      46.353  26.616  27.977  1.00  0.00     0.074 A 
ATOM     60  C   UNL A   1      46.686  25.268  27.564  1.00  0.00     0.031 C 
ATOM     61  C   UNL A   1      47.262  27.606  28.155  1.00  0.00     0.037 A 
BRANCH  48  62
ATOM     62  C   UNL A   1      44.830  33.000  29.945  1.00  0.00     0.058 A 
ATOM     63  C   UNL A   1      44.775  34.048  29.015  1.00  0.00     0.135 A 
ATOM     64  C   UNL A   1      45.082  33.331  31.289  1.00  0.00     0.135 A 
ATOM     65  F   UNL A   1      44.556  33.788  27.716  1.00  0.00    -0.206 F 
ATOM     66  C   UNL A   1      44.982  35.371  29.396  1.00  0.00     0.059 A 
ATOM     67  C   UNL A   1      45.269  34.649  31.696  1.00  0.00     0.059 A 
ATOM     68  F   UNL A   1      45.147  32.367  32.220  1.00  0.00    -0.206 F 
ATOM     69  C   UNL A   1      45.232  35.661  30.739  1.00  0.00     0.060 A 
BRANCH  69  70
ATOM     70  S   UNL A   1      45.498  37.380  31.223  1.00  0.00     0.124 S 
ATOM     71  O   UNL A   1      44.982  37.381  32.588  1.00  0.00    -0.237 OA
ATOM     72  O   UNL A   1      46.945  37.524  31.094  1.00  0.00    -0.237 OA
ATOM     73  O   UNL A   1      44.709  38.133  30.252  1.00  0.00    -0.744 OA
ENDBRANCH  69  70
ENDBRANCH  48  62
BRANCH  49  74
ATOM     74  C   UNL A   1      42.827  23.562  27.346  1.00  0.00     0.058 A 
ATOM     75  C   UNL A   1      42.832  23.211  25.990  1.00  0.00     0.135 A 
ATOM     76  C   UNL A   1      42.575  22.546  28.284  1.00  0.00     0.135 A 
ATOM     77  F   UNL A   1      43.053  24.148  25.055  1.00  0.00    -0.206 F 
ATOM     78  C   UNL A   1      42.603  21.902  25.575  1.00  0.00     0.059 A 
ATOM     79  C   UNL A   1      42.371  21.227  27.896  1.00  0.00     0.059 A 
ATOM     80  F   UNL A   1      42.569  22.829  29.596  1.00  0.00    -0.206 F 
ATOM     81  C   UNL A   1      42.382  20.915  26.537  1.00  0.00     0.060 A 
BRANCH  81  82
ATOM     82  S   UNL A   1      42.174  19.202  26.001  1.00  0.00     0.124 S 
ATOM     83  O   UNL A   1      40.739  19.146  25.751  1.00  0.00    -0.237 OA
ATOM     84  O   UNL A   1      43.030  19.139  24.820  1.00  0.00    -0.237 OA
ATOM     85  O   UNL A   1      42.649  18.434  27.148  1.00  0.00    -0.744 OA
ENDBRANCH  81  82
ENDBRANCH  49  74
BRANCH  61  86
ATOM     86  C   UNL A   1      48.704  27.256  27.927  1.00  0.00     0.058 A 
ATOM     87  C   UNL A   1      49.519  26.793  28.970  1.00  0.00     0.135 A 
ATOM     88  C   UNL A   1      49.265  27.356  26.645  1.00  0.00     0.135 A 
ATOM     89  F   UNL A   1      49.028  26.688  30.216  1.00  0.00    -0.206 F 
ATOM     90  C   UNL A   1      50.852  26.462  28.755  1.00  0.00     0.059 A 
ATOM     91  C   UNL A   1      50.592  27.014  26.403  1.00  0.00     0.059 A 
ATOM     92  F   UNL A   1      48.523  27.787  25.613  1.00  0.00    -0.206 F 
ATOM     93  C   UNL A   1      51.381  26.579  27.467  1.00  0.00     0.060 A 
BRANCH  93  94
ATOM     94  S   UNL A   1      53.107  26.130  27.193  1.00  0.00     0.124 S 
ATOM     95  O   UNL A   1      52.972  24.879  26.456  1.00  0.00    -0.237 OA
ATOM     96  O   UNL A   1      53.611  27.266  26.427  1.00  0.00    -0.237 OA
ATOM     97  O   UNL A   1      53.644  26.009  28.545  1.00  0.00    -0.744 OA
ENDBRANCH  93  94
ENDBRANCH  61  86
ENDBRANCH  35  36
ENDBRANCH  28  30
ENDBRANCH  27  28
ENDBRANCH   1  27
TORSDOF 16
ENDMDL
MODEL 2
REMARK VINA RESULT:     -12.1      0.928      1.702
REMARK SMILES CC1(C)[C@@](C)(C(=O)Nc2ccc(Cl)cc2Cl)CC[C@]1(C)C(=O)OCCOC(=O)c1ccc(-c2c3nc(c(-c4c(F)cc(S(=O)(=O)[O-])cc4F)c4ccc([nH]4)c(-c4c(F)cc(S(=O)(=O)[O-])cc4F)c4nc(c(-c5c(F)cc(S(=O)(=O)[O-])cc5F)c5ccc2[nH]5)C=C4)C=C3)cc1
REMARK SMILES IDX 25 1 24 2 23 3 21 4 22 5 19 6 1 7 2 8 3 9 4 10 5 11 17 12
REMARK SMILES IDX 18 13 20 14 6 15 7 16 8 17 9 19 10 20 15 21 11 22 14 23
REMARK SMILES IDX 16 24 12 25 13 26 26 27 27 28 28 29 29 30 30 31 94 32 31 33
REMARK SMILES IDX 93 34 32 35 33 36 34 37 87 38 35 39 92 40 86 41 88 42 36 43
REMARK SMILES IDX 91 44 85 45 84 46 37 48 71 49 50 50 70 51 51 52 54 53 69 54
REMARK SMILES IDX 89 55 52 56 53 57 68 59 90 60 55 61 38 62 39 63 48 64 40 65
REMARK SMILES IDX 41 66 47 67 49 68 42 69 43 70 44 71 45 72 46 73 72 74 73 75
REMARK SMILES IDX 82 76 74 77 75 78 81 79 83 80 76 81 77 82 78 83 79 84 80 85
REMARK SMILES IDX 56 86 57 87 66 88 58 89 59 90 65 91 67 92 60 93 61 94 62 95
REMARK SMILES IDX 63 96 64 97
REMARK H PARENT 8 18 88 47 54 58
REMARK Flexibility Score: inf
ROOT
ATOM      1  C   UNL A   1      33.908  30.078  26.814  1.00  0.00     0.275 C 
ENDROOT
BRANCH   1   2
ATOM      2  C   UNL A   1      32.408  30.190  27.102  1.00  0.00     0.274 C 
BRANCH   2   3
ATOM      3  O   UNL A   1      31.715  28.997  26.670  1.00  0.00    -0.462 OA
BRANCH   3   4
ATOM      4  C   UNL A   1      31.400  28.903  25.350  1.00  0.00     0.312 C 
ATOM      5  O   UNL A   1      31.069  29.862  24.663  1.00  0.00    -0.252 OA
BRANCH   4   6
ATOM      6  C   UNL A   1      31.390  27.443  24.834  1.00  0.00     0.071 C 
ATOM      7  C   UNL A   1      33.527  26.296  25.594  1.00  0.00     0.013 C 
ATOM      8  C   UNL A   1      32.794  26.844  24.346  1.00  0.00    -0.005 C 
ATOM      9  C   UNL A   1      33.725  27.912  23.706  1.00  0.00     0.013 C 
ATOM     10  C   UNL A   1      32.420  25.790  23.197  1.00  0.00     0.053 C 
ATOM     11  C   UNL A   1      33.337  25.637  21.950  1.00  0.00     0.022 C 
ATOM     12  C   UNL A   1      31.149  26.457  22.569  1.00  0.00     0.018 C 
ATOM     13  C   UNL A   1      30.471  27.331  23.606  1.00  0.00     0.020 C 
ATOM     14  C   UNL A   1      30.709  26.665  25.987  1.00  0.00     0.024 C 
BRANCH  10  15
ATOM     15  C   UNL A   1      32.040  24.371  23.688  1.00  0.00     0.230 C 
ATOM     16  O   UNL A   1      30.855  24.007  23.661  1.00  0.00    -0.274 OA
ATOM     17  N   UNL A   1      32.898  23.412  24.130  1.00  0.00    -0.324 N 
ATOM     18  H   UNL A   1      32.435  22.545  24.195  1.00  0.00     0.170 HD
BRANCH  17  19
ATOM     19  C   UNL A   1      34.245  23.273  24.526  1.00  0.00     0.060 A 
ATOM     20  C   UNL A   1      35.341  23.372  23.676  1.00  0.00     0.029 A 
ATOM     21  C   UNL A   1      34.516  23.093  25.900  1.00  0.00     0.066 A 
ATOM     22  C   UNL A   1      36.655  23.336  24.156  1.00  0.00     0.023 A 
ATOM     23  C   UNL A   1      35.827  23.032  26.390  1.00  0.00     0.043 A 
ATOM     24  Cl  UNL A   1      33.227  22.931  27.048  1.00  0.00    -0.082 Cl
ATOM     25  C   UNL A   1      36.893  23.170  25.512  1.00  0.00     0.042 A 
ATOM     26  Cl  UNL A   1      38.508  23.144  26.099  1.00  0.00    -0.084 Cl
ENDBRANCH  17  19
ENDBRANCH  10  15
ENDBRANCH   4   6
ENDBRANCH   3   4
ENDBRANCH   2   3
ENDBRANCH   1   2
BRANCH   1  27
ATOM     27  O   UNL A   1      34.567  29.597  27.995  1.00  0.00    -0.458 OA
BRANCH  27  28
ATOM     28  C   UNL A   1      35.364  30.475  28.651  1.00  0.00     0.338 C 
ATOM     29  O   UNL A   1      35.008  31.501  29.203  1.00  0.00    -0.246 OA
BRANCH  28  30
ATOM     30  C   UNL A   1      36.762  29.972  28.638  1.00  0.00     0.060 A 
ATOM     31  C   UNL A   1      37.336  29.445  29.794  1.00  0.00     0.016 A 
ATOM     32  C   UNL A   1      37.540  30.085  27.486  1.00  0.00     0.016 A 
ATOM     33  C   UNL A   1      38.686  29.109  29.836  1.00  0.00     0.010 A 
ATOM     34  C   UNL A   1      38.870  29.639  27.497  1.00  0.00     0.010 A 
ATOM     35  C   UNL A   1      39.469  29.161  28.679  1.00  0.00    -0.014 A 
BRANCH  35  36
ATOM     36  C   UNL A   1      40.898  28.728  28.696  1.00  0.00     0.031 A 
ATOM     37  C   UNL A   1      41.983  29.724  29.013  1.00  0.00     0.074 A 
ATOM     38  C   UNL A   1      41.240  27.453  28.410  1.00  0.00     0.049 A 
ATOM     39  N   UNL A   1      43.271  29.643  28.800  1.00  0.00    -0.248 NA
ATOM     40  C   UNL A   1      41.558  30.990  29.633  1.00  0.00     0.031 C 
ATOM     41  C   UNL A   1      40.307  26.357  28.137  1.00  0.00     0.029 A 
ATOM     42  N   UNL A   1      42.476  26.861  28.294  1.00  0.00    -0.354 N 
ATOM     43  C   UNL A   1      43.799  30.872  29.180  1.00  0.00     0.074 A 
ATOM     44  C   UNL A   1      42.693  31.676  29.655  1.00  0.00     0.031 C 
ATOM     45  C   UNL A   1      40.996  25.228  27.922  1.00  0.00     0.029 A 
ATOM     46  C   UNL A   1      42.420  25.536  27.929  1.00  0.00     0.049 A 
ATOM     47  H   UNL A   1      43.320  27.342  28.456  1.00  0.00     0.167 HD
ATOM     48  C   UNL A   1      45.086  31.291  29.123  1.00  0.00     0.037 A 
ATOM     49  C   UNL A   1      43.393  24.673  27.574  1.00  0.00     0.037 A 
ATOM     50  C   UNL A   1      46.189  30.456  28.718  1.00  0.00     0.049 A 
ATOM     51  C   UNL A   1      44.813  25.157  27.514  1.00  0.00     0.074 A 
ATOM     52  C   UNL A   1      47.533  30.782  28.637  1.00  0.00     0.029 A 
ATOM     53  N   UNL A   1      46.079  29.122  28.353  1.00  0.00    -0.354 N 
ATOM     54  N   UNL A   1      45.286  26.352  27.776  1.00  0.00    -0.248 NA
ATOM     55  C   UNL A   1      45.828  24.187  27.080  1.00  0.00     0.031 C 
ATOM     56  C   UNL A   1      48.232  29.651  28.199  1.00  0.00     0.029 A 
ATOM     57  C   UNL A   1      47.329  28.612  28.043  1.00  0.00     0.049 A 
ATOM     58  H   UNL A   1      45.237  28.614  28.319  1.00  0.00     0.167 HD
ATOM     59  C   UNL A   1      46.652  26.277  27.540  1.00  0.00     0.074 A 
ATOM     60  C   UNL A   1      46.934  24.915  27.134  1.00  0.00     0.031 C 
ATOM     61  C   UNL A   1      47.589  27.253  27.641  1.00  0.00     0.037 A 
BRANCH  48  62
ATOM     62  C   UNL A   1      45.372  32.727  29.466  1.00  0.00     0.058 A 
ATOM     63  C   UNL A   1      45.703  33.136  30.766  1.00  0.00     0.135 A 
ATOM     64  C   UNL A   1      45.348  33.708  28.458  1.00  0.00     0.135 A 
ATOM     65  F   UNL A   1      45.723  32.246  31.770  1.00  0.00    -0.206 F 
ATOM     66  C   UNL A   1      45.978  34.469  31.061  1.00  0.00     0.059 A 
ATOM     67  C   UNL A   1      45.642  35.041  28.726  1.00  0.00     0.059 A 
ATOM     68  F   UNL A   1      45.036  33.371  27.197  1.00  0.00    -0.206 F 
ATOM     69  C   UNL A   1      45.941  35.415  30.035  1.00  0.00     0.060 A 
BRANCH  69  70
ATOM     70  S   UNL A   1      46.301  37.140  30.429  1.00  0.00     0.124 S 
ATOM     71  O   UNL A   1      44.957  37.698  30.543  1.00  0.00    -0.237 OA
ATOM     72  O   UNL A   1      47.048  37.029  31.677  1.00  0.00    -0.237 OA
ATOM     73  O   UNL A   1      47.075  37.597  29.278  1.00  0.00    -0.744 OA
ENDBRANCH  69  70
ENDBRANCH  48  62
BRANCH  49  74
ATOM     74  C   UNL A   1      43.039  23.281  27.188  1.00  0.00     0.058 A 
ATOM     75  C   UNL A   1      42.992  22.895  25.842  1.00  0.00     0.135 A 
ATOM     76  C   UNL A   1      42.788  22.299  28.160  1.00  0.00     0.135 A 
ATOM     77  F   UNL A   1      43.209  23.800  24.876  1.00  0.00    -0.206 F 
ATOM     78  C   UNL A   1      42.714  21.583  25.470  1.00  0.00     0.059 A 
ATOM     79  C   UNL A   1      42.535  20.976  27.815  1.00  0.00     0.059 A 
ATOM     80  F   UNL A   1      42.831  22.616  29.463  1.00  0.00    -0.206 F 
ATOM     81  C   UNL A   1      42.496  20.628  26.465  1.00  0.00     0.060 A 
BRANCH  81  82
ATOM     82  S   UNL A   1      42.224  18.908  25.983  1.00  0.00     0.124 S 
ATOM     83  O   UNL A   1      43.079  18.795  24.807  1.00  0.00    -0.237 OA
ATOM     84  O   UNL A   1      42.666  18.179  27.167  1.00  0.00    -0.237 OA
ATOM     85  O   UNL A   1      40.787  18.857  25.729  1.00  0.00    -0.744 OA
ENDBRANCH  81  82
ENDBRANCH  49  74
BRANCH  61  86
ATOM     86  C   UNL A   1      49.007  26.869  27.333  1.00  0.00     0.058 A 
ATOM     87  C   UNL A   1      49.510  26.913  26.023  1.00  0.00     0.135 A 
ATOM     88  C   UNL A   1      49.879  26.483  28.362  1.00  0.00     0.135 A 
ATOM     89  F   UNL A   1      48.712  27.270  25.004  1.00  0.00    -0.206 F 
ATOM     90  C   UNL A   1      50.826  26.564  25.741  1.00  0.00     0.059 A 
ATOM     91  C   UNL A   1      51.204  26.147  28.105  1.00  0.00     0.059 A 
ATOM     92  F   UNL A   1      49.446  26.433  29.631  1.00  0.00    -0.206 F 
ATOM     93  C   UNL A   1      51.665  26.179  26.789  1.00  0.00     0.060 A 
BRANCH  93  94
ATOM     94  S   UNL A   1      53.377  25.745  26.417  1.00  0.00     0.124 S 
ATOM     95  O   UNL A   1      53.996  25.835  27.734  1.00  0.00    -0.237 OA
ATOM     96  O   UNL A   1      53.249  24.399  25.867  1.00  0.00    -0.237 OA
ATOM     97  O   UNL A   1      53.785  26.768  25.459  1.00  0.00    -0.744 OA
ENDBRANCH  93  94
ENDBRANCH  61  86
ENDBRANCH  35  36
ENDBRANCH  28  30
ENDBRANCH  27  28
ENDBRANCH   1  27
TORSDOF 16
ENDMDL
MODEL 3
REMARK VINA RESULT:     -12.0      4.799     10.368
REMARK SMILES CC1(C)[C@@](C)(C(=O)Nc2ccc(Cl)cc2Cl)CC[C@]1(C)C(=O)OCCOC(=O)c1ccc(-c2c3nc(c(-c4c(F)cc(S(=O)(=O)[O-])cc4F)c4ccc([nH]4)c(-c4c(F)cc(S(=O)(=O)[O-])cc4F)c4nc(c(-c5c(F)cc(S(=O)(=O)[O-])cc5F)c5ccc2[nH]5)C=C4)C=C3)cc1
REMARK SMILES IDX 25 1 24 2 23 3 21 4 22 5 19 6 1 7 2 8 3 9 4 10 5 11 17 12
REMARK SMILES IDX 18 13 20 14 6 15 7 16 8 17 9 19 10 20 15 21 11 22 14 23
REMARK SMILES IDX 16 24 12 25 13 26 26 27 27 28 28 29 29 30 30 31 94 32 31 33
REMARK SMILES IDX 93 34 32 35 33 36 34 37 87 38 35 39 92 40 86 41 88 42 36 43
REMARK SMILES IDX 91 44 85 45 84 46 37 48 71 49 50 50 70 51 51 52 54 53 69 54
REMARK SMILES IDX 89 55 52 56 53 57 68 59 90 60 55 61 38 62 39 63 48 64 40 65
REMARK SMILES IDX 41 66 47 67 49 68 42 69 43 70 44 71 45 72 46 73 72 74 73 75
REMARK SMILES IDX 82 76 74 77 75 78 81 79 83 80 76 81 77 82 78 83 79 84 80 85
REMARK SMILES IDX 56 86 57 87 66 88 58 89 59 90 65 91 67 92 60 93 61 94 62 95
REMARK SMILES IDX 63 96 64 97
REMARK H PARENT 8 18 88 47 54 58
REMARK Flexibility Score: inf
ROOT
ATOM      1  C   UNL A   1      37.463  22.068  24.971  1.00  0.00     0.275 C 
ENDROOT
BRANCH   1   2
ATOM      2  C   UNL A   1      36.088  21.642  25.494  1.00  0.00     0.274 C 
BRANCH   2   3
ATOM      3  O   UNL A   1      35.183  21.384  24.398  1.00  0.00    -0.462 OA
BRANCH   3   4
ATOM      4  C   UNL A   1      33.852  21.513  24.644  1.00  0.00     0.312 C 
ATOM      5  O   UNL A   1      33.175  20.645  25.183  1.00  0.00    -0.252 OA
BRANCH   4   6
ATOM      6  C   UNL A   1      33.256  22.822  24.070  1.00  0.00     0.071 C 
ATOM      7  C   UNL A   1      34.393  24.797  25.194  1.00  0.00     0.013 C 
ATOM      8  C   UNL A   1      33.051  24.031  25.102  1.00  0.00    -0.005 C 
ATOM      9  C   UNL A   1      32.701  23.555  26.539  1.00  0.00     0.013 C 
ATOM     10  C   UNL A   1      31.784  24.842  24.547  1.00  0.00     0.053 C 
ATOM     11  C   UNL A   1      30.762  25.467  25.539  1.00  0.00     0.022 C 
ATOM     12  C   UNL A   1      30.935  23.689  23.910  1.00  0.00     0.018 C 
ATOM     13  C   UNL A   1      31.850  22.550  23.506  1.00  0.00     0.020 C 
ATOM     14  C   UNL A   1      34.179  23.133  22.866  1.00  0.00     0.024 C 
BRANCH  10  15
ATOM     15  C   UNL A   1      32.089  25.892  23.450  1.00  0.00     0.230 C 
ATOM     16  O   UNL A   1      32.030  25.569  22.254  1.00  0.00    -0.274 OA
ATOM     17  N   UNL A   1      32.390  27.204  23.648  1.00  0.00    -0.324 N 
ATOM     18  H   UNL A   1      32.346  27.696  22.796  1.00  0.00     0.170 HD
BRANCH  17  19
ATOM     19  C   UNL A   1      32.747  28.079  24.696  1.00  0.00     0.060 A 
ATOM     20  C   UNL A   1      33.889  27.962  25.480  1.00  0.00     0.029 A 
ATOM     21  C   UNL A   1      31.925  29.204  24.928  1.00  0.00     0.066 A 
ATOM     22  C   UNL A   1      34.239  28.930  26.428  1.00  0.00     0.023 A 
ATOM     23  C   UNL A   1      32.251  30.168  25.891  1.00  0.00     0.043 A 
ATOM     24  Cl  UNL A   1      30.462  29.438  24.029  1.00  0.00    -0.082 Cl
ATOM     25  C   UNL A   1      33.420  30.032  26.627  1.00  0.00     0.042 A 
ATOM     26  Cl  UNL A   1      33.861  31.227  27.780  1.00  0.00    -0.084 Cl
ENDBRANCH  17  19
ENDBRANCH  10  15
ENDBRANCH   4   6
ENDBRANCH   3   4
ENDBRANCH   2   3
ENDBRANCH   1   2
BRANCH   1  27
ATOM     27  O   UNL A   1      37.898  23.220  25.708  1.00  0.00    -0.458 OA
BRANCH  27  28
ATOM     28  C   UNL A   1      39.188  23.229  26.123  1.00  0.00     0.338 C 
ATOM     29  O   UNL A   1      40.043  22.409  25.843  1.00  0.00    -0.246 OA
BRANCH  28  30
ATOM     30  C   UNL A   1      39.426  24.438  26.954  1.00  0.00     0.060 A 
ATOM     31  C   UNL A   1      40.208  25.486  26.470  1.00  0.00     0.016 A 
ATOM     32  C   UNL A   1      38.928  24.508  28.254  1.00  0.00     0.016 A 
ATOM     33  C   UNL A   1      40.563  26.554  27.290  1.00  0.00     0.010 A 
ATOM     34  C   UNL A   1      39.191  25.640  29.041  1.00  0.00     0.010 A 
ATOM     35  C   UNL A   1      40.028  26.672  28.576  1.00  0.00    -0.014 A 
BRANCH  35  36
ATOM     36  C   UNL A   1      40.340  27.854  29.434  1.00  0.00     0.031 A 
ATOM     37  C   UNL A   1      41.578  27.857  30.292  1.00  0.00     0.074 A 
ATOM     38  C   UNL A   1      39.513  28.922  29.470  1.00  0.00     0.049 A 
ATOM     39  N   UNL A   1      41.882  28.624  31.307  1.00  0.00    -0.248 NA
ATOM     40  C   UNL A   1      42.601  26.845  29.979  1.00  0.00     0.031 C 
ATOM     41  C   UNL A   1      38.306  29.098  28.660  1.00  0.00     0.029 A 
ATOM     42  N   UNL A   1      39.562  30.067  30.231  1.00  0.00    -0.354 N 
ATOM     43  C   UNL A   1      43.087  28.138  31.805  1.00  0.00     0.074 A 
ATOM     44  C   UNL A   1      43.467  27.020  30.969  1.00  0.00     0.031 C 
ATOM     45  C   UNL A   1      37.752  30.286  28.938  1.00  0.00     0.029 A 
ATOM     46  C   UNL A   1      38.495  30.912  30.024  1.00  0.00     0.049 A 
ATOM     47  H   UNL A   1      40.291  30.263  30.864  1.00  0.00     0.167 HD
ATOM     48  C   UNL A   1      43.797  28.580  32.871  1.00  0.00     0.037 A 
ATOM     49  C   UNL A   1      38.112  32.029  30.672  1.00  0.00     0.037 A 
ATOM     50  C   UNL A   1      43.446  29.740  33.650  1.00  0.00     0.049 A 
ATOM     51  C   UNL A   1      38.911  32.501  31.852  1.00  0.00     0.074 A 
ATOM     52  C   UNL A   1      44.107  30.277  34.743  1.00  0.00     0.029 A 
ATOM     53  N   UNL A   1      42.353  30.558  33.404  1.00  0.00    -0.354 N 
ATOM     54  N   UNL A   1      39.991  31.973  32.377  1.00  0.00    -0.248 NA
ATOM     55  C   UNL A   1      38.424  33.700  32.548  1.00  0.00     0.031 C 
ATOM     56  C   UNL A   1      43.399  31.407  35.171  1.00  0.00     0.029 A 
ATOM     57  C   UNL A   1      42.320  31.593  34.323  1.00  0.00     0.049 A 
ATOM     58  H   UNL A   1      41.699  30.422  32.681  1.00  0.00     0.167 HD
ATOM     59  C   UNL A   1      40.313  32.775  33.464  1.00  0.00     0.074 A 
ATOM     60  C   UNL A   1      39.327  33.836  33.509  1.00  0.00     0.031 C 
ATOM     61  C   UNL A   1      41.330  32.640  34.352  1.00  0.00     0.037 A 
BRANCH  48  62
ATOM     62  C   UNL A   1      45.004  27.785  33.286  1.00  0.00     0.058 A 
ATOM     63  C   UNL A   1      44.907  26.628  34.073  1.00  0.00     0.135 A 
ATOM     64  C   UNL A   1      46.284  28.175  32.853  1.00  0.00     0.135 A 
ATOM     65  F   UNL A   1      43.713  26.220  34.530  1.00  0.00    -0.206 F 
ATOM     66  C   UNL A   1      46.036  25.898  34.435  1.00  0.00     0.059 A 
ATOM     67  C   UNL A   1      47.424  27.446  33.184  1.00  0.00     0.059 A 
ATOM     68  F   UNL A   1      46.436  29.274  32.098  1.00  0.00    -0.206 F 
ATOM     69  C   UNL A   1      47.291  26.317  33.988  1.00  0.00     0.060 A 
BRANCH  69  70
ATOM     70  S   UNL A   1      48.747  25.361  34.463  1.00  0.00     0.124 S 
ATOM     71  O   UNL A   1      49.803  26.360  34.338  1.00  0.00    -0.237 OA
ATOM     72  O   UNL A   1      48.424  24.949  35.825  1.00  0.00    -0.237 OA
ATOM     73  O   UNL A   1      48.781  24.283  33.479  1.00  0.00    -0.744 OA
ENDBRANCH  69  70
ENDBRANCH  48  62
BRANCH  49  74
ATOM     74  C   UNL A   1      36.874  32.738  30.250  1.00  0.00     0.058 A 
ATOM     75  C   UNL A   1      35.663  32.543  30.927  1.00  0.00     0.135 A 
ATOM     76  C   UNL A   1      36.891  33.661  29.191  1.00  0.00     0.135 A 
ATOM     77  F   UNL A   1      35.593  31.660  31.935  1.00  0.00    -0.206 F 
ATOM     78  C   UNL A   1      34.511  33.240  30.575  1.00  0.00     0.059 A 
ATOM     79  C   UNL A   1      35.760  34.390  28.839  1.00  0.00     0.059 A 
ATOM     80  F   UNL A   1      38.028  33.891  28.517  1.00  0.00    -0.206 F 
ATOM     81  C   UNL A   1      34.572  34.168  29.535  1.00  0.00     0.060 A 
BRANCH  81  82
ATOM     82  S   UNL A   1      33.099  35.137  29.139  1.00  0.00     0.124 S 
ATOM     83  O   UNL A   1      33.687  36.372  28.636  1.00  0.00    -0.237 OA
ATOM     84  O   UNL A   1      32.432  34.297  28.148  1.00  0.00    -0.237 OA
ATOM     85  O   UNL A   1      32.412  35.237  30.423  1.00  0.00    -0.744 OA
ENDBRANCH  81  82
ENDBRANCH  49  74
BRANCH  61  86
ATOM     86  C   UNL A   1      41.438  33.681  35.427  1.00  0.00     0.058 A 
ATOM     87  C   UNL A   1      42.103  34.897  35.205  1.00  0.00     0.135 A 
ATOM     88  C   UNL A   1      40.844  33.472  36.681  1.00  0.00     0.135 A 
ATOM     89  F   UNL A   1      42.693  35.139  34.024  1.00  0.00    -0.206 F 
ATOM     90  C   UNL A   1      42.195  35.863  36.201  1.00  0.00     0.059 A 
ATOM     91  C   UNL A   1      40.909  34.432  37.686  1.00  0.00     0.059 A 
ATOM     92  F   UNL A   1      40.191  32.328  36.937  1.00  0.00    -0.206 F 
ATOM     93  C   UNL A   1      41.597  35.620  37.440  1.00  0.00     0.060 A 
BRANCH  93  94
ATOM     94  S   UNL A   1      41.707  36.887  38.721  1.00  0.00     0.124 S 
ATOM     95  O   UNL A   1      40.388  37.504  38.638  1.00  0.00    -0.237 OA
ATOM     96  O   UNL A   1      41.964  36.099  39.922  1.00  0.00    -0.237 OA
ATOM     97  O   UNL A   1      42.820  37.721  38.277  1.00  0.00    -0.744 OA
ENDBRANCH  93  94
ENDBRANCH  61  86
ENDBRANCH  35  36
ENDBRANCH  28  30
ENDBRANCH  27  28
ENDBRANCH   1  27
TORSDOF 16
ENDMDL
