MODEL 1
REMARK VINA RESULT:     -13.0      0.000      0.000
REMARK SMILES Cc1c(NS(=O)(=O)c2ncn(C)c2Cl)cccc1C(=O)OCCOC(=O)c1ccc(-c2c3nc(c(-c4c(F)cc(S(=O)(=O)[O-])cc4F)c4ccc([nH]4)c(-c4c(F)cc(S(=O)(=O)[O-])cc4F)c4nc(c(-c5c(F)cc(S(=O)(=O)[O-])cc5F)c5ccc2[nH]5)C=C4)C=C3)cc1
REMARK SMILES IDX 22 1 21 2 19 3 20 4 18 5 1 6 2 7 3 8 15 9 17 10 16 11 4 12
REMARK SMILES IDX 5 14 6 15 7 16 8 17 9 18 13 19 10 20 11 21 14 22 12 23 23 24
REMARK SMILES IDX 24 25 25 26 26 27 27 28 28 29 92 30 29 31 91 32 30 33 31 34
REMARK SMILES IDX 32 35 85 36 33 37 90 38 84 39 86 40 34 41 89 42 83 43 82 44
REMARK SMILES IDX 35 46 69 47 48 48 68 49 49 50 52 51 67 52 87 53 50 54 51 55
REMARK SMILES IDX 66 57 88 58 53 59 36 60 37 61 46 62 38 63 39 64 45 65 47 66
REMARK SMILES IDX 40 67 41 68 42 69 43 70 44 71 70 72 71 73 80 74 72 75 73 76
REMARK SMILES IDX 79 77 81 78 74 79 75 80 76 81 77 82 78 83 54 84 55 85 64 86
REMARK SMILES IDX 56 87 57 88 63 89 65 90 58 91 59 92 60 93 61 94 62 95
REMARK H PARENT 4 13 86 45 52 56
REMARK Flexibility Score: inf
ROOT
ATOM      1  C   UNL A   1      33.283  29.859  26.565  1.00  0.00     0.275 C 
ENDROOT
BRANCH   1   2
ATOM      2  O   UNL A   1      33.225  29.564  25.160  1.00  0.00    -0.458 OA
BRANCH   2   3
ATOM      3  C   UNL A   1      31.995  29.161  24.746  1.00  0.00     0.338 C 
ATOM      4  O   UNL A   1      30.972  29.797  24.861  1.00  0.00    -0.246 OA
BRANCH   3   5
ATOM      5  C   UNL A   1      32.006  27.772  24.222  1.00  0.00     0.065 A 
ATOM      6  C   UNL A   1      31.336  26.943  26.526  1.00  0.00     0.047 C 
ATOM      7  C   UNL A   1      31.565  26.716  25.052  1.00  0.00    -0.012 A 
ATOM      8  C   UNL A   1      31.374  25.432  24.493  1.00  0.00     0.053 A 
ATOM      9  C   UNL A   1      31.715  25.226  23.151  1.00  0.00     0.027 A 
ATOM     10  C   UNL A   1      32.306  27.538  22.877  1.00  0.00     0.016 A 
ATOM     11  C   UNL A   1      32.159  26.268  22.341  1.00  0.00     0.003 A 
BRANCH   8  12
ATOM     12  N   UNL A   1      30.574  24.486  25.228  1.00  0.00    -0.278 N 
ATOM     13  H   UNL A   1      29.596  24.592  25.193  1.00  0.00     0.180 HD
BRANCH  12  14
ATOM     14  S   UNL A   1      31.188  23.216  26.142  1.00  0.00     0.282 S 
ATOM     15  O   UNL A   1      31.156  23.628  27.531  1.00  0.00    -0.199 OA
ATOM     16  O   UNL A   1      30.496  22.022  25.705  1.00  0.00    -0.199 OA
BRANCH  14  17
ATOM     17  C   UNL A   1      32.861  22.905  25.792  1.00  0.00     0.213 A 
ATOM     18  N   UNL A   1      33.900  23.354  26.602  1.00  0.00    -0.222 NA
ATOM     19  C   UNL A   1      33.376  22.391  24.623  1.00  0.00     0.149 A 
ATOM     20  C   UNL A   1      34.980  23.247  25.864  1.00  0.00     0.202 A 
ATOM     21  N   UNL A   1      34.688  22.779  24.608  1.00  0.00    -0.324 N 
ATOM     22  Cl  UNL A   1      32.661  21.658  23.266  1.00  0.00    -0.061 Cl
ATOM     23  C   UNL A   1      35.546  22.997  23.467  1.00  0.00     0.152 C 
ENDBRANCH  14  17
ENDBRANCH  12  14
ENDBRANCH   8  12
ENDBRANCH   3   5
ENDBRANCH   2   3
ENDBRANCH   1   2
BRANCH   1  24
ATOM     24  C   UNL A   1      34.514  29.228  27.240  1.00  0.00     0.275 C 
BRANCH  24  25
ATOM     25  O   UNL A   1      35.772  29.942  27.197  1.00  0.00    -0.458 OA
BRANCH  25  26
ATOM     26  C   UNL A   1      36.420  30.120  28.379  1.00  0.00     0.338 C 
ATOM     27  O   UNL A   1      35.911  30.632  29.362  1.00  0.00    -0.246 OA
BRANCH  26  28
ATOM     28  C   UNL A   1      37.653  29.283  28.359  1.00  0.00     0.060 A 
ATOM     29  C   UNL A   1      38.745  29.647  27.554  1.00  0.00     0.016 A 
ATOM     30  C   UNL A   1      37.817  28.373  29.406  1.00  0.00     0.016 A 
ATOM     31  C   UNL A   1      40.020  29.189  27.860  1.00  0.00     0.010 A 
ATOM     32  C   UNL A   1      39.081  28.082  29.829  1.00  0.00     0.010 A 
ATOM     33  C   UNL A   1      40.167  28.435  29.019  1.00  0.00    -0.014 A 
BRANCH  33  34
ATOM     34  C   UNL A   1      41.322  27.609  29.299  1.00  0.00     0.031 A 
ATOM     35  C   UNL A   1      41.403  26.226  28.813  1.00  0.00     0.074 A 
ATOM     36  C   UNL A   1      42.303  28.393  29.808  1.00  0.00     0.049 A 
ATOM     37  N   UNL A   1      42.338  25.418  29.148  1.00  0.00    -0.248 NA
ATOM     38  C   UNL A   1      40.429  25.591  27.930  1.00  0.00     0.031 C 
ATOM     39  C   UNL A   1      43.736  28.237  29.935  1.00  0.00     0.029 A 
ATOM     40  N   UNL A   1      42.050  29.605  30.481  1.00  0.00    -0.354 N 
ATOM     41  C   UNL A   1      42.293  24.323  28.303  1.00  0.00     0.074 A 
ATOM     42  C   UNL A   1      41.014  24.417  27.655  1.00  0.00     0.031 C 
ATOM     43  C   UNL A   1      44.166  29.080  30.901  1.00  0.00     0.029 A 
ATOM     44  C   UNL A   1      42.987  29.712  31.497  1.00  0.00     0.049 A 
ATOM     45  H   UNL A   1      41.339  30.253  30.270  1.00  0.00     0.167 HD
ATOM     46  C   UNL A   1      43.438  23.590  28.178  1.00  0.00     0.037 A 
ATOM     47  C   UNL A   1      42.511  29.504  32.762  1.00  0.00     0.037 A 
ATOM     48  C   UNL A   1      44.401  24.091  29.161  1.00  0.00     0.049 A 
ATOM     49  C   UNL A   1      43.046  28.180  33.256  1.00  0.00     0.074 A 
ATOM     50  C   UNL A   1      45.402  25.043  29.061  1.00  0.00     0.029 A 
ATOM     51  N   UNL A   1      44.100  23.967  30.514  1.00  0.00    -0.354 N 
ATOM     52  N   UNL A   1      43.201  27.109  32.516  1.00  0.00    -0.248 NA
ATOM     53  C   UNL A   1      43.649  28.060  34.576  1.00  0.00     0.031 C 
ATOM     54  C   UNL A   1      45.600  25.586  30.361  1.00  0.00     0.029 A 
ATOM     55  C   UNL A   1      44.717  24.972  31.238  1.00  0.00     0.049 A 
ATOM     56  H   UNL A   1      43.531  23.263  30.902  1.00  0.00     0.167 HD
ATOM     57  C   UNL A   1      44.002  26.223  33.190  1.00  0.00     0.074 A 
ATOM     58  C   UNL A   1      44.230  26.854  34.483  1.00  0.00     0.031 C 
ATOM     59  C   UNL A   1      44.520  25.066  32.675  1.00  0.00     0.037 A 
BRANCH  46  60
ATOM     60  C   UNL A   1      43.836  22.643  27.054  1.00  0.00     0.058 A 
ATOM     61  C   UNL A   1      43.061  21.479  26.825  1.00  0.00     0.135 A 
ATOM     62  C   UNL A   1      44.972  22.749  26.224  1.00  0.00     0.135 A 
ATOM     63  F   UNL A   1      41.927  21.248  27.502  1.00  0.00    -0.206 F 
ATOM     64  C   UNL A   1      43.409  20.485  25.907  1.00  0.00     0.059 A 
ATOM     65  C   UNL A   1      45.341  21.764  25.292  1.00  0.00     0.059 A 
ATOM     66  F   UNL A   1      45.779  23.813  26.263  1.00  0.00    -0.206 F 
ATOM     67  C   UNL A   1      44.560  20.627  25.150  1.00  0.00     0.060 A 
BRANCH  67  68
ATOM     68  S   UNL A   1      44.991  19.320  23.984  1.00  0.00     0.124 S 
ATOM     69  O   UNL A   1      46.448  19.292  24.086  1.00  0.00    -0.237 OA
ATOM     70  O   UNL A   1      44.294  18.166  24.541  1.00  0.00    -0.237 OA
ATOM     71  O   UNL A   1      44.467  19.811  22.713  1.00  0.00    -0.744 OA
ENDBRANCH  67  68
ENDBRANCH  46  60
BRANCH  47  72
ATOM     72  C   UNL A   1      41.148  30.108  33.017  1.00  0.00     0.058 A 
ATOM     73  C   UNL A   1      41.051  31.522  33.077  1.00  0.00     0.135 A 
ATOM     74  C   UNL A   1      39.930  29.417  32.950  1.00  0.00     0.135 A 
ATOM     75  F   UNL A   1      42.168  32.266  33.167  1.00  0.00    -0.206 F 
ATOM     76  C   UNL A   1      39.844  32.210  32.949  1.00  0.00     0.059 A 
ATOM     77  C   UNL A   1      38.695  30.089  32.845  1.00  0.00     0.059 A 
ATOM     78  F   UNL A   1      39.911  28.077  32.907  1.00  0.00    -0.206 F 
ATOM     79  C   UNL A   1      38.666  31.486  32.808  1.00  0.00     0.060 A 
BRANCH  79  80
ATOM     80  S   UNL A   1      37.149  32.392  32.381  1.00  0.00     0.124 S 
ATOM     81  O   UNL A   1      37.099  33.408  33.425  1.00  0.00    -0.237 OA
ATOM     82  O   UNL A   1      37.458  32.879  31.039  1.00  0.00    -0.237 OA
ATOM     83  O   UNL A   1      36.117  31.362  32.453  1.00  0.00    -0.744 OA
ENDBRANCH  79  80
ENDBRANCH  47  72
BRANCH  59  84
ATOM     84  C   UNL A   1      45.003  23.925  33.534  1.00  0.00     0.058 A 
ATOM     85  C   UNL A   1      46.319  23.841  34.015  1.00  0.00     0.135 A 
ATOM     86  C   UNL A   1      44.099  22.961  34.044  1.00  0.00     0.135 A 
ATOM     87  F   UNL A   1      47.235  24.779  33.734  1.00  0.00    -0.206 F 
ATOM     88  C   UNL A   1      46.743  22.806  34.838  1.00  0.00     0.059 A 
ATOM     89  C   UNL A   1      44.482  21.973  34.938  1.00  0.00     0.059 A 
ATOM     90  F   UNL A   1      42.801  22.954  33.707  1.00  0.00    -0.206 F 
ATOM     91  C   UNL A   1      45.818  21.872  35.288  1.00  0.00     0.060 A 
BRANCH  91  92
ATOM     92  S   UNL A   1      46.370  20.532  36.344  1.00  0.00     0.124 S 
ATOM     93  O   UNL A   1      45.824  20.945  37.634  1.00  0.00    -0.237 OA
ATOM     94  O   UNL A   1      45.739  19.364  35.736  1.00  0.00    -0.237 OA
ATOM     95  O   UNL A   1      47.823  20.586  36.223  1.00  0.00    -0.744 OA
ENDBRANCH  91  92
ENDBRANCH  59  84
ENDBRANCH  33  34
ENDBRANCH  26  28
ENDBRANCH  25  26
ENDBRANCH  24  25
ENDBRANCH   1  24
TORSDOF 17
ENDMDL
MODEL 2
REMARK VINA RESULT:     -12.9      1.281      1.939
REMARK SMILES Cc1c(NS(=O)(=O)c2ncn(C)c2Cl)cccc1C(=O)OCCOC(=O)c1ccc(-c2c3nc(c(-c4c(F)cc(S(=O)(=O)[O-])cc4F)c4ccc([nH]4)c(-c4c(F)cc(S(=O)(=O)[O-])cc4F)c4nc(c(-c5c(F)cc(S(=O)(=O)[O-])cc5F)c5ccc2[nH]5)C=C4)C=C3)cc1
REMARK SMILES IDX 22 1 21 2 19 3 20 4 18 5 1 6 2 7 3 8 15 9 17 10 16 11 4 12
REMARK SMILES IDX 5 14 6 15 7 16 8 17 9 18 13 19 10 20 11 21 14 22 12 23 23 24
REMARK SMILES IDX 24 25 25 26 26 27 27 28 28 29 92 30 29 31 91 32 30 33 31 34
REMARK SMILES IDX 32 35 85 36 33 37 90 38 84 39 86 40 34 41 89 42 83 43 82 44
REMARK SMILES IDX 35 46 69 47 48 48 68 49 49 50 52 51 67 52 87 53 50 54 51 55
REMARK SMILES IDX 66 57 88 58 53 59 36 60 37 61 46 62 38 63 39 64 45 65 47 66
REMARK SMILES IDX 40 67 41 68 42 69 43 70 44 71 70 72 71 73 80 74 72 75 73 76
REMARK SMILES IDX 79 77 81 78 74 79 75 80 76 81 77 82 78 83 54 84 55 85 64 86
REMARK SMILES IDX 56 87 57 88 63 89 65 90 58 91 59 92 60 93 61 94 62 95
REMARK H PARENT 4 13 86 45 52 56
REMARK Flexibility Score: inf
ROOT
ATOM      1  C   UNL A   1      33.403  29.795  26.736  1.00  0.00     0.275 C 
ENDROOT
BRANCH   1   2
ATOM      2  O   UNL A   1      33.213  29.667  25.317  1.00  0.00    -0.458 OA
BRANCH   2   3
ATOM      3  C   UNL A   1      32.053  29.040  24.985  1.00  0.00     0.338 C 
ATOM      4  O   UNL A   1      31.023  29.590  24.671  1.00  0.00    -0.246 OA
BRANCH   3   5
ATOM      5  C   UNL A   1      32.142  27.567  25.158  1.00  0.00     0.065 A 
ATOM      6  C   UNL A   1      33.740  27.477  23.186  1.00  0.00     0.047 C 
ATOM      7  C   UNL A   1      33.056  26.833  24.367  1.00  0.00    -0.012 A 
ATOM      8  C   UNL A   1      33.295  25.474  24.672  1.00  0.00     0.053 A 
ATOM      9  C   UNL A   1      32.550  24.873  25.695  1.00  0.00     0.027 A 
ATOM     10  C   UNL A   1      31.440  26.945  26.193  1.00  0.00     0.016 A 
ATOM     11  C   UNL A   1      31.645  25.600  26.464  1.00  0.00     0.003 A 
BRANCH   8  12
ATOM     12  N   UNL A   1      34.479  24.857  24.131  1.00  0.00    -0.278 N 
ATOM     13  H   UNL A   1      35.344  25.283  24.327  1.00  0.00     0.180 HD
BRANCH  12  14
ATOM     14  S   UNL A   1      34.491  23.464  23.191  1.00  0.00     0.282 S 
ATOM     15  O   UNL A   1      33.646  23.712  22.040  1.00  0.00    -0.199 OA
ATOM     16  O   UNL A   1      35.881  23.091  23.027  1.00  0.00    -0.199 OA
BRANCH  14  17
ATOM     17  C   UNL A   1      33.770  22.112  24.012  1.00  0.00     0.213 A 
ATOM     18  N   UNL A   1      34.251  21.618  25.221  1.00  0.00    -0.222 NA
ATOM     19  C   UNL A   1      32.817  21.256  23.507  1.00  0.00     0.149 A 
ATOM     20  C   UNL A   1      33.707  20.430  25.345  1.00  0.00     0.202 A 
ATOM     21  N   UNL A   1      32.922  20.119  24.263  1.00  0.00    -0.324 N 
ATOM     22  Cl  UNL A   1      31.836  21.302  22.121  1.00  0.00    -0.061 Cl
ATOM     23  C   UNL A   1      32.592  18.763  23.893  1.00  0.00     0.152 C 
ENDBRANCH  14  17
ENDBRANCH  12  14
ENDBRANCH   8  12
ENDBRANCH   3   5
ENDBRANCH   2   3
ENDBRANCH   1   2
BRANCH   1  24
ATOM     24  C   UNL A   1      34.696  29.109  27.213  1.00  0.00     0.275 C 
BRANCH  24  25
ATOM     25  O   UNL A   1      35.338  29.596  28.414  1.00  0.00    -0.458 OA
BRANCH  25  26
ATOM     26  C   UNL A   1      36.450  30.362  28.251  1.00  0.00     0.338 C 
ATOM     27  O   UNL A   1      36.464  31.574  28.386  1.00  0.00    -0.246 OA
BRANCH  26  28
ATOM     28  C   UNL A   1      37.635  29.459  28.256  1.00  0.00     0.060 A 
ATOM     29  C   UNL A   1      38.687  29.663  27.348  1.00  0.00     0.016 A 
ATOM     30  C   UNL A   1      37.824  28.670  29.393  1.00  0.00     0.016 A 
ATOM     31  C   UNL A   1      39.956  29.173  27.628  1.00  0.00     0.010 A 
ATOM     32  C   UNL A   1      39.098  28.359  29.770  1.00  0.00     0.010 A 
ATOM     33  C   UNL A   1      40.144  28.552  28.857  1.00  0.00    -0.014 A 
BRANCH  33  34
ATOM     34  C   UNL A   1      41.272  27.700  29.164  1.00  0.00     0.031 A 
ATOM     35  C   UNL A   1      41.304  26.296  28.733  1.00  0.00     0.074 A 
ATOM     36  C   UNL A   1      42.283  28.470  29.635  1.00  0.00     0.049 A 
ATOM     37  N   UNL A   1      42.215  25.471  29.095  1.00  0.00    -0.248 NA
ATOM     38  C   UNL A   1      40.303  25.660  27.881  1.00  0.00     0.031 C 
ATOM     39  C   UNL A   1      43.710  28.272  29.760  1.00  0.00     0.029 A 
ATOM     40  N   UNL A   1      42.074  29.715  30.261  1.00  0.00    -0.354 N 
ATOM     41  C   UNL A   1      42.127  24.346  28.295  1.00  0.00     0.074 A 
ATOM     42  C   UNL A   1      40.847  24.456  27.650  1.00  0.00     0.031 C 
ATOM     43  C   UNL A   1      44.175  29.137  30.689  1.00  0.00     0.029 A 
ATOM     44  C   UNL A   1      43.022  29.832  31.266  1.00  0.00     0.049 A 
ATOM     45  H   UNL A   1      41.384  30.378  30.028  1.00  0.00     0.167 HD
ATOM     46  C   UNL A   1      43.246  23.571  28.192  1.00  0.00     0.037 A 
ATOM     47  C   UNL A   1      42.548  29.690  32.542  1.00  0.00     0.037 A 
ATOM     48  C   UNL A   1      44.233  24.078  29.149  1.00  0.00     0.049 A 
ATOM     49  C   UNL A   1      43.042  28.369  33.084  1.00  0.00     0.074 A 
ATOM     50  C   UNL A   1      45.263  24.992  29.005  1.00  0.00     0.029 A 
ATOM     51  N   UNL A   1      43.937  24.018  30.507  1.00  0.00    -0.354 N 
ATOM     52  N   UNL A   1      43.156  27.266  32.387  1.00  0.00    -0.248 NA
ATOM     53  C   UNL A   1      43.651  28.282  34.405  1.00  0.00     0.031 C 
ATOM     54  C   UNL A   1      45.489  25.579  30.281  1.00  0.00     0.029 A 
ATOM     55  C   UNL A   1      44.592  25.030  31.187  1.00  0.00     0.049 A 
ATOM     56  H   UNL A   1      43.348  23.350  30.926  1.00  0.00     0.167 HD
ATOM     57  C   UNL A   1      43.933  26.381  33.092  1.00  0.00     0.074 A 
ATOM     58  C   UNL A   1      44.191  27.055  34.357  1.00  0.00     0.031 C 
ATOM     59  C   UNL A   1      44.409  25.188  32.620  1.00  0.00     0.037 A 
BRANCH  46  60
ATOM     60  C   UNL A   1      43.605  22.567  27.104  1.00  0.00     0.058 A 
ATOM     61  C   UNL A   1      42.821  21.395  26.961  1.00  0.00     0.135 A 
ATOM     62  C   UNL A   1      44.712  22.628  26.232  1.00  0.00     0.135 A 
ATOM     63  F   UNL A   1      41.711  21.201  27.688  1.00  0.00    -0.206 F 
ATOM     64  C   UNL A   1      43.136  20.355  26.083  1.00  0.00     0.059 A 
ATOM     65  C   UNL A   1      45.047  21.596  25.339  1.00  0.00     0.059 A 
ATOM     66  F   UNL A   1      45.521  23.690  26.189  1.00  0.00    -0.206 F 
ATOM     67  C   UNL A   1      44.261  20.455  25.282  1.00  0.00     0.060 A 
BRANCH  67  68
ATOM     68  S   UNL A   1      44.651  19.091  24.169  1.00  0.00     0.124 S 
ATOM     69  O   UNL A   1      46.033  18.789  24.531  1.00  0.00    -0.237 OA
ATOM     70  O   UNL A   1      43.662  18.088  24.551  1.00  0.00    -0.237 OA
ATOM     71  O   UNL A   1      44.469  19.670  22.841  1.00  0.00    -0.744 OA
ENDBRANCH  67  68
ENDBRANCH  46  60
BRANCH  47  72
ATOM     72  C   UNL A   1      41.208  30.349  32.780  1.00  0.00     0.058 A 
ATOM     73  C   UNL A   1      41.130  31.759  32.647  1.00  0.00     0.135 A 
ATOM     74  C   UNL A   1      39.980  29.678  32.873  1.00  0.00     0.135 A 
ATOM     75  F   UNL A   1      42.258  32.488  32.574  1.00  0.00    -0.206 F 
ATOM     76  C   UNL A   1      39.925  32.445  32.487  1.00  0.00     0.059 A 
ATOM     77  C   UNL A   1      38.749  30.352  32.740  1.00  0.00     0.059 A 
ATOM     78  F   UNL A   1      39.944  28.345  33.019  1.00  0.00    -0.206 F 
ATOM     79  C   UNL A   1      38.734  31.731  32.510  1.00  0.00     0.060 A 
BRANCH  79  80
ATOM     80  S   UNL A   1      37.206  32.596  32.040  1.00  0.00     0.124 S 
ATOM     81  O   UNL A   1      37.654  33.417  30.921  1.00  0.00    -0.237 OA
ATOM     82  O   UNL A   1      36.325  31.483  31.695  1.00  0.00    -0.237 OA
ATOM     83  O   UNL A   1      36.851  33.325  33.254  1.00  0.00    -0.744 OA
ENDBRANCH  79  80
ENDBRANCH  47  72
BRANCH  59  84
ATOM     84  C   UNL A   1      44.860  24.066  33.521  1.00  0.00     0.058 A 
ATOM     85  C   UNL A   1      44.020  23.001  33.886  1.00  0.00     0.135 A 
ATOM     86  C   UNL A   1      46.217  23.939  33.905  1.00  0.00     0.135 A 
ATOM     87  F   UNL A   1      42.753  22.922  33.455  1.00  0.00    -0.206 F 
ATOM     88  C   UNL A   1      44.459  21.953  34.684  1.00  0.00     0.059 A 
ATOM     89  C   UNL A   1      46.694  22.854  34.624  1.00  0.00     0.059 A 
ATOM     90  F   UNL A   1      47.138  24.858  33.580  1.00  0.00    -0.206 F 
ATOM     91  C   UNL A   1      45.796  21.891  35.054  1.00  0.00     0.060 A 
BRANCH  91  92
ATOM     92  S   UNL A   1      46.357  20.539  36.090  1.00  0.00     0.124 S 
ATOM     93  O   UNL A   1      45.729  19.398  35.430  1.00  0.00    -0.237 OA
ATOM     94  O   UNL A   1      47.809  20.621  35.966  1.00  0.00    -0.237 OA
ATOM     95  O   UNL A   1      45.826  20.882  37.406  1.00  0.00    -0.744 OA
ENDBRANCH  91  92
ENDBRANCH  59  84
ENDBRANCH  33  34
ENDBRANCH  26  28
ENDBRANCH  25  26
ENDBRANCH  24  25
ENDBRANCH   1  24
TORSDOF 17
ENDMDL
MODEL 3
REMARK VINA RESULT:     -12.7      1.443      2.056
REMARK SMILES Cc1c(NS(=O)(=O)c2ncn(C)c2Cl)cccc1C(=O)OCCOC(=O)c1ccc(-c2c3nc(c(-c4c(F)cc(S(=O)(=O)[O-])cc4F)c4ccc([nH]4)c(-c4c(F)cc(S(=O)(=O)[O-])cc4F)c4nc(c(-c5c(F)cc(S(=O)(=O)[O-])cc5F)c5ccc2[nH]5)C=C4)C=C3)cc1
REMARK SMILES IDX 22 1 21 2 19 3 20 4 18 5 1 6 2 7 3 8 15 9 17 10 16 11 4 12
REMARK SMILES IDX 5 14 6 15 7 16 8 17 9 18 13 19 10 20 11 21 14 22 12 23 23 24
REMARK SMILES IDX 24 25 25 26 26 27 27 28 28 29 92 30 29 31 91 32 30 33 31 34
REMARK SMILES IDX 32 35 85 36 33 37 90 38 84 39 86 40 34 41 89 42 83 43 82 44
REMARK SMILES IDX 35 46 69 47 48 48 68 49 49 50 52 51 67 52 87 53 50 54 51 55
REMARK SMILES IDX 66 57 88 58 53 59 36 60 37 61 46 62 38 63 39 64 45 65 47 66
REMARK SMILES IDX 40 67 41 68 42 69 43 70 44 71 70 72 71 73 80 74 72 75 73 76
REMARK SMILES IDX 79 77 81 78 74 79 75 80 76 81 77 82 78 83 54 84 55 85 64 86
REMARK SMILES IDX 56 87 57 88 63 89 65 90 58 91 59 92 60 93 61 94 62 95
REMARK H PARENT 4 13 86 45 52 56
REMARK Flexibility Score: inf
ROOT
ATOM      1  C   UNL A   1      33.490  29.719  26.940  1.00  0.00     0.275 C 
ENDROOT
BRANCH   1   2
ATOM      2  O   UNL A   1      32.552  28.720  26.507  1.00  0.00    -0.458 OA
BRANCH   2   3
ATOM      3  C   UNL A   1      31.840  29.093  25.410  1.00  0.00     0.338 C 
ATOM      4  O   UNL A   1      31.382  30.195  25.212  1.00  0.00    -0.246 OA
BRANCH   3   5
ATOM      5  C   UNL A   1      31.572  27.949  24.501  1.00  0.00     0.065 A 
ATOM      6  C   UNL A   1      33.885  28.259  23.502  1.00  0.00     0.047 C 
ATOM      7  C   UNL A   1      32.610  27.471  23.669  1.00  0.00    -0.012 A 
ATOM      8  C   UNL A   1      32.425  26.260  22.963  1.00  0.00     0.053 A 
ATOM      9  C   UNL A   1      31.183  25.619  23.042  1.00  0.00     0.027 A 
ATOM     10  C   UNL A   1      30.356  27.266  24.582  1.00  0.00     0.016 A 
ATOM     11  C   UNL A   1      30.161  26.101  23.856  1.00  0.00     0.003 A 
BRANCH   8  12
ATOM     12  N   UNL A   1      33.592  25.595  22.444  1.00  0.00    -0.278 N 
ATOM     13  H   UNL A   1      34.259  26.145  21.973  1.00  0.00     0.180 HD
BRANCH  12  14
ATOM     14  S   UNL A   1      33.900  23.948  22.583  1.00  0.00     0.282 S 
ATOM     15  O   UNL A   1      33.324  23.301  21.420  1.00  0.00    -0.199 OA
ATOM     16  O   UNL A   1      35.310  23.817  22.885  1.00  0.00    -0.199 OA
BRANCH  14  17
ATOM     17  C   UNL A   1      33.092  23.243  23.951  1.00  0.00     0.213 A 
ATOM     18  N   UNL A   1      32.206  22.175  23.837  1.00  0.00    -0.222 NA
ATOM     19  C   UNL A   1      33.047  23.748  25.231  1.00  0.00     0.149 A 
ATOM     20  C   UNL A   1      31.550  22.154  24.974  1.00  0.00     0.202 A 
ATOM     21  N   UNL A   1      31.946  23.172  25.805  1.00  0.00    -0.324 N 
ATOM     22  Cl  UNL A   1      33.896  24.994  26.014  1.00  0.00    -0.061 Cl
ATOM     23  C   UNL A   1      31.121  23.683  26.873  1.00  0.00     0.152 C 
ENDBRANCH  14  17
ENDBRANCH  12  14
ENDBRANCH   8  12
ENDBRANCH   3   5
ENDBRANCH   2   3
ENDBRANCH   1   2
BRANCH   1  24
ATOM     24  C   UNL A   1      34.837  29.104  27.364  1.00  0.00     0.275 C 
BRANCH  24  25
ATOM     25  O   UNL A   1      35.528  29.667  28.503  1.00  0.00    -0.458 OA
BRANCH  25  26
ATOM     26  C   UNL A   1      36.638  30.410  28.245  1.00  0.00     0.338 C 
ATOM     27  O   UNL A   1      36.670  31.627  28.311  1.00  0.00    -0.246 OA
BRANCH  26  28
ATOM     28  C   UNL A   1      37.814  29.495  28.245  1.00  0.00     0.060 A 
ATOM     29  C   UNL A   1      38.854  29.676  27.319  1.00  0.00     0.016 A 
ATOM     30  C   UNL A   1      38.012  28.719  29.390  1.00  0.00     0.016 A 
ATOM     31  C   UNL A   1      40.122  29.175  27.587  1.00  0.00     0.010 A 
ATOM     32  C   UNL A   1      39.288  28.400  29.752  1.00  0.00     0.010 A 
ATOM     33  C   UNL A   1      40.322  28.570  28.822  1.00  0.00    -0.014 A 
BRANCH  33  34
ATOM     34  C   UNL A   1      41.446  27.710  29.123  1.00  0.00     0.031 A 
ATOM     35  C   UNL A   1      41.459  26.302  28.708  1.00  0.00     0.074 A 
ATOM     36  C   UNL A   1      42.470  28.476  29.574  1.00  0.00     0.049 A 
ATOM     37  N   UNL A   1      42.366  25.472  29.068  1.00  0.00    -0.248 NA
ATOM     38  C   UNL A   1      40.442  25.666  27.876  1.00  0.00     0.031 C 
ATOM     39  C   UNL A   1      43.897  28.265  29.683  1.00  0.00     0.029 A 
ATOM     40  N   UNL A   1      42.281  29.729  30.189  1.00  0.00    -0.354 N 
ATOM     41  C   UNL A   1      42.258  24.339  28.281  1.00  0.00     0.074 A 
ATOM     42  C   UNL A   1      40.971  24.455  27.651  1.00  0.00     0.031 C 
ATOM     43  C   UNL A   1      44.381  29.136  30.597  1.00  0.00     0.029 A 
ATOM     44  C   UNL A   1      43.242  29.848  31.180  1.00  0.00     0.049 A 
ATOM     45  H   UNL A   1      41.594  30.397  29.957  1.00  0.00     0.167 HD
ATOM     46  C   UNL A   1      43.368  23.552  28.172  1.00  0.00     0.037 A 
ATOM     47  C   UNL A   1      42.784  29.725  32.463  1.00  0.00     0.037 A 
ATOM     48  C   UNL A   1      44.372  24.060  29.111  1.00  0.00     0.049 A 
ATOM     49  C   UNL A   1      43.272  28.405  33.014  1.00  0.00     0.074 A 
ATOM     50  C   UNL A   1      45.409  24.962  28.944  1.00  0.00     0.029 A 
ATOM     51  N   UNL A   1      44.093  24.017  30.474  1.00  0.00    -0.354 N 
ATOM     52  N   UNL A   1      43.367  27.293  32.328  1.00  0.00    -0.248 NA
ATOM     53  C   UNL A   1      43.896  28.327  34.327  1.00  0.00     0.031 C 
ATOM     54  C   UNL A   1      45.656  25.561  30.211  1.00  0.00     0.029 A 
ATOM     55  C   UNL A   1      44.766  25.030  31.134  1.00  0.00     0.049 A 
ATOM     56  H   UNL A   1      43.503  23.360  30.907  1.00  0.00     0.167 HD
ATOM     57  C   UNL A   1      44.144  26.408  33.032  1.00  0.00     0.074 A 
ATOM     58  C   UNL A   1      44.425  27.094  34.286  1.00  0.00     0.031 C 
ATOM     59  C   UNL A   1      44.602  25.206  32.568  1.00  0.00     0.037 A 
BRANCH  46  60
ATOM     60  C   UNL A   1      43.703  22.533  27.091  1.00  0.00     0.058 A 
ATOM     61  C   UNL A   1      42.869  21.399  26.930  1.00  0.00     0.135 A 
ATOM     62  C   UNL A   1      44.831  22.543  26.244  1.00  0.00     0.135 A 
ATOM     63  F   UNL A   1      41.736  21.257  27.632  1.00  0.00    -0.206 F 
ATOM     64  C   UNL A   1      43.155  20.345  26.057  1.00  0.00     0.059 A 
ATOM     65  C   UNL A   1      45.138  21.496  25.357  1.00  0.00     0.059 A 
ATOM     66  F   UNL A   1      45.689  23.566  26.220  1.00  0.00    -0.206 F 
ATOM     67  C   UNL A   1      44.300  20.394  25.281  1.00  0.00     0.060 A 
BRANCH  67  68
ATOM     68  S   UNL A   1      44.651  19.013  24.175  1.00  0.00     0.124 S 
ATOM     69  O   UNL A   1      46.017  18.661  24.552  1.00  0.00    -0.237 OA
ATOM     70  O   UNL A   1      43.622  18.048  24.550  1.00  0.00    -0.237 OA
ATOM     71  O   UNL A   1      44.504  19.595  22.844  1.00  0.00    -0.744 OA
ENDBRANCH  67  68
ENDBRANCH  46  60
BRANCH  47  72
ATOM     72  C   UNL A   1      41.453  30.399  32.711  1.00  0.00     0.058 A 
ATOM     73  C   UNL A   1      40.362  29.585  33.111  1.00  0.00     0.135 A 
ATOM     74  C   UNL A   1      41.256  31.783  32.830  1.00  0.00     0.135 A 
ATOM     75  F   UNL A   1      40.454  28.247  33.010  1.00  0.00    -0.206 F 
ATOM     76  C   UNL A   1      39.208  30.095  33.705  1.00  0.00     0.059 A 
ATOM     77  C   UNL A   1      40.087  32.324  33.404  1.00  0.00     0.059 A 
ATOM     78  F   UNL A   1      42.219  32.640  32.463  1.00  0.00    -0.206 F 
ATOM     79  C   UNL A   1      39.085  31.469  33.873  1.00  0.00     0.060 A 
BRANCH  79  80
ATOM     80  S   UNL A   1      37.705  32.090  34.879  1.00  0.00     0.124 S 
ATOM     81  O   UNL A   1      37.774  31.229  36.054  1.00  0.00    -0.237 OA
ATOM     82  O   UNL A   1      38.091  33.482  35.092  1.00  0.00    -0.237 OA
ATOM     83  O   UNL A   1      36.545  31.886  34.015  1.00  0.00    -0.744 OA
ENDBRANCH  79  80
ENDBRANCH  47  72
BRANCH  59  84
ATOM     84  C   UNL A   1      45.054  24.089  33.475  1.00  0.00     0.058 A 
ATOM     85  C   UNL A   1      46.350  24.025  34.012  1.00  0.00     0.135 A 
ATOM     86  C   UNL A   1      44.133  23.135  33.973  1.00  0.00     0.135 A 
ATOM     87  F   UNL A   1      47.273  24.960  33.743  1.00  0.00    -0.206 F 
ATOM     88  C   UNL A   1      46.743  23.013  34.877  1.00  0.00     0.059 A 
ATOM     89  C   UNL A   1      44.483  22.173  34.908  1.00  0.00     0.059 A 
ATOM     90  F   UNL A   1      42.851  23.113  33.584  1.00  0.00    -0.206 F 
ATOM     91  C   UNL A   1      45.804  22.087  35.314  1.00  0.00     0.060 A 
BRANCH  91  92
ATOM     92  S   UNL A   1      46.318  20.778  36.427  1.00  0.00     0.124 S 
ATOM     93  O   UNL A   1      47.771  20.872  36.322  1.00  0.00    -0.237 OA
ATOM     94  O   UNL A   1      45.747  21.199  37.703  1.00  0.00    -0.237 OA
ATOM     95  O   UNL A   1      45.715  19.584  35.842  1.00  0.00    -0.744 OA
ENDBRANCH  91  92
ENDBRANCH  59  84
ENDBRANCH  33  34
ENDBRANCH  26  28
ENDBRANCH  25  26
ENDBRANCH  24  25
ENDBRANCH   1  24
TORSDOF 17
ENDMDL
