MODEL 1
REMARK VINA RESULT:     -13.1      0.000      0.000
REMARK SMILES C[C@H](C(=O)Nc1ccc(C(F)(F)F)cc1)n1nc(C(=O)OCCOC(=O)c2ccc(-c3c4nc(c(-c5c(F)cc(S(=O)(=O)[O-])cc5F)c5ccc([nH]5)c(-c5c(F)cc(S(=O)(=O)[O-])cc5F)c5nc(c(-c6c(F)cc(S(=O)(=O)[O-])cc6F)c6ccc3[nH]6)C=C5)C=C4)cc2)c2ccccc2c1=O
REMARK SMILES IDX 22 1 21 2 19 3 20 4 18 5 16 6 17 7 99 8 98 9 100 10 93 11
REMARK SMILES IDX 97 12 94 13 96 14 95 15 2 16 1 17 3 18 4 19 5 20 6 22 7 23
REMARK SMILES IDX 15 24 8 25 14 26 9 27 10 28 11 29 12 30 13 31 23 32 24 33
REMARK SMILES IDX 25 34 26 35 27 36 28 37 92 38 29 39 91 40 30 41 31 42 32 43
REMARK SMILES IDX 85 44 33 45 90 46 84 47 86 48 34 49 89 50 83 51 82 52 35 54
REMARK SMILES IDX 69 55 48 56 68 57 49 58 52 59 67 60 87 61 50 62 51 63 66 65
REMARK SMILES IDX 88 66 53 67 36 68 37 69 46 70 38 71 39 72 45 73 47 74 40 75
REMARK SMILES IDX 41 76 42 77 43 78 44 79 70 80 71 81 80 82 72 83 73 84 79 85
REMARK SMILES IDX 81 86 74 87 75 88 76 89 77 90 78 91 54 92 55 93 64 94 56 95
REMARK SMILES IDX 57 96 63 97 65 98 58 99 59 100 60 101 61 102 62 103
REMARK H PARENT 5 21 86 53 52 64
REMARK Flexibility Score: inf
ROOT
ATOM      1  C   UNL A   1      33.543  30.266  26.937  1.00  0.00     0.275 C 
ENDROOT
BRANCH   1   2
ATOM      2  O   UNL A   1      32.376  30.334  26.103  1.00  0.00    -0.457 OA
BRANCH   2   3
ATOM      3  C   UNL A   1      31.720  29.168  25.953  1.00  0.00     0.359 C 
ATOM      4  O   UNL A   1      31.435  28.379  26.838  1.00  0.00    -0.244 OA
BRANCH   3   5
ATOM      5  C   UNL A   1      31.630  28.744  24.493  1.00  0.00     0.176 A 
ATOM      6  N   UNL A   1      31.849  26.625  23.762  1.00  0.00    -0.216 N 
ATOM      7  N   UNL A   1      32.453  27.796  24.184  1.00  0.00    -0.161 NA
ATOM      8  C   UNL A   1      30.448  26.459  23.822  1.00  0.00     0.275 A 
ATOM      9  C   UNL A   1      29.665  27.702  23.661  1.00  0.00     0.051 A 
ATOM     10  O   UNL A   1      29.848  25.402  23.967  1.00  0.00    -0.267 OA
ATOM     11  C   UNL A   1      30.347  28.897  23.806  1.00  0.00     0.022 A 
ATOM     12  C   UNL A   1      28.324  27.708  23.275  1.00  0.00     0.014 A 
ATOM     13  C   UNL A   1      29.799  30.094  23.357  1.00  0.00     0.011 A 
ATOM     14  C   UNL A   1      27.725  28.916  22.910  1.00  0.00     0.001 A 
ATOM     15  C   UNL A   1      28.478  30.095  22.896  1.00  0.00     0.001 A 
BRANCH   6  16
ATOM     16  C   UNL A   1      32.810  25.519  23.648  1.00  0.00     0.197 C 
ATOM     17  C   UNL A   1      34.126  25.898  24.328  1.00  0.00     0.044 C 
BRANCH  16  18
ATOM     18  C   UNL A   1      33.040  25.015  22.227  1.00  0.00     0.249 C 
ATOM     19  O   UNL A   1      33.158  25.802  21.280  1.00  0.00    -0.272 OA
ATOM     20  N   UNL A   1      33.164  23.676  21.961  1.00  0.00    -0.324 N 
ATOM     21  H   UNL A   1      33.322  23.482  21.010  1.00  0.00     0.170 HD
BRANCH  20  22
ATOM     22  C   UNL A   1      33.112  22.520  22.763  1.00  0.00     0.041 A 
ATOM     23  C   UNL A   1      32.154  21.568  22.403  1.00  0.00     0.027 A 
ATOM     24  C   UNL A   1      33.927  22.252  23.861  1.00  0.00     0.027 A 
ATOM     25  C   UNL A   1      32.090  20.329  23.051  1.00  0.00     0.015 A 
ATOM     26  C   UNL A   1      33.864  21.015  24.520  1.00  0.00     0.015 A 
ATOM     27  C   UNL A   1      32.967  20.027  24.099  1.00  0.00     0.056 A 
BRANCH  27  28
ATOM     28  C   UNL A   1      32.937  18.666  24.748  1.00  0.00     0.416 C 
ATOM     29  F   UNL A   1      31.974  17.856  24.230  1.00  0.00    -0.166 F 
ATOM     30  F   UNL A   1      34.113  17.994  24.589  1.00  0.00    -0.166 F 
ATOM     31  F   UNL A   1      32.716  18.705  26.092  1.00  0.00    -0.166 F 
ENDBRANCH  27  28
ENDBRANCH  20  22
ENDBRANCH  16  18
ENDBRANCH   6  16
ENDBRANCH   3   5
ENDBRANCH   2   3
ENDBRANCH   1   2
BRANCH   1  32
ATOM     32  C   UNL A   1      33.679  31.549  27.751  1.00  0.00     0.275 C 
BRANCH  32  33
ATOM     33  O   UNL A   1      35.065  31.871  27.994  1.00  0.00    -0.458 OA
BRANCH  33  34
ATOM     34  C   UNL A   1      35.525  31.514  29.212  1.00  0.00     0.338 C 
ATOM     35  O   UNL A   1      35.018  31.767  30.298  1.00  0.00    -0.246 OA
BRANCH  34  36
ATOM     36  C   UNL A   1      36.683  30.624  29.103  1.00  0.00     0.060 A 
ATOM     37  C   UNL A   1      37.406  30.347  30.256  1.00  0.00     0.016 A 
ATOM     38  C   UNL A   1      37.204  30.289  27.857  1.00  0.00     0.016 A 
ATOM     39  C   UNL A   1      38.705  29.872  30.170  1.00  0.00     0.010 A 
ATOM     40  C   UNL A   1      38.476  29.704  27.782  1.00  0.00     0.010 A 
ATOM     41  C   UNL A   1      39.266  29.544  28.936  1.00  0.00    -0.014 A 
BRANCH  41  42
ATOM     42  C   UNL A   1      40.697  29.136  28.872  1.00  0.00     0.031 A 
ATOM     43  C   UNL A   1      41.776  30.137  29.201  1.00  0.00     0.074 A 
ATOM     44  C   UNL A   1      41.038  27.854  28.621  1.00  0.00     0.049 A 
ATOM     45  N   UNL A   1      43.067  30.052  29.014  1.00  0.00    -0.248 NA
ATOM     46  C   UNL A   1      41.344  31.401  29.823  1.00  0.00     0.031 C 
ATOM     47  C   UNL A   1      40.100  26.748  28.406  1.00  0.00     0.029 A 
ATOM     48  N   UNL A   1      42.272  27.258  28.517  1.00  0.00    -0.354 N 
ATOM     49  C   UNL A   1      43.597  31.263  29.448  1.00  0.00     0.074 A 
ATOM     50  C   UNL A   1      42.486  32.071  29.902  1.00  0.00     0.031 C 
ATOM     51  C   UNL A   1      40.787  25.609  28.236  1.00  0.00     0.029 A 
ATOM     52  C   UNL A   1      42.208  25.922  28.194  1.00  0.00     0.049 A 
ATOM     53  H   UNL A   1      43.118  27.740  28.660  1.00  0.00     0.167 HD
ATOM     54  C   UNL A   1      44.891  31.661  29.462  1.00  0.00     0.037 A 
ATOM     55  C   UNL A   1      43.174  25.058  27.826  1.00  0.00     0.037 A 
ATOM     56  C   UNL A   1      45.989  30.832  29.035  1.00  0.00     0.049 A 
ATOM     57  C   UNL A   1      44.593  25.554  27.742  1.00  0.00     0.074 A 
ATOM     58  C   UNL A   1      47.332  31.156  28.940  1.00  0.00     0.029 A 
ATOM     59  N   UNL A   1      45.875  29.501  28.658  1.00  0.00    -0.354 N 
ATOM     60  N   UNL A   1      45.067  26.744  28.027  1.00  0.00    -0.248 NA
ATOM     61  C   UNL A   1      45.602  24.598  27.271  1.00  0.00     0.031 C 
ATOM     62  C   UNL A   1      48.022  30.036  28.469  1.00  0.00     0.029 A 
ATOM     63  C   UNL A   1      47.121  28.993  28.329  1.00  0.00     0.049 A 
ATOM     64  H   UNL A   1      45.032  28.994  28.628  1.00  0.00     0.167 HD
ATOM     65  C   UNL A   1      46.437  26.668  27.799  1.00  0.00     0.074 A 
ATOM     66  C   UNL A   1      46.714  25.312  27.369  1.00  0.00     0.031 C 
ATOM     67  C   UNL A   1      47.382  27.632  27.930  1.00  0.00     0.037 A 
BRANCH  54  68
ATOM     68  C   UNL A   1      45.191  33.067  29.908  1.00  0.00     0.058 A 
ATOM     69  C   UNL A   1      45.535  33.373  31.233  1.00  0.00     0.135 A 
ATOM     70  C   UNL A   1      45.173  34.121  28.979  1.00  0.00     0.135 A 
ATOM     71  F   UNL A   1      45.544  32.410  32.168  1.00  0.00    -0.206 F 
ATOM     72  C   UNL A   1      45.835  34.675  31.626  1.00  0.00     0.059 A 
ATOM     73  C   UNL A   1      45.497  35.425  29.342  1.00  0.00     0.059 A 
ATOM     74  F   UNL A   1      44.845  33.888  27.698  1.00  0.00    -0.206 F 
ATOM     75  C   UNL A   1      45.817  35.694  30.672  1.00  0.00     0.060 A 
BRANCH  75  76
ATOM     76  S   UNL A   1      46.223  37.374  31.193  1.00  0.00     0.124 S 
ATOM     77  O   UNL A   1      45.126  38.135  30.602  1.00  0.00    -0.237 OA
ATOM     78  O   UNL A   1      46.204  37.261  32.647  1.00  0.00    -0.237 OA
ATOM     79  O   UNL A   1      47.537  37.607  30.602  1.00  0.00    -0.744 OA
ENDBRANCH  75  76
ENDBRANCH  54  68
BRANCH  55  80
ATOM     80  C   UNL A   1      42.825  23.670  27.410  1.00  0.00     0.058 A 
ATOM     81  C   UNL A   1      42.640  22.646  28.350  1.00  0.00     0.135 A 
ATOM     82  C   UNL A   1      42.707  23.333  26.050  1.00  0.00     0.135 A 
ATOM     83  F   UNL A   1      42.750  22.911  29.661  1.00  0.00    -0.206 F 
ATOM     84  C   UNL A   1      42.389  21.334  27.958  1.00  0.00     0.059 A 
ATOM     85  C   UNL A   1      42.414  22.040  25.636  1.00  0.00     0.059 A 
ATOM     86  F   UNL A   1      42.861  24.275  25.105  1.00  0.00    -0.206 F 
ATOM     87  C   UNL A   1      42.282  21.041  26.598  1.00  0.00     0.060 A 
BRANCH  87  88
ATOM     88  S   UNL A   1      41.960  19.337  26.095  1.00  0.00     0.124 S 
ATOM     89  O   UNL A   1      42.784  19.228  24.897  1.00  0.00    -0.237 OA
ATOM     90  O   UNL A   1      42.415  18.583  27.258  1.00  0.00    -0.237 OA
ATOM     91  O   UNL A   1      40.516  19.322  25.872  1.00  0.00    -0.744 OA
ENDBRANCH  87  88
ENDBRANCH  55  80
BRANCH  67  92
ATOM     92  C   UNL A   1      48.810  27.234  27.684  1.00  0.00     0.058 A 
ATOM     93  C   UNL A   1      49.618  26.684  28.693  1.00  0.00     0.135 A 
ATOM     94  C   UNL A   1      49.371  27.386  26.405  1.00  0.00     0.135 A 
ATOM     95  F   UNL A   1      49.132  26.524  29.934  1.00  0.00    -0.206 F 
ATOM     96  C   UNL A   1      50.942  26.337  28.452  1.00  0.00     0.059 A 
ATOM     97  C   UNL A   1      50.683  27.013  26.134  1.00  0.00     0.059 A 
ATOM     98  F   UNL A   1      48.639  27.896  25.401  1.00  0.00    -0.206 F 
ATOM     99  C   UNL A   1      51.466  26.506  27.169  1.00  0.00     0.060 A 
BRANCH  99 100
ATOM    100  S   UNL A   1      53.183  26.038  26.866  1.00  0.00     0.124 S 
ATOM    101  O   UNL A   1      53.741  26.083  28.214  1.00  0.00    -0.237 OA
ATOM    102  O   UNL A   1      53.045  24.709  26.281  1.00  0.00    -0.237 OA
ATOM    103  O   UNL A   1      53.661  27.073  25.954  1.00  0.00    -0.744 OA
ENDBRANCH  99 100
ENDBRANCH  67  92
ENDBRANCH  41  42
ENDBRANCH  34  36
ENDBRANCH  33  34
ENDBRANCH  32  33
ENDBRANCH   1  32
TORSDOF 18
ENDMDL
MODEL 2
REMARK VINA RESULT:     -13.1      6.141     11.398
REMARK SMILES C[C@H](C(=O)Nc1ccc(C(F)(F)F)cc1)n1nc(C(=O)OCCOC(=O)c2ccc(-c3c4nc(c(-c5c(F)cc(S(=O)(=O)[O-])cc5F)c5ccc([nH]5)c(-c5c(F)cc(S(=O)(=O)[O-])cc5F)c5nc(c(-c6c(F)cc(S(=O)(=O)[O-])cc6F)c6ccc3[nH]6)C=C5)C=C4)cc2)c2ccccc2c1=O
REMARK SMILES IDX 22 1 21 2 19 3 20 4 18 5 16 6 17 7 99 8 98 9 100 10 93 11
REMARK SMILES IDX 97 12 94 13 96 14 95 15 2 16 1 17 3 18 4 19 5 20 6 22 7 23
REMARK SMILES IDX 15 24 8 25 14 26 9 27 10 28 11 29 12 30 13 31 23 32 24 33
REMARK SMILES IDX 25 34 26 35 27 36 28 37 92 38 29 39 91 40 30 41 31 42 32 43
REMARK SMILES IDX 85 44 33 45 90 46 84 47 86 48 34 49 89 50 83 51 82 52 35 54
REMARK SMILES IDX 69 55 48 56 68 57 49 58 52 59 67 60 87 61 50 62 51 63 66 65
REMARK SMILES IDX 88 66 53 67 36 68 37 69 46 70 38 71 39 72 45 73 47 74 40 75
REMARK SMILES IDX 41 76 42 77 43 78 44 79 70 80 71 81 80 82 72 83 73 84 79 85
REMARK SMILES IDX 81 86 74 87 75 88 76 89 77 90 78 91 54 92 55 93 64 94 56 95
REMARK SMILES IDX 57 96 63 97 65 98 58 99 59 100 60 101 61 102 62 103
REMARK H PARENT 5 21 86 53 52 64
REMARK Flexibility Score: inf
ROOT
ATOM      1  C   UNL A   1      38.057  22.124  25.410  1.00  0.00     0.275 C 
ENDROOT
BRANCH   1   2
ATOM      2  O   UNL A   1      37.481  23.170  24.611  1.00  0.00    -0.457 OA
BRANCH   2   3
ATOM      3  C   UNL A   1      36.376  22.816  23.928  1.00  0.00     0.359 C 
ATOM      4  O   UNL A   1      36.211  22.908  22.723  1.00  0.00    -0.244 OA
BRANCH   3   5
ATOM      5  C   UNL A   1      35.186  22.573  24.847  1.00  0.00     0.176 A 
ATOM      6  N   UNL A   1      33.315  23.827  24.872  1.00  0.00    -0.216 N 
ATOM      7  N   UNL A   1      34.632  23.665  25.265  1.00  0.00    -0.161 NA
ATOM      8  C   UNL A   1      32.705  22.935  23.964  1.00  0.00     0.275 A 
ATOM      9  C   UNL A   1      33.213  21.547  24.015  1.00  0.00     0.051 A 
ATOM     10  O   UNL A   1      31.802  23.200  23.181  1.00  0.00    -0.267 OA
ATOM     11  C   UNL A   1      34.415  21.343  24.668  1.00  0.00     0.022 A 
ATOM     12  C   UNL A   1      32.489  20.457  23.531  1.00  0.00     0.014 A 
ATOM     13  C   UNL A   1      34.811  20.068  25.059  1.00  0.00     0.011 A 
ATOM     14  C   UNL A   1      32.923  19.164  23.831  1.00  0.00     0.001 A 
ATOM     15  C   UNL A   1      34.047  18.972  24.642  1.00  0.00     0.001 A 
BRANCH   6  16
ATOM     16  C   UNL A   1      32.811  25.174  25.174  1.00  0.00     0.197 C 
ATOM     17  C   UNL A   1      33.950  26.052  25.697  1.00  0.00     0.044 C 
BRANCH  16  18
ATOM     18  C   UNL A   1      31.604  25.212  26.104  1.00  0.00     0.249 C 
ATOM     19  O   UNL A   1      31.531  24.469  27.090  1.00  0.00    -0.272 OA
ATOM     20  N   UNL A   1      30.579  26.099  25.899  1.00  0.00    -0.324 N 
ATOM     21  H   UNL A   1      29.866  26.033  26.575  1.00  0.00     0.170 HD
BRANCH  20  22
ATOM     22  C   UNL A   1      30.332  27.086  24.926  1.00  0.00     0.041 A 
ATOM     23  C   UNL A   1      29.301  26.811  24.024  1.00  0.00     0.027 A 
ATOM     24  C   UNL A   1      31.016  28.294  24.796  1.00  0.00     0.027 A 
ATOM     25  C   UNL A   1      28.885  27.767  23.089  1.00  0.00     0.015 A 
ATOM     26  C   UNL A   1      30.610  29.253  23.858  1.00  0.00     0.015 A 
ATOM     27  C   UNL A   1      29.517  29.013  23.017  1.00  0.00     0.056 A 
BRANCH  27  28
ATOM     28  C   UNL A   1      29.021  30.063  22.055  1.00  0.00     0.416 C 
ATOM     29  F   UNL A   1      27.857  29.711  21.444  1.00  0.00    -0.166 F 
ATOM     30  F   UNL A   1      28.772  31.252  22.674  1.00  0.00    -0.166 F 
ATOM     31  F   UNL A   1      29.901  30.348  21.053  1.00  0.00    -0.166 F 
ENDBRANCH  27  28
ENDBRANCH  20  22
ENDBRANCH  16  18
ENDBRANCH   6  16
ENDBRANCH   3   5
ENDBRANCH   2   3
ENDBRANCH   1   2
BRANCH   1  32
ATOM     32  C   UNL A   1      39.044  22.716  26.411  1.00  0.00     0.275 C 
BRANCH  32  33
ATOM     33  O   UNL A   1      38.843  24.136  26.567  1.00  0.00    -0.458 OA
BRANCH  33  34
ATOM     34  C   UNL A   1      39.956  24.886  26.420  1.00  0.00     0.338 C 
ATOM     35  O   UNL A   1      40.591  25.074  25.389  1.00  0.00    -0.246 OA
BRANCH  34  36
ATOM     36  C   UNL A   1      40.277  25.609  27.653  1.00  0.00     0.060 A 
ATOM     37  C   UNL A   1      39.326  25.632  28.665  1.00  0.00     0.016 A 
ATOM     38  C   UNL A   1      41.370  26.468  27.706  1.00  0.00     0.016 A 
ATOM     39  C   UNL A   1      39.379  26.601  29.653  1.00  0.00     0.010 A 
ATOM     40  C   UNL A   1      41.478  27.374  28.770  1.00  0.00     0.010 A 
ATOM     41  C   UNL A   1      40.450  27.491  29.725  1.00  0.00    -0.014 A 
BRANCH  41  42
ATOM     42  C   UNL A   1      40.422  28.585  30.735  1.00  0.00     0.031 A 
ATOM     43  C   UNL A   1      41.419  28.582  31.868  1.00  0.00     0.074 A 
ATOM     44  C   UNL A   1      39.581  29.632  30.597  1.00  0.00     0.049 A 
ATOM     45  N   UNL A   1      41.440  29.313  32.951  1.00  0.00    -0.248 NA
ATOM     46  C   UNL A   1      42.540  27.631  31.765  1.00  0.00     0.031 C 
ATOM     47  C   UNL A   1      38.646  29.834  29.486  1.00  0.00     0.029 A 
ATOM     48  N   UNL A   1      39.386  30.736  31.390  1.00  0.00    -0.354 N 
ATOM     49  C   UNL A   1      42.543  28.880  33.682  1.00  0.00     0.074 A 
ATOM     50  C   UNL A   1      43.162  27.817  32.921  1.00  0.00     0.031 C 
ATOM     51  C   UNL A   1      38.009  31.003  29.648  1.00  0.00     0.029 A 
ATOM     52  C   UNL A   1      38.387  31.567  30.936  1.00  0.00     0.049 A 
ATOM     53  H   UNL A   1      39.909  30.916  32.205  1.00  0.00     0.167 HD
ATOM     54  C   UNL A   1      42.991  29.330  34.878  1.00  0.00     0.037 A 
ATOM     55  C   UNL A   1      37.783  32.620  31.520  1.00  0.00     0.037 A 
ATOM     56  C   UNL A   1      42.380  30.412  35.608  1.00  0.00     0.049 A 
ATOM     57  C   UNL A   1      38.225  33.032  32.898  1.00  0.00     0.074 A 
ATOM     58  C   UNL A   1      42.708  30.903  36.860  1.00  0.00     0.029 A 
ATOM     59  N   UNL A   1      41.332  31.190  35.138  1.00  0.00    -0.354 N 
ATOM     60  N   UNL A   1      39.184  32.530  33.640  1.00  0.00    -0.248 NA
ATOM     61  C   UNL A   1      37.494  34.140  33.524  1.00  0.00     0.031 C 
ATOM     62  C   UNL A   1      41.833  31.951  37.163  1.00  0.00     0.029 A 
ATOM     63  C   UNL A   1      41.000  32.154  36.075  1.00  0.00     0.049 A 
ATOM     64  H   UNL A   1      40.888  31.072  34.267  1.00  0.00     0.167 HD
ATOM     65  C   UNL A   1      39.190  33.284  34.808  1.00  0.00     0.074 A 
ATOM     66  C   UNL A   1      38.152  34.284  34.665  1.00  0.00     0.031 C 
ATOM     67  C   UNL A   1      39.981  33.160  35.904  1.00  0.00     0.037 A 
BRANCH  54  68
ATOM     68  C   UNL A   1      44.170  28.628  35.498  1.00  0.00     0.058 A 
ATOM     69  C   UNL A   1      45.489  29.051  35.282  1.00  0.00     0.135 A 
ATOM     70  C   UNL A   1      43.967  27.534  36.357  1.00  0.00     0.135 A 
ATOM     71  F   UNL A   1      45.744  30.075  34.451  1.00  0.00    -0.206 F 
ATOM     72  C   UNL A   1      46.569  28.408  35.883  1.00  0.00     0.059 A 
ATOM     73  C   UNL A   1      45.028  26.894  36.991  1.00  0.00     0.059 A 
ATOM     74  F   UNL A   1      42.726  27.082  36.595  1.00  0.00    -0.206 F 
ATOM     75  C   UNL A   1      46.326  27.332  36.739  1.00  0.00     0.060 A 
BRANCH  75  76
ATOM     76  S   UNL A   1      47.734  26.516  37.523  1.00  0.00     0.124 S 
ATOM     77  O   UNL A   1      47.467  26.769  38.936  1.00  0.00    -0.237 OA
ATOM     78  O   UNL A   1      47.575  25.133  37.086  1.00  0.00    -0.237 OA
ATOM     79  O   UNL A   1      48.887  27.217  36.968  1.00  0.00    -0.744 OA
ENDBRANCH  75  76
ENDBRANCH  54  68
BRANCH  55  80
ATOM     80  C   UNL A   1      36.631  33.292  30.855  1.00  0.00     0.058 A 
ATOM     81  C   UNL A   1      36.812  34.143  29.756  1.00  0.00     0.135 A 
ATOM     82  C   UNL A   1      35.321  33.121  31.336  1.00  0.00     0.135 A 
ATOM     83  F   UNL A   1      38.042  34.348  29.261  1.00  0.00    -0.206 F 
ATOM     84  C   UNL A   1      35.746  34.830  29.183  1.00  0.00     0.059 A 
ATOM     85  C   UNL A   1      34.235  33.762  30.754  1.00  0.00     0.059 A 
ATOM     86  F   UNL A   1      35.085  32.308  32.378  1.00  0.00    -0.206 F 
ATOM     87  C   UNL A   1      34.461  34.635  29.692  1.00  0.00     0.060 A 
BRANCH  87  88
ATOM     88  S   UNL A   1      33.081  35.530  28.947  1.00  0.00     0.124 S 
ATOM     89  O   UNL A   1      32.312  35.911  30.126  1.00  0.00    -0.237 OA
ATOM     90  O   UNL A   1      33.761  36.615  28.248  1.00  0.00    -0.237 OA
ATOM     91  O   UNL A   1      32.460  34.529  28.083  1.00  0.00    -0.744 OA
ENDBRANCH  87  88
ENDBRANCH  55  80
BRANCH  67  92
ATOM     92  C   UNL A   1      39.808  34.178  36.995  1.00  0.00     0.058 A 
ATOM     93  C   UNL A   1      39.114  33.892  38.182  1.00  0.00     0.135 A 
ATOM     94  C   UNL A   1      40.369  35.459  36.856  1.00  0.00     0.135 A 
ATOM     95  F   UNL A   1      38.554  32.686  38.363  1.00  0.00    -0.206 F 
ATOM     96  C   UNL A   1      38.950  34.852  39.175  1.00  0.00     0.059 A 
ATOM     97  C   UNL A   1      40.246  36.422  37.851  1.00  0.00     0.059 A 
ATOM     98  F   UNL A   1      41.052  35.781  35.746  1.00  0.00    -0.206 F 
ATOM     99  C   UNL A   1      39.518  36.115  39.000  1.00  0.00     0.060 A 
BRANCH  99 100
ATOM    100  S   UNL A   1      39.309  37.347  40.301  1.00  0.00     0.124 S 
ATOM    101  O   UNL A   1      38.561  38.388  39.602  1.00  0.00    -0.237 OA
ATOM    102  O   UNL A   1      38.567  36.606  41.316  1.00  0.00    -0.237 OA
ATOM    103  O   UNL A   1      40.680  37.695  40.664  1.00  0.00    -0.744 OA
ENDBRANCH  99 100
ENDBRANCH  67  92
ENDBRANCH  41  42
ENDBRANCH  34  36
ENDBRANCH  33  34
ENDBRANCH  32  33
ENDBRANCH   1  32
TORSDOF 18
ENDMDL
MODEL 3
REMARK VINA RESULT:     -12.7      3.330      8.599
REMARK SMILES C[C@H](C(=O)Nc1ccc(C(F)(F)F)cc1)n1nc(C(=O)OCCOC(=O)c2ccc(-c3c4nc(c(-c5c(F)cc(S(=O)(=O)[O-])cc5F)c5ccc([nH]5)c(-c5c(F)cc(S(=O)(=O)[O-])cc5F)c5nc(c(-c6c(F)cc(S(=O)(=O)[O-])cc6F)c6ccc3[nH]6)C=C5)C=C4)cc2)c2ccccc2c1=O
REMARK SMILES IDX 22 1 21 2 19 3 20 4 18 5 16 6 17 7 99 8 98 9 100 10 93 11
REMARK SMILES IDX 97 12 94 13 96 14 95 15 2 16 1 17 3 18 4 19 5 20 6 22 7 23
REMARK SMILES IDX 15 24 8 25 14 26 9 27 10 28 11 29 12 30 13 31 23 32 24 33
REMARK SMILES IDX 25 34 26 35 27 36 28 37 92 38 29 39 91 40 30 41 31 42 32 43
REMARK SMILES IDX 85 44 33 45 90 46 84 47 86 48 34 49 89 50 83 51 82 52 35 54
REMARK SMILES IDX 69 55 48 56 68 57 49 58 52 59 67 60 87 61 50 62 51 63 66 65
REMARK SMILES IDX 88 66 53 67 36 68 37 69 46 70 38 71 39 72 45 73 47 74 40 75
REMARK SMILES IDX 41 76 42 77 43 78 44 79 70 80 71 81 80 82 72 83 73 84 79 85
REMARK SMILES IDX 81 86 74 87 75 88 76 89 77 90 78 91 54 92 55 93 64 94 56 95
REMARK SMILES IDX 57 96 63 97 65 98 58 99 59 100 60 101 61 102 62 103
REMARK H PARENT 5 21 86 53 52 64
REMARK Flexibility Score: inf
ROOT
ATOM      1  C   UNL A   1      37.772  22.231  25.256  1.00  0.00     0.275 C 
ENDROOT
BRANCH   1   2
ATOM      2  O   UNL A   1      36.492  22.003  25.868  1.00  0.00    -0.457 OA
BRANCH   2   3
ATOM      3  C   UNL A   1      35.861  20.887  25.460  1.00  0.00     0.359 C 
ATOM      4  O   UNL A   1      36.334  20.000  24.768  1.00  0.00    -0.244 OA
BRANCH   3   5
ATOM      5  C   UNL A   1      34.356  20.967  25.675  1.00  0.00     0.176 A 
ATOM      6  N   UNL A   1      33.080  22.742  25.131  1.00  0.00    -0.216 N 
ATOM      7  N   UNL A   1      33.951  22.145  26.025  1.00  0.00    -0.161 NA
ATOM      8  C   UNL A   1      32.796  22.155  23.879  1.00  0.00     0.275 A 
ATOM      9  C   UNL A   1      32.861  20.678  23.853  1.00  0.00     0.051 A 
ATOM     10  O   UNL A   1      32.488  22.746  22.853  1.00  0.00    -0.267 OA
ATOM     11  C   UNL A   1      33.499  20.059  24.913  1.00  0.00     0.022 A 
ATOM     12  C   UNL A   1      32.227  19.909  22.876  1.00  0.00     0.014 A 
ATOM     13  C   UNL A   1      33.330  18.700  25.156  1.00  0.00     0.011 A 
ATOM     14  C   UNL A   1      32.130  18.527  23.054  1.00  0.00     0.001 A 
ATOM     15  C   UNL A   1      32.629  17.933  24.218  1.00  0.00     0.001 A 
BRANCH   6  16
ATOM     16  C   UNL A   1      32.836  24.153  25.458  1.00  0.00     0.197 C 
ATOM     17  C   UNL A   1      34.155  24.842  25.815  1.00  0.00     0.044 C 
BRANCH  16  18
ATOM     18  C   UNL A   1      31.775  24.390  26.526  1.00  0.00     0.249 C 
ATOM     19  O   UNL A   1      31.690  23.655  27.518  1.00  0.00    -0.272 OA
ATOM     20  N   UNL A   1      30.908  25.448  26.443  1.00  0.00    -0.324 N 
ATOM     21  H   UNL A   1      30.281  25.498  27.199  1.00  0.00     0.170 HD
BRANCH  20  22
ATOM     22  C   UNL A   1      30.726  26.480  25.502  1.00  0.00     0.041 A 
ATOM     23  C   UNL A   1      29.869  26.192  24.437  1.00  0.00     0.027 A 
ATOM     24  C   UNL A   1      31.316  27.741  25.550  1.00  0.00     0.027 A 
ATOM     25  C   UNL A   1      29.517  27.177  23.506  1.00  0.00     0.015 A 
ATOM     26  C   UNL A   1      30.975  28.732  24.617  1.00  0.00     0.015 A 
ATOM     27  C   UNL A   1      30.045  28.470  23.605  1.00  0.00     0.056 A 
BRANCH  27  28
ATOM     28  C   UNL A   1      29.611  29.544  22.640  1.00  0.00     0.416 C 
ATOM     29  F   UNL A   1      29.506  30.768  23.226  1.00  0.00    -0.166 F 
ATOM     30  F   UNL A   1      30.494  29.699  21.612  1.00  0.00    -0.166 F 
ATOM     31  F   UNL A   1      28.405  29.301  22.055  1.00  0.00    -0.166 F 
ENDBRANCH  27  28
ENDBRANCH  20  22
ENDBRANCH  16  18
ENDBRANCH   6  16
ENDBRANCH   3   5
ENDBRANCH   2   3
ENDBRANCH   1   2
BRANCH   1  32
ATOM     32  C   UNL A   1      38.889  21.912  26.246  1.00  0.00     0.275 C 
BRANCH  32  33
ATOM     33  O   UNL A   1      39.788  20.916  25.718  1.00  0.00    -0.458 OA
BRANCH  33  34
ATOM     34  C   UNL A   1      40.731  20.488  26.583  1.00  0.00     0.338 C 
ATOM     35  O   UNL A   1      40.806  19.385  27.112  1.00  0.00    -0.246 OA
BRANCH  34  36
ATOM     36  C   UNL A   1      41.801  21.477  26.736  1.00  0.00     0.060 A 
ATOM     37  C   UNL A   1      42.227  21.787  28.022  1.00  0.00     0.016 A 
ATOM     38  C   UNL A   1      42.186  22.275  25.664  1.00  0.00     0.016 A 
ATOM     39  C   UNL A   1      42.912  22.966  28.266  1.00  0.00     0.010 A 
ATOM     40  C   UNL A   1      42.975  23.410  25.903  1.00  0.00     0.010 A 
ATOM     41  C   UNL A   1      43.296  23.801  27.216  1.00  0.00    -0.014 A 
BRANCH  41  42
ATOM     42  C   UNL A   1      43.939  25.109  27.523  1.00  0.00     0.031 A 
ATOM     43  C   UNL A   1      43.109  26.235  28.087  1.00  0.00     0.074 A 
ATOM     44  C   UNL A   1      45.274  25.269  27.398  1.00  0.00     0.049 A 
ATOM     45  N   UNL A   1      43.419  27.497  28.232  1.00  0.00    -0.248 NA
ATOM     46  C   UNL A   1      41.752  25.895  28.549  1.00  0.00     0.031 C 
ATOM     47  C   UNL A   1      46.222  24.231  26.983  1.00  0.00     0.029 A 
ATOM     48  N   UNL A   1      46.070  26.365  27.622  1.00  0.00    -0.354 N 
ATOM     49  C   UNL A   1      42.284  28.111  28.755  1.00  0.00     0.074 A 
ATOM     50  C   UNL A   1      41.276  27.084  28.895  1.00  0.00     0.031 C 
ATOM     51  C   UNL A   1      47.468  24.726  27.019  1.00  0.00     0.029 A 
ATOM     52  C   UNL A   1      47.397  26.147  27.327  1.00  0.00     0.049 A 
ATOM     53  H   UNL A   1      45.726  27.224  27.960  1.00  0.00     0.167 HD
ATOM     54  C   UNL A   1      42.105  29.413  29.083  1.00  0.00     0.037 A 
ATOM     55  C   UNL A   1      48.431  27.006  27.234  1.00  0.00     0.037 A 
ATOM     56  C   UNL A   1      43.132  30.417  28.966  1.00  0.00     0.049 A 
ATOM     57  C   UNL A   1      48.182  28.467  27.496  1.00  0.00     0.074 A 
ATOM     58  C   UNL A   1      43.040  31.778  29.203  1.00  0.00     0.029 A 
ATOM     59  N   UNL A   1      44.448  30.164  28.606  1.00  0.00    -0.354 N 
ATOM     60  N   UNL A   1      47.071  29.060  27.861  1.00  0.00    -0.248 NA
ATOM     61  C   UNL A   1      49.321  29.374  27.317  1.00  0.00     0.031 C 
ATOM     62  C   UNL A   1      44.289  32.353  28.949  1.00  0.00     0.029 A 
ATOM     63  C   UNL A   1      45.176  31.343  28.613  1.00  0.00     0.049 A 
ATOM     64  H   UNL A   1      44.810  29.278  28.378  1.00  0.00     0.167 HD
ATOM     65  C   UNL A   1      47.387  30.408  27.987  1.00  0.00     0.074 A 
ATOM     66  C   UNL A   1      48.795  30.537  27.674  1.00  0.00     0.031 C 
ATOM     67  C   UNL A   1      46.585  31.448  28.326  1.00  0.00     0.037 A 
BRANCH  54  68
ATOM     68  C   UNL A   1      40.741  29.839  29.555  1.00  0.00     0.058 A 
ATOM     69  C   UNL A   1      39.645  29.934  28.685  1.00  0.00     0.135 A 
ATOM     70  C   UNL A   1      40.520  30.116  30.915  1.00  0.00     0.135 A 
ATOM     71  F   UNL A   1      39.803  29.705  27.371  1.00  0.00    -0.206 F 
ATOM     72  C   UNL A   1      38.382  30.304  29.141  1.00  0.00     0.059 A 
ATOM     73  C   UNL A   1      39.261  30.459  31.398  1.00  0.00     0.059 A 
ATOM     74  F   UNL A   1      41.534  30.046  31.792  1.00  0.00    -0.206 F 
ATOM     75  C   UNL A   1      38.200  30.560  30.501  1.00  0.00     0.060 A 
BRANCH  75  76
ATOM     76  S   UNL A   1      36.553  31.024  31.081  1.00  0.00     0.124 S 
ATOM     77  O   UNL A   1      35.775  30.932  29.849  1.00  0.00    -0.237 OA
ATOM     78  O   UNL A   1      36.277  30.000  32.083  1.00  0.00    -0.237 OA
ATOM     79  O   UNL A   1      36.743  32.374  31.603  1.00  0.00    -0.744 OA
ENDBRANCH  75  76
ENDBRANCH  54  68
BRANCH  55  80
ATOM     80  C   UNL A   1      49.767  26.528  26.779  1.00  0.00     0.058 A 
ATOM     81  C   UNL A   1      50.104  26.474  25.419  1.00  0.00     0.135 A 
ATOM     82  C   UNL A   1      50.726  26.079  27.704  1.00  0.00     0.135 A 
ATOM     83  F   UNL A   1      49.223  26.882  24.493  1.00  0.00    -0.206 F 
ATOM     84  C   UNL A   1      51.323  25.957  24.990  1.00  0.00     0.059 A 
ATOM     85  C   UNL A   1      51.966  25.599  27.302  1.00  0.00     0.059 A 
ATOM     86  F   UNL A   1      50.465  26.119  29.020  1.00  0.00    -0.206 F 
ATOM     87  C   UNL A   1      52.246  25.519  25.940  1.00  0.00     0.060 A 
BRANCH  87  88
ATOM     88  S   UNL A   1      53.825  24.846  25.379  1.00  0.00     0.124 S 
ATOM     89  O   UNL A   1      54.108  25.695  24.227  1.00  0.00    -0.237 OA
ATOM     90  O   UNL A   1      54.676  25.045  26.547  1.00  0.00    -0.237 OA
ATOM     91  O   UNL A   1      53.506  23.454  25.074  1.00  0.00    -0.744 OA
ENDBRANCH  87  88
ENDBRANCH  55  80
BRANCH  67  92
ATOM     92  C   UNL A   1      47.229  32.800  28.456  1.00  0.00     0.058 A 
ATOM     93  C   UNL A   1      47.318  33.694  27.377  1.00  0.00     0.135 A 
ATOM     94  C   UNL A   1      47.748  33.213  29.695  1.00  0.00     0.135 A 
ATOM     95  F   UNL A   1      46.843  33.345  26.171  1.00  0.00    -0.206 F 
ATOM     96  C   UNL A   1      47.933  34.934  27.512  1.00  0.00     0.059 A 
ATOM     97  C   UNL A   1      48.337  34.463  29.859  1.00  0.00     0.059 A 
ATOM     98  F   UNL A   1      47.680  32.402  30.762  1.00  0.00    -0.206 F 
ATOM     99  C   UNL A   1      48.440  35.309  28.757  1.00  0.00     0.060 A 
BRANCH  99 100
ATOM    100  S   UNL A   1      49.224  36.926  28.921  1.00  0.00     0.124 S 
ATOM    101  O   UNL A   1      48.835  37.304  30.276  1.00  0.00    -0.237 OA
ATOM    102  O   UNL A   1      50.636  36.609  28.732  1.00  0.00    -0.237 OA
ATOM    103  O   UNL A   1      48.614  37.710  27.851  1.00  0.00    -0.744 OA
ENDBRANCH  99 100
ENDBRANCH  67  92
ENDBRANCH  41  42
ENDBRANCH  34  36
ENDBRANCH  33  34
ENDBRANCH  32  33
ENDBRANCH   1  32
TORSDOF 18
ENDMDL
