MODEL 1
REMARK VINA RESULT:     -12.2      0.000      0.000
REMARK SMILES CC(=O)Nc1cccc(-c2ccc(F)c(C(=O)OCCOC(=O)c3ccc(-c4c5nc(c(-c6c(F)cc(S(=O)(=O)[O-])cc6F)c6ccc([nH]6)c(-c6c(F)cc(S(=O)(=O)[O-])cc6F)c6nc(c(-c7c(F)cc(S(=O)(=O)[O-])cc7F)c7ccc4[nH]7)C=C6)C=C5)cc3)c2)c1
REMARK SMILES IDX 20 1 19 2 18 3 16 4 17 5 15 6 10 7 11 8 90 9 12 10 13 11
REMARK SMILES IDX 14 12 9 13 5 14 6 15 91 16 7 17 8 18 4 19 1 20 2 21 3 22
REMARK SMILES IDX 21 24 22 25 23 26 24 27 25 28 89 29 26 30 88 31 27 32 28 33
REMARK SMILES IDX 29 34 82 35 30 36 87 37 81 38 83 39 31 40 86 41 80 42 79 43
REMARK SMILES IDX 32 45 66 46 45 47 65 48 46 49 49 50 64 51 84 52 47 53 48 54
REMARK SMILES IDX 63 56 85 57 50 58 33 59 34 60 43 61 35 62 36 63 42 64 44 65
REMARK SMILES IDX 37 66 38 67 39 68 40 69 41 70 67 71 68 72 77 73 69 74 70 75
REMARK SMILES IDX 76 76 78 77 71 78 72 79 73 80 74 81 75 82 51 83 52 84 61 85
REMARK SMILES IDX 53 86 54 87 60 88 62 89 55 90 56 91 57 92 58 93 59 94
REMARK H PARENT 4 23 83 44 49 55
REMARK Flexibility Score: inf
ROOT
ATOM      1  C   UNL A   1      34.233  30.148  27.262  1.00  0.00     0.275 C 
ENDROOT
BRANCH   1   2
ATOM      2  C   UNL A   1      33.056  29.185  27.089  1.00  0.00     0.275 C 
BRANCH   2   3
ATOM      3  O   UNL A   1      33.535  27.838  26.898  1.00  0.00    -0.458 OA
BRANCH   3   4
ATOM      4  C   UNL A   1      32.615  26.904  26.544  1.00  0.00     0.341 C 
ATOM      5  O   UNL A   1      31.540  26.709  27.085  1.00  0.00    -0.246 OA
BRANCH   4   6
ATOM      6  C   UNL A   1      33.086  26.186  25.338  1.00  0.00     0.096 A 
ATOM      7  C   UNL A   1      34.405  24.410  24.317  1.00  0.00    -0.017 A 
ATOM      8  C   UNL A   1      33.987  24.838  23.050  1.00  0.00     0.012 A 
ATOM      9  C   UNL A   1      34.000  25.138  25.452  1.00  0.00     0.027 A 
ATOM     10  C   UNL A   1      33.077  25.886  22.931  1.00  0.00     0.041 A 
ATOM     11  C   UNL A   1      32.587  26.508  24.075  1.00  0.00     0.137 A 
ATOM     12  F   UNL A   1      31.618  27.419  23.918  1.00  0.00    -0.206 F 
BRANCH   7  13
ATOM     13  C   UNL A   1      35.076  23.121  24.496  1.00  0.00    -0.016 A 
ATOM     14  C   UNL A   1      34.840  20.767  25.115  1.00  0.00     0.041 A 
ATOM     15  C   UNL A   1      36.208  20.594  24.909  1.00  0.00     0.026 A 
ATOM     16  C   UNL A   1      34.297  22.033  24.933  1.00  0.00     0.034 A 
ATOM     17  C   UNL A   1      36.996  21.656  24.449  1.00  0.00     0.003 A 
ATOM     18  C   UNL A   1      36.431  22.915  24.233  1.00  0.00     0.009 A 
BRANCH  14  19
ATOM     19  N   UNL A   1      34.080  19.674  25.562  1.00  0.00    -0.326 N 
ATOM     20  C   UNL A   1      32.583  19.322  23.591  1.00  0.00     0.114 C 
ATOM     21  C   UNL A   1      32.970  19.077  25.028  1.00  0.00     0.221 C 
ATOM     22  O   UNL A   1      32.334  18.279  25.722  1.00  0.00    -0.275 OA
ATOM     23  H   UNL A   1      34.400  19.269  26.399  1.00  0.00     0.169 HD
ENDBRANCH  14  19
ENDBRANCH   7  13
ENDBRANCH   4   6
ENDBRANCH   3   4
ENDBRANCH   2   3
ENDBRANCH   1   2
BRANCH   1  24
ATOM     24  O   UNL A   1      35.310  29.488  27.952  1.00  0.00    -0.458 OA
BRANCH  24  25
ATOM     25  C   UNL A   1      35.938  30.228  28.896  1.00  0.00     0.338 C 
ATOM     26  O   UNL A   1      35.432  30.947  29.738  1.00  0.00    -0.246 OA
BRANCH  25  27
ATOM     27  C   UNL A   1      37.376  29.932  28.850  1.00  0.00     0.060 A 
ATOM     28  C   UNL A   1      37.973  29.854  27.598  1.00  0.00     0.016 A 
ATOM     29  C   UNL A   1      38.108  29.626  29.991  1.00  0.00     0.016 A 
ATOM     30  C   UNL A   1      39.274  29.391  27.457  1.00  0.00     0.010 A 
ATOM     31  C   UNL A   1      39.456  29.262  29.859  1.00  0.00     0.010 A 
ATOM     32  C   UNL A   1      40.051  29.121  28.588  1.00  0.00    -0.014 A 
BRANCH  32  33
ATOM     33  C   UNL A   1      41.470  28.694  28.435  1.00  0.00     0.031 A 
ATOM     34  C   UNL A   1      42.583  29.697  28.591  1.00  0.00     0.074 A 
ATOM     35  C   UNL A   1      41.767  27.406  28.160  1.00  0.00     0.049 A 
ATOM     36  N   UNL A   1      43.856  29.570  28.320  1.00  0.00    -0.248 NA
ATOM     37  C   UNL A   1      42.211  31.022  29.113  1.00  0.00     0.031 C 
ATOM     38  C   UNL A   1      40.795  26.314  28.053  1.00  0.00     0.029 A 
ATOM     39  N   UNL A   1      42.973  26.793  27.924  1.00  0.00    -0.354 N 
ATOM     40  C   UNL A   1      44.427  30.812  28.579  1.00  0.00     0.074 A 
ATOM     41  C   UNL A   1      43.359  31.679  29.030  1.00  0.00     0.031 C 
ATOM     42  C   UNL A   1      41.443  25.166  27.809  1.00  0.00     0.029 A 
ATOM     43  C   UNL A   1      42.861  25.451  27.637  1.00  0.00     0.049 A 
ATOM     44  H   UNL A   1      43.835  27.267  27.955  1.00  0.00     0.167 HD
ATOM     45  C   UNL A   1      45.722  31.190  28.445  1.00  0.00     0.037 A 
ATOM     46  C   UNL A   1      43.783  24.557  27.230  1.00  0.00     0.037 A 
ATOM     47  C   UNL A   1      46.781  30.301  28.037  1.00  0.00     0.049 A 
ATOM     48  C   UNL A   1      45.196  25.018  27.013  1.00  0.00     0.074 A 
ATOM     49  C   UNL A   1      48.130  30.579  27.899  1.00  0.00     0.029 A 
ATOM     50  N   UNL A   1      46.612  28.966  27.699  1.00  0.00    -0.354 N 
ATOM     51  N   UNL A   1      45.717  26.203  27.227  1.00  0.00    -0.248 NA
ATOM     52  C   UNL A   1      46.142  24.032  26.474  1.00  0.00     0.031 C 
ATOM     53  C   UNL A   1      48.766  29.427  27.423  1.00  0.00     0.029 A 
ATOM     54  C   UNL A   1      47.826  28.415  27.320  1.00  0.00     0.049 A 
ATOM     55  H   UNL A   1      45.756  28.480  27.725  1.00  0.00     0.167 HD
ATOM     56  C   UNL A   1      47.057  26.098  26.869  1.00  0.00     0.074 A 
ATOM     57  C   UNL A   1      47.267  24.732  26.437  1.00  0.00     0.031 C 
ATOM     58  C   UNL A   1      48.023  27.049  26.897  1.00  0.00     0.037 A 
BRANCH  45  59
ATOM     59  C   UNL A   1      46.059  32.638  28.685  1.00  0.00     0.058 A 
ATOM     60  C   UNL A   1      46.010  33.604  27.667  1.00  0.00     0.135 A 
ATOM     61  C   UNL A   1      46.419  33.069  29.974  1.00  0.00     0.135 A 
ATOM     62  F   UNL A   1      45.685  33.249  26.415  1.00  0.00    -0.206 F 
ATOM     63  C   UNL A   1      46.342  34.934  27.909  1.00  0.00     0.059 A 
ATOM     64  C   UNL A   1      46.725  34.399  30.245  1.00  0.00     0.059 A 
ATOM     65  F   UNL A   1      46.481  32.191  30.988  1.00  0.00    -0.206 F 
ATOM     66  C   UNL A   1      46.702  35.321  29.201  1.00  0.00     0.060 A 
BRANCH  66  67
ATOM     67  S   UNL A   1      47.148  37.046  29.495  1.00  0.00     0.124 S 
ATOM     68  O   UNL A   1      46.199  37.743  28.632  1.00  0.00    -0.237 OA
ATOM     69  O   UNL A   1      46.919  37.187  30.930  1.00  0.00    -0.237 OA
ATOM     70  O   UNL A   1      48.544  37.114  29.076  1.00  0.00    -0.744 OA
ENDBRANCH  66  67
ENDBRANCH  45  59
BRANCH  46  71
ATOM     71  C   UNL A   1      43.387  23.147  26.960  1.00  0.00     0.058 A 
ATOM     72  C   UNL A   1      43.314  22.658  25.648  1.00  0.00     0.135 A 
ATOM     73  C   UNL A   1      43.092  22.255  28.006  1.00  0.00     0.135 A 
ATOM     74  F   UNL A   1      43.571  23.473  24.613  1.00  0.00    -0.206 F 
ATOM     75  C   UNL A   1      42.960  21.339  25.380  1.00  0.00     0.059 A 
ATOM     76  C   UNL A   1      42.767  20.924  27.764  1.00  0.00     0.059 A 
ATOM     77  F   UNL A   1      43.153  22.669  29.281  1.00  0.00    -0.206 F 
ATOM     78  C   UNL A   1      42.695  20.477  26.446  1.00  0.00     0.060 A 
BRANCH  78  79
ATOM     79  S   UNL A   1      42.291  18.754  26.087  1.00  0.00     0.124 S 
ATOM     80  O   UNL A   1      40.883  18.854  25.719  1.00  0.00    -0.237 OA
ATOM     81  O   UNL A   1      43.214  18.443  25.000  1.00  0.00    -0.237 OA
ATOM     82  O   UNL A   1      42.569  18.074  27.348  1.00  0.00    -0.744 OA
ENDBRANCH  78  79
ENDBRANCH  46  71
BRANCH  58  83
ATOM     83  C   UNL A   1      49.408  26.640  26.480  1.00  0.00     0.058 A 
ATOM     84  C   UNL A   1      50.263  25.938  27.343  1.00  0.00     0.135 A 
ATOM     85  C   UNL A   1      49.863  26.903  25.177  1.00  0.00     0.135 A 
ATOM     86  F   UNL A   1      49.882  25.672  28.602  1.00  0.00    -0.206 F 
ATOM     87  C   UNL A   1      51.526  25.522  26.934  1.00  0.00     0.059 A 
ATOM     88  C   UNL A   1      51.109  26.471  24.738  1.00  0.00     0.059 A 
ATOM     89  F   UNL A   1      49.082  27.566  24.309  1.00  0.00    -0.206 F 
ATOM     90  C   UNL A   1      51.937  25.788  25.626  1.00  0.00     0.060 A 
BRANCH  90  91
ATOM     91  S   UNL A   1      53.557  25.194  25.093  1.00  0.00     0.124 S 
ATOM     92  O   UNL A   1      53.462  23.769  25.394  1.00  0.00    -0.237 OA
ATOM     93  O   UNL A   1      53.566  25.543  23.676  1.00  0.00    -0.237 OA
ATOM     94  O   UNL A   1      54.487  25.950  25.925  1.00  0.00    -0.744 OA
ENDBRANCH  90  91
ENDBRANCH  58  83
ENDBRANCH  32  33
ENDBRANCH  25  27
ENDBRANCH  24  25
ENDBRANCH   1  24
TORSDOF 16
ENDMDL
MODEL 2
REMARK VINA RESULT:     -12.1      2.018      2.673
REMARK SMILES CC(=O)Nc1cccc(-c2ccc(F)c(C(=O)OCCOC(=O)c3ccc(-c4c5nc(c(-c6c(F)cc(S(=O)(=O)[O-])cc6F)c6ccc([nH]6)c(-c6c(F)cc(S(=O)(=O)[O-])cc6F)c6nc(c(-c7c(F)cc(S(=O)(=O)[O-])cc7F)c7ccc4[nH]7)C=C6)C=C5)cc3)c2)c1
REMARK SMILES IDX 20 1 19 2 18 3 16 4 17 5 15 6 10 7 11 8 90 9 12 10 13 11
REMARK SMILES IDX 14 12 9 13 5 14 6 15 91 16 7 17 8 18 4 19 1 20 2 21 3 22
REMARK SMILES IDX 21 24 22 25 23 26 24 27 25 28 89 29 26 30 88 31 27 32 28 33
REMARK SMILES IDX 29 34 82 35 30 36 87 37 81 38 83 39 31 40 86 41 80 42 79 43
REMARK SMILES IDX 32 45 66 46 45 47 65 48 46 49 49 50 64 51 84 52 47 53 48 54
REMARK SMILES IDX 63 56 85 57 50 58 33 59 34 60 43 61 35 62 36 63 42 64 44 65
REMARK SMILES IDX 37 66 38 67 39 68 40 69 41 70 67 71 68 72 77 73 69 74 70 75
REMARK SMILES IDX 76 76 78 77 71 78 72 79 73 80 74 81 75 82 51 83 52 84 61 85
REMARK SMILES IDX 53 86 54 87 60 88 62 89 55 90 56 91 57 92 58 93 59 94
REMARK H PARENT 4 23 83 44 49 55
REMARK Flexibility Score: inf
ROOT
ATOM      1  C   UNL A   1      33.349  28.688  26.337  1.00  0.00     0.275 C 
ENDROOT
BRANCH   1   2
ATOM      2  C   UNL A   1      31.844  28.919  26.187  1.00  0.00     0.275 C 
BRANCH   2   3
ATOM      3  O   UNL A   1      31.298  28.031  25.190  1.00  0.00    -0.458 OA
BRANCH   3   4
ATOM      4  C   UNL A   1      31.225  26.714  25.514  1.00  0.00     0.341 C 
ATOM      5  O   UNL A   1      30.700  26.244  26.509  1.00  0.00    -0.246 OA
BRANCH   4   6
ATOM      6  C   UNL A   1      31.829  25.909  24.428  1.00  0.00     0.096 A 
ATOM      7  C   UNL A   1      33.431  24.231  23.683  1.00  0.00    -0.017 A 
ATOM      8  C   UNL A   1      32.980  24.396  22.366  1.00  0.00     0.012 A 
ATOM      9  C   UNL A   1      32.892  25.046  24.696  1.00  0.00     0.027 A 
ATOM     10  C   UNL A   1      31.920  25.258  22.093  1.00  0.00     0.041 A 
ATOM     11  C   UNL A   1      31.314  25.958  23.132  1.00  0.00     0.137 A 
ATOM     12  F   UNL A   1      30.218  26.671  22.842  1.00  0.00    -0.206 F 
BRANCH   7  13
ATOM     13  C   UNL A   1      34.291  23.106  24.051  1.00  0.00    -0.016 A 
ATOM     14  C   UNL A   1      34.408  20.852  24.995  1.00  0.00     0.041 A 
ATOM     15  C   UNL A   1      35.793  20.876  24.834  1.00  0.00     0.026 A 
ATOM     16  C   UNL A   1      33.679  21.977  24.628  1.00  0.00     0.034 A 
ATOM     17  C   UNL A   1      36.419  21.978  24.238  1.00  0.00     0.003 A 
ATOM     18  C   UNL A   1      35.670  23.087  23.837  1.00  0.00     0.009 A 
BRANCH  14  19
ATOM     19  N   UNL A   1      33.816  19.723  25.582  1.00  0.00    -0.326 N 
ATOM     20  C   UNL A   1      32.598  18.772  23.616  1.00  0.00     0.114 C 
ATOM     21  C   UNL A   1      32.884  18.845  25.096  1.00  0.00     0.221 C 
ATOM     22  O   UNL A   1      32.337  18.065  25.880  1.00  0.00    -0.275 OA
ATOM     23  H   UNL A   1      34.121  19.530  26.496  1.00  0.00     0.169 HD
ENDBRANCH  14  19
ENDBRANCH   7  13
ENDBRANCH   4   6
ENDBRANCH   3   4
ENDBRANCH   2   3
ENDBRANCH   1   2
BRANCH   1  24
ATOM     24  O   UNL A   1      33.752  28.938  27.695  1.00  0.00    -0.458 OA
BRANCH  24  25
ATOM     25  C   UNL A   1      34.337  30.137  27.918  1.00  0.00     0.338 C 
ATOM     26  O   UNL A   1      33.807  31.233  27.946  1.00  0.00    -0.246 OA
BRANCH  25  27
ATOM     27  C   UNL A   1      35.748  29.919  28.268  1.00  0.00     0.060 A 
ATOM     28  C   UNL A   1      36.685  30.050  27.252  1.00  0.00     0.016 A 
ATOM     29  C   UNL A   1      36.142  29.485  29.528  1.00  0.00     0.016 A 
ATOM     30  C   UNL A   1      38.007  29.673  27.449  1.00  0.00     0.010 A 
ATOM     31  C   UNL A   1      37.497  29.208  29.761  1.00  0.00     0.010 A 
ATOM     32  C   UNL A   1      38.444  29.279  28.718  1.00  0.00    -0.014 A 
BRANCH  32  33
ATOM     33  C   UNL A   1      39.878  28.945  28.944  1.00  0.00     0.031 A 
ATOM     34  C   UNL A   1      40.817  29.981  29.503  1.00  0.00     0.074 A 
ATOM     35  C   UNL A   1      40.342  27.711  28.653  1.00  0.00     0.049 A 
ATOM     36  N   UNL A   1      42.121  29.950  29.600  1.00  0.00    -0.248 NA
ATOM     37  C   UNL A   1      40.208  31.221  30.010  1.00  0.00     0.031 C 
ATOM     38  C   UNL A   1      39.532  26.588  28.175  1.00  0.00     0.029 A 
ATOM     39  N   UNL A   1      41.612  27.190  28.722  1.00  0.00    -0.354 N 
ATOM     40  C   UNL A   1      42.495  31.185  30.122  1.00  0.00     0.074 A 
ATOM     41  C   UNL A   1      41.277  31.941  30.320  1.00  0.00     0.031 C 
ATOM     42  C   UNL A   1      40.312  25.508  28.027  1.00  0.00     0.029 A 
ATOM     43  C   UNL A   1      41.694  25.882  28.298  1.00  0.00     0.049 A 
ATOM     44  H   UNL A   1      42.389  27.702  29.043  1.00  0.00     0.167 HD
ATOM     45  C   UNL A   1      43.740  31.641  30.401  1.00  0.00     0.037 A 
ATOM     46  C   UNL A   1      42.762  25.086  28.097  1.00  0.00     0.037 A 
ATOM     47  C   UNL A   1      44.939  30.858  30.239  1.00  0.00     0.049 A 
ATOM     48  C   UNL A   1      44.136  25.641  28.338  1.00  0.00     0.074 A 
ATOM     49  C   UNL A   1      46.245  31.218  30.522  1.00  0.00     0.029 A 
ATOM     50  N   UNL A   1      44.980  29.560  29.750  1.00  0.00    -0.354 N 
ATOM     51  N   UNL A   1      44.480  26.821  28.797  1.00  0.00    -0.248 NA
ATOM     52  C   UNL A   1      45.272  24.768  28.010  1.00  0.00     0.031 C 
ATOM     53  C   UNL A   1      47.080  30.159  30.149  1.00  0.00     0.029 A 
ATOM     54  C   UNL A   1      46.292  29.116  29.691  1.00  0.00     0.049 A 
ATOM     55  H   UNL A   1      44.193  29.030  29.485  1.00  0.00     0.167 HD
ATOM     56  C   UNL A   1      45.869  26.824  28.834  1.00  0.00     0.074 A 
ATOM     57  C   UNL A   1      46.302  25.525  28.362  1.00  0.00     0.031 C 
ATOM     58  C   UNL A   1      46.709  27.815  29.223  1.00  0.00     0.037 A 
BRANCH  45  59
ATOM     59  C   UNL A   1      43.877  33.071  30.856  1.00  0.00     0.058 A 
ATOM     60  C   UNL A   1      44.054  34.135  29.957  1.00  0.00     0.135 A 
ATOM     61  C   UNL A   1      43.809  33.380  32.226  1.00  0.00     0.135 A 
ATOM     62  F   UNL A   1      44.140  33.899  28.639  1.00  0.00    -0.206 F 
ATOM     63  C   UNL A   1      44.197  35.446  30.402  1.00  0.00     0.059 A 
ATOM     64  C   UNL A   1      43.918  34.687  32.690  1.00  0.00     0.059 A 
ATOM     65  F   UNL A   1      43.639  32.403  33.132  1.00  0.00    -0.206 F 
ATOM     66  C   UNL A   1      44.131  35.712  31.771  1.00  0.00     0.060 A 
BRANCH  66  67
ATOM     67  S   UNL A   1      44.335  37.416  32.333  1.00  0.00     0.124 S 
ATOM     68  O   UNL A   1      45.763  37.453  32.636  1.00  0.00    -0.237 OA
ATOM     69  O   UNL A   1      43.917  38.183  31.163  1.00  0.00    -0.237 OA
ATOM     70  O   UNL A   1      43.447  37.504  33.487  1.00  0.00    -0.744 OA
ENDBRANCH  66  67
ENDBRANCH  45  59
BRANCH  46  71
ATOM     71  C   UNL A   1      42.572  23.695  27.601  1.00  0.00     0.058 A 
ATOM     72  C   UNL A   1      42.491  23.426  26.227  1.00  0.00     0.135 A 
ATOM     73  C   UNL A   1      42.488  22.606  28.484  1.00  0.00     0.135 A 
ATOM     74  F   UNL A   1      42.550  24.432  25.341  1.00  0.00    -0.206 F 
ATOM     75  C   UNL A   1      42.329  22.130  25.746  1.00  0.00     0.059 A 
ATOM     76  C   UNL A   1      42.358  21.299  28.027  1.00  0.00     0.059 A 
ATOM     77  F   UNL A   1      42.566  22.807  29.809  1.00  0.00    -0.206 F 
ATOM     78  C   UNL A   1      42.271  21.071  26.654  1.00  0.00     0.060 A 
BRANCH  78  79
ATOM     79  S   UNL A   1      42.116  19.390  26.016  1.00  0.00     0.124 S 
ATOM     80  O   UNL A   1      40.685  19.310  25.744  1.00  0.00    -0.237 OA
ATOM     81  O   UNL A   1      42.987  19.425  24.846  1.00  0.00    -0.237 OA
ATOM     82  O   UNL A   1      42.596  18.565  27.120  1.00  0.00    -0.744 OA
ENDBRANCH  78  79
ENDBRANCH  46  71
BRANCH  58  83
ATOM     83  C   UNL A   1      48.183  27.526  29.189  1.00  0.00     0.058 A 
ATOM     84  C   UNL A   1      48.954  27.742  28.037  1.00  0.00     0.135 A 
ATOM     85  C   UNL A   1      48.845  27.081  30.347  1.00  0.00     0.135 A 
ATOM     86  F   UNL A   1      48.369  28.155  26.902  1.00  0.00    -0.206 F 
ATOM     87  C   UNL A   1      50.326  27.516  28.029  1.00  0.00     0.059 A 
ATOM     88  C   UNL A   1      50.220  26.876  30.368  1.00  0.00     0.059 A 
ATOM     89  F   UNL A   1      48.156  26.864  31.478  1.00  0.00    -0.206 F 
ATOM     90  C   UNL A   1      50.951  27.089  29.201  1.00  0.00     0.060 A 
BRANCH  90  91
ATOM     91  S   UNL A   1      52.741  26.853  29.190  1.00  0.00     0.124 S 
ATOM     92  O   UNL A   1      53.221  28.231  29.199  1.00  0.00    -0.237 OA
ATOM     93  O   UNL A   1      52.964  26.096  30.417  1.00  0.00    -0.237 OA
ATOM     94  O   UNL A   1      52.979  26.114  27.953  1.00  0.00    -0.744 OA
ENDBRANCH  90  91
ENDBRANCH  58  83
ENDBRANCH  32  33
ENDBRANCH  25  27
ENDBRANCH  24  25
ENDBRANCH   1  24
TORSDOF 16
ENDMDL
MODEL 3
REMARK VINA RESULT:     -11.9      6.788     11.732
REMARK SMILES CC(=O)Nc1cccc(-c2ccc(F)c(C(=O)OCCOC(=O)c3ccc(-c4c5nc(c(-c6c(F)cc(S(=O)(=O)[O-])cc6F)c6ccc([nH]6)c(-c6c(F)cc(S(=O)(=O)[O-])cc6F)c6nc(c(-c7c(F)cc(S(=O)(=O)[O-])cc7F)c7ccc4[nH]7)C=C6)C=C5)cc3)c2)c1
REMARK SMILES IDX 20 1 19 2 18 3 16 4 17 5 15 6 10 7 11 8 90 9 12 10 13 11
REMARK SMILES IDX 14 12 9 13 5 14 6 15 91 16 7 17 8 18 4 19 1 20 2 21 3 22
REMARK SMILES IDX 21 24 22 25 23 26 24 27 25 28 89 29 26 30 88 31 27 32 28 33
REMARK SMILES IDX 29 34 82 35 30 36 87 37 81 38 83 39 31 40 86 41 80 42 79 43
REMARK SMILES IDX 32 45 66 46 45 47 65 48 46 49 49 50 64 51 84 52 47 53 48 54
REMARK SMILES IDX 63 56 85 57 50 58 33 59 34 60 43 61 35 62 36 63 42 64 44 65
REMARK SMILES IDX 37 66 38 67 39 68 40 69 41 70 67 71 68 72 77 73 69 74 70 75
REMARK SMILES IDX 76 76 78 77 71 78 72 79 73 80 74 81 75 82 51 83 52 84 61 85
REMARK SMILES IDX 53 86 54 87 60 88 62 89 55 90 56 91 57 92 58 93 59 94
REMARK H PARENT 4 23 83 44 49 55
REMARK Flexibility Score: inf
ROOT
ATOM      1  C   UNL A   1      42.761  23.513  25.425  1.00  0.00     0.275 C 
ENDROOT
BRANCH   1   2
ATOM      2  C   UNL A   1      42.577  22.158  26.111  1.00  0.00     0.275 C 
BRANCH   2   3
ATOM      3  O   UNL A   1      41.384  21.510  25.626  1.00  0.00    -0.458 OA
BRANCH   3   4
ATOM      4  C   UNL A   1      40.436  21.197  26.548  1.00  0.00     0.341 C 
ATOM      5  O   UNL A   1      40.602  20.528  27.553  1.00  0.00    -0.246 OA
BRANCH   4   6
ATOM      6  C   UNL A   1      39.162  21.857  26.183  1.00  0.00     0.096 A 
ATOM      7  C   UNL A   1      36.908  21.736  25.268  1.00  0.00    -0.017 A 
ATOM      8  C   UNL A   1      36.755  23.113  25.480  1.00  0.00     0.012 A 
ATOM      9  C   UNL A   1      38.144  21.133  25.562  1.00  0.00     0.027 A 
ATOM     10  C   UNL A   1      37.770  23.842  26.098  1.00  0.00     0.041 A 
ATOM     11  C   UNL A   1      38.936  23.196  26.500  1.00  0.00     0.137 A 
ATOM     12  F   UNL A   1      39.825  23.908  27.206  1.00  0.00    -0.206 F 
BRANCH   7  13
ATOM     13  C   UNL A   1      35.757  20.891  24.943  1.00  0.00    -0.016 A 
ATOM     14  C   UNL A   1      34.921  18.611  24.649  1.00  0.00     0.041 A 
ATOM     15  C   UNL A   1      33.669  19.132  24.321  1.00  0.00     0.026 A 
ATOM     16  C   UNL A   1      35.955  19.497  24.928  1.00  0.00     0.034 A 
ATOM     17  C   UNL A   1      33.445  20.514  24.356  1.00  0.00     0.003 A 
ATOM     18  C   UNL A   1      34.483  21.392  24.676  1.00  0.00     0.009 A 
BRANCH  14  19
ATOM     19  N   UNL A   1      35.103  17.220  24.619  1.00  0.00    -0.326 N 
ATOM     20  C   UNL A   1      33.007  16.461  25.750  1.00  0.00     0.114 C 
ATOM     21  C   UNL A   1      34.394  16.211  25.214  1.00  0.00     0.221 C 
ATOM     22  O   UNL A   1      34.882  15.077  25.238  1.00  0.00    -0.275 OA
ATOM     23  H   UNL A   1      35.868  16.919  24.079  1.00  0.00     0.169 HD
ENDBRANCH  14  19
ENDBRANCH   7  13
ENDBRANCH   4   6
ENDBRANCH   3   4
ENDBRANCH   2   3
ENDBRANCH   1   2
BRANCH   1  24
ATOM     24  O   UNL A   1      43.030  24.529  26.407  1.00  0.00    -0.458 OA
BRANCH  24  25
ATOM     25  C   UNL A   1      42.602  25.774  26.092  1.00  0.00     0.338 C 
ATOM     26  O   UNL A   1      42.302  26.204  24.993  1.00  0.00    -0.246 OA
BRANCH  25  27
ATOM     27  C   UNL A   1      42.415  26.539  27.332  1.00  0.00     0.060 A 
ATOM     28  C   UNL A   1      41.611  25.976  28.315  1.00  0.00     0.016 A 
ATOM     29  C   UNL A   1      42.916  27.825  27.494  1.00  0.00     0.016 A 
ATOM     30  C   UNL A   1      41.226  26.711  29.429  1.00  0.00     0.010 A 
ATOM     31  C   UNL A   1      42.618  28.530  28.670  1.00  0.00     0.010 A 
ATOM     32  C   UNL A   1      41.752  27.989  29.643  1.00  0.00    -0.014 A 
BRANCH  32  33
ATOM     33  C   UNL A   1      41.395  28.747  30.875  1.00  0.00     0.031 A 
ATOM     34  C   UNL A   1      40.213  29.680  30.875  1.00  0.00     0.074 A 
ATOM     35  C   UNL A   1      42.126  28.597  32.000  1.00  0.00     0.049 A 
ATOM     36  N   UNL A   1      39.850  30.557  31.774  1.00  0.00    -0.248 NA
ATOM     37  C   UNL A   1      39.327  29.625  29.700  1.00  0.00     0.031 C 
ATOM     38  C   UNL A   1      43.253  27.675  32.166  1.00  0.00     0.029 A 
ATOM     39  N   UNL A   1      42.030  29.217  33.223  1.00  0.00    -0.354 N 
ATOM     40  C   UNL A   1      38.733  31.200  31.251  1.00  0.00     0.074 A 
ATOM     41  C   UNL A   1      38.478  30.610  29.954  1.00  0.00     0.031 C 
ATOM     42  C   UNL A   1      43.718  27.763  33.420  1.00  0.00     0.029 A 
ATOM     43  C   UNL A   1      42.996  28.818  34.119  1.00  0.00     0.049 A 
ATOM     44  H   UNL A   1      41.337  29.882  33.438  1.00  0.00     0.167 HD
ATOM     45  C   UNL A   1      37.996  32.195  31.803  1.00  0.00     0.037 A 
ATOM     46  C   UNL A   1      43.306  29.282  35.346  1.00  0.00     0.037 A 
ATOM     47  C   UNL A   1      38.236  32.741  33.116  1.00  0.00     0.049 A 
ATOM     48  C   UNL A   1      42.525  30.437  35.904  1.00  0.00     0.074 A 
ATOM     49  C   UNL A   1      37.529  33.729  33.778  1.00  0.00     0.029 A 
ATOM     50  N   UNL A   1      39.263  32.349  33.963  1.00  0.00    -0.354 N 
ATOM     51  N   UNL A   1      41.493  31.061  35.386  1.00  0.00    -0.248 NA
ATOM     52  C   UNL A   1      42.963  30.971  37.200  1.00  0.00     0.031 C 
ATOM     53  C   UNL A   1      38.162  33.974  35.001  1.00  0.00     0.029 A 
ATOM     54  C   UNL A   1      39.228  33.098  35.128  1.00  0.00     0.049 A 
ATOM     55  H   UNL A   1      39.918  31.641  33.767  1.00  0.00     0.167 HD
ATOM     56  C   UNL A   1      41.146  32.046  36.303  1.00  0.00     0.074 A 
ATOM     57  C   UNL A   1      42.070  31.928  37.412  1.00  0.00     0.031 C 
ATOM     58  C   UNL A   1      40.152  32.966  36.230  1.00  0.00     0.037 A 
BRANCH  45  59
ATOM     59  C   UNL A   1      36.895  32.799  30.970  1.00  0.00     0.058 A 
ATOM     60  C   UNL A   1      37.149  33.686  29.913  1.00  0.00     0.135 A 
ATOM     61  C   UNL A   1      35.555  32.460  31.228  1.00  0.00     0.135 A 
ATOM     62  F   UNL A   1      38.408  34.056  29.629  1.00  0.00    -0.206 F 
ATOM     63  C   UNL A   1      36.115  34.245  29.168  1.00  0.00     0.059 A 
ATOM     64  C   UNL A   1      34.508  32.983  30.475  1.00  0.00     0.059 A 
ATOM     65  F   UNL A   1      35.251  31.614  32.225  1.00  0.00    -0.206 F 
ATOM     66  C   UNL A   1      34.797  33.890  29.459  1.00  0.00     0.060 A 
BRANCH  66  67
ATOM     67  S   UNL A   1      33.465  34.638  28.495  1.00  0.00     0.124 S 
ATOM     68  O   UNL A   1      32.528  35.025  29.545  1.00  0.00    -0.237 OA
ATOM     69  O   UNL A   1      34.148  35.737  27.820  1.00  0.00    -0.237 OA
ATOM     70  O   UNL A   1      33.021  33.552  27.628  1.00  0.00    -0.744 OA
ENDBRANCH  66  67
ENDBRANCH  45  59
BRANCH  46  71
ATOM     71  C   UNL A   1      44.435  28.680  36.107  1.00  0.00     0.058 A 
ATOM     72  C   UNL A   1      45.736  29.189  35.989  1.00  0.00     0.135 A 
ATOM     73  C   UNL A   1      44.236  27.599  36.982  1.00  0.00     0.135 A 
ATOM     74  F   UNL A   1      45.983  30.212  35.155  1.00  0.00    -0.206 F 
ATOM     75  C   UNL A   1      46.799  28.649  36.706  1.00  0.00     0.059 A 
ATOM     76  C   UNL A   1      45.276  27.062  37.733  1.00  0.00     0.059 A 
ATOM     77  F   UNL A   1      43.009  27.076  37.138  1.00  0.00    -0.206 F 
ATOM     78  C   UNL A   1      46.558  27.588  37.581  1.00  0.00     0.060 A 
BRANCH  78  79
ATOM     79  S   UNL A   1      47.935  26.932  38.546  1.00  0.00     0.124 S 
ATOM     80  O   UNL A   1      47.536  27.283  39.904  1.00  0.00    -0.237 OA
ATOM     81  O   UNL A   1      47.892  25.511  38.215  1.00  0.00    -0.237 OA
ATOM     82  O   UNL A   1      49.089  27.655  38.020  1.00  0.00    -0.744 OA
ENDBRANCH  78  79
ENDBRANCH  46  71
BRANCH  58  83
ATOM     83  C   UNL A   1      39.986  33.898  37.397  1.00  0.00     0.058 A 
ATOM     84  C   UNL A   1      40.703  35.100  37.492  1.00  0.00     0.135 A 
ATOM     85  C   UNL A   1      39.049  33.612  38.405  1.00  0.00     0.135 A 
ATOM     86  F   UNL A   1      41.619  35.415  36.562  1.00  0.00    -0.206 F 
ATOM     87  C   UNL A   1      40.509  35.979  38.552  1.00  0.00     0.059 A 
ATOM     88  C   UNL A   1      38.819  34.489  39.458  1.00  0.00     0.059 A 
ATOM     89  F   UNL A   1      38.332  32.477  38.359  1.00  0.00    -0.206 F 
ATOM     90  C   UNL A   1      39.559  35.668  39.527  1.00  0.00     0.060 A 
BRANCH  90  91
ATOM     91  S   UNL A   1      39.278  36.846  40.866  1.00  0.00     0.124 S 
ATOM     92  O   UNL A   1      40.644  37.218  41.222  1.00  0.00    -0.237 OA
ATOM     93  O   UNL A   1      38.489  37.882  40.211  1.00  0.00    -0.237 OA
ATOM     94  O   UNL A   1      38.562  36.059  41.866  1.00  0.00    -0.744 OA
ENDBRANCH  90  91
ENDBRANCH  58  83
ENDBRANCH  32  33
ENDBRANCH  25  27
ENDBRANCH  24  25
ENDBRANCH   1  24
TORSDOF 16
ENDMDL
