MODEL 1
REMARK VINA RESULT:     -10.8      0.000      0.000
REMARK SMILES COc1ccc2c(c1)C=C(C(=O)OCCOC(=O)c1ccc(-c3c4nc(c(-c5c(F)cc(S(=O)(=O)[O-])cc5F)c5ccc([nH]5)c(-c5c(F)cc(S(=O)(=O)[O-])cc5F)c5nc(c(-c6c(F)cc(S(=O)(=O)[O-])cc6F)c6ccc3[nH]6)C=C5)C=C4)cc1)[C@H](C(F)(F)F)O2
REMARK SMILES IDX 15 1 14 2 13 3 11 4 12 5 10 6 3 7 4 8 8 9 5 10 7 11 6 12
REMARK SMILES IDX 9 13 90 14 85 15 2 16 1 17 86 18 87 19 88 20 89 21 16 22
REMARK SMILES IDX 17 23 18 24 19 25 20 26 84 27 21 28 83 29 22 30 23 31 24 32
REMARK SMILES IDX 77 33 25 34 82 35 76 36 78 37 26 38 81 39 75 40 74 41 27 43
REMARK SMILES IDX 61 44 40 45 60 46 41 47 44 48 59 49 79 50 42 51 43 52 58 54
REMARK SMILES IDX 80 55 45 56 28 57 29 58 38 59 30 60 31 61 37 62 39 63 32 64
REMARK SMILES IDX 33 65 34 66 35 67 36 68 62 69 63 70 72 71 64 72 65 73 71 74
REMARK SMILES IDX 73 75 66 76 67 77 68 78 69 79 70 80 46 81 47 82 56 83 48 84
REMARK SMILES IDX 49 85 55 86 57 87 50 88 51 89 52 90 53 91 54 92
REMARK H PARENT 78 42 44 53
REMARK Flexibility Score: inf
ROOT
ATOM      1  C   UNL A   1      32.469  29.227  27.187  1.00  0.00     0.275 C 
ENDROOT
BRANCH   1   2
ATOM      2  C   UNL A   1      31.821  27.926  26.704  1.00  0.00     0.275 C 
BRANCH   2   3
ATOM      3  O   UNL A   1      32.795  26.884  26.486  1.00  0.00    -0.459 OA
BRANCH   3   4
ATOM      4  C   UNL A   1      32.808  26.338  25.240  1.00  0.00     0.338 C 
ATOM      5  O   UNL A   1      32.400  26.884  24.234  1.00  0.00    -0.246 OA
BRANCH   4   6
ATOM      6  C   UNL A   1      33.408  24.981  25.237  1.00  0.00     0.087 C 
ATOM      7  C   UNL A   1      37.171  21.939  25.341  1.00  0.00     0.119 A 
ATOM      8  C   UNL A   1      36.284  20.862  25.348  1.00  0.00     0.050 A 
ATOM      9  C   UNL A   1      36.668  23.248  25.351  1.00  0.00     0.058 A 
ATOM     10  C   UNL A   1      34.909  21.092  25.407  1.00  0.00     0.051 A 
ATOM     11  C   UNL A   1      35.289  23.485  25.376  1.00  0.00     0.021 A 
ATOM     12  C   UNL A   1      34.421  22.395  25.427  1.00  0.00     0.128 A 
ATOM     13  C   UNL A   1      34.736  24.837  25.392  1.00  0.00     0.027 C 
ATOM     14  O   UNL A   1      33.074  22.542  25.584  1.00  0.00    -0.475 OA
ATOM     15  C   UNL A   1      32.501  23.772  25.055  1.00  0.00     0.316 C 
BRANCH   7  16
ATOM     16  O   UNL A   1      38.537  21.850  25.363  1.00  0.00    -0.497 OA
ATOM     17  C   UNL A   1      39.202  22.421  26.485  1.00  0.00     0.278 C 
ENDBRANCH   7  16
BRANCH  15  18
ATOM     18  C   UNL A   1      31.050  23.851  25.569  1.00  0.00     0.430 C 
ATOM     19  F   UNL A   1      30.271  24.619  24.775  1.00  0.00    -0.167 F 
ATOM     20  F   UNL A   1      30.480  22.617  25.556  1.00  0.00    -0.167 F 
ATOM     21  F   UNL A   1      30.975  24.308  26.837  1.00  0.00    -0.167 F 
ENDBRANCH  15  18
ENDBRANCH   4   6
ENDBRANCH   3   4
ENDBRANCH   2   3
ENDBRANCH   1   2
BRANCH   1  22
ATOM     22  O   UNL A   1      33.845  29.029  27.558  1.00  0.00    -0.458 OA
BRANCH  22  23
ATOM     23  C   UNL A   1      34.499  30.154  27.937  1.00  0.00     0.338 C 
ATOM     24  O   UNL A   1      34.002  31.251  28.142  1.00  0.00    -0.246 OA
BRANCH  23  25
ATOM     25  C   UNL A   1      35.897  29.834  28.282  1.00  0.00     0.060 A 
ATOM     26  C   UNL A   1      36.830  29.922  27.247  1.00  0.00     0.016 A 
ATOM     27  C   UNL A   1      36.305  29.446  29.560  1.00  0.00     0.016 A 
ATOM     28  C   UNL A   1      38.185  29.705  27.492  1.00  0.00     0.010 A 
ATOM     29  C   UNL A   1      37.661  29.172  29.797  1.00  0.00     0.010 A 
ATOM     30  C   UNL A   1      38.610  29.317  28.768  1.00  0.00    -0.014 A 
BRANCH  30  31
ATOM     31  C   UNL A   1      40.038  28.969  28.976  1.00  0.00     0.031 A 
ATOM     32  C   UNL A   1      40.969  30.007  29.537  1.00  0.00     0.074 A 
ATOM     33  C   UNL A   1      40.489  27.728  28.713  1.00  0.00     0.049 A 
ATOM     34  N   UNL A   1      42.249  29.920  29.785  1.00  0.00    -0.248 NA
ATOM     35  C   UNL A   1      40.375  31.310  29.875  1.00  0.00     0.031 C 
ATOM     36  C   UNL A   1      39.671  26.614  28.233  1.00  0.00     0.029 A 
ATOM     37  N   UNL A   1      41.754  27.197  28.808  1.00  0.00    -0.354 N 
ATOM     38  C   UNL A   1      42.620  31.157  30.298  1.00  0.00     0.074 A 
ATOM     39  C   UNL A   1      41.428  31.978  30.326  1.00  0.00     0.031 C 
ATOM     40  C   UNL A   1      40.461  25.541  28.047  1.00  0.00     0.029 A 
ATOM     41  C   UNL A   1      41.843  25.898  28.364  1.00  0.00     0.049 A 
ATOM     42  H   UNL A   1      42.523  27.701  29.161  1.00  0.00     0.167 HD
ATOM     43  C   UNL A   1      43.844  31.571  30.700  1.00  0.00     0.037 A 
ATOM     44  C   UNL A   1      42.921  25.103  28.202  1.00  0.00     0.037 A 
ATOM     45  C   UNL A   1      45.029  30.754  30.665  1.00  0.00     0.049 A 
ATOM     46  C   UNL A   1      44.288  25.622  28.581  1.00  0.00     0.074 A 
ATOM     47  C   UNL A   1      46.310  31.085  31.077  1.00  0.00     0.029 A 
ATOM     48  N   UNL A   1      45.091  29.460  30.173  1.00  0.00    -0.354 N 
ATOM     49  N   UNL A   1      44.618  26.780  29.105  1.00  0.00    -0.248 NA
ATOM     50  C   UNL A   1      45.433  24.727  28.348  1.00  0.00     0.031 C 
ATOM     51  C   UNL A   1      47.156  30.015  30.772  1.00  0.00     0.029 A 
ATOM     52  C   UNL A   1      46.393  28.992  30.233  1.00  0.00     0.049 A 
ATOM     53  H   UNL A   1      44.321  28.948  29.831  1.00  0.00     0.167 HD
ATOM     54  C   UNL A   1      45.998  26.736  29.294  1.00  0.00     0.074 A 
ATOM     55  C   UNL A   1      46.440  25.435  28.841  1.00  0.00     0.031 C 
ATOM     56  C   UNL A   1      46.823  27.688  29.796  1.00  0.00     0.037 A 
BRANCH  43  57
ATOM     57  C   UNL A   1      43.987  32.991  31.170  1.00  0.00     0.058 A 
ATOM     58  C   UNL A   1      44.126  34.062  30.274  1.00  0.00     0.135 A 
ATOM     59  C   UNL A   1      43.907  33.285  32.540  1.00  0.00     0.135 A 
ATOM     60  F   UNL A   1      44.230  33.833  28.955  1.00  0.00    -0.206 F 
ATOM     61  C   UNL A   1      44.184  35.378  30.723  1.00  0.00     0.059 A 
ATOM     62  C   UNL A   1      43.937  34.594  33.009  1.00  0.00     0.059 A 
ATOM     63  F   UNL A   1      43.781  32.296  33.438  1.00  0.00    -0.206 F 
ATOM     64  C   UNL A   1      44.081  35.634  32.092  1.00  0.00     0.060 A 
BRANCH  64  65
ATOM     65  S   UNL A   1      44.115  37.349  32.654  1.00  0.00     0.124 S 
ATOM     66  O   UNL A   1      45.474  37.457  33.177  1.00  0.00    -0.237 OA
ATOM     67  O   UNL A   1      43.850  38.084  31.421  1.00  0.00    -0.237 OA
ATOM     68  O   UNL A   1      43.053  37.403  33.653  1.00  0.00    -0.744 OA
ENDBRANCH  64  65
ENDBRANCH  43  57
BRANCH  44  69
ATOM     69  C   UNL A   1      42.778  23.745  27.601  1.00  0.00     0.058 A 
ATOM     70  C   UNL A   1      42.570  22.608  28.395  1.00  0.00     0.135 A 
ATOM     71  C   UNL A   1      42.921  23.553  26.216  1.00  0.00     0.135 A 
ATOM     72  F   UNL A   1      42.444  22.732  29.725  1.00  0.00    -0.206 F 
ATOM     73  C   UNL A   1      42.547  21.327  27.847  1.00  0.00     0.059 A 
ATOM     74  C   UNL A   1      42.869  22.287  25.641  1.00  0.00     0.059 A 
ATOM     75  F   UNL A   1      43.118  24.606  25.407  1.00  0.00    -0.206 F 
ATOM     76  C   UNL A   1      42.703  21.178  26.468  1.00  0.00     0.060 A 
BRANCH  76  77
ATOM     77  S   UNL A   1      42.684  19.515  25.765  1.00  0.00     0.124 S 
ATOM     78  O   UNL A   1      43.646  19.645  24.676  1.00  0.00    -0.237 OA
ATOM     79  O   UNL A   1      43.109  18.697  26.897  1.00  0.00    -0.237 OA
ATOM     80  O   UNL A   1      41.293  19.336  25.359  1.00  0.00    -0.744 OA
ENDBRANCH  76  77
ENDBRANCH  44  69
BRANCH  56  81
ATOM     81  C   UNL A   1      48.286  27.350  29.933  1.00  0.00     0.058 A 
ATOM     82  C   UNL A   1      49.234  27.752  28.979  1.00  0.00     0.135 A 
ATOM     83  C   UNL A   1      48.752  26.665  31.068  1.00  0.00     0.135 A 
ATOM     84  F   UNL A   1      48.846  28.406  27.874  1.00  0.00    -0.206 F 
ATOM     85  C   UNL A   1      50.588  27.465  29.133  1.00  0.00     0.059 A 
ATOM     86  C   UNL A   1      50.104  26.397  31.259  1.00  0.00     0.059 A 
ATOM     87  F   UNL A   1      47.892  26.267  32.019  1.00  0.00    -0.206 F 
ATOM     88  C   UNL A   1      51.014  26.789  30.279  1.00  0.00     0.060 A 
BRANCH  88  89
ATOM     89  S   UNL A   1      52.777  26.454  30.484  1.00  0.00     0.124 S 
ATOM     90  O   UNL A   1      53.256  27.718  31.031  1.00  0.00    -0.237 OA
ATOM     91  O   UNL A   1      52.774  25.324  31.408  1.00  0.00    -0.237 OA
ATOM     92  O   UNL A   1      53.225  26.145  29.129  1.00  0.00    -0.744 OA
ENDBRANCH  88  89
ENDBRANCH  56  81
ENDBRANCH  30  31
ENDBRANCH  23  25
ENDBRANCH  22  23
ENDBRANCH   1  22
TORSDOF 16
ENDMDL
MODEL 2
REMARK VINA RESULT:     -10.7      4.421      7.199
REMARK SMILES COc1ccc2c(c1)C=C(C(=O)OCCOC(=O)c1ccc(-c3c4nc(c(-c5c(F)cc(S(=O)(=O)[O-])cc5F)c5ccc([nH]5)c(-c5c(F)cc(S(=O)(=O)[O-])cc5F)c5nc(c(-c6c(F)cc(S(=O)(=O)[O-])cc6F)c6ccc3[nH]6)C=C5)C=C4)cc1)[C@H](C(F)(F)F)O2
REMARK SMILES IDX 15 1 14 2 13 3 11 4 12 5 10 6 3 7 4 8 8 9 5 10 7 11 6 12
REMARK SMILES IDX 9 13 90 14 85 15 2 16 1 17 86 18 87 19 88 20 89 21 16 22
REMARK SMILES IDX 17 23 18 24 19 25 20 26 84 27 21 28 83 29 22 30 23 31 24 32
REMARK SMILES IDX 77 33 25 34 82 35 76 36 78 37 26 38 81 39 75 40 74 41 27 43
REMARK SMILES IDX 61 44 40 45 60 46 41 47 44 48 59 49 79 50 42 51 43 52 58 54
REMARK SMILES IDX 80 55 45 56 28 57 29 58 38 59 30 60 31 61 37 62 39 63 32 64
REMARK SMILES IDX 33 65 34 66 35 67 36 68 62 69 63 70 72 71 64 72 65 73 71 74
REMARK SMILES IDX 73 75 66 76 67 77 68 78 69 79 70 80 46 81 47 82 56 83 48 84
REMARK SMILES IDX 49 85 55 86 57 87 50 88 51 89 52 90 53 91 54 92
REMARK H PARENT 78 42 44 53
REMARK Flexibility Score: inf
ROOT
ATOM      1  C   UNL A   1      33.829  33.470  28.272  1.00  0.00     0.275 C 
ENDROOT
BRANCH   1   2
ATOM      2  C   UNL A   1      34.519  34.639  28.980  1.00  0.00     0.275 C 
BRANCH   2   3
ATOM      3  O   UNL A   1      34.344  34.586  30.412  1.00  0.00    -0.459 OA
BRANCH   3   4
ATOM      4  C   UNL A   1      34.865  33.492  31.031  1.00  0.00     0.338 C 
ATOM      5  O   UNL A   1      34.347  32.394  31.062  1.00  0.00    -0.246 OA
BRANCH   4   6
ATOM      6  C   UNL A   1      36.176  33.786  31.661  1.00  0.00     0.087 C 
ATOM      7  C   UNL A   1      40.947  34.584  31.499  1.00  0.00     0.119 A 
ATOM      8  C   UNL A   1      40.944  34.808  32.876  1.00  0.00     0.050 A 
ATOM      9  C   UNL A   1      39.740  34.309  30.841  1.00  0.00     0.058 A 
ATOM     10  C   UNL A   1      39.739  34.798  33.581  1.00  0.00     0.051 A 
ATOM     11  C   UNL A   1      38.533  34.265  31.548  1.00  0.00     0.021 A 
ATOM     12  C   UNL A   1      38.545  34.535  32.917  1.00  0.00     0.128 A 
ATOM     13  C   UNL A   1      37.259  33.986  30.890  1.00  0.00     0.027 C 
ATOM     14  O   UNL A   1      37.401  34.639  33.650  1.00  0.00    -0.475 OA
ATOM     15  C   UNL A   1      36.269  33.853  33.180  1.00  0.00     0.316 C 
BRANCH   7  16
ATOM     16  O   UNL A   1      42.044  34.644  30.682  1.00  0.00    -0.497 OA
ATOM     17  C   UNL A   1      42.603  33.404  30.262  1.00  0.00     0.278 C 
ENDBRANCH   7  16
BRANCH  15  18
ATOM     18  C   UNL A   1      35.034  34.318  33.976  1.00  0.00     0.430 C 
ATOM     19  F   UNL A   1      34.050  33.392  33.975  1.00  0.00    -0.167 F 
ATOM     20  F   UNL A   1      35.361  34.503  35.282  1.00  0.00    -0.167 F 
ATOM     21  F   UNL A   1      34.538  35.490  33.523  1.00  0.00    -0.167 F 
ENDBRANCH  15  18
ENDBRANCH   4   6
ENDBRANCH   3   4
ENDBRANCH   2   3
ENDBRANCH   1   2
BRANCH   1  22
ATOM     22  O   UNL A   1      34.761  32.691  27.501  1.00  0.00    -0.458 OA
BRANCH  22  23
ATOM     23  C   UNL A   1      34.703  31.355  27.720  1.00  0.00     0.338 C 
ATOM     24  O   UNL A   1      33.813  30.597  27.366  1.00  0.00    -0.246 OA
BRANCH  23  25
ATOM     25  C   UNL A   1      35.983  30.877  28.275  1.00  0.00     0.060 A 
ATOM     26  C   UNL A   1      35.936  29.698  29.023  1.00  0.00     0.016 A 
ATOM     27  C   UNL A   1      37.197  31.546  28.099  1.00  0.00     0.016 A 
ATOM     28  C   UNL A   1      37.105  29.133  29.530  1.00  0.00     0.010 A 
ATOM     29  C   UNL A   1      38.367  31.008  28.657  1.00  0.00     0.010 A 
ATOM     30  C   UNL A   1      38.330  29.790  29.361  1.00  0.00    -0.014 A 
BRANCH  30  31
ATOM     31  C   UNL A   1      39.540  29.237  30.016  1.00  0.00     0.031 A 
ATOM     32  C   UNL A   1      40.001  29.828  31.319  1.00  0.00     0.074 A 
ATOM     33  C   UNL A   1      40.194  28.189  29.481  1.00  0.00     0.049 A 
ATOM     34  N   UNL A   1      41.034  29.508  32.052  1.00  0.00    -0.248 NA
ATOM     35  C   UNL A   1      39.180  30.914  31.877  1.00  0.00     0.031 C 
ATOM     36  C   UNL A   1      39.806  27.483  28.260  1.00  0.00     0.029 A 
ATOM     37  N   UNL A   1      41.332  27.537  29.897  1.00  0.00    -0.354 N 
ATOM     38  C   UNL A   1      40.997  30.357  33.151  1.00  0.00     0.074 A 
ATOM     39  C   UNL A   1      39.838  31.208  32.989  1.00  0.00     0.031 C 
ATOM     40  C   UNL A   1      40.708  26.517  28.010  1.00  0.00     0.029 A 
ATOM     41  C   UNL A   1      41.752  26.553  29.032  1.00  0.00     0.049 A 
ATOM     42  H   UNL A   1      41.801  27.755  30.735  1.00  0.00     0.167 HD
ATOM     43  C   UNL A   1      41.858  30.425  34.194  1.00  0.00     0.037 A 
ATOM     44  C   UNL A   1      42.868  25.795  29.049  1.00  0.00     0.037 A 
ATOM     45  C   UNL A   1      43.014  29.582  34.349  1.00  0.00     0.049 A 
ATOM     46  C   UNL A   1      43.854  25.952  30.183  1.00  0.00     0.074 A 
ATOM     47  C   UNL A   1      43.929  29.565  35.389  1.00  0.00     0.029 A 
ATOM     48  N   UNL A   1      43.431  28.625  33.436  1.00  0.00    -0.354 N 
ATOM     49  N   UNL A   1      43.784  26.730  31.238  1.00  0.00    -0.248 NA
ATOM     50  C   UNL A   1      45.071  25.128  30.132  1.00  0.00     0.031 C 
ATOM     51  C   UNL A   1      44.933  28.646  35.072  1.00  0.00     0.029 A 
ATOM     52  C   UNL A   1      44.611  28.041  33.868  1.00  0.00     0.049 A 
ATOM     53  H   UNL A   1      42.958  28.395  32.603  1.00  0.00     0.167 HD
ATOM     54  C   UNL A   1      44.928  26.463  31.988  1.00  0.00     0.074 A 
ATOM     55  C   UNL A   1      45.666  25.443  31.274  1.00  0.00     0.031 C 
ATOM     56  C   UNL A   1      45.331  27.013  33.160  1.00  0.00     0.037 A 
BRANCH  43  57
ATOM     57  C   UNL A   1      41.618  31.482  35.235  1.00  0.00     0.058 A 
ATOM     58  C   UNL A   1      42.384  32.656  35.295  1.00  0.00     0.135 A 
ATOM     59  C   UNL A   1      40.552  31.345  36.138  1.00  0.00     0.135 A 
ATOM     60  F   UNL A   1      43.429  32.826  34.469  1.00  0.00    -0.206 F 
ATOM     61  C   UNL A   1      42.103  33.657  36.219  1.00  0.00     0.059 A 
ATOM     62  C   UNL A   1      40.236  32.344  37.052  1.00  0.00     0.059 A 
ATOM     63  F   UNL A   1      39.793  30.237  36.125  1.00  0.00    -0.206 F 
ATOM     64  C   UNL A   1      41.021  33.495  37.088  1.00  0.00     0.060 A 
BRANCH  64  65
ATOM     65  S   UNL A   1      40.644  34.822  38.253  1.00  0.00     0.124 S 
ATOM     66  O   UNL A   1      39.962  34.090  39.317  1.00  0.00    -0.237 OA
ATOM     67  O   UNL A   1      41.971  35.332  38.583  1.00  0.00    -0.237 OA
ATOM     68  O   UNL A   1      39.802  35.728  37.477  1.00  0.00    -0.744 OA
ENDBRANCH  64  65
ENDBRANCH  43  57
BRANCH  44  69
ATOM     69  C   UNL A   1      43.160  24.851  27.932  1.00  0.00     0.058 A 
ATOM     70  C   UNL A   1      42.767  23.505  27.985  1.00  0.00     0.135 A 
ATOM     71  C   UNL A   1      43.905  25.266  26.816  1.00  0.00     0.135 A 
ATOM     72  F   UNL A   1      42.068  23.051  29.037  1.00  0.00    -0.206 F 
ATOM     73  C   UNL A   1      43.134  22.596  26.995  1.00  0.00     0.059 A 
ATOM     74  C   UNL A   1      44.257  24.384  25.798  1.00  0.00     0.059 A 
ATOM     75  F   UNL A   1      44.305  26.542  26.710  1.00  0.00    -0.206 F 
ATOM     76  C   UNL A   1      43.885  23.046  25.908  1.00  0.00     0.060 A 
BRANCH  76  77
ATOM     77  S   UNL A   1      44.367  21.860  24.633  1.00  0.00     0.124 S 
ATOM     78  O   UNL A   1      43.659  20.660  25.065  1.00  0.00    -0.237 OA
ATOM     79  O   UNL A   1      43.865  22.494  23.418  1.00  0.00    -0.237 OA
ATOM     80  O   UNL A   1      45.822  21.812  24.751  1.00  0.00    -0.744 OA
ENDBRANCH  76  77
ENDBRANCH  44  69
BRANCH  56  81
ATOM     81  C   UNL A   1      46.604  26.496  33.780  1.00  0.00     0.058 A 
ATOM     82  C   UNL A   1      46.614  25.388  34.642  1.00  0.00     0.135 A 
ATOM     83  C   UNL A   1      47.839  27.082  33.455  1.00  0.00     0.135 A 
ATOM     84  F   UNL A   1      45.464  24.790  34.988  1.00  0.00    -0.206 F 
ATOM     85  C   UNL A   1      47.801  24.896  35.181  1.00  0.00     0.059 A 
ATOM     86  C   UNL A   1      49.040  26.587  33.957  1.00  0.00     0.059 A 
ATOM     87  F   UNL A   1      47.891  28.137  32.626  1.00  0.00    -0.206 F 
ATOM     88  C   UNL A   1      49.009  25.501  34.829  1.00  0.00     0.060 A 
BRANCH  88  89
ATOM     89  S   UNL A   1      50.544  24.833  35.507  1.00  0.00     0.124 S 
ATOM     90  O   UNL A   1      50.231  23.411  35.599  1.00  0.00    -0.237 OA
ATOM     91  O   UNL A   1      51.522  25.203  34.489  1.00  0.00    -0.237 OA
ATOM     92  O   UNL A   1      50.684  25.528  36.783  1.00  0.00    -0.744 OA
ENDBRANCH  88  89
ENDBRANCH  56  81
ENDBRANCH  30  31
ENDBRANCH  23  25
ENDBRANCH  22  23
ENDBRANCH   1  22
TORSDOF 16
ENDMDL
MODEL 3
REMARK VINA RESULT:     -10.7      5.057     10.634
REMARK SMILES COc1ccc2c(c1)C=C(C(=O)OCCOC(=O)c1ccc(-c3c4nc(c(-c5c(F)cc(S(=O)(=O)[O-])cc5F)c5ccc([nH]5)c(-c5c(F)cc(S(=O)(=O)[O-])cc5F)c5nc(c(-c6c(F)cc(S(=O)(=O)[O-])cc6F)c6ccc3[nH]6)C=C5)C=C4)cc1)[C@H](C(F)(F)F)O2
REMARK SMILES IDX 15 1 14 2 13 3 11 4 12 5 10 6 3 7 4 8 8 9 5 10 7 11 6 12
REMARK SMILES IDX 9 13 90 14 85 15 2 16 1 17 86 18 87 19 88 20 89 21 16 22
REMARK SMILES IDX 17 23 18 24 19 25 20 26 84 27 21 28 83 29 22 30 23 31 24 32
REMARK SMILES IDX 77 33 25 34 82 35 76 36 78 37 26 38 81 39 75 40 74 41 27 43
REMARK SMILES IDX 61 44 40 45 60 46 41 47 44 48 59 49 79 50 42 51 43 52 58 54
REMARK SMILES IDX 80 55 45 56 28 57 29 58 38 59 30 60 31 61 37 62 39 63 32 64
REMARK SMILES IDX 33 65 34 66 35 67 36 68 62 69 63 70 72 71 64 72 65 73 71 74
REMARK SMILES IDX 73 75 66 76 67 77 68 78 69 79 70 80 46 81 47 82 56 83 48 84
REMARK SMILES IDX 49 85 55 86 57 87 50 88 51 89 52 90 53 91 54 92
REMARK H PARENT 78 42 44 53
REMARK Flexibility Score: inf
ROOT
ATOM      1  C   UNL A   1      38.499  23.540  25.942  1.00  0.00     0.275 C 
ENDROOT
BRANCH   1   2
ATOM      2  C   UNL A   1      37.950  22.121  25.769  1.00  0.00     0.275 C 
BRANCH   2   3
ATOM      3  O   UNL A   1      36.509  22.083  25.852  1.00  0.00    -0.459 OA
BRANCH   3   4
ATOM      4  C   UNL A   1      35.842  22.630  24.800  1.00  0.00     0.338 C 
ATOM      5  O   UNL A   1      36.103  22.436  23.630  1.00  0.00    -0.246 OA
BRANCH   4   6
ATOM      6  C   UNL A   1      34.719  23.492  25.246  1.00  0.00     0.087 C 
ATOM      7  C   UNL A   1      32.704  27.791  26.184  1.00  0.00     0.119 A 
ATOM      8  C   UNL A   1      31.509  27.147  26.506  1.00  0.00     0.050 A 
ATOM      9  C   UNL A   1      33.801  27.034  25.748  1.00  0.00     0.058 A 
ATOM     10  C   UNL A   1      31.399  25.764  26.352  1.00  0.00     0.051 A 
ATOM     11  C   UNL A   1      33.707  25.644  25.625  1.00  0.00     0.021 A 
ATOM     12  C   UNL A   1      32.491  25.024  25.909  1.00  0.00     0.128 A 
ATOM     13  C   UNL A   1      34.832  24.829  25.169  1.00  0.00     0.027 C 
ATOM     14  O   UNL A   1      32.281  23.694  25.690  1.00  0.00    -0.475 OA
ATOM     15  C   UNL A   1      33.455  22.839  25.789  1.00  0.00     0.316 C 
BRANCH   7  16
ATOM     16  O   UNL A   1      32.916  29.143  26.214  1.00  0.00    -0.497 OA
ATOM     17  C   UNL A   1      33.729  29.644  27.270  1.00  0.00     0.278 C 
ENDBRANCH   7  16
BRANCH  15  18
ATOM     18  C   UNL A   1      33.050  21.452  25.252  1.00  0.00     0.430 C 
ATOM     19  F   UNL A   1      33.214  21.357  23.914  1.00  0.00    -0.167 F 
ATOM     20  F   UNL A   1      33.848  20.491  25.787  1.00  0.00    -0.167 F 
ATOM     21  F   UNL A   1      31.777  21.128  25.565  1.00  0.00    -0.167 F 
ENDBRANCH  15  18
ENDBRANCH   4   6
ENDBRANCH   3   4
ENDBRANCH   2   3
ENDBRANCH   1   2
BRANCH   1  22
ATOM     22  O   UNL A   1      39.357  23.641  27.092  1.00  0.00    -0.458 OA
BRANCH  22  23
ATOM     23  C   UNL A   1      40.472  24.387  26.905  1.00  0.00     0.338 C 
ATOM     24  O   UNL A   1      41.251  24.311  25.967  1.00  0.00    -0.246 OA
BRANCH  23  25
ATOM     25  C   UNL A   1      40.524  25.478  27.897  1.00  0.00     0.060 A 
ATOM     26  C   UNL A   1      39.414  25.611  28.734  1.00  0.00     0.016 A 
ATOM     27  C   UNL A   1      41.600  26.360  28.016  1.00  0.00     0.016 A 
ATOM     28  C   UNL A   1      39.401  26.569  29.747  1.00  0.00     0.010 A 
ATOM     29  C   UNL A   1      41.564  27.362  28.998  1.00  0.00     0.010 A 
ATOM     30  C   UNL A   1      40.472  27.460  29.880  1.00  0.00    -0.014 A 
BRANCH  30  31
ATOM     31  C   UNL A   1      40.380  28.551  30.882  1.00  0.00     0.031 A 
ATOM     32  C   UNL A   1      41.279  28.514  32.086  1.00  0.00     0.074 A 
ATOM     33  C   UNL A   1      39.540  29.587  30.697  1.00  0.00     0.049 A 
ATOM     34  N   UNL A   1      41.355  29.352  33.086  1.00  0.00    -0.248 NA
ATOM     35  C   UNL A   1      42.225  27.391  32.168  1.00  0.00     0.031 C 
ATOM     36  C   UNL A   1      38.670  29.774  29.536  1.00  0.00     0.029 A 
ATOM     37  N   UNL A   1      39.279  30.679  31.491  1.00  0.00    -0.354 N 
ATOM     38  C   UNL A   1      42.348  28.856  33.922  1.00  0.00     0.074 A 
ATOM     39  C   UNL A   1      42.846  27.642  33.311  1.00  0.00     0.031 C 
ATOM     40  C   UNL A   1      37.948  30.896  29.709  1.00  0.00     0.029 A 
ATOM     41  C   UNL A   1      38.281  31.491  31.002  1.00  0.00     0.049 A 
ATOM     42  H   UNL A   1      39.760  30.862  32.330  1.00  0.00     0.167 HD
ATOM     43  C   UNL A   1      42.795  29.363  35.094  1.00  0.00     0.037 A 
ATOM     44  C   UNL A   1      37.685  32.569  31.552  1.00  0.00     0.037 A 
ATOM     45  C   UNL A   1      42.292  30.568  35.702  1.00  0.00     0.049 A 
ATOM     46  C   UNL A   1      38.149  33.063  32.903  1.00  0.00     0.074 A 
ATOM     47  C   UNL A   1      42.705  31.170  36.879  1.00  0.00     0.029 A 
ATOM     48  N   UNL A   1      41.257  31.342  35.201  1.00  0.00    -0.354 N 
ATOM     49  N   UNL A   1      39.118  32.609  33.662  1.00  0.00    -0.248 NA
ATOM     50  C   UNL A   1      37.440  34.220  33.473  1.00  0.00     0.031 C 
ATOM     51  C   UNL A   1      41.876  32.268  37.122  1.00  0.00     0.029 A 
ATOM     52  C   UNL A   1      40.990  32.392  36.064  1.00  0.00     0.049 A 
ATOM     53  H   UNL A   1      40.782  31.170  34.355  1.00  0.00     0.167 HD
ATOM     54  C   UNL A   1      39.154  33.442  34.778  1.00  0.00     0.074 A 
ATOM     55  C   UNL A   1      38.120  34.436  34.590  1.00  0.00     0.031 C 
ATOM     56  C   UNL A   1      39.969  33.388  35.861  1.00  0.00     0.037 A 
BRANCH  43  57
ATOM     57  C   UNL A   1      43.852  28.595  35.835  1.00  0.00     0.058 A 
ATOM     58  C   UNL A   1      45.215  28.906  35.725  1.00  0.00     0.135 A 
ATOM     59  C   UNL A   1      43.479  27.579  36.730  1.00  0.00     0.135 A 
ATOM     60  F   UNL A   1      45.626  29.854  34.867  1.00  0.00    -0.206 F 
ATOM     61  C   UNL A   1      46.175  28.232  36.474  1.00  0.00     0.059 A 
ATOM     62  C   UNL A   1      44.418  26.910  37.508  1.00  0.00     0.059 A 
ATOM     63  F   UNL A   1      42.188  27.239  36.868  1.00  0.00    -0.206 F 
ATOM     64  C   UNL A   1      45.766  27.241  37.369  1.00  0.00     0.060 A 
BRANCH  64  65
ATOM     65  S   UNL A   1      47.019  26.406  38.364  1.00  0.00     0.124 S 
ATOM     66  O   UNL A   1      47.023  25.073  37.768  1.00  0.00    -0.237 OA
ATOM     67  O   UNL A   1      48.206  27.217  38.112  1.00  0.00    -0.237 OA
ATOM     68  O   UNL A   1      46.486  26.485  39.720  1.00  0.00    -0.744 OA
ENDBRANCH  64  65
ENDBRANCH  43  57
BRANCH  44  69
ATOM     69  C   UNL A   1      36.541  33.235  30.866  1.00  0.00     0.058 A 
ATOM     70  C   UNL A   1      36.735  34.069  29.754  1.00  0.00     0.135 A 
ATOM     71  C   UNL A   1      35.232  33.105  31.360  1.00  0.00     0.135 A 
ATOM     72  F   UNL A   1      37.967  34.242  29.253  1.00  0.00    -0.206 F 
ATOM     73  C   UNL A   1      35.683  34.779  29.180  1.00  0.00     0.059 A 
ATOM     74  C   UNL A   1      34.159  33.779  30.784  1.00  0.00     0.059 A 
ATOM     75  F   UNL A   1      34.987  32.318  32.419  1.00  0.00    -0.206 F 
ATOM     76  C   UNL A   1      34.398  34.631  29.707  1.00  0.00     0.060 A 
BRANCH  76  77
ATOM     77  S   UNL A   1      33.041  35.564  28.967  1.00  0.00     0.124 S 
ATOM     78  O   UNL A   1      33.761  36.596  28.230  1.00  0.00    -0.237 OA
ATOM     79  O   UNL A   1      32.377  34.548  28.155  1.00  0.00    -0.237 OA
ATOM     80  O   UNL A   1      32.280  36.027  30.123  1.00  0.00    -0.744 OA
ENDBRANCH  76  77
ENDBRANCH  44  69
BRANCH  56  81
ATOM     81  C   UNL A   1      39.816  34.459  36.911  1.00  0.00     0.058 A 
ATOM     82  C   UNL A   1      39.045  34.262  38.067  1.00  0.00     0.135 A 
ATOM     83  C   UNL A   1      40.504  35.678  36.784  1.00  0.00     0.135 A 
ATOM     84  F   UNL A   1      38.365  33.119  38.240  1.00  0.00    -0.206 F 
ATOM     85  C   UNL A   1      38.940  35.246  39.047  1.00  0.00     0.059 A 
ATOM     86  C   UNL A   1      40.439  36.662  37.767  1.00  0.00     0.059 A 
ATOM     87  F   UNL A   1      41.267  35.917  35.705  1.00  0.00    -0.206 F 
ATOM     88  C   UNL A   1      39.644  36.442  38.890  1.00  0.00     0.060 A 
BRANCH  88  89
ATOM     89  S   UNL A   1      39.527  37.695  40.185  1.00  0.00     0.124 S 
ATOM     90  O   UNL A   1      40.911  38.146  40.285  1.00  0.00    -0.237 OA
ATOM     91  O   UNL A   1      38.588  38.653  39.608  1.00  0.00    -0.237 OA
ATOM     92  O   UNL A   1      39.024  36.950  41.335  1.00  0.00    -0.744 OA
ENDBRANCH  88  89
ENDBRANCH  56  81
ENDBRANCH  30  31
ENDBRANCH  23  25
ENDBRANCH  22  23
ENDBRANCH   1  22
TORSDOF 16
ENDMDL
