MODEL 1
REMARK VINA RESULT:     -11.7      0.000      0.000
REMARK SMILES [NH3+][C@@H](Cc1c[nH]c2ccccc12)C(=O)N[C@@H](CS)C(=O)N[C@@H](CO)C(=O)OCCOC(=O)c1ccc(-c2c3nc(c(-c4c(F)cc(S(=O)(=O)[O-])cc4F)c4ccc([nH]4)c(-c4c(F)cc(S(=O)(=O)[O-])cc4F)c4nc(c(-c5c(F)cc(S(=O)(=O)[O-])cc5F)c5ccc2[nH]5)C=C4)C=C3)cc1
REMARK SMILES IDX 27 1 25 2 26 3 22 4 21 5 19 6 20 7 16 9 15 10 13 11 14 12
REMARK SMILES IDX 2 14 1 15 3 19 4 20 5 21 12 22 6 23 7 24 11 25 8 27 10 28
REMARK SMILES IDX 9 29 17 30 18 31 23 33 24 34 28 36 29 37 30 38 31 39 32 40
REMARK SMILES IDX 33 41 34 42 98 43 35 44 97 45 36 46 37 47 38 48 91 49 39 50
REMARK SMILES IDX 96 51 90 52 92 53 40 54 95 55 89 56 88 57 41 59 75 60 54 61
REMARK SMILES IDX 74 62 55 63 58 64 73 65 93 66 56 67 57 68 72 70 94 71 59 72
REMARK SMILES IDX 42 73 43 74 52 75 44 76 45 77 51 78 53 79 46 80 47 81 48 82
REMARK SMILES IDX 49 83 50 84 76 85 77 86 86 87 78 88 79 89 85 90 87 91 80 92
REMARK SMILES IDX 81 93 82 94 83 95 84 96 60 97 61 98 70 99 62 100 63 101
REMARK SMILES IDX 69 102 71 103 64 104 65 105 66 106 67 107 68 108
REMARK H PARENT 21 8 15 13 1 16 1 17 1 18 6 26 18 32 24 35 92 58 58 69
REMARK Flexibility Score: inf
ROOT
ATOM      1  O   UNL A   1      33.715  31.677  27.054  1.00  0.00    -0.460 OA
ENDROOT
BRANCH   1   2
ATOM      2  C   UNL A   1      32.771  30.697  26.901  1.00  0.00     0.331 C 
ATOM      3  O   UNL A   1      31.715  30.872  26.298  1.00  0.00    -0.250 OA
BRANCH   2   4
ATOM      4  C   UNL A   1      33.192  29.294  27.448  1.00  0.00     0.218 C 
BRANCH   4   5
ATOM      5  N   UNL A   1      32.229  28.167  27.410  1.00  0.00    -0.339 N 
ATOM      6  C   UNL A   1      31.451  27.519  26.496  1.00  0.00     0.244 C 
ATOM      7  O   UNL A   1      30.629  26.764  27.059  1.00  0.00    -0.273 OA
ATOM      8  H   UNL A   1      32.118  27.771  28.304  1.00  0.00     0.164 HD
BRANCH   6   9
ATOM      9  C   UNL A   1      31.350  27.656  24.734  1.00  0.00     0.181 C 
BRANCH   9  10
ATOM     10  N   UNL A   1      32.684  26.595  24.424  1.00  0.00    -0.338 N 
ATOM     11  C   UNL A   1      32.980  25.438  23.727  1.00  0.00     0.279 C 
ATOM     12  O   UNL A   1      34.104  24.976  24.005  1.00  0.00    -0.268 OA
ATOM     13  H   UNL A   1      33.486  26.917  24.895  1.00  0.00     0.164 HD
BRANCH  11  14
ATOM     14  C   UNL A   1      32.076  24.599  22.700  1.00  0.00     0.275 C 
BRANCH  14  15
ATOM     15  N   UNL A   1      32.849  23.772  21.721  1.00  0.00    -0.347 N 
ATOM     16  H   UNL A   1      33.054  22.860  22.132  1.00  0.00     0.345 HD
ATOM     17  H   UNL A   1      33.723  24.244  21.491  1.00  0.00     0.345 HD
ATOM     18  H   UNL A   1      32.298  23.645  20.873  1.00  0.00     0.345 HD
ENDBRANCH  14  15
BRANCH  14  19
ATOM     19  C   UNL A   1      30.869  23.837  23.235  1.00  0.00     0.113 C 
BRANCH  19  20
ATOM     20  C   UNL A   1      31.020  23.341  24.626  1.00  0.00    -0.016 A 
ATOM     21  C   UNL A   1      30.535  23.999  25.757  1.00  0.00     0.087 A 
ATOM     22  C   UNL A   1      31.989  22.387  25.026  1.00  0.00     0.003 A 
ATOM     23  N   UNL A   1      31.265  23.752  26.909  1.00  0.00    -0.361 N 
ATOM     24  C   UNL A   1      32.390  23.032  26.604  1.00  0.00     0.046 A 
ATOM     25  C   UNL A   1      33.181  21.293  24.190  1.00  0.00     0.010 A 
ATOM     26  H   UNL A   1      31.013  24.050  27.813  1.00  0.00     0.166 HD
ATOM     27  C   UNL A   1      33.986  22.766  27.320  1.00  0.00     0.026 A 
ATOM     28  C   UNL A   1      34.835  21.070  24.871  1.00  0.00     0.001 A 
ATOM     29  C   UNL A   1      35.167  21.719  26.480  1.00  0.00     0.002 A 
ENDBRANCH  19  20
ENDBRANCH  14  19
ENDBRANCH  11  14
ENDBRANCH   9  10
BRANCH   9  30
ATOM     30  C   UNL A   1      29.648  28.071  23.416  1.00  0.00     0.101 C 
BRANCH  30  31
ATOM     31  S   UNL A   1      28.960  29.837  22.467  1.00  0.00    -0.177 SA
ATOM     32  H   UNL A   1      29.372  30.922  23.176  1.00  0.00     0.102 HD
ENDBRANCH  30  31
ENDBRANCH   9  30
ENDBRANCH   6   9
ENDBRANCH   4   5
BRANCH   4  33
ATOM     33  C   UNL A   1      34.475  28.881  26.711  1.00  0.00     0.193 C 
BRANCH  33  34
ATOM     34  O   UNL A   1      34.392  29.211  25.323  1.00  0.00    -0.394 OA
ATOM     35  H   UNL A   1      33.535  28.922  24.972  1.00  0.00     0.210 HD
ENDBRANCH  33  34
ENDBRANCH   4  33
ENDBRANCH   2   4
ENDBRANCH   1   2
BRANCH   1  36
ATOM     36  C   UNL A   1      33.290  32.887  27.741  1.00  0.00     0.274 C 
BRANCH  36  37
ATOM     37  C   UNL A   1      34.084  33.145  29.036  1.00  0.00     0.275 C 
BRANCH  37  38
ATOM     38  O   UNL A   1      34.522  31.934  29.713  1.00  0.00    -0.458 OA
BRANCH  38  39
ATOM     39  C   UNL A   1      35.824  31.997  30.140  1.00  0.00     0.338 C 
ATOM     40  O   UNL A   1      36.252  32.863  30.894  1.00  0.00    -0.246 OA
BRANCH  39  41
ATOM     41  C   UNL A   1      36.690  30.852  29.708  1.00  0.00     0.060 A 
ATOM     42  C   UNL A   1      37.046  29.772  30.508  1.00  0.00     0.016 A 
ATOM     43  C   UNL A   1      37.247  30.901  28.426  1.00  0.00     0.016 A 
ATOM     44  C   UNL A   1      38.133  28.940  30.123  1.00  0.00     0.010 A 
ATOM     45  C   UNL A   1      38.323  30.065  28.066  1.00  0.00     0.010 A 
ATOM     46  C   UNL A   1      38.945  29.226  29.001  1.00  0.00    -0.014 A 
BRANCH  46  47
ATOM     47  C   UNL A   1      40.441  28.837  28.844  1.00  0.00     0.031 A 
ATOM     48  C   UNL A   1      41.567  29.870  29.078  1.00  0.00     0.074 A 
ATOM     49  C   UNL A   1      40.947  27.575  28.768  1.00  0.00     0.049 A 
ATOM     50  N   UNL A   1      42.759  29.963  28.531  1.00  0.00    -0.248 NA
ATOM     51  C   UNL A   1      41.333  30.914  30.095  1.00  0.00     0.031 C 
ATOM     52  C   UNL A   1      40.257  26.312  29.032  1.00  0.00     0.029 A 
ATOM     53  N   UNL A   1      42.218  27.151  28.408  1.00  0.00    -0.354 N 
ATOM     54  C   UNL A   1      43.330  31.145  29.019  1.00  0.00     0.074 A 
ATOM     55  C   UNL A   1      42.376  31.717  29.939  1.00  0.00     0.031 C 
ATOM     56  C   UNL A   1      41.033  25.281  28.667  1.00  0.00     0.029 A 
ATOM     57  C   UNL A   1      42.282  25.800  28.131  1.00  0.00     0.049 A 
ATOM     58  H   UNL A   1      42.997  27.753  28.356  1.00  0.00     0.167 HD
ATOM     59  C   UNL A   1      44.532  31.703  28.719  1.00  0.00     0.037 A 
ATOM     60  C   UNL A   1      43.189  25.055  27.464  1.00  0.00     0.037 A 
ATOM     61  C   UNL A   1      45.565  31.026  27.970  1.00  0.00     0.049 A 
ATOM     62  C   UNL A   1      44.450  25.691  26.956  1.00  0.00     0.074 A 
ATOM     63  C   UNL A   1      46.801  31.505  27.566  1.00  0.00     0.029 A 
ATOM     64  N   UNL A   1      45.509  29.699  27.576  1.00  0.00    -0.354 N 
ATOM     65  N   UNL A   1      44.870  26.923  27.114  1.00  0.00    -0.248 NA
ATOM     66  C   UNL A   1      45.364  24.841  26.180  1.00  0.00     0.031 C 
ATOM     67  C   UNL A   1      47.467  30.485  26.878  1.00  0.00     0.029 A 
ATOM     68  C   UNL A   1      46.677  29.350  26.913  1.00  0.00     0.049 A 
ATOM     69  H   UNL A   1      44.752  29.092  27.740  1.00  0.00     0.167 HD
ATOM     70  C   UNL A   1      46.113  26.982  26.493  1.00  0.00     0.074 A 
ATOM     71  C   UNL A   1      46.378  25.664  25.956  1.00  0.00     0.031 C 
ATOM     72  C   UNL A   1      46.957  28.038  26.389  1.00  0.00     0.037 A 
BRANCH  59  73
ATOM     73  C   UNL A   1      44.784  33.148  29.096  1.00  0.00     0.058 A 
ATOM     74  C   UNL A   1      45.448  33.557  30.261  1.00  0.00     0.135 A 
ATOM     75  C   UNL A   1      44.393  34.158  28.192  1.00  0.00     0.135 A 
ATOM     76  F   UNL A   1      45.845  32.651  31.168  1.00  0.00    -0.206 F 
ATOM     77  C   UNL A   1      45.687  34.907  30.532  1.00  0.00     0.059 A 
ATOM     78  C   UNL A   1      44.651  35.506  28.424  1.00  0.00     0.059 A 
ATOM     79  F   UNL A   1      43.766  33.834  27.050  1.00  0.00    -0.206 F 
ATOM     80  C   UNL A   1      45.284  35.875  29.607  1.00  0.00     0.060 A 
BRANCH  80  81
ATOM     81  S   UNL A   1      45.587  37.619  29.973  1.00  0.00     0.124 S 
ATOM     82  O   UNL A   1      45.006  38.268  28.801  1.00  0.00    -0.237 OA
ATOM     83  O   UNL A   1      44.861  37.808  31.224  1.00  0.00    -0.237 OA
ATOM     84  O   UNL A   1      47.041  37.701  30.076  1.00  0.00    -0.744 OA
ENDBRANCH  80  81
ENDBRANCH  59  73
BRANCH  60  85
ATOM     85  C   UNL A   1      42.872  23.633  27.136  1.00  0.00     0.058 A 
ATOM     86  C   UNL A   1      42.504  23.229  25.845  1.00  0.00     0.135 A 
ATOM     87  C   UNL A   1      42.931  22.643  28.134  1.00  0.00     0.135 A 
ATOM     88  F   UNL A   1      42.402  24.135  24.862  1.00  0.00    -0.206 F 
ATOM     89  C   UNL A   1      42.209  21.898  25.554  1.00  0.00     0.059 A 
ATOM     90  C   UNL A   1      42.674  21.304  27.860  1.00  0.00     0.059 A 
ATOM     91  F   UNL A   1      43.268  22.973  29.391  1.00  0.00    -0.206 F 
ATOM     92  C   UNL A   1      42.306  20.942  26.567  1.00  0.00     0.060 A 
BRANCH  92  93
ATOM     93  S   UNL A   1      41.992  19.209  26.164  1.00  0.00     0.124 S 
ATOM     94  O   UNL A   1      42.878  19.005  25.023  1.00  0.00    -0.237 OA
ATOM     95  O   UNL A   1      42.374  18.534  27.399  1.00  0.00    -0.237 OA
ATOM     96  O   UNL A   1      40.563  19.187  25.863  1.00  0.00    -0.744 OA
ENDBRANCH  92  93
ENDBRANCH  60  85
BRANCH  72  97
ATOM     97  C   UNL A   1      48.288  27.802  25.728  1.00  0.00     0.058 A 
ATOM     98  C   UNL A   1      48.433  27.775  24.333  1.00  0.00     0.135 A 
ATOM     99  C   UNL A   1      49.441  27.617  26.509  1.00  0.00     0.135 A 
ATOM    100  F   UNL A   1      47.363  27.938  23.538  1.00  0.00    -0.206 F 
ATOM    101  C   UNL A   1      49.668  27.537  23.734  1.00  0.00     0.059 A 
ATOM    102  C   UNL A   1      50.690  27.409  25.933  1.00  0.00     0.059 A 
ATOM    103  F   UNL A   1      49.363  27.643  27.849  1.00  0.00    -0.206 F 
ATOM    104  C   UNL A   1      50.790  27.354  24.544  1.00  0.00     0.060 A 
BRANCH 104 105
ATOM    105  S   UNL A   1      52.387  27.060  23.755  1.00  0.00     0.124 S 
ATOM    106  O   UNL A   1      53.030  28.363  23.898  1.00  0.00    -0.237 OA
ATOM    107  O   UNL A   1      52.945  25.985  24.570  1.00  0.00    -0.237 OA
ATOM    108  O   UNL A   1      52.029  26.683  22.391  1.00  0.00    -0.744 OA
ENDBRANCH 104 105
ENDBRANCH  72  97
ENDBRANCH  46  47
ENDBRANCH  39  41
ENDBRANCH  38  39
ENDBRANCH  37  38
ENDBRANCH  36  37
ENDBRANCH   1  36
TORSDOF 25
ENDMDL
MODEL 2
REMARK VINA RESULT:     -10.9      1.890      8.192
REMARK SMILES [NH3+][C@@H](Cc1c[nH]c2ccccc12)C(=O)N[C@@H](CS)C(=O)N[C@@H](CO)C(=O)OCCOC(=O)c1ccc(-c2c3nc(c(-c4c(F)cc(S(=O)(=O)[O-])cc4F)c4ccc([nH]4)c(-c4c(F)cc(S(=O)(=O)[O-])cc4F)c4nc(c(-c5c(F)cc(S(=O)(=O)[O-])cc5F)c5ccc2[nH]5)C=C4)C=C3)cc1
REMARK SMILES IDX 27 1 25 2 26 3 22 4 21 5 19 6 20 7 16 9 15 10 13 11 14 12
REMARK SMILES IDX 2 14 1 15 3 19 4 20 5 21 12 22 6 23 7 24 11 25 8 27 10 28
REMARK SMILES IDX 9 29 17 30 18 31 23 33 24 34 28 36 29 37 30 38 31 39 32 40
REMARK SMILES IDX 33 41 34 42 98 43 35 44 97 45 36 46 37 47 38 48 91 49 39 50
REMARK SMILES IDX 96 51 90 52 92 53 40 54 95 55 89 56 88 57 41 59 75 60 54 61
REMARK SMILES IDX 74 62 55 63 58 64 73 65 93 66 56 67 57 68 72 70 94 71 59 72
REMARK SMILES IDX 42 73 43 74 52 75 44 76 45 77 51 78 53 79 46 80 47 81 48 82
REMARK SMILES IDX 49 83 50 84 76 85 77 86 86 87 78 88 79 89 85 90 87 91 80 92
REMARK SMILES IDX 81 93 82 94 83 95 84 96 60 97 61 98 70 99 62 100 63 101
REMARK SMILES IDX 69 102 71 103 64 104 65 105 66 106 67 107 68 108
REMARK H PARENT 21 8 15 13 1 16 1 17 1 18 6 26 18 32 24 35 92 58 58 69
REMARK Flexibility Score: inf
ROOT
ATOM      1  O   UNL A   1      33.762  29.924  27.636  1.00  0.00    -0.460 OA
ENDROOT
BRANCH   1   2
ATOM      2  C   UNL A   1      32.559  30.135  27.018  1.00  0.00     0.331 C 
ATOM      3  O   UNL A   1      31.931  31.186  27.116  1.00  0.00    -0.250 OA
BRANCH   2   4
ATOM      4  C   UNL A   1      32.099  28.978  26.072  1.00  0.00     0.218 C 
BRANCH   4   5
ATOM      5  N   UNL A   1      32.965  28.560  24.942  1.00  0.00    -0.339 N 
ATOM      6  C   UNL A   1      32.834  27.979  23.715  1.00  0.00     0.244 C 
ATOM      7  O   UNL A   1      33.946  27.633  23.260  1.00  0.00    -0.273 OA
ATOM      8  H   UNL A   1      33.910  28.761  25.133  1.00  0.00     0.164 HD
BRANCH   6   9
ATOM      9  C   UNL A   1      31.402  27.557  22.765  1.00  0.00     0.181 C 
BRANCH   9  10
ATOM     10  N   UNL A   1      32.160  26.243  21.926  1.00  0.00    -0.338 N 
ATOM     11  C   UNL A   1      32.333  24.876  22.032  1.00  0.00     0.279 C 
ATOM     12  O   UNL A   1      33.160  24.425  21.214  1.00  0.00    -0.268 OA
ATOM     13  H   UNL A   1      32.611  26.577  21.118  1.00  0.00     0.164 HD
BRANCH  11  14
ATOM     14  C   UNL A   1      31.694  23.838  23.075  1.00  0.00     0.275 C 
BRANCH  14  15
ATOM     15  N   UNL A   1      30.294  24.160  23.496  1.00  0.00    -0.347 N 
ATOM     16  H   UNL A   1      30.301  24.521  24.451  1.00  0.00     0.345 HD
ATOM     17  H   UNL A   1      29.724  23.315  23.458  1.00  0.00     0.345 HD
ATOM     18  H   UNL A   1      29.903  24.862  22.870  1.00  0.00     0.345 HD
ENDBRANCH  14  15
BRANCH  14  19
ATOM     19  C   UNL A   1      31.866  22.343  22.827  1.00  0.00     0.113 C 
BRANCH  19  20
ATOM     20  C   UNL A   1      32.631  21.629  23.881  1.00  0.00    -0.016 A 
ATOM     21  C   UNL A   1      32.052  20.949  24.952  1.00  0.00     0.087 A 
ATOM     22  C   UNL A   1      33.997  21.870  24.169  1.00  0.00     0.003 A 
ATOM     23  N   UNL A   1      32.848  20.902  26.087  1.00  0.00    -0.361 N 
ATOM     24  C   UNL A   1      33.957  21.686  25.911  1.00  0.00     0.046 A 
ATOM     25  C   UNL A   1      35.354  22.820  23.413  1.00  0.00     0.010 A 
ATOM     26  H   UNL A   1      32.645  20.384  26.899  1.00  0.00     0.166 HD
ATOM     27  C   UNL A   1      35.116  22.533  26.945  1.00  0.00     0.026 A 
ATOM     28  C   UNL A   1      36.499  23.746  24.453  1.00  0.00     0.001 A 
ATOM     29  C   UNL A   1      36.427  23.493  26.199  1.00  0.00     0.002 A 
ENDBRANCH  19  20
ENDBRANCH  14  19
ENDBRANCH  11  14
ENDBRANCH   9  10
BRANCH   9  30
ATOM     30  C   UNL A   1      29.266  27.804  23.190  1.00  0.00     0.101 C 
BRANCH  30  31
ATOM     31  S   UNL A   1      27.895  29.374  22.806  1.00  0.00    -0.177 SA
ATOM     32  H   UNL A   1      28.531  30.571  22.927  1.00  0.00     0.102 HD
ENDBRANCH  30  31
ENDBRANCH   9  30
ENDBRANCH   6   9
ENDBRANCH   4   5
BRANCH   4  33
ATOM     33  C   UNL A   1      31.802  27.755  26.953  1.00  0.00     0.193 C 
BRANCH  33  34
ATOM     34  O   UNL A   1      31.416  28.160  28.269  1.00  0.00    -0.394 OA
ATOM     35  H   UNL A   1      30.820  27.496  28.649  1.00  0.00     0.210 HD
ENDBRANCH  33  34
ENDBRANCH   4  33
ENDBRANCH   2   4
ENDBRANCH   1   2
BRANCH   1  36
ATOM     36  C   UNL A   1      34.531  31.110  27.980  1.00  0.00     0.274 C 
BRANCH  36  37
ATOM     37  C   UNL A   1      35.941  30.773  28.503  1.00  0.00     0.275 C 
BRANCH  37  38
ATOM     38  O   UNL A   1      36.205  31.257  29.849  1.00  0.00    -0.458 OA
BRANCH  38  39
ATOM     39  C   UNL A   1      36.836  30.331  30.641  1.00  0.00     0.338 C 
ATOM     40  O   UNL A   1      36.254  29.423  31.222  1.00  0.00    -0.246 OA
BRANCH  39  41
ATOM     41  C   UNL A   1      38.331  30.431  30.666  1.00  0.00     0.060 A 
ATOM     42  C   UNL A   1      39.065  31.553  30.294  1.00  0.00     0.016 A 
ATOM     43  C   UNL A   1      39.058  29.289  31.019  1.00  0.00     0.016 A 
ATOM     44  C   UNL A   1      40.454  31.427  30.024  1.00  0.00     0.010 A 
ATOM     45  C   UNL A   1      40.436  29.187  30.743  1.00  0.00     0.010 A 
ATOM     46  C   UNL A   1      41.114  30.175  30.017  1.00  0.00    -0.014 A 
BRANCH  46  47
ATOM     47  C   UNL A   1      42.362  29.816  29.163  1.00  0.00     0.031 A 
ATOM     48  C   UNL A   1      42.483  28.445  28.459  1.00  0.00     0.074 A 
ATOM     49  C   UNL A   1      43.313  30.680  28.714  1.00  0.00     0.049 A 
ATOM     50  N   UNL A   1      43.549  27.731  28.169  1.00  0.00    -0.248 NA
ATOM     51  C   UNL A   1      41.238  27.815  27.977  1.00  0.00     0.031 C 
ATOM     52  C   UNL A   1      43.280  32.142  28.730  1.00  0.00     0.029 A 
ATOM     53  N   UNL A   1      44.554  30.416  28.151  1.00  0.00    -0.354 N 
ATOM     54  C   UNL A   1      43.087  26.525  27.630  1.00  0.00     0.074 A 
ATOM     55  C   UNL A   1      41.646  26.615  27.588  1.00  0.00     0.031 C 
ATOM     56  C   UNL A   1      44.477  32.632  28.377  1.00  0.00     0.029 A 
ATOM     57  C   UNL A   1      45.379  31.522  28.112  1.00  0.00     0.049 A 
ATOM     58  H   UNL A   1      44.819  29.530  27.811  1.00  0.00     0.167 HD
ATOM     59  C   UNL A   1      43.797  25.443  27.217  1.00  0.00     0.037 A 
ATOM     60  C   UNL A   1      46.714  31.649  27.959  1.00  0.00     0.037 A 
ATOM     61  C   UNL A   1      45.233  25.441  27.061  1.00  0.00     0.049 A 
ATOM     62  C   UNL A   1      47.554  30.436  27.684  1.00  0.00     0.074 A 
ATOM     63  C   UNL A   1      46.065  24.394  26.695  1.00  0.00     0.029 A 
ATOM     64  N   UNL A   1      46.041  26.558  27.191  1.00  0.00    -0.354 N 
ATOM     65  N   UNL A   1      47.170  29.196  27.500  1.00  0.00    -0.248 NA
ATOM     66  C   UNL A   1      49.008  30.634  27.594  1.00  0.00     0.031 C 
ATOM     67  C   UNL A   1      47.381  24.867  26.662  1.00  0.00     0.029 A 
ATOM     68  C   UNL A   1      47.363  26.223  26.937  1.00  0.00     0.049 A 
ATOM     69  H   UNL A   1      45.724  27.460  27.429  1.00  0.00     0.167 HD
ATOM     70  C   UNL A   1      48.330  28.476  27.233  1.00  0.00     0.074 A 
ATOM     71  C   UNL A   1      49.429  29.417  27.279  1.00  0.00     0.031 C 
ATOM     72  C   UNL A   1      48.461  27.154  26.965  1.00  0.00     0.037 A 
BRANCH  59  73
ATOM     73  C   UNL A   1      43.074  24.130  26.999  1.00  0.00     0.058 A 
ATOM     74  C   UNL A   1      42.693  23.636  25.744  1.00  0.00     0.135 A 
ATOM     75  C   UNL A   1      42.822  23.307  28.116  1.00  0.00     0.135 A 
ATOM     76  F   UNL A   1      42.899  24.368  24.637  1.00  0.00    -0.206 F 
ATOM     77  C   UNL A   1      42.065  22.396  25.605  1.00  0.00     0.059 A 
ATOM     78  C   UNL A   1      42.229  22.053  27.999  1.00  0.00     0.059 A 
ATOM     79  F   UNL A   1      43.174  23.714  29.347  1.00  0.00    -0.206 F 
ATOM     80  C   UNL A   1      41.836  21.612  26.740  1.00  0.00     0.060 A 
BRANCH  80  81
ATOM     81  S   UNL A   1      41.011  20.014  26.550  1.00  0.00     0.124 S 
ATOM     82  O   UNL A   1      39.757  20.407  25.913  1.00  0.00    -0.237 OA
ATOM     83  O   UNL A   1      41.945  19.277  25.707  1.00  0.00    -0.237 OA
ATOM     84  O   UNL A   1      40.889  19.526  27.921  1.00  0.00    -0.744 OA
ENDBRANCH  80  81
ENDBRANCH  59  73
BRANCH  60  85
ATOM     85  C   UNL A   1      47.355  32.980  28.182  1.00  0.00     0.058 A 
ATOM     86  C   UNL A   1      47.501  33.919  27.152  1.00  0.00     0.135 A 
ATOM     87  C   UNL A   1      47.844  33.330  29.454  1.00  0.00     0.135 A 
ATOM     88  F   UNL A   1      47.080  33.628  25.912  1.00  0.00    -0.206 F 
ATOM     89  C   UNL A   1      48.103  35.157  27.373  1.00  0.00     0.059 A 
ATOM     90  C   UNL A   1      48.419  34.570  29.707  1.00  0.00     0.059 A 
ATOM     91  F   UNL A   1      47.741  32.465  30.476  1.00  0.00    -0.206 F 
ATOM     92  C   UNL A   1      48.550  35.476  28.657  1.00  0.00     0.060 A 
BRANCH  92  93
ATOM     93  S   UNL A   1      49.265  37.109  28.951  1.00  0.00     0.124 S 
ATOM     94  O   UNL A   1      50.633  36.922  28.481  1.00  0.00    -0.237 OA
ATOM     95  O   UNL A   1      48.417  37.967  28.131  1.00  0.00    -0.237 OA
ATOM     96  O   UNL A   1      49.114  37.288  30.393  1.00  0.00    -0.744 OA
ENDBRANCH  92  93
ENDBRANCH  60  85
BRANCH  72  97
ATOM     97  C   UNL A   1      49.837  26.646  26.628  1.00  0.00     0.058 A 
ATOM     98  C   UNL A   1      50.653  26.016  27.580  1.00  0.00     0.135 A 
ATOM     99  C   UNL A   1      50.339  26.778  25.323  1.00  0.00     0.135 A 
ATOM    100  F   UNL A   1      50.227  25.870  28.845  1.00  0.00    -0.206 F 
ATOM    101  C   UNL A   1      51.932  25.567  27.259  1.00  0.00     0.059 A 
ATOM    102  C   UNL A   1      51.600  26.309  24.972  1.00  0.00     0.059 A 
ATOM    103  F   UNL A   1      49.597  27.363  24.368  1.00  0.00    -0.206 F 
ATOM    104  C   UNL A   1      52.396  25.720  25.952  1.00  0.00     0.060 A 
BRANCH 104 105
ATOM    105  S   UNL A   1      54.051  25.121  25.546  1.00  0.00     0.124 S 
ATOM    106  O   UNL A   1      54.859  25.772  26.572  1.00  0.00    -0.237 OA
ATOM    107  O   UNL A   1      53.901  23.676  25.679  1.00  0.00    -0.237 OA
ATOM    108  O   UNL A   1      54.261  25.600  24.183  1.00  0.00    -0.744 OA
ENDBRANCH 104 105
ENDBRANCH  72  97
ENDBRANCH  46  47
ENDBRANCH  39  41
ENDBRANCH  38  39
ENDBRANCH  37  38
ENDBRANCH  36  37
ENDBRANCH   1  36
TORSDOF 25
ENDMDL
MODEL 3
REMARK VINA RESULT:      -9.9      5.503      9.553
REMARK SMILES [NH3+][C@@H](Cc1c[nH]c2ccccc12)C(=O)N[C@@H](CS)C(=O)N[C@@H](CO)C(=O)OCCOC(=O)c1ccc(-c2c3nc(c(-c4c(F)cc(S(=O)(=O)[O-])cc4F)c4ccc([nH]4)c(-c4c(F)cc(S(=O)(=O)[O-])cc4F)c4nc(c(-c5c(F)cc(S(=O)(=O)[O-])cc5F)c5ccc2[nH]5)C=C4)C=C3)cc1
REMARK SMILES IDX 27 1 25 2 26 3 22 4 21 5 19 6 20 7 16 9 15 10 13 11 14 12
REMARK SMILES IDX 2 14 1 15 3 19 4 20 5 21 12 22 6 23 7 24 11 25 8 27 10 28
REMARK SMILES IDX 9 29 17 30 18 31 23 33 24 34 28 36 29 37 30 38 31 39 32 40
REMARK SMILES IDX 33 41 34 42 98 43 35 44 97 45 36 46 37 47 38 48 91 49 39 50
REMARK SMILES IDX 96 51 90 52 92 53 40 54 95 55 89 56 88 57 41 59 75 60 54 61
REMARK SMILES IDX 74 62 55 63 58 64 73 65 93 66 56 67 57 68 72 70 94 71 59 72
REMARK SMILES IDX 42 73 43 74 52 75 44 76 45 77 51 78 53 79 46 80 47 81 48 82
REMARK SMILES IDX 49 83 50 84 76 85 77 86 86 87 78 88 79 89 85 90 87 91 80 92
REMARK SMILES IDX 81 93 82 94 83 95 84 96 60 97 61 98 70 99 62 100 63 101
REMARK SMILES IDX 69 102 71 103 64 104 65 105 66 106 67 107 68 108
REMARK H PARENT 21 8 15 13 1 16 1 17 1 18 6 26 18 32 24 35 92 58 58 69
REMARK Flexibility Score: inf
ROOT
ATOM      1  O   UNL A   1      32.781  31.604  27.247  1.00  0.00    -0.460 OA
ENDROOT
BRANCH   1   2
ATOM      2  C   UNL A   1      32.008  31.001  26.292  1.00  0.00     0.331 C 
ATOM      3  O   UNL A   1      31.026  31.539  25.787  1.00  0.00    -0.250 OA
BRANCH   2   4
ATOM      4  C   UNL A   1      32.544  29.618  25.796  1.00  0.00     0.218 C 
BRANCH   4   5
ATOM      5  N   UNL A   1      33.148  29.501  24.446  1.00  0.00    -0.339 N 
ATOM      6  C   UNL A   1      32.838  28.964  23.232  1.00  0.00     0.244 C 
ATOM      7  O   UNL A   1      33.834  28.950  22.478  1.00  0.00    -0.273 OA
ATOM      8  H   UNL A   1      34.029  29.938  24.419  1.00  0.00     0.164 HD
BRANCH   6   9
ATOM      9  C   UNL A   1      31.351  28.218  22.624  1.00  0.00     0.181 C 
BRANCH   9  10
ATOM     10  N   UNL A   1      32.162  26.997  21.700  1.00  0.00    -0.338 N 
ATOM     11  C   UNL A   1      32.509  25.661  21.780  1.00  0.00     0.279 C 
ATOM     12  O   UNL A   1      33.287  25.305  20.873  1.00  0.00    -0.268 OA
ATOM     13  H   UNL A   1      32.477  27.375  20.848  1.00  0.00     0.164 HD
BRANCH  11  14
ATOM     14  C   UNL A   1      32.120  24.564  22.885  1.00  0.00     0.275 C 
BRANCH  14  15
ATOM     15  N   UNL A   1      30.673  24.178  22.898  1.00  0.00    -0.347 N 
ATOM     16  H   UNL A   1      30.470  23.648  23.746  1.00  0.00     0.345 HD
ATOM     17  H   UNL A   1      30.467  23.604  22.081  1.00  0.00     0.345 HD
ATOM     18  H   UNL A   1      30.097  25.018  22.877  1.00  0.00     0.345 HD
ENDBRANCH  14  15
BRANCH  14  19
ATOM     19  C   UNL A   1      33.018  23.345  23.062  1.00  0.00     0.113 C 
BRANCH  19  20
ATOM     20  C   UNL A   1      32.503  22.334  24.019  1.00  0.00    -0.016 A 
ATOM     21  C   UNL A   1      32.667  22.400  25.402  1.00  0.00     0.087 A 
ATOM     22  C   UNL A   1      32.149  21.010  23.658  1.00  0.00     0.003 A 
ATOM     23  N   UNL A   1      32.693  21.163  26.028  1.00  0.00    -0.361 N 
ATOM     24  C   UNL A   1      32.706  20.166  25.088  1.00  0.00     0.046 A 
ATOM     25  C   UNL A   1      31.945  20.079  22.106  1.00  0.00     0.010 A 
ATOM     26  H   UNL A   1      32.702  21.022  27.002  1.00  0.00     0.166 HD
ATOM     27  C   UNL A   1      33.218  18.475  25.009  1.00  0.00     0.026 A 
ATOM     28  C   UNL A   1      32.530  18.378  21.990  1.00  0.00     0.001 A 
ATOM     29  C   UNL A   1      33.050  17.573  23.474  1.00  0.00     0.002 A 
ENDBRANCH  19  20
ENDBRANCH  14  19
ENDBRANCH  11  14
ENDBRANCH   9  10
BRANCH   9  30
ATOM     30  C   UNL A   1      29.336  28.116  23.481  1.00  0.00     0.101 C 
BRANCH  30  31
ATOM     31  S   UNL A   1      28.036  26.498  23.910  1.00  0.00    -0.177 SA
ATOM     32  H   UNL A   1      26.952  26.956  24.592  1.00  0.00     0.102 HD
ENDBRANCH  30  31
ENDBRANCH   9  30
ENDBRANCH   6   9
ENDBRANCH   4   5
BRANCH   4  33
ATOM     33  C   UNL A   1      33.552  29.116  26.841  1.00  0.00     0.193 C 
BRANCH  33  34
ATOM     34  O   UNL A   1      34.856  29.641  26.582  1.00  0.00    -0.394 OA
ATOM     35  H   UNL A   1      35.499  29.212  27.167  1.00  0.00     0.210 HD
ENDBRANCH  33  34
ENDBRANCH   4  33
ENDBRANCH   2   4
ENDBRANCH   1   2
BRANCH   1  36
ATOM     36  C   UNL A   1      32.688  33.053  27.337  1.00  0.00     0.274 C 
BRANCH  36  37
ATOM     37  C   UNL A   1      33.620  33.643  28.414  1.00  0.00     0.275 C 
BRANCH  37  38
ATOM     38  O   UNL A   1      34.288  32.642  29.230  1.00  0.00    -0.458 OA
BRANCH  38  39
ATOM     39  C   UNL A   1      35.471  33.086  29.766  1.00  0.00     0.338 C 
ATOM     40  O   UNL A   1      35.581  34.127  30.402  1.00  0.00    -0.246 OA
BRANCH  39  41
ATOM     41  C   UNL A   1      36.628  32.144  29.619  1.00  0.00     0.060 A 
ATOM     42  C   UNL A   1      36.595  30.784  29.910  1.00  0.00     0.016 A 
ATOM     43  C   UNL A   1      37.861  32.678  29.228  1.00  0.00     0.016 A 
ATOM     44  C   UNL A   1      37.814  30.070  30.069  1.00  0.00     0.010 A 
ATOM     45  C   UNL A   1      39.056  31.951  29.393  1.00  0.00     0.010 A 
ATOM     46  C   UNL A   1      39.076  30.710  30.045  1.00  0.00    -0.014 A 
BRANCH  46  47
ATOM     47  C   UNL A   1      40.346  30.232  30.801  1.00  0.00     0.031 A 
ATOM     48  C   UNL A   1      41.281  29.158  30.199  1.00  0.00     0.074 A 
ATOM     49  C   UNL A   1      40.927  30.838  31.873  1.00  0.00     0.049 A 
ATOM     50  N   UNL A   1      42.030  28.256  30.794  1.00  0.00    -0.248 NA
ATOM     51  C   UNL A   1      41.422  29.124  28.730  1.00  0.00     0.031 C 
ATOM     52  C   UNL A   1      40.644  32.165  32.419  1.00  0.00     0.029 A 
ATOM     53  N   UNL A   1      41.911  30.366  32.731  1.00  0.00    -0.354 N 
ATOM     54  C   UNL A   1      42.588  27.469  29.780  1.00  0.00     0.074 A 
ATOM     55  C   UNL A   1      42.130  28.021  28.527  1.00  0.00     0.031 C 
ATOM     56  C   UNL A   1      41.284  32.327  33.586  1.00  0.00     0.029 A 
ATOM     57  C   UNL A   1      42.026  31.113  33.886  1.00  0.00     0.049 A 
ATOM     58  H   UNL A   1      42.470  29.579  32.536  1.00  0.00     0.167 HD
ATOM     59  C   UNL A   1      43.399  26.384  29.886  1.00  0.00     0.037 A 
ATOM     60  C   UNL A   1      42.592  30.847  35.083  1.00  0.00     0.037 A 
ATOM     61  C   UNL A   1      44.024  25.968  31.120  1.00  0.00     0.049 A 
ATOM     62  C   UNL A   1      43.341  29.561  35.286  1.00  0.00     0.074 A 
ATOM     63  C   UNL A   1      44.825  24.862  31.359  1.00  0.00     0.029 A 
ATOM     64  N   UNL A   1      43.976  26.683  32.306  1.00  0.00    -0.354 N 
ATOM     65  N   UNL A   1      43.602  28.617  34.415  1.00  0.00    -0.248 NA
ATOM     66  C   UNL A   1      43.875  29.302  36.630  1.00  0.00     0.031 C 
ATOM     67  C   UNL A   1      45.212  24.880  32.703  1.00  0.00     0.029 A 
ATOM     68  C   UNL A   1      44.712  26.031  33.284  1.00  0.00     0.049 A 
ATOM     69  H   UNL A   1      43.491  27.530  32.436  1.00  0.00     0.167 HD
ATOM     70  C   UNL A   1      44.364  27.674  35.096  1.00  0.00     0.074 A 
ATOM     71  C   UNL A   1      44.522  28.160  36.450  1.00  0.00     0.031 C 
ATOM     72  C   UNL A   1      44.889  26.514  34.630  1.00  0.00     0.037 A 
BRANCH  59  73
ATOM     73  C   UNL A   1      43.590  25.491  28.677  1.00  0.00     0.058 A 
ATOM     74  C   UNL A   1      44.757  25.450  27.902  1.00  0.00     0.135 A 
ATOM     75  C   UNL A   1      42.563  24.586  28.339  1.00  0.00     0.135 A 
ATOM     76  F   UNL A   1      45.775  26.285  28.164  1.00  0.00    -0.206 F 
ATOM     77  C   UNL A   1      44.888  24.572  26.822  1.00  0.00     0.059 A 
ATOM     78  C   UNL A   1      42.684  23.679  27.290  1.00  0.00     0.059 A 
ATOM     79  F   UNL A   1      41.423  24.563  29.050  1.00  0.00    -0.206 F 
ATOM     80  C   UNL A   1      43.845  23.691  26.524  1.00  0.00     0.060 A 
BRANCH  80  81
ATOM     81  S   UNL A   1      44.020  22.568  25.117  1.00  0.00     0.124 S 
ATOM     82  O   UNL A   1      42.667  22.031  25.003  1.00  0.00    -0.237 OA
ATOM     83  O   UNL A   1      44.435  23.468  24.047  1.00  0.00    -0.237 OA
ATOM     84  O   UNL A   1      45.035  21.617  25.561  1.00  0.00    -0.744 OA
ENDBRANCH  80  81
ENDBRANCH  59  73
BRANCH  60  85
ATOM     85  C   UNL A   1      42.365  31.780  36.227  1.00  0.00     0.058 A 
ATOM     86  C   UNL A   1      43.357  32.662  36.677  1.00  0.00     0.135 A 
ATOM     87  C   UNL A   1      41.129  31.795  36.898  1.00  0.00     0.135 A 
ATOM     88  F   UNL A   1      44.564  32.670  36.093  1.00  0.00    -0.206 F 
ATOM     89  C   UNL A   1      43.132  33.527  37.747  1.00  0.00     0.059 A 
ATOM     90  C   UNL A   1      40.871  32.670  37.947  1.00  0.00     0.059 A 
ATOM     91  F   UNL A   1      40.146  30.964  36.517  1.00  0.00    -0.206 F 
ATOM     92  C   UNL A   1      41.882  33.530  38.369  1.00  0.00     0.060 A 
BRANCH  92  93
ATOM     93  S   UNL A   1      41.577  34.702  39.708  1.00  0.00     0.124 S 
ATOM     94  O   UNL A   1      42.220  35.908  39.199  1.00  0.00    -0.237 OA
ATOM     95  O   UNL A   1      40.119  34.730  39.765  1.00  0.00    -0.237 OA
ATOM     96  O   UNL A   1      42.228  34.079  40.857  1.00  0.00    -0.744 OA
ENDBRANCH  92  93
ENDBRANCH  60  85
BRANCH  72  97
ATOM     97  C   UNL A   1      45.750  25.713  35.568  1.00  0.00     0.058 A 
ATOM     98  C   UNL A   1      45.222  24.702  36.386  1.00  0.00     0.135 A 
ATOM     99  C   UNL A   1      47.132  25.953  35.637  1.00  0.00     0.135 A 
ATOM    100  F   UNL A   1      43.906  24.435  36.367  1.00  0.00    -0.206 F 
ATOM    101  C   UNL A   1      46.027  23.981  37.264  1.00  0.00     0.059 A 
ATOM    102  C   UNL A   1      47.961  25.224  36.484  1.00  0.00     0.059 A 
ATOM    103  F   UNL A   1      47.694  26.902  34.870  1.00  0.00    -0.206 F 
ATOM    104  C   UNL A   1      47.396  24.251  37.306  1.00  0.00     0.060 A 
BRANCH 104 105
ATOM    105  S   UNL A   1      48.431  23.299  38.438  1.00  0.00     0.124 S 
ATOM    106  O   UNL A   1      49.771  23.696  38.017  1.00  0.00    -0.237 OA
ATOM    107  O   UNL A   1      48.004  23.795  39.743  1.00  0.00    -0.237 OA
ATOM    108  O   UNL A   1      48.067  21.915  38.151  1.00  0.00    -0.744 OA
ENDBRANCH 104 105
ENDBRANCH  72  97
ENDBRANCH  46  47
ENDBRANCH  39  41
ENDBRANCH  38  39
ENDBRANCH  37  38
ENDBRANCH  36  37
ENDBRANCH   1  36
TORSDOF 25
ENDMDL
