MODEL 1
REMARK VINA RESULT:     -11.9      0.000      0.000
REMARK SMILES O=C(OCCOC(=O)c1cccc(Oc2ncc([N+](=O)[O-])cc2Br)c1)c1ccc(-c2c3nc(c(-c4c(F)cc(S(=O)(=O)[O-])cc4F)c4ccc([nH]4)c(-c4c(F)cc(S(=O)(=O)[O-])cc4F)c4nc(c(-c5c(F)cc(S(=O)(=O)[O-])cc5F)c5ccc2[nH]5)C=C4)C=C3)cc1
REMARK SMILES IDX 4 1 3 2 2 3 1 4 26 5 27 6 91 7 28 8 90 9 29 10 30 11 31 12
REMARK SMILES IDX 84 13 32 14 89 15 83 16 85 17 33 18 88 19 82 20 81 21 34 23
REMARK SMILES IDX 68 24 47 25 67 26 48 27 51 28 66 29 86 30 49 31 50 32 65 34
REMARK SMILES IDX 87 35 52 36 35 37 36 38 45 39 37 40 38 41 44 42 46 43 39 44
REMARK SMILES IDX 40 45 41 46 42 47 43 48 69 49 70 50 79 51 71 52 72 53 78 54
REMARK SMILES IDX 80 55 73 56 74 57 75 58 76 59 77 60 53 61 54 62 63 63 55 64
REMARK SMILES IDX 56 65 62 66 64 67 57 68 58 69 59 70 60 71 61 72 5 73 6 74
REMARK SMILES IDX 7 75 8 76 9 77 10 78 25 79 11 80 13 81 12 82 14 83 15 84
REMARK SMILES IDX 16 85 23 86 17 87 22 88 24 89 18 90 19 91 20 92 21 93
REMARK H PARENT 85 22 51 33
REMARK Flexibility Score: inf
ROOT
ATOM      1  C   UNL A   1      39.109  22.758  26.427  1.00  0.00     0.275 C 
ENDROOT
BRANCH   1   2
ATOM      2  O   UNL A   1      39.680  24.031  26.080  1.00  0.00    -0.458 OA
BRANCH   2   3
ATOM      3  C   UNL A   1      40.656  24.765  26.661  1.00  0.00     0.338 C 
ATOM      4  O   UNL A   1      41.808  24.591  26.260  1.00  0.00    -0.246 OA
BRANCH   3   5
ATOM      5  C   UNL A   1      40.466  25.745  27.791  1.00  0.00     0.060 A 
ATOM      6  C   UNL A   1      39.455  25.736  28.757  1.00  0.00     0.016 A 
ATOM      7  C   UNL A   1      41.449  26.752  27.904  1.00  0.00     0.016 A 
ATOM      8  C   UNL A   1      39.433  26.670  29.801  1.00  0.00     0.010 A 
ATOM      9  C   UNL A   1      41.437  27.685  28.948  1.00  0.00     0.010 A 
ATOM     10  C   UNL A   1      40.423  27.650  29.904  1.00  0.00    -0.014 A 
BRANCH  10  11
ATOM     11  C   UNL A   1      40.356  28.645  30.998  1.00  0.00     0.031 A 
ATOM     12  C   UNL A   1      41.337  28.573  32.108  1.00  0.00     0.074 A 
ATOM     13  C   UNL A   1      39.397  29.587  31.010  1.00  0.00     0.049 A 
ATOM     14  N   UNL A   1      41.467  29.383  33.119  1.00  0.00    -0.248 NA
ATOM     15  C   UNL A   1      42.258  27.427  32.110  1.00  0.00     0.031 C 
ATOM     16  C   UNL A   1      38.331  29.626  30.033  1.00  0.00     0.029 A 
ATOM     17  N   UNL A   1      39.133  30.661  31.824  1.00  0.00    -0.354 N 
ATOM     18  C   UNL A   1      42.439  28.814  33.919  1.00  0.00     0.074 A 
ATOM     19  C   UNL A   1      42.889  27.606  33.261  1.00  0.00     0.031 C 
ATOM     20  C   UNL A   1      37.536  30.675  30.279  1.00  0.00     0.029 A 
ATOM     21  C   UNL A   1      38.070  31.430  31.391  1.00  0.00     0.049 A 
ATOM     22  H   UNL A   1      39.651  30.863  32.637  1.00  0.00     0.167 HD
ATOM     23  C   UNL A   1      42.875  29.259  35.115  1.00  0.00     0.037 A 
ATOM     24  C   UNL A   1      37.603  32.625  31.807  1.00  0.00     0.037 A 
ATOM     25  C   UNL A   1      42.388  30.455  35.750  1.00  0.00     0.049 A 
ATOM     26  C   UNL A   1      38.239  33.191  33.043  1.00  0.00     0.074 A 
ATOM     27  C   UNL A   1      42.784  31.007  36.953  1.00  0.00     0.029 A 
ATOM     28  N   UNL A   1      41.387  31.274  35.242  1.00  0.00    -0.354 N 
ATOM     29  N   UNL A   1      39.239  32.699  33.737  1.00  0.00    -0.248 NA
ATOM     30  C   UNL A   1      37.668  34.426  33.594  1.00  0.00     0.031 C 
ATOM     31  C   UNL A   1      41.989  32.130  37.198  1.00  0.00     0.029 A 
ATOM     32  C   UNL A   1      41.134  32.314  36.121  1.00  0.00     0.049 A 
ATOM     33  H   UNL A   1      40.924  31.135  34.384  1.00  0.00     0.167 HD
ATOM     34  C   UNL A   1      39.373  33.523  34.839  1.00  0.00     0.074 A 
ATOM     35  C   UNL A   1      38.424  34.607  34.668  1.00  0.00     0.031 C 
ATOM     36  C   UNL A   1      40.165  33.364  35.925  1.00  0.00     0.037 A 
BRANCH  23  37
ATOM     37  C   UNL A   1      43.878  28.410  35.827  1.00  0.00     0.058 A 
ATOM     38  C   UNL A   1      45.257  28.582  35.645  1.00  0.00     0.135 A 
ATOM     39  C   UNL A   1      43.446  27.410  36.713  1.00  0.00     0.135 A 
ATOM     40  F   UNL A   1      45.717  29.492  34.771  1.00  0.00    -0.206 F 
ATOM     41  C   UNL A   1      46.178  27.793  36.321  1.00  0.00     0.059 A 
ATOM     42  C   UNL A   1      44.349  26.628  37.420  1.00  0.00     0.059 A 
ATOM     43  F   UNL A   1      42.134  27.188  36.895  1.00  0.00    -0.206 F 
ATOM     44  C   UNL A   1      45.713  26.827  37.217  1.00  0.00     0.060 A 
BRANCH  44  45
ATOM     45  S   UNL A   1      46.925  25.858  38.135  1.00  0.00     0.124 S 
ATOM     46  O   UNL A   1      47.812  25.409  37.066  1.00  0.00    -0.237 OA
ATOM     47  O   UNL A   1      47.485  26.852  39.046  1.00  0.00    -0.237 OA
ATOM     48  O   UNL A   1      46.121  24.815  38.764  1.00  0.00    -0.744 OA
ENDBRANCH  44  45
ENDBRANCH  23  37
BRANCH  24  49
ATOM     49  C   UNL A   1      36.523  33.365  31.079  1.00  0.00     0.058 A 
ATOM     50  C   UNL A   1      35.222  33.442  31.609  1.00  0.00     0.135 A 
ATOM     51  C   UNL A   1      36.741  33.997  29.843  1.00  0.00     0.135 A 
ATOM     52  F   UNL A   1      34.943  32.866  32.789  1.00  0.00    -0.206 F 
ATOM     53  C   UNL A   1      34.179  34.071  30.930  1.00  0.00     0.059 A 
ATOM     54  C   UNL A   1      35.726  34.674  29.167  1.00  0.00     0.059 A 
ATOM     55  F   UNL A   1      37.958  33.973  29.278  1.00  0.00    -0.206 F 
ATOM     56  C   UNL A   1      34.441  34.685  29.706  1.00  0.00     0.060 A 
BRANCH  56  57
ATOM     57  S   UNL A   1      33.092  35.514  28.836  1.00  0.00     0.124 S 
ATOM     58  O   UNL A   1      33.816  36.498  28.041  1.00  0.00    -0.237 OA
ATOM     59  O   UNL A   1      32.482  34.416  28.093  1.00  0.00    -0.237 OA
ATOM     60  O   UNL A   1      32.277  36.053  29.921  1.00  0.00    -0.744 OA
ENDBRANCH  56  57
ENDBRANCH  24  49
BRANCH  36  61
ATOM     61  C   UNL A   1      39.985  34.361  37.029  1.00  0.00     0.058 A 
ATOM     62  C   UNL A   1      40.720  35.557  37.047  1.00  0.00     0.135 A 
ATOM     63  C   UNL A   1      39.039  34.146  38.041  1.00  0.00     0.135 A 
ATOM     64  F   UNL A   1      41.648  35.795  36.105  1.00  0.00    -0.206 F 
ATOM     65  C   UNL A   1      40.533  36.503  38.043  1.00  0.00     0.059 A 
ATOM     66  C   UNL A   1      38.814  35.093  39.030  1.00  0.00     0.059 A 
ATOM     67  F   UNL A   1      38.313  33.017  38.060  1.00  0.00    -0.206 F 
ATOM     68  C   UNL A   1      39.571  36.265  39.027  1.00  0.00     0.060 A 
BRANCH  68  69
ATOM     69  S   UNL A   1      39.300  37.530  40.283  1.00  0.00     0.124 S 
ATOM     70  O   UNL A   1      38.811  36.731  41.402  1.00  0.00    -0.237 OA
ATOM     71  O   UNL A   1      40.634  38.099  40.443  1.00  0.00    -0.237 OA
ATOM     72  O   UNL A   1      38.316  38.414  39.665  1.00  0.00    -0.744 OA
ENDBRANCH  68  69
ENDBRANCH  36  61
ENDBRANCH  10  11
ENDBRANCH   3   5
ENDBRANCH   2   3
ENDBRANCH   1   2
BRANCH   1  73
ATOM     73  C   UNL A   1      37.768  22.480  25.741  1.00  0.00     0.275 C 
BRANCH  73  74
ATOM     74  O   UNL A   1      37.276  23.598  24.992  1.00  0.00    -0.458 OA
BRANCH  74  75
ATOM     75  C   UNL A   1      36.330  23.307  24.058  1.00  0.00     0.338 C 
ATOM     76  O   UNL A   1      36.511  22.943  22.915  1.00  0.00    -0.246 OA
BRANCH  75  77
ATOM     77  C   UNL A   1      35.006  23.443  24.690  1.00  0.00     0.063 A 
ATOM     78  C   UNL A   1      34.727  24.546  25.501  1.00  0.00     0.016 A 
ATOM     79  C   UNL A   1      34.052  22.446  24.480  1.00  0.00     0.062 A 
ATOM     80  C   UNL A   1      33.470  24.654  26.096  1.00  0.00     0.005 A 
ATOM     81  C   UNL A   1      32.815  22.524  25.113  1.00  0.00     0.130 A 
ATOM     82  C   UNL A   1      32.529  23.631  25.927  1.00  0.00     0.047 A 
BRANCH  81  83
ATOM     83  O   UNL A   1      31.841  21.550  25.015  1.00  0.00    -0.438 OA
BRANCH  83  84
ATOM     84  C   UNL A   1      32.250  20.276  24.668  1.00  0.00     0.234 A 
ATOM     85  N   UNL A   1      32.629  19.470  25.691  1.00  0.00    -0.214 NA
ATOM     86  C   UNL A   1      32.318  19.877  23.340  1.00  0.00     0.087 A 
ATOM     87  C   UNL A   1      33.085  18.229  25.408  1.00  0.00     0.200 A 
ATOM     88  C   UNL A   1      32.735  18.575  23.060  1.00  0.00     0.108 A 
ATOM     89  Br  UNL A   1      31.805  21.010  21.915  1.00  0.00    -0.045 Br
ATOM     90  C   UNL A   1      33.129  17.744  24.116  1.00  0.00     0.288 A 
BRANCH  90  91
ATOM     91  N   UNL A   1      33.536  16.368  23.872  1.00  0.00     0.064 N 
ATOM     92  O   UNL A   1      33.200  15.506  24.694  1.00  0.00    -0.258 OA
ATOM     93  O   UNL A   1      34.158  16.137  22.825  1.00  0.00    -0.258 OA
ENDBRANCH  90  91
ENDBRANCH  83  84
ENDBRANCH  81  83
ENDBRANCH  75  77
ENDBRANCH  74  75
ENDBRANCH  73  74
ENDBRANCH   1  73
TORSDOF 17
ENDMDL
MODEL 2
REMARK VINA RESULT:     -11.6      2.354      3.915
REMARK SMILES O=C(OCCOC(=O)c1cccc(Oc2ncc([N+](=O)[O-])cc2Br)c1)c1ccc(-c2c3nc(c(-c4c(F)cc(S(=O)(=O)[O-])cc4F)c4ccc([nH]4)c(-c4c(F)cc(S(=O)(=O)[O-])cc4F)c4nc(c(-c5c(F)cc(S(=O)(=O)[O-])cc5F)c5ccc2[nH]5)C=C4)C=C3)cc1
REMARK SMILES IDX 4 1 3 2 2 3 1 4 26 5 27 6 91 7 28 8 90 9 29 10 30 11 31 12
REMARK SMILES IDX 84 13 32 14 89 15 83 16 85 17 33 18 88 19 82 20 81 21 34 23
REMARK SMILES IDX 68 24 47 25 67 26 48 27 51 28 66 29 86 30 49 31 50 32 65 34
REMARK SMILES IDX 87 35 52 36 35 37 36 38 45 39 37 40 38 41 44 42 46 43 39 44
REMARK SMILES IDX 40 45 41 46 42 47 43 48 69 49 70 50 79 51 71 52 72 53 78 54
REMARK SMILES IDX 80 55 73 56 74 57 75 58 76 59 77 60 53 61 54 62 63 63 55 64
REMARK SMILES IDX 56 65 62 66 64 67 57 68 58 69 59 70 60 71 61 72 5 73 6 74
REMARK SMILES IDX 7 75 8 76 9 77 10 78 25 79 11 80 13 81 12 82 14 83 15 84
REMARK SMILES IDX 16 85 23 86 17 87 22 88 24 89 18 90 19 91 20 92 21 93
REMARK H PARENT 85 22 51 33
REMARK Flexibility Score: inf
ROOT
ATOM      1  C   UNL A   1      39.137  22.714  26.455  1.00  0.00     0.275 C 
ENDROOT
BRANCH   1   2
ATOM      2  O   UNL A   1      39.443  24.108  26.285  1.00  0.00    -0.458 OA
BRANCH   2   3
ATOM      3  C   UNL A   1      40.527  24.838  26.635  1.00  0.00     0.338 C 
ATOM      4  O   UNL A   1      41.573  24.626  26.020  1.00  0.00    -0.246 OA
BRANCH   3   5
ATOM      5  C   UNL A   1      40.582  25.856  27.746  1.00  0.00     0.060 A 
ATOM      6  C   UNL A   1      41.499  26.902  27.891  1.00  0.00     0.016 A 
ATOM      7  C   UNL A   1      39.561  25.762  28.718  1.00  0.00     0.016 A 
ATOM      8  C   UNL A   1      41.395  27.825  28.939  1.00  0.00     0.010 A 
ATOM      9  C   UNL A   1      39.448  26.684  29.764  1.00  0.00     0.010 A 
ATOM     10  C   UNL A   1      40.371  27.723  29.882  1.00  0.00    -0.014 A 
BRANCH  10  11
ATOM     11  C   UNL A   1      40.305  28.692  30.999  1.00  0.00     0.031 A 
ATOM     12  C   UNL A   1      41.288  28.595  32.106  1.00  0.00     0.074 A 
ATOM     13  C   UNL A   1      39.346  29.634  31.034  1.00  0.00     0.049 A 
ATOM     14  N   UNL A   1      41.419  29.381  33.135  1.00  0.00    -0.248 NA
ATOM     15  C   UNL A   1      42.209  27.450  32.080  1.00  0.00     0.031 C 
ATOM     16  C   UNL A   1      38.278  29.695  30.060  1.00  0.00     0.029 A 
ATOM     17  N   UNL A   1      39.082  30.688  31.873  1.00  0.00    -0.354 N 
ATOM     18  C   UNL A   1      42.391  28.794  33.921  1.00  0.00     0.074 A 
ATOM     19  C   UNL A   1      42.841  27.602  33.235  1.00  0.00     0.031 C 
ATOM     20  C   UNL A   1      37.484  30.737  30.331  1.00  0.00     0.029 A 
ATOM     21  C   UNL A   1      38.019  31.466  31.460  1.00  0.00     0.049 A 
ATOM     22  H   UNL A   1      39.601  30.871  32.690  1.00  0.00     0.167 HD
ATOM     23  C   UNL A   1      42.829  29.211  35.127  1.00  0.00     0.037 A 
ATOM     24  C   UNL A   1      37.552  32.651  31.904  1.00  0.00     0.037 A 
ATOM     25  C   UNL A   1      42.342  30.393  35.790  1.00  0.00     0.049 A 
ATOM     26  C   UNL A   1      38.189  33.189  33.151  1.00  0.00     0.074 A 
ATOM     27  C   UNL A   1      42.739  30.916  37.005  1.00  0.00     0.029 A 
ATOM     28  N   UNL A   1      41.340  31.223  35.303  1.00  0.00    -0.354 N 
ATOM     29  N   UNL A   1      39.190  32.681  33.833  1.00  0.00    -0.248 NA
ATOM     30  C   UNL A   1      37.618  34.410  33.732  1.00  0.00     0.031 C 
ATOM     31  C   UNL A   1      41.944  32.034  37.277  1.00  0.00     0.029 A 
ATOM     32  C   UNL A   1      41.087  32.242  36.206  1.00  0.00     0.049 A 
ATOM     33  H   UNL A   1      40.876  31.103  34.442  1.00  0.00     0.167 HD
ATOM     34  C   UNL A   1      39.325  33.480  34.954  1.00  0.00     0.074 A 
ATOM     35  C   UNL A   1      38.375  34.567  34.809  1.00  0.00     0.031 C 
ATOM     36  C   UNL A   1      40.118  33.295  36.035  1.00  0.00     0.037 A 
BRANCH  23  37
ATOM     37  C   UNL A   1      43.832  28.347  35.818  1.00  0.00     0.058 A 
ATOM     38  C   UNL A   1      43.448  27.323  36.696  1.00  0.00     0.135 A 
ATOM     39  C   UNL A   1      45.203  28.546  35.592  1.00  0.00     0.135 A 
ATOM     40  F   UNL A   1      42.150  27.126  36.981  1.00  0.00    -0.206 F 
ATOM     41  C   UNL A   1      44.390  26.519  37.324  1.00  0.00     0.059 A 
ATOM     42  C   UNL A   1      46.162  27.737  36.188  1.00  0.00     0.059 A 
ATOM     43  F   UNL A   1      45.619  29.535  34.786  1.00  0.00    -0.206 F 
ATOM     44  C   UNL A   1      45.745  26.728  37.053  1.00  0.00     0.060 A 
BRANCH  44  45
ATOM     45  S   UNL A   1      46.949  25.631  37.827  1.00  0.00     0.124 S 
ATOM     46  O   UNL A   1      46.743  24.395  37.079  1.00  0.00    -0.237 OA
ATOM     47  O   UNL A   1      48.207  26.326  37.568  1.00  0.00    -0.237 OA
ATOM     48  O   UNL A   1      46.530  25.598  39.225  1.00  0.00    -0.744 OA
ENDBRANCH  44  45
ENDBRANCH  23  37
BRANCH  24  49
ATOM     49  C   UNL A   1      36.471  33.408  31.194  1.00  0.00     0.058 A 
ATOM     50  C   UNL A   1      35.175  33.487  31.735  1.00  0.00     0.135 A 
ATOM     51  C   UNL A   1      36.683  34.054  29.964  1.00  0.00     0.135 A 
ATOM     52  F   UNL A   1      34.902  32.898  32.911  1.00  0.00    -0.206 F 
ATOM     53  C   UNL A   1      34.131  34.132  31.074  1.00  0.00     0.059 A 
ATOM     54  C   UNL A   1      35.667  34.747  29.306  1.00  0.00     0.059 A 
ATOM     55  F   UNL A   1      37.895  34.029  29.389  1.00  0.00    -0.206 F 
ATOM     56  C   UNL A   1      34.387  34.759  29.855  1.00  0.00     0.060 A 
BRANCH  56  57
ATOM     57  S   UNL A   1      33.035  35.608  29.007  1.00  0.00     0.124 S 
ATOM     58  O   UNL A   1      33.759  36.601  28.222  1.00  0.00    -0.237 OA
ATOM     59  O   UNL A   1      32.415  34.525  28.252  1.00  0.00    -0.237 OA
ATOM     60  O   UNL A   1      32.231  36.135  30.106  1.00  0.00    -0.744 OA
ENDBRANCH  56  57
ENDBRANCH  24  49
BRANCH  36  61
ATOM     61  C   UNL A   1      39.939  34.267  37.161  1.00  0.00     0.058 A 
ATOM     62  C   UNL A   1      40.608  35.501  37.163  1.00  0.00     0.135 A 
ATOM     63  C   UNL A   1      39.057  33.987  38.215  1.00  0.00     0.135 A 
ATOM     64  F   UNL A   1      41.474  35.802  36.181  1.00  0.00    -0.206 F 
ATOM     65  C   UNL A   1      40.420  36.422  38.182  1.00  0.00     0.059 A 
ATOM     66  C   UNL A   1      38.830  34.908  39.229  1.00  0.00     0.059 A 
ATOM     67  F   UNL A   1      38.395  32.820  38.251  1.00  0.00    -0.206 F 
ATOM     68  C   UNL A   1      39.522  36.119  39.207  1.00  0.00     0.060 A 
BRANCH  68  69
ATOM     69  S   UNL A   1      39.245  37.350  40.495  1.00  0.00     0.124 S 
ATOM     70  O   UNL A   1      38.829  36.514  41.616  1.00  0.00    -0.237 OA
ATOM     71  O   UNL A   1      40.559  37.971  40.618  1.00  0.00    -0.237 OA
ATOM     72  O   UNL A   1      38.204  38.204  39.928  1.00  0.00    -0.744 OA
ENDBRANCH  68  69
ENDBRANCH  36  61
ENDBRANCH  10  11
ENDBRANCH   3   5
ENDBRANCH   2   3
ENDBRANCH   1   2
BRANCH   1  73
ATOM     73  C   UNL A   1      37.984  22.228  25.571  1.00  0.00     0.275 C 
BRANCH  73  74
ATOM     74  O   UNL A   1      36.694  22.480  26.140  1.00  0.00    -0.458 OA
BRANCH  74  75
ATOM     75  C   UNL A   1      35.891  23.316  25.427  1.00  0.00     0.338 C 
ATOM     76  O   UNL A   1      36.166  23.906  24.403  1.00  0.00    -0.246 OA
BRANCH  75  77
ATOM     77  C   UNL A   1      34.568  23.344  26.076  1.00  0.00     0.063 A 
ATOM     78  C   UNL A   1      34.278  22.454  27.112  1.00  0.00     0.016 A 
ATOM     79  C   UNL A   1      33.614  24.257  25.624  1.00  0.00     0.062 A 
ATOM     80  C   UNL A   1      33.018  22.491  27.710  1.00  0.00     0.005 A 
ATOM     81  C   UNL A   1      32.339  24.263  26.183  1.00  0.00     0.130 A 
ATOM     82  C   UNL A   1      32.043  23.371  27.226  1.00  0.00     0.047 A 
BRANCH  81  83
ATOM     83  O   UNL A   1      31.316  25.084  25.751  1.00  0.00    -0.438 OA
BRANCH  83  84
ATOM     84  C   UNL A   1      31.492  26.448  25.899  1.00  0.00     0.234 A 
ATOM     85  N   UNL A   1      31.570  26.905  27.173  1.00  0.00    -0.214 NA
ATOM     86  C   UNL A   1      31.527  27.295  24.799  1.00  0.00     0.087 A 
ATOM     87  C   UNL A   1      31.693  28.236  27.381  1.00  0.00     0.200 A 
ATOM     88  C   UNL A   1      31.712  28.659  25.020  1.00  0.00     0.108 A 
ATOM     89  Br  UNL A   1      31.400  26.654  23.024  1.00  0.00    -0.045 Br
ATOM     90  C   UNL A   1      31.791  29.132  26.336  1.00  0.00     0.288 A 
BRANCH  90  91
ATOM     91  N   UNL A   1      32.019  30.543  26.610  1.00  0.00     0.064 N 
ATOM     92  O   UNL A   1      31.298  31.372  26.041  1.00  0.00    -0.258 OA
ATOM     93  O   UNL A   1      32.898  30.826  27.437  1.00  0.00    -0.258 OA
ENDBRANCH  90  91
ENDBRANCH  83  84
ENDBRANCH  81  83
ENDBRANCH  75  77
ENDBRANCH  74  75
ENDBRANCH  73  74
ENDBRANCH   1  73
TORSDOF 17
ENDMDL
MODEL 3
REMARK VINA RESULT:     -11.6      1.942      2.896
REMARK SMILES O=C(OCCOC(=O)c1cccc(Oc2ncc([N+](=O)[O-])cc2Br)c1)c1ccc(-c2c3nc(c(-c4c(F)cc(S(=O)(=O)[O-])cc4F)c4ccc([nH]4)c(-c4c(F)cc(S(=O)(=O)[O-])cc4F)c4nc(c(-c5c(F)cc(S(=O)(=O)[O-])cc5F)c5ccc2[nH]5)C=C4)C=C3)cc1
REMARK SMILES IDX 4 1 3 2 2 3 1 4 26 5 27 6 91 7 28 8 90 9 29 10 30 11 31 12
REMARK SMILES IDX 84 13 32 14 89 15 83 16 85 17 33 18 88 19 82 20 81 21 34 23
REMARK SMILES IDX 68 24 47 25 67 26 48 27 51 28 66 29 86 30 49 31 50 32 65 34
REMARK SMILES IDX 87 35 52 36 35 37 36 38 45 39 37 40 38 41 44 42 46 43 39 44
REMARK SMILES IDX 40 45 41 46 42 47 43 48 69 49 70 50 79 51 71 52 72 53 78 54
REMARK SMILES IDX 80 55 73 56 74 57 75 58 76 59 77 60 53 61 54 62 63 63 55 64
REMARK SMILES IDX 56 65 62 66 64 67 57 68 58 69 59 70 60 71 61 72 5 73 6 74
REMARK SMILES IDX 7 75 8 76 9 77 10 78 25 79 11 80 13 81 12 82 14 83 15 84
REMARK SMILES IDX 16 85 23 86 17 87 22 88 24 89 18 90 19 91 20 92 21 93
REMARK H PARENT 85 22 51 33
REMARK Flexibility Score: inf
ROOT
ATOM      1  C   UNL A   1      43.022  23.189  25.149  1.00  0.00     0.275 C 
ENDROOT
BRANCH   1   2
ATOM      2  O   UNL A   1      43.024  24.302  26.058  1.00  0.00    -0.458 OA
BRANCH   2   3
ATOM      3  C   UNL A   1      42.306  25.448  26.075  1.00  0.00     0.338 C 
ATOM      4  O   UNL A   1      41.933  25.897  24.990  1.00  0.00    -0.246 OA
BRANCH   3   5
ATOM      5  C   UNL A   1      41.962  26.253  27.303  1.00  0.00     0.060 A 
ATOM      6  C   UNL A   1      41.073  25.902  28.323  1.00  0.00     0.016 A 
ATOM      7  C   UNL A   1      42.656  27.474  27.452  1.00  0.00     0.016 A 
ATOM      8  C   UNL A   1      40.895  26.715  29.450  1.00  0.00     0.010 A 
ATOM      9  C   UNL A   1      42.489  28.288  28.579  1.00  0.00     0.010 A 
ATOM     10  C   UNL A   1      41.601  27.912  29.586  1.00  0.00    -0.014 A 
BRANCH  10  11
ATOM     11  C   UNL A   1      41.369  28.767  30.771  1.00  0.00     0.031 A 
ATOM     12  C   UNL A   1      42.309  28.694  31.917  1.00  0.00     0.074 A 
ATOM     13  C   UNL A   1      40.301  29.581  30.831  1.00  0.00     0.049 A 
ATOM     14  N   UNL A   1      42.298  29.399  33.011  1.00  0.00    -0.248 NA
ATOM     15  C   UNL A   1      43.365  27.673  31.848  1.00  0.00     0.031 C 
ATOM     16  C   UNL A   1      39.276  29.597  29.811  1.00  0.00     0.029 A 
ATOM     17  N   UNL A   1      39.874  30.520  31.737  1.00  0.00    -0.354 N 
ATOM     18  C   UNL A   1      43.302  28.868  33.797  1.00  0.00     0.074 A 
ATOM     19  C   UNL A   1      43.924  27.801  33.043  1.00  0.00     0.031 C 
ATOM     20  C   UNL A   1      38.348  30.510  30.122  1.00  0.00     0.029 A 
ATOM     21  C   UNL A   1      38.740  31.198  31.332  1.00  0.00     0.049 A 
ATOM     22  H   UNL A   1      40.331  30.694  32.592  1.00  0.00     0.167 HD
ATOM     23  C   UNL A   1      43.634  29.230  35.053  1.00  0.00     0.037 A 
ATOM     24  C   UNL A   1      38.113  32.276  31.844  1.00  0.00     0.037 A 
ATOM     25  C   UNL A   1      42.977  30.283  35.782  1.00  0.00     0.049 A 
ATOM     26  C   UNL A   1      38.625  32.778  33.162  1.00  0.00     0.074 A 
ATOM     27  C   UNL A   1      43.255  30.744  37.054  1.00  0.00     0.029 A 
ATOM     28  N   UNL A   1      41.901  31.026  35.311  1.00  0.00    -0.354 N 
ATOM     29  N   UNL A   1      39.651  32.337  33.852  1.00  0.00    -0.248 NA
ATOM     30  C   UNL A   1      37.883  33.868  33.808  1.00  0.00     0.031 C 
ATOM     31  C   UNL A   1      42.317  31.732  37.372  1.00  0.00     0.029 A 
ATOM     32  C   UNL A   1      41.487  31.927  36.278  1.00  0.00     0.049 A 
ATOM     33  H   UNL A   1      41.493  30.926  34.420  1.00  0.00     0.167 HD
ATOM     34  C   UNL A   1      39.640  33.047  35.039  1.00  0.00     0.074 A 
ATOM     35  C   UNL A   1      38.570  34.021  34.932  1.00  0.00     0.031 C 
ATOM     36  C   UNL A   1      40.403  32.867  36.142  1.00  0.00     0.037 A 
BRANCH  23  37
ATOM     37  C   UNL A   1      44.706  28.435  35.725  1.00  0.00     0.058 A 
ATOM     38  C   UNL A   1      46.058  28.797  35.641  1.00  0.00     0.135 A 
ATOM     39  C   UNL A   1      44.370  27.294  36.470  1.00  0.00     0.135 A 
ATOM     40  F   UNL A   1      46.433  29.852  34.900  1.00  0.00    -0.206 F 
ATOM     41  C   UNL A   1      47.044  28.056  36.279  1.00  0.00     0.059 A 
ATOM     42  C   UNL A   1      45.336  26.554  37.139  1.00  0.00     0.059 A 
ATOM     43  F   UNL A   1      43.092  26.891  36.552  1.00  0.00    -0.206 F 
ATOM     44  C   UNL A   1      46.670  26.942  37.036  1.00  0.00     0.060 A 
BRANCH  44  45
ATOM     45  S   UNL A   1      47.958  26.032  37.911  1.00  0.00     0.124 S 
ATOM     46  O   UNL A   1      48.117  24.858  37.059  1.00  0.00    -0.237 OA
ATOM     47  O   UNL A   1      49.067  26.981  37.897  1.00  0.00    -0.237 OA
ATOM     48  O   UNL A   1      47.366  25.781  39.222  1.00  0.00    -0.744 OA
ENDBRANCH  44  45
ENDBRANCH  23  37
BRANCH  24  49
ATOM     49  C   UNL A   1      36.977  32.956  31.142  1.00  0.00     0.058 A 
ATOM     50  C   UNL A   1      35.649  32.748  31.554  1.00  0.00     0.135 A 
ATOM     51  C   UNL A   1      37.170  33.809  30.042  1.00  0.00     0.135 A 
ATOM     52  F   UNL A   1      35.389  31.949  32.602  1.00  0.00    -0.206 F 
ATOM     53  C   UNL A   1      34.564  33.317  30.887  1.00  0.00     0.059 A 
ATOM     54  C   UNL A   1      36.106  34.429  29.388  1.00  0.00     0.059 A 
ATOM     55  F   UNL A   1      38.410  34.063  29.594  1.00  0.00    -0.206 F 
ATOM     56  C   UNL A   1      34.804  34.157  29.801  1.00  0.00     0.060 A 
BRANCH  56  57
ATOM     57  S   UNL A   1      33.398  34.907  28.948  1.00  0.00     0.124 S 
ATOM     58  O   UNL A   1      34.003  36.107  28.384  1.00  0.00    -0.237 OA
ATOM     59  O   UNL A   1      33.027  33.868  27.992  1.00  0.00    -0.237 OA
ATOM     60  O   UNL A   1      32.435  35.128  30.023  1.00  0.00    -0.744 OA
ENDBRANCH  56  57
ENDBRANCH  24  49
BRANCH  36  61
ATOM     61  C   UNL A   1      40.058  33.710  37.331  1.00  0.00     0.058 A 
ATOM     62  C   UNL A   1      40.695  34.942  37.552  1.00  0.00     0.135 A 
ATOM     63  C   UNL A   1      39.053  33.312  38.224  1.00  0.00     0.135 A 
ATOM     64  F   UNL A   1      41.675  35.354  36.730  1.00  0.00    -0.206 F 
ATOM     65  C   UNL A   1      40.356  35.747  38.628  1.00  0.00     0.059 A 
ATOM     66  C   UNL A   1      38.676  34.116  39.290  1.00  0.00     0.059 A 
ATOM     67  F   UNL A   1      38.417  32.143  38.049  1.00  0.00    -0.206 F 
ATOM     68  C   UNL A   1      39.338  35.328  39.488  1.00  0.00     0.060 A 
BRANCH  68  69
ATOM     69  S   UNL A   1      38.870  36.412  40.851  1.00  0.00     0.124 S 
ATOM     70  O   UNL A   1      37.818  35.633  41.496  1.00  0.00    -0.237 OA
ATOM     71  O   UNL A   1      40.119  36.531  41.596  1.00  0.00    -0.237 OA
ATOM     72  O   UNL A   1      38.427  37.630  40.178  1.00  0.00    -0.744 OA
ENDBRANCH  68  69
ENDBRANCH  36  61
ENDBRANCH  10  11
ENDBRANCH   3   5
ENDBRANCH   2   3
ENDBRANCH   1   2
BRANCH   1  73
ATOM     73  C   UNL A   1      42.753  21.842  25.829  1.00  0.00     0.275 C 
BRANCH  73  74
ATOM     74  O   UNL A   1      41.454  21.313  25.537  1.00  0.00    -0.458 OA
BRANCH  74  75
ATOM     75  C   UNL A   1      40.617  21.192  26.603  1.00  0.00     0.338 C 
ATOM     76  O   UNL A   1      40.816  20.580  27.631  1.00  0.00    -0.246 OA
BRANCH  75  77
ATOM     77  C   UNL A   1      39.416  22.003  26.334  1.00  0.00     0.063 A 
ATOM     78  C   UNL A   1      39.407  23.365  26.643  1.00  0.00     0.016 A 
ATOM     79  C   UNL A   1      38.291  21.382  25.789  1.00  0.00     0.062 A 
ATOM     80  C   UNL A   1      38.258  24.114  26.387  1.00  0.00     0.005 A 
ATOM     81  C   UNL A   1      37.126  22.115  25.580  1.00  0.00     0.130 A 
ATOM     82  C   UNL A   1      37.112  23.484  25.887  1.00  0.00     0.047 A 
BRANCH  81  83
ATOM     83  O   UNL A   1      35.949  21.566  25.110  1.00  0.00    -0.438 OA
BRANCH  83  84
ATOM     84  C   UNL A   1      34.767  22.161  25.511  1.00  0.00     0.234 A 
ATOM     85  N   UNL A   1      34.337  21.855  26.760  1.00  0.00    -0.214 NA
ATOM     86  C   UNL A   1      34.043  22.979  24.653  1.00  0.00     0.087 A 
ATOM     87  C   UNL A   1      33.162  22.370  27.188  1.00  0.00     0.200 A 
ATOM     88  C   UNL A   1      32.862  23.552  25.123  1.00  0.00     0.108 A 
ATOM     89  Br  UNL A   1      34.639  23.390  22.905  1.00  0.00    -0.045 Br
ATOM     90  C   UNL A   1      32.416  23.234  26.412  1.00  0.00     0.288 A 
BRANCH  90  91
ATOM     91  N   UNL A   1      31.208  23.837  26.955  1.00  0.00     0.064 N 
ATOM     92  O   UNL A   1      31.027  25.047  26.768  1.00  0.00    -0.258 OA
ATOM     93  O   UNL A   1      30.409  23.087  27.534  1.00  0.00    -0.258 OA
ENDBRANCH  90  91
ENDBRANCH  83  84
ENDBRANCH  81  83
ENDBRANCH  75  77
ENDBRANCH  74  75
ENDBRANCH  73  74
ENDBRANCH   1  73
TORSDOF 17
ENDMDL
