MODEL 1
REMARK VINA RESULT:     -11.5      0.000      0.000
REMARK SMILES O=C(OCCOC(=O)c1cc(S(=O)(=O)N2CCCCC2)c(Cl)cc1Cl)c1ccc(-c2c3nc(c(-c4c(F)cc(S(=O)(=O)[O-])cc4F)c4ccc([nH]4)c(-c4c(F)cc(S(=O)(=O)[O-])cc4F)c4nc(c(-c5c(F)cc(S(=O)(=O)[O-])cc5F)c5ccc2[nH]5)C=C4)C=C3)cc1
REMARK SMILES IDX 4 1 3 2 2 3 1 4 26 5 27 6 91 7 28 8 90 9 29 10 30 11 31 12
REMARK SMILES IDX 84 13 32 14 89 15 83 16 85 17 33 18 88 19 82 20 81 21 34 23
REMARK SMILES IDX 68 24 47 25 67 26 48 27 51 28 66 29 86 30 49 31 50 32 65 34
REMARK SMILES IDX 87 35 52 36 35 37 36 38 45 39 37 40 38 41 44 42 46 43 39 44
REMARK SMILES IDX 40 45 41 46 42 47 43 48 69 49 70 50 79 51 71 52 72 53 78 54
REMARK SMILES IDX 80 55 73 56 74 57 75 58 76 59 77 60 53 61 54 62 63 63 55 64
REMARK SMILES IDX 56 65 62 66 64 67 57 68 58 69 59 70 60 71 61 72 5 73 6 74
REMARK SMILES IDX 7 75 8 76 9 77 10 78 24 79 11 80 23 81 25 82 21 83 22 84
REMARK SMILES IDX 12 85 13 86 14 87 15 88 16 89 20 90 17 91 19 92 18 93
REMARK H PARENT 85 22 51 33
REMARK Flexibility Score: inf
ROOT
ATOM      1  C   UNL A   1      38.762  22.701  26.069  1.00  0.00     0.275 C 
ENDROOT
BRANCH   1   2
ATOM      2  O   UNL A   1      39.609  23.207  27.116  1.00  0.00    -0.458 OA
BRANCH   2   3
ATOM      3  C   UNL A   1      40.601  24.123  26.983  1.00  0.00     0.338 C 
ATOM      4  O   UNL A   1      41.544  23.912  26.225  1.00  0.00    -0.246 OA
BRANCH   3   5
ATOM      5  C   UNL A   1      40.652  25.327  27.849  1.00  0.00     0.060 A 
ATOM      6  C   UNL A   1      41.805  26.092  28.063  1.00  0.00     0.016 A 
ATOM      7  C   UNL A   1      39.494  25.622  28.577  1.00  0.00     0.016 A 
ATOM      8  C   UNL A   1      41.773  27.205  28.915  1.00  0.00     0.010 A 
ATOM      9  C   UNL A   1      39.475  26.706  29.452  1.00  0.00     0.010 A 
ATOM     10  C   UNL A   1      40.606  27.522  29.617  1.00  0.00    -0.014 A 
BRANCH  10  11
ATOM     11  C   UNL A   1      40.576  28.605  30.634  1.00  0.00     0.031 A 
ATOM     12  C   UNL A   1      41.234  28.361  31.963  1.00  0.00     0.074 A 
ATOM     13  C   UNL A   1      39.878  29.740  30.426  1.00  0.00     0.049 A 
ATOM     14  N   UNL A   1      41.250  29.113  33.032  1.00  0.00    -0.248 NA
ATOM     15  C   UNL A   1      41.982  27.098  32.104  1.00  0.00     0.031 C 
ATOM     16  C   UNL A   1      39.145  30.076  29.204  1.00  0.00     0.029 A 
ATOM     17  N   UNL A   1      39.572  30.767  31.291  1.00  0.00    -0.354 N 
ATOM     18  C   UNL A   1      42.070  28.456  33.940  1.00  0.00     0.074 A 
ATOM     19  C   UNL A   1      42.448  27.195  33.341  1.00  0.00     0.031 C 
ATOM     20  C   UNL A   1      38.355  31.139  29.449  1.00  0.00     0.029 A 
ATOM     21  C   UNL A   1      38.554  31.572  30.829  1.00  0.00     0.049 A 
ATOM     22  H   UNL A   1      40.033  30.911  32.149  1.00  0.00     0.167 HD
ATOM     23  C   UNL A   1      42.520  28.897  35.138  1.00  0.00     0.037 A 
ATOM     24  C   UNL A   1      37.829  32.509  31.471  1.00  0.00     0.037 A 
ATOM     25  C   UNL A   1      42.109  30.131  35.746  1.00  0.00     0.049 A 
ATOM     26  C   UNL A   1      38.195  32.892  32.879  1.00  0.00     0.074 A 
ATOM     27  C   UNL A   1      42.579  30.732  36.901  1.00  0.00     0.029 A 
ATOM     28  N   UNL A   1      41.098  30.943  35.255  1.00  0.00    -0.354 N 
ATOM     29  N   UNL A   1      39.080  32.346  33.676  1.00  0.00    -0.248 NA
ATOM     30  C   UNL A   1      37.494  34.047  33.458  1.00  0.00     0.031 C 
ATOM     31  C   UNL A   1      41.830  31.895  37.122  1.00  0.00     0.029 A 
ATOM     32  C   UNL A   1      40.911  32.027  36.094  1.00  0.00     0.049 A 
ATOM     33  H   UNL A   1      40.588  30.772  34.429  1.00  0.00     0.167 HD
ATOM     34  C   UNL A   1      39.103  33.140  34.816  1.00  0.00     0.074 A 
ATOM     35  C   UNL A   1      38.098  34.166  34.634  1.00  0.00     0.031 C 
ATOM     36  C   UNL A   1      39.921  33.053  35.893  1.00  0.00     0.037 A 
BRANCH  23  37
ATOM     37  C   UNL A   1      43.569  28.067  35.817  1.00  0.00     0.058 A 
ATOM     38  C   UNL A   1      43.198  27.079  36.744  1.00  0.00     0.135 A 
ATOM     39  C   UNL A   1      44.933  28.233  35.541  1.00  0.00     0.135 A 
ATOM     40  F   UNL A   1      41.905  26.890  37.051  1.00  0.00    -0.206 F 
ATOM     41  C   UNL A   1      44.145  26.296  37.393  1.00  0.00     0.059 A 
ATOM     42  C   UNL A   1      45.899  27.449  36.168  1.00  0.00     0.059 A 
ATOM     43  F   UNL A   1      45.339  29.167  34.668  1.00  0.00    -0.206 F 
ATOM     44  C   UNL A   1      45.496  26.493  37.102  1.00  0.00     0.060 A 
BRANCH  44  45
ATOM     45  S   UNL A   1      46.714  25.468  37.953  1.00  0.00     0.124 S 
ATOM     46  O   UNL A   1      47.874  26.353  37.973  1.00  0.00    -0.237 OA
ATOM     47  O   UNL A   1      46.078  25.228  39.244  1.00  0.00    -0.237 OA
ATOM     48  O   UNL A   1      46.832  24.297  37.089  1.00  0.00    -0.744 OA
ENDBRANCH  44  45
ENDBRANCH  23  37
BRANCH  24  49
ATOM     49  C   UNL A   1      36.658  33.139  30.811  1.00  0.00     0.058 A 
ATOM     50  C   UNL A   1      36.806  34.076  29.780  1.00  0.00     0.135 A 
ATOM     51  C   UNL A   1      35.357  32.844  31.246  1.00  0.00     0.135 A 
ATOM     52  F   UNL A   1      38.032  34.404  29.345  1.00  0.00    -0.206 F 
ATOM     53  C   UNL A   1      35.705  34.715  29.215  1.00  0.00     0.059 A 
ATOM     54  C   UNL A   1      34.240  33.457  30.688  1.00  0.00     0.059 A 
ATOM     55  F   UNL A   1      35.161  31.974  32.246  1.00  0.00    -0.206 F 
ATOM     56  C   UNL A   1      34.426  34.403  29.683  1.00  0.00     0.060 A 
BRANCH  56  57
ATOM     57  S   UNL A   1      32.999  35.242  28.958  1.00  0.00     0.124 S 
ATOM     58  O   UNL A   1      32.520  34.238  28.015  1.00  0.00    -0.237 OA
ATOM     59  O   UNL A   1      32.154  35.479  30.123  1.00  0.00    -0.237 OA
ATOM     60  O   UNL A   1      33.583  36.440  28.361  1.00  0.00    -0.744 OA
ENDBRANCH  56  57
ENDBRANCH  24  49
BRANCH  36  61
ATOM     61  C   UNL A   1      39.838  34.151  36.909  1.00  0.00     0.058 A 
ATOM     62  C   UNL A   1      38.932  34.112  37.977  1.00  0.00     0.135 A 
ATOM     63  C   UNL A   1      40.722  35.239  36.830  1.00  0.00     0.135 A 
ATOM     64  F   UNL A   1      38.060  33.097  38.087  1.00  0.00    -0.206 F 
ATOM     65  C   UNL A   1      38.898  35.125  38.932  1.00  0.00     0.059 A 
ATOM     66  C   UNL A   1      40.716  36.253  37.780  1.00  0.00     0.059 A 
ATOM     67  F   UNL A   1      41.611  35.316  35.826  1.00  0.00    -0.206 F 
ATOM     68  C   UNL A   1      39.794  36.192  38.824  1.00  0.00     0.060 A 
BRANCH  68  69
ATOM     69  S   UNL A   1      39.780  37.483  40.085  1.00  0.00     0.124 S 
ATOM     70  O   UNL A   1      40.835  38.371  39.606  1.00  0.00    -0.237 OA
ATOM     71  O   UNL A   1      38.421  38.006  39.993  1.00  0.00    -0.237 OA
ATOM     72  O   UNL A   1      40.081  36.754  41.314  1.00  0.00    -0.744 OA
ENDBRANCH  68  69
ENDBRANCH  36  61
ENDBRANCH  10  11
ENDBRANCH   3   5
ENDBRANCH   2   3
ENDBRANCH   1   2
BRANCH   1  73
ATOM     73  C   UNL A   1      37.539  23.565  25.764  1.00  0.00     0.275 C 
BRANCH  73  74
ATOM     74  O   UNL A   1      36.410  22.778  25.362  1.00  0.00    -0.458 OA
BRANCH  74  75
ATOM     75  C   UNL A   1      36.211  22.686  24.022  1.00  0.00     0.339 C 
ATOM     76  O   UNL A   1      37.026  22.404  23.165  1.00  0.00    -0.246 OA
BRANCH  75  77
ATOM     77  C   UNL A   1      34.785  22.934  23.752  1.00  0.00     0.080 A 
ATOM     78  C   UNL A   1      34.405  24.111  23.099  1.00  0.00     0.040 A 
ATOM     79  C   UNL A   1      33.811  22.039  24.188  1.00  0.00     0.057 A 
ATOM     80  C   UNL A   1      33.037  24.421  22.915  1.00  0.00     0.102 A 
ATOM     81  C   UNL A   1      32.460  22.339  23.987  1.00  0.00     0.043 A 
ATOM     82  Cl  UNL A   1      34.194  20.599  25.058  1.00  0.00    -0.083 Cl
ATOM     83  C   UNL A   1      32.062  23.537  23.370  1.00  0.00     0.062 A 
ATOM     84  Cl  UNL A   1      30.365  23.815  23.322  1.00  0.00    -0.083 Cl
BRANCH  80  85
ATOM     85  S   UNL A   1      32.722  26.082  22.378  1.00  0.00     0.244 S 
ATOM     86  O   UNL A   1      34.027  26.509  21.923  1.00  0.00    -0.207 OA
ATOM     87  O   UNL A   1      31.590  25.999  21.486  1.00  0.00    -0.207 OA
BRANCH  85  88
ATOM     88  N   UNL A   1      32.303  27.056  23.702  1.00  0.00    -0.198 NA
ATOM     89  C   UNL A   1      31.892  28.441  23.396  1.00  0.00     0.102 C 
ATOM     90  C   UNL A   1      33.189  26.810  24.879  1.00  0.00     0.102 C 
ATOM     91  C   UNL A   1      31.692  29.325  24.625  1.00  0.00     0.017 C 
ATOM     92  C   UNL A   1      33.064  27.824  26.000  1.00  0.00     0.017 C 
ATOM     93  C   UNL A   1      31.752  28.577  25.943  1.00  0.00     0.003 C 
ENDBRANCH  85  88
ENDBRANCH  80  85
ENDBRANCH  75  77
ENDBRANCH  74  75
ENDBRANCH  73  74
ENDBRANCH   1  73
TORSDOF 16
ENDMDL
MODEL 2
REMARK VINA RESULT:     -11.5      2.920      3.662
REMARK SMILES O=C(OCCOC(=O)c1cc(S(=O)(=O)N2CCCCC2)c(Cl)cc1Cl)c1ccc(-c2c3nc(c(-c4c(F)cc(S(=O)(=O)[O-])cc4F)c4ccc([nH]4)c(-c4c(F)cc(S(=O)(=O)[O-])cc4F)c4nc(c(-c5c(F)cc(S(=O)(=O)[O-])cc5F)c5ccc2[nH]5)C=C4)C=C3)cc1
REMARK SMILES IDX 4 1 3 2 2 3 1 4 26 5 27 6 91 7 28 8 90 9 29 10 30 11 31 12
REMARK SMILES IDX 84 13 32 14 89 15 83 16 85 17 33 18 88 19 82 20 81 21 34 23
REMARK SMILES IDX 68 24 47 25 67 26 48 27 51 28 66 29 86 30 49 31 50 32 65 34
REMARK SMILES IDX 87 35 52 36 35 37 36 38 45 39 37 40 38 41 44 42 46 43 39 44
REMARK SMILES IDX 40 45 41 46 42 47 43 48 69 49 70 50 79 51 71 52 72 53 78 54
REMARK SMILES IDX 80 55 73 56 74 57 75 58 76 59 77 60 53 61 54 62 63 63 55 64
REMARK SMILES IDX 56 65 62 66 64 67 57 68 58 69 59 70 60 71 61 72 5 73 6 74
REMARK SMILES IDX 7 75 8 76 9 77 10 78 24 79 11 80 23 81 25 82 21 83 22 84
REMARK SMILES IDX 12 85 13 86 14 87 15 88 16 89 20 90 17 91 19 92 18 93
REMARK H PARENT 85 22 51 33
REMARK Flexibility Score: inf
ROOT
ATOM      1  C   UNL A   1      37.320  22.269  24.565  1.00  0.00     0.275 C 
ENDROOT
BRANCH   1   2
ATOM      2  O   UNL A   1      37.704  22.916  25.792  1.00  0.00    -0.458 OA
BRANCH   2   3
ATOM      3  C   UNL A   1      38.967  23.115  26.242  1.00  0.00     0.338 C 
ATOM      4  O   UNL A   1      39.764  22.181  26.291  1.00  0.00    -0.246 OA
BRANCH   3   5
ATOM      5  C   UNL A   1      39.377  24.418  26.821  1.00  0.00     0.060 A 
ATOM      6  C   UNL A   1      40.256  25.312  26.197  1.00  0.00     0.016 A 
ATOM      7  C   UNL A   1      38.938  24.690  28.120  1.00  0.00     0.016 A 
ATOM      8  C   UNL A   1      40.609  26.517  26.822  1.00  0.00     0.010 A 
ATOM      9  C   UNL A   1      39.319  25.870  28.756  1.00  0.00     0.010 A 
ATOM     10  C   UNL A   1      40.142  26.806  28.109  1.00  0.00    -0.014 A 
BRANCH  10  11
ATOM     11  C   UNL A   1      40.608  28.002  28.858  1.00  0.00     0.031 A 
ATOM     12  C   UNL A   1      41.801  27.864  29.762  1.00  0.00     0.074 A 
ATOM     13  C   UNL A   1      39.915  29.159  28.828  1.00  0.00     0.049 A 
ATOM     14  N   UNL A   1      42.324  28.735  30.583  1.00  0.00    -0.248 NA
ATOM     15  C   UNL A   1      42.504  26.568  29.729  1.00  0.00     0.031 C 
ATOM     16  C   UNL A   1      38.707  29.407  28.039  1.00  0.00     0.029 A 
ATOM     17  N   UNL A   1      40.065  30.304  29.577  1.00  0.00    -0.354 N 
ATOM     18  C   UNL A   1      43.458  28.124  31.103  1.00  0.00     0.074 A 
ATOM     19  C   UNL A   1      43.491  26.774  30.589  1.00  0.00     0.031 C 
ATOM     20  C   UNL A   1      38.141  30.554  28.459  1.00  0.00     0.029 A 
ATOM     21  C   UNL A   1      38.965  31.132  29.517  1.00  0.00     0.049 A 
ATOM     22  H   UNL A   1      40.873  30.511  30.100  1.00  0.00     0.167 HD
ATOM     23  C   UNL A   1      44.420  28.666  31.887  1.00  0.00     0.037 A 
ATOM     24  C   UNL A   1      38.638  32.197  30.274  1.00  0.00     0.037 A 
ATOM     25  C   UNL A   1      44.361  29.995  32.428  1.00  0.00     0.049 A 
ATOM     26  C   UNL A   1      39.621  32.714  31.289  1.00  0.00     0.074 A 
ATOM     27  C   UNL A   1      45.325  30.688  33.141  1.00  0.00     0.029 A 
ATOM     28  N   UNL A   1      43.255  30.825  32.338  1.00  0.00    -0.354 N 
ATOM     29  N   UNL A   1      40.764  32.195  31.666  1.00  0.00    -0.248 NA
ATOM     30  C   UNL A   1      39.291  33.986  31.949  1.00  0.00     0.031 C 
ATOM     31  C   UNL A   1      44.787  31.929  33.507  1.00  0.00     0.029 A 
ATOM     32  C   UNL A   1      43.499  32.014  33.002  1.00  0.00     0.049 A 
ATOM     33  H   UNL A   1      42.417  30.600  31.871  1.00  0.00     0.167 HD
ATOM     34  C   UNL A   1      41.327  33.115  32.541  1.00  0.00     0.074 A 
ATOM     35  C   UNL A   1      40.373  34.193  32.689  1.00  0.00     0.031 C 
ATOM     36  C   UNL A   1      42.549  33.088  33.127  1.00  0.00     0.037 A 
BRANCH  23  37
ATOM     37  C   UNL A   1      45.647  27.838  32.127  1.00  0.00     0.058 A 
ATOM     38  C   UNL A   1      46.730  27.904  31.234  1.00  0.00     0.135 A 
ATOM     39  C   UNL A   1      45.764  26.998  33.243  1.00  0.00     0.135 A 
ATOM     40  F   UNL A   1      46.662  28.684  30.144  1.00  0.00    -0.206 F 
ATOM     41  C   UNL A   1      47.880  27.148  31.426  1.00  0.00     0.059 A 
ATOM     42  C   UNL A   1      46.914  26.243  33.464  1.00  0.00     0.059 A 
ATOM     43  F   UNL A   1      44.756  26.897  34.123  1.00  0.00    -0.206 F 
ATOM     44  C   UNL A   1      47.960  26.314  32.543  1.00  0.00     0.060 A 
BRANCH  44  45
ATOM     45  S   UNL A   1      49.460  25.339  32.778  1.00  0.00     0.124 S 
ATOM     46  O   UNL A   1      50.347  26.315  33.402  1.00  0.00    -0.237 OA
ATOM     47  O   UNL A   1      49.001  24.257  33.644  1.00  0.00    -0.237 OA
ATOM     48  O   UNL A   1      49.819  24.940  31.420  1.00  0.00    -0.744 OA
ENDBRANCH  44  45
ENDBRANCH  23  37
BRANCH  24  49
ATOM     49  C   UNL A   1      37.307  32.841  30.136  1.00  0.00     0.058 A 
ATOM     50  C   UNL A   1      37.040  33.775  29.128  1.00  0.00     0.135 A 
ATOM     51  C   UNL A   1      36.287  32.561  31.058  1.00  0.00     0.135 A 
ATOM     52  F   UNL A   1      37.992  34.089  28.236  1.00  0.00    -0.206 F 
ATOM     53  C   UNL A   1      35.811  34.427  29.048  1.00  0.00     0.059 A 
ATOM     54  C   UNL A   1      35.047  33.187  30.991  1.00  0.00     0.059 A 
ATOM     55  F   UNL A   1      36.499  31.694  32.057  1.00  0.00    -0.206 F 
ATOM     56  C   UNL A   1      34.824  34.130  29.991  1.00  0.00     0.060 A 
BRANCH  56  57
ATOM     57  S   UNL A   1      33.235  34.985  29.894  1.00  0.00     0.124 S 
ATOM     58  O   UNL A   1      32.532  34.182  28.902  1.00  0.00    -0.237 OA
ATOM     59  O   UNL A   1      32.744  34.882  31.265  1.00  0.00    -0.237 OA
ATOM     60  O   UNL A   1      33.605  36.332  29.468  1.00  0.00    -0.744 OA
ENDBRANCH  56  57
ENDBRANCH  24  49
BRANCH  36  61
ATOM     61  C   UNL A   1      42.968  34.303  33.898  1.00  0.00     0.058 A 
ATOM     62  C   UNL A   1      42.843  34.383  35.291  1.00  0.00     0.135 A 
ATOM     63  C   UNL A   1      43.549  35.388  33.222  1.00  0.00     0.135 A 
ATOM     64  F   UNL A   1      42.283  33.375  35.978  1.00  0.00    -0.206 F 
ATOM     65  C   UNL A   1      43.273  35.507  35.991  1.00  0.00     0.059 A 
ATOM     66  C   UNL A   1      43.999  36.513  33.902  1.00  0.00     0.059 A 
ATOM     67  F   UNL A   1      43.692  35.355  31.887  1.00  0.00    -0.206 F 
ATOM     68  C   UNL A   1      43.850  36.567  35.287  1.00  0.00     0.060 A 
BRANCH  68  69
ATOM     69  S   UNL A   1      44.449  38.006  36.199  1.00  0.00     0.124 S 
ATOM     70  O   UNL A   1      45.865  37.688  36.348  1.00  0.00    -0.237 OA
ATOM     71  O   UNL A   1      44.139  39.109  35.295  1.00  0.00    -0.237 OA
ATOM     72  O   UNL A   1      43.663  37.975  37.429  1.00  0.00    -0.744 OA
ENDBRANCH  68  69
ENDBRANCH  36  61
ENDBRANCH  10  11
ENDBRANCH   3   5
ENDBRANCH   2   3
ENDBRANCH   1   2
BRANCH   1  73
ATOM     73  C   UNL A   1      35.818  22.280  24.281  1.00  0.00     0.275 C 
BRANCH  73  74
ATOM     74  O   UNL A   1      35.354  23.577  23.886  1.00  0.00    -0.458 OA
BRANCH  74  75
ATOM     75  C   UNL A   1      34.099  23.616  23.372  1.00  0.00     0.339 C 
ATOM     76  O   UNL A   1      33.654  22.971  22.441  1.00  0.00    -0.246 OA
BRANCH  75  77
ATOM     77  C   UNL A   1      33.301  24.555  24.178  1.00  0.00     0.080 A 
ATOM     78  C   UNL A   1      33.243  25.902  23.806  1.00  0.00     0.040 A 
ATOM     79  C   UNL A   1      32.652  24.127  25.334  1.00  0.00     0.057 A 
ATOM     80  C   UNL A   1      32.568  26.842  24.617  1.00  0.00     0.102 A 
ATOM     81  C   UNL A   1      31.967  25.058  26.123  1.00  0.00     0.043 A 
ATOM     82  Cl  UNL A   1      32.729  22.498  25.897  1.00  0.00    -0.083 Cl
ATOM     83  C   UNL A   1      31.936  26.421  25.784  1.00  0.00     0.062 A 
ATOM     84  Cl  UNL A   1      31.168  27.450  26.929  1.00  0.00    -0.083 Cl
BRANCH  80  85
ATOM     85  S   UNL A   1      32.868  28.538  24.187  1.00  0.00     0.244 S 
ATOM     86  O   UNL A   1      33.866  28.417  23.148  1.00  0.00    -0.207 OA
ATOM     87  O   UNL A   1      31.569  29.116  23.938  1.00  0.00    -0.207 OA
BRANCH  85  88
ATOM     88  N   UNL A   1      33.586  29.353  25.490  1.00  0.00    -0.198 NA
ATOM     89  C   UNL A   1      34.446  28.546  26.378  1.00  0.00     0.102 C 
ATOM     90  C   UNL A   1      32.662  30.358  26.097  1.00  0.00     0.102 C 
ATOM     91  C   UNL A   1      34.928  29.281  27.627  1.00  0.00     0.017 C 
ATOM     92  C   UNL A   1      33.118  30.929  27.426  1.00  0.00     0.017 C 
ATOM     93  C   UNL A   1      34.609  30.764  27.635  1.00  0.00     0.003 C 
ENDBRANCH  85  88
ENDBRANCH  80  85
ENDBRANCH  75  77
ENDBRANCH  74  75
ENDBRANCH  73  74
ENDBRANCH   1  73
TORSDOF 16
ENDMDL
MODEL 3
REMARK VINA RESULT:     -11.5      3.367      9.546
REMARK SMILES O=C(OCCOC(=O)c1cc(S(=O)(=O)N2CCCCC2)c(Cl)cc1Cl)c1ccc(-c2c3nc(c(-c4c(F)cc(S(=O)(=O)[O-])cc4F)c4ccc([nH]4)c(-c4c(F)cc(S(=O)(=O)[O-])cc4F)c4nc(c(-c5c(F)cc(S(=O)(=O)[O-])cc5F)c5ccc2[nH]5)C=C4)C=C3)cc1
REMARK SMILES IDX 4 1 3 2 2 3 1 4 26 5 27 6 91 7 28 8 90 9 29 10 30 11 31 12
REMARK SMILES IDX 84 13 32 14 89 15 83 16 85 17 33 18 88 19 82 20 81 21 34 23
REMARK SMILES IDX 68 24 47 25 67 26 48 27 51 28 66 29 86 30 49 31 50 32 65 34
REMARK SMILES IDX 87 35 52 36 35 37 36 38 45 39 37 40 38 41 44 42 46 43 39 44
REMARK SMILES IDX 40 45 41 46 42 47 43 48 69 49 70 50 79 51 71 52 72 53 78 54
REMARK SMILES IDX 80 55 73 56 74 57 75 58 76 59 77 60 53 61 54 62 63 63 55 64
REMARK SMILES IDX 56 65 62 66 64 67 57 68 58 69 59 70 60 71 61 72 5 73 6 74
REMARK SMILES IDX 7 75 8 76 9 77 10 78 24 79 11 80 23 81 25 82 21 83 22 84
REMARK SMILES IDX 12 85 13 86 14 87 15 88 16 89 20 90 17 91 19 92 18 93
REMARK H PARENT 85 22 51 33
REMARK Flexibility Score: inf
ROOT
ATOM      1  C   UNL A   1      32.735  29.646  25.431  1.00  0.00     0.275 C 
ENDROOT
BRANCH   1   2
ATOM      2  O   UNL A   1      33.852  29.417  26.309  1.00  0.00    -0.458 OA
BRANCH   2   3
ATOM      3  C   UNL A   1      34.340  30.274  27.239  1.00  0.00     0.338 C 
ATOM      4  O   UNL A   1      33.759  31.330  27.477  1.00  0.00    -0.246 OA
BRANCH   3   5
ATOM      5  C   UNL A   1      35.655  30.035  27.885  1.00  0.00     0.060 A 
ATOM      6  C   UNL A   1      36.880  30.067  27.207  1.00  0.00     0.016 A 
ATOM      7  C   UNL A   1      35.629  29.641  29.226  1.00  0.00     0.016 A 
ATOM      8  C   UNL A   1      38.078  29.809  27.888  1.00  0.00     0.010 A 
ATOM      9  C   UNL A   1      36.818  29.349  29.893  1.00  0.00     0.010 A 
ATOM     10  C   UNL A   1      38.057  29.449  29.239  1.00  0.00    -0.014 A 
BRANCH  10  11
ATOM     11  C   UNL A   1      39.290  29.031  29.955  1.00  0.00     0.031 A 
ATOM     12  C   UNL A   1      39.876  29.961  30.980  1.00  0.00     0.074 A 
ATOM     13  C   UNL A   1      39.944  27.900  29.619  1.00  0.00     0.049 A 
ATOM     14  N   UNL A   1      40.990  29.857  31.654  1.00  0.00    -0.248 NA
ATOM     15  C   UNL A   1      39.094  31.171  31.293  1.00  0.00     0.031 C 
ATOM     16  C   UNL A   1      39.515  26.940  28.600  1.00  0.00     0.029 A 
ATOM     17  N   UNL A   1      41.176  27.434  30.018  1.00  0.00    -0.354 N 
ATOM     18  C   UNL A   1      41.006  30.940  32.523  1.00  0.00     0.074 A 
ATOM     19  C   UNL A   1      39.845  31.747  32.220  1.00  0.00     0.031 C 
ATOM     20  C   UNL A   1      40.531  26.094  28.344  1.00  0.00     0.029 A 
ATOM     21  C   UNL A   1      41.662  26.435  29.203  1.00  0.00     0.049 A 
ATOM     22  H   UNL A   1      41.659  27.777  30.804  1.00  0.00     0.167 HD
ATOM     23  C   UNL A   1      41.875  31.200  33.527  1.00  0.00     0.037 A 
ATOM     24  C   UNL A   1      42.897  25.903  29.123  1.00  0.00     0.037 A 
ATOM     25  C   UNL A   1      43.049  30.417  33.796  1.00  0.00     0.049 A 
ATOM     26  C   UNL A   1      43.945  26.313  30.121  1.00  0.00     0.074 A 
ATOM     27  C   UNL A   1      43.940  30.520  34.850  1.00  0.00     0.029 A 
ATOM     28  N   UNL A   1      43.511  29.399  32.978  1.00  0.00    -0.354 N 
ATOM     29  N   UNL A   1      43.888  27.249  31.036  1.00  0.00    -0.248 NA
ATOM     30  C   UNL A   1      45.210  25.563  30.104  1.00  0.00     0.031 C 
ATOM     31  C   UNL A   1      44.959  29.578  34.651  1.00  0.00     0.029 A 
ATOM     32  C   UNL A   1      44.687  28.879  33.487  1.00  0.00     0.049 A 
ATOM     33  H   UNL A   1      43.067  29.091  32.154  1.00  0.00     0.167 HD
ATOM     34  C   UNL A   1      45.072  27.145  31.758  1.00  0.00     0.074 A 
ATOM     35  C   UNL A   1      45.854  26.099  31.134  1.00  0.00     0.031 C 
ATOM     36  C   UNL A   1      45.448  27.824  32.868  1.00  0.00     0.037 A 
BRANCH  23  37
ATOM     37  C   UNL A   1      41.531  32.332  34.449  1.00  0.00     0.058 A 
ATOM     38  C   UNL A   1      41.948  33.640  34.150  1.00  0.00     0.135 A 
ATOM     39  C   UNL A   1      40.775  32.132  35.612  1.00  0.00     0.135 A 
ATOM     40  F   UNL A   1      42.684  33.881  33.053  1.00  0.00    -0.206 F 
ATOM     41  C   UNL A   1      41.647  34.709  34.984  1.00  0.00     0.059 A 
ATOM     42  C   UNL A   1      40.449  33.192  36.456  1.00  0.00     0.059 A 
ATOM     43  F   UNL A   1      40.357  30.901  35.945  1.00  0.00    -0.206 F 
ATOM     44  C   UNL A   1      40.901  34.474  36.140  1.00  0.00     0.060 A 
BRANCH  44  45
ATOM     45  S   UNL A   1      40.520  35.873  37.213  1.00  0.00     0.124 S 
ATOM     46  O   UNL A   1      39.628  35.256  38.190  1.00  0.00    -0.237 OA
ATOM     47  O   UNL A   1      41.836  36.257  37.712  1.00  0.00    -0.237 OA
ATOM     48  O   UNL A   1      39.892  36.832  36.308  1.00  0.00    -0.744 OA
ENDBRANCH  44  45
ENDBRANCH  23  37
BRANCH  24  49
ATOM     49  C   UNL A   1      43.236  24.943  28.042  1.00  0.00     0.058 A 
ATOM     50  C   UNL A   1      43.005  23.568  28.176  1.00  0.00     0.135 A 
ATOM     51  C   UNL A   1      43.853  25.393  26.865  1.00  0.00     0.135 A 
ATOM     52  F   UNL A   1      42.436  23.090  29.292  1.00  0.00    -0.206 F 
ATOM     53  C   UNL A   1      43.392  22.667  27.186  1.00  0.00     0.059 A 
ATOM     54  C   UNL A   1      44.235  24.515  25.856  1.00  0.00     0.059 A 
ATOM     55  F   UNL A   1      44.120  26.695  26.698  1.00  0.00    -0.206 F 
ATOM     56  C   UNL A   1      44.013  23.151  26.033  1.00  0.00     0.060 A 
BRANCH  56  57
ATOM     57  S   UNL A   1      44.525  21.981  24.756  1.00  0.00     0.124 S 
ATOM     58  O   UNL A   1      45.932  21.786  25.086  1.00  0.00    -0.237 OA
ATOM     59  O   UNL A   1      43.647  20.843  25.008  1.00  0.00    -0.237 OA
ATOM     60  O   UNL A   1      44.263  22.703  23.514  1.00  0.00    -0.744 OA
ENDBRANCH  56  57
ENDBRANCH  24  49
BRANCH  36  61
ATOM     61  C   UNL A   1      46.714  27.389  33.543  1.00  0.00     0.058 A 
ATOM     62  C   UNL A   1      46.739  26.350  34.482  1.00  0.00     0.135 A 
ATOM     63  C   UNL A   1      47.930  28.002  33.201  1.00  0.00     0.135 A 
ATOM     64  F   UNL A   1      45.599  25.742  34.849  1.00  0.00    -0.206 F 
ATOM     65  C   UNL A   1      47.932  25.936  35.069  1.00  0.00     0.059 A 
ATOM     66  C   UNL A   1      49.134  27.595  33.763  1.00  0.00     0.059 A 
ATOM     67  F   UNL A   1      47.954  29.000  32.302  1.00  0.00    -0.206 F 
ATOM     68  C   UNL A   1      49.124  26.566  34.703  1.00  0.00     0.060 A 
BRANCH  68  69
ATOM     69  S   UNL A   1      50.677  26.001  35.431  1.00  0.00     0.124 S 
ATOM     70  O   UNL A   1      50.211  24.957  36.338  1.00  0.00    -0.237 OA
ATOM     71  O   UNL A   1      51.426  25.540  34.266  1.00  0.00    -0.237 OA
ATOM     72  O   UNL A   1      51.204  27.203  36.070  1.00  0.00    -0.744 OA
ENDBRANCH  68  69
ENDBRANCH  36  61
ENDBRANCH  10  11
ENDBRANCH   3   5
ENDBRANCH   2   3
ENDBRANCH   1   2
BRANCH   1  73
ATOM     73  C   UNL A   1      32.922  29.117  24.009  1.00  0.00     0.275 C 
BRANCH  73  74
ATOM     74  O   UNL A   1      33.687  27.906  23.982  1.00  0.00    -0.458 OA
BRANCH  74  75
ATOM     75  C   UNL A   1      32.999  26.789  23.633  1.00  0.00     0.339 C 
ATOM     76  O   UNL A   1      32.199  26.660  22.725  1.00  0.00    -0.246 OA
BRANCH  75  77
ATOM     77  C   UNL A   1      33.423  25.692  24.518  1.00  0.00     0.080 A 
ATOM     78  C   UNL A   1      34.486  24.869  24.130  1.00  0.00     0.040 A 
ATOM     79  C   UNL A   1      32.742  25.431  25.705  1.00  0.00     0.057 A 
ATOM     80  C   UNL A   1      34.848  23.748  24.912  1.00  0.00     0.102 A 
ATOM     81  C   UNL A   1      33.118  24.333  26.487  1.00  0.00     0.043 A 
ATOM     82  Cl  UNL A   1      31.381  26.357  26.220  1.00  0.00    -0.083 Cl
ATOM     83  C   UNL A   1      34.155  23.474  26.089  1.00  0.00     0.062 A 
ATOM     84  Cl  UNL A   1      34.400  22.097  27.090  1.00  0.00    -0.083 Cl
BRANCH  80  85
ATOM     85  S   UNL A   1      35.979  22.631  24.123  1.00  0.00     0.244 S 
ATOM     86  O   UNL A   1      35.369  21.346  24.382  1.00  0.00    -0.207 OA
ATOM     87  O   UNL A   1      36.159  23.136  22.782  1.00  0.00    -0.207 OA
BRANCH  85  88
ATOM     88  N   UNL A   1      37.476  22.653  24.919  1.00  0.00    -0.198 NA
ATOM     89  C   UNL A   1      38.041  21.342  25.294  1.00  0.00     0.102 C 
ATOM     90  C   UNL A   1      37.576  23.786  25.888  1.00  0.00     0.102 C 
ATOM     91  C   UNL A   1      39.299  21.421  26.157  1.00  0.00     0.017 C 
ATOM     92  C   UNL A   1      38.759  23.719  26.835  1.00  0.00     0.017 C 
ATOM     93  C   UNL A   1      39.860  22.822  26.308  1.00  0.00     0.003 C 
ENDBRANCH  85  88
ENDBRANCH  80  85
ENDBRANCH  75  77
ENDBRANCH  74  75
ENDBRANCH  73  74
ENDBRANCH   1  73
TORSDOF 16
ENDMDL
