MODEL 1
REMARK VINA RESULT:     -12.8      0.000      0.000
REMARK SMILES Cc1cccc(NC(=O)[C@H]2C=C[C@@H]([NH3+])C2)c1C(=O)OCCOC(=O)c1ccc(-c2c3nc(c(-c4c(F)cc(S(=O)(=O)[O-])cc4F)c4ccc([nH]4)c(-c4c(F)cc(S(=O)(=O)[O-])cc4F)c4nc(c(-c5c(F)cc(S(=O)(=O)[O-])cc5F)c5ccc2[nH]5)C=C4)C=C3)cc1
REMARK SMILES IDX 20 1 19 2 17 3 18 4 16 5 1 6 2 7 3 8 4 9 6 10 5 11 7 12 8 13
REMARK SMILES IDX 9 15 10 16 11 17 15 18 12 19 13 20 14 21 21 25 22 26 23 27
REMARK SMILES IDX 24 28 25 29 26 30 90 31 27 32 89 33 28 34 29 35 30 36 83 37
REMARK SMILES IDX 31 38 88 39 82 40 84 41 32 42 87 43 81 44 80 45 33 47 67 48
REMARK SMILES IDX 46 49 66 50 47 51 50 52 65 53 85 54 48 55 49 56 64 58 86 59
REMARK SMILES IDX 51 60 34 61 35 62 44 63 36 64 37 65 43 66 45 67 38 68 39 69
REMARK SMILES IDX 40 70 41 71 42 72 68 73 69 74 78 75 70 76 71 77 77 78 79 79
REMARK SMILES IDX 72 80 73 81 74 82 75 83 76 84 52 85 53 86 62 87 54 88 55 89
REMARK SMILES IDX 61 90 63 91 56 92 57 93 58 94 59 95 60 96
REMARK H PARENT 7 14 14 22 14 23 14 24 84 46 50 57
REMARK Flexibility Score: inf
ROOT
ATOM      1  C   UNL A   1      33.374  27.948  26.226  1.00  0.00     0.275 C 
ENDROOT
BRANCH   1   2
ATOM      2  O   UNL A   1      34.052  26.701  26.523  1.00  0.00    -0.458 OA
BRANCH   2   3
ATOM      3  C   UNL A   1      34.135  25.822  25.482  1.00  0.00     0.340 C 
ATOM      4  O   UNL A   1      34.060  26.098  24.301  1.00  0.00    -0.246 OA
BRANCH   3   5
ATOM      5  C   UNL A   1      33.883  24.438  25.933  1.00  0.00     0.086 A 
ATOM      6  C   UNL A   1      36.430  24.134  25.618  1.00  0.00     0.045 C 
ATOM      7  C   UNL A   1      35.054  23.635  25.991  1.00  0.00    -0.034 A 
ATOM      8  C   UNL A   1      34.969  22.341  26.513  1.00  0.00     0.004 A 
ATOM      9  C   UNL A   1      33.738  21.819  26.878  1.00  0.00     0.002 A 
ATOM     10  C   UNL A   1      32.657  23.955  26.460  1.00  0.00     0.056 A 
ATOM     11  C   UNL A   1      32.596  22.613  26.796  1.00  0.00     0.027 A 
BRANCH  10  12
ATOM     12  N   UNL A   1      31.539  24.773  26.709  1.00  0.00    -0.325 N 
ATOM     13  C   UNL A   1      30.547  25.317  25.950  1.00  0.00     0.231 C 
ATOM     14  H   UNL A   1      31.454  25.009  27.661  1.00  0.00     0.169 HD
ATOM     15  O   UNL A   1      29.637  25.849  26.606  1.00  0.00    -0.274 OA
BRANCH  13  16
ATOM     16  C   UNL A   1      30.335  25.426  24.429  1.00  0.00     0.107 C 
ATOM     17  C   UNL A   1      30.453  26.855  23.980  1.00  0.00    -0.012 C 
ATOM     18  C   UNL A   1      31.015  24.617  23.325  1.00  0.00     0.087 C 
ATOM     19  C   UNL A   1      31.009  26.958  22.772  1.00  0.00     0.033 C 
ATOM     20  C   UNL A   1      31.373  25.626  22.205  1.00  0.00     0.205 C 
BRANCH  20  21
ATOM     21  N   UNL A   1      32.776  25.613  21.814  1.00  0.00    -0.352 N 
ATOM     22  H   UNL A   1      33.061  26.553  21.540  1.00  0.00     0.345 HD
ATOM     23  H   UNL A   1      32.904  24.977  21.028  1.00  0.00     0.345 HD
ATOM     24  H   UNL A   1      33.345  25.301  22.601  1.00  0.00     0.345 HD
ENDBRANCH  20  21
ENDBRANCH  13  16
ENDBRANCH  10  12
ENDBRANCH   3   5
ENDBRANCH   2   3
ENDBRANCH   1   2
BRANCH   1  25
ATOM     25  C   UNL A   1      34.186  29.200  26.625  1.00  0.00     0.275 C 
BRANCH  25  26
ATOM     26  O   UNL A   1      34.895  29.149  27.879  1.00  0.00    -0.458 OA
BRANCH  26  27
ATOM     27  C   UNL A   1      35.519  30.302  28.230  1.00  0.00     0.338 C 
ATOM     28  O   UNL A   1      34.921  31.318  28.563  1.00  0.00    -0.246 OA
BRANCH  27  29
ATOM     29  C   UNL A   1      36.925  29.943  28.570  1.00  0.00     0.060 A 
ATOM     30  C   UNL A   1      37.144  29.072  29.641  1.00  0.00     0.016 A 
ATOM     31  C   UNL A   1      37.925  30.144  27.611  1.00  0.00     0.016 A 
ATOM     32  C   UNL A   1      38.276  28.267  29.669  1.00  0.00     0.010 A 
ATOM     33  C   UNL A   1      39.018  29.307  27.597  1.00  0.00     0.010 A 
ATOM     34  C   UNL A   1      39.179  28.352  28.609  1.00  0.00    -0.014 A 
BRANCH  34  35
ATOM     35  C   UNL A   1      40.489  27.727  28.651  1.00  0.00     0.031 A 
ATOM     36  C   UNL A   1      40.737  26.317  28.282  1.00  0.00     0.074 A 
ATOM     37  C   UNL A   1      41.442  28.602  29.037  1.00  0.00     0.049 A 
ATOM     38  N   UNL A   1      41.782  25.653  28.641  1.00  0.00    -0.248 NA
ATOM     39  C   UNL A   1      39.807  25.506  27.501  1.00  0.00     0.031 C 
ATOM     40  C   UNL A   1      42.882  28.461  29.056  1.00  0.00     0.029 A 
ATOM     41  N   UNL A   1      41.206  29.791  29.750  1.00  0.00    -0.354 N 
ATOM     42  C   UNL A   1      41.804  24.456  27.944  1.00  0.00     0.074 A 
ATOM     43  C   UNL A   1      40.506  24.375  27.324  1.00  0.00     0.031 C 
ATOM     44  C   UNL A   1      43.359  29.284  30.011  1.00  0.00     0.029 A 
ATOM     45  C   UNL A   1      42.207  29.853  30.709  1.00  0.00     0.049 A 
ATOM     46  H   UNL A   1      40.483  30.442  29.599  1.00  0.00     0.167 HD
ATOM     47  C   UNL A   1      42.985  23.767  27.869  1.00  0.00     0.037 A 
ATOM     48  C   UNL A   1      41.923  29.722  32.039  1.00  0.00     0.037 A 
ATOM     49  C   UNL A   1      43.967  24.404  28.745  1.00  0.00     0.049 A 
ATOM     50  C   UNL A   1      42.672  28.539  32.599  1.00  0.00     0.074 A 
ATOM     51  C   UNL A   1      44.904  25.393  28.496  1.00  0.00     0.029 A 
ATOM     52  N   UNL A   1      43.799  24.349  30.125  1.00  0.00    -0.354 N 
ATOM     53  N   UNL A   1      42.934  27.448  31.927  1.00  0.00    -0.248 NA
ATOM     54  C   UNL A   1      43.285  28.561  33.920  1.00  0.00     0.031 C 
ATOM     55  C   UNL A   1      45.192  26.030  29.728  1.00  0.00     0.029 A 
ATOM     56  C   UNL A   1      44.467  25.399  30.726  1.00  0.00     0.049 A 
ATOM     57  H   UNL A   1      43.281  23.661  30.603  1.00  0.00     0.167 HD
ATOM     58  C   UNL A   1      43.825  26.693  32.648  1.00  0.00     0.074 A 
ATOM     59  C   UNL A   1      43.982  27.414  33.902  1.00  0.00     0.031 C 
ATOM     60  C   UNL A   1      44.446  25.575  32.167  1.00  0.00     0.037 A 
BRANCH  47  61
ATOM     61  C   UNL A   1      43.371  22.756  26.793  1.00  0.00     0.058 A 
ATOM     62  C   UNL A   1      42.844  21.440  26.835  1.00  0.00     0.135 A 
ATOM     63  C   UNL A   1      44.299  22.968  25.754  1.00  0.00     0.135 A 
ATOM     64  F   UNL A   1      41.883  21.097  27.705  1.00  0.00    -0.206 F 
ATOM     65  C   UNL A   1      43.282  20.404  26.004  1.00  0.00     0.059 A 
ATOM     66  C   UNL A   1      44.773  21.939  24.923  1.00  0.00     0.059 A 
ATOM     67  F   UNL A   1      44.762  24.190  25.470  1.00  0.00    -0.206 F 
ATOM     68  C   UNL A   1      44.275  20.652  25.071  1.00  0.00     0.060 A 
BRANCH  68  69
ATOM     69  S   UNL A   1      44.880  19.285  24.059  1.00  0.00     0.124 S 
ATOM     70  O   UNL A   1      46.326  19.393  24.232  1.00  0.00    -0.237 OA
ATOM     71  O   UNL A   1      44.251  18.129  24.691  1.00  0.00    -0.237 OA
ATOM     72  O   UNL A   1      44.390  19.606  22.723  1.00  0.00    -0.744 OA
ENDBRANCH  68  69
ENDBRANCH  47  61
BRANCH  48  73
ATOM     73  C   UNL A   1      40.584  30.228  32.490  1.00  0.00     0.058 A 
ATOM     74  C   UNL A   1      40.358  31.620  32.442  1.00  0.00     0.135 A 
ATOM     75  C   UNL A   1      39.451  29.423  32.684  1.00  0.00     0.135 A 
ATOM     76  F   UNL A   1      41.392  32.461  32.284  1.00  0.00    -0.206 F 
ATOM     77  C   UNL A   1      39.080  32.175  32.450  1.00  0.00     0.059 A 
ATOM     78  C   UNL A   1      38.151  29.966  32.713  1.00  0.00     0.059 A 
ATOM     79  F   UNL A   1      39.577  28.089  32.745  1.00  0.00    -0.206 F 
ATOM     80  C   UNL A   1      37.971  31.342  32.547  1.00  0.00     0.060 A 
BRANCH  80  81
ATOM     81  S   UNL A   1      36.333  32.095  32.275  1.00  0.00     0.124 S 
ATOM     82  O   UNL A   1      36.620  33.077  31.236  1.00  0.00    -0.237 OA
ATOM     83  O   UNL A   1      35.530  30.947  31.853  1.00  0.00    -0.237 OA
ATOM     84  O   UNL A   1      35.966  32.623  33.577  1.00  0.00    -0.744 OA
ENDBRANCH  80  81
ENDBRANCH  48  73
BRANCH  60  85
ATOM     85  C   UNL A   1      45.234  24.609  33.012  1.00  0.00     0.058 A 
ATOM     86  C   UNL A   1      46.520  24.895  33.496  1.00  0.00     0.135 A 
ATOM     87  C   UNL A   1      44.645  23.416  33.491  1.00  0.00     0.135 A 
ATOM     88  F   UNL A   1      47.130  26.055  33.209  1.00  0.00    -0.206 F 
ATOM     89  C   UNL A   1      47.214  24.017  34.325  1.00  0.00     0.059 A 
ATOM     90  C   UNL A   1      45.294  22.555  34.368  1.00  0.00     0.059 A 
ATOM     91  F   UNL A   1      43.405  23.048  33.133  1.00  0.00    -0.206 F 
ATOM     92  C   UNL A   1      46.594  22.848  34.752  1.00  0.00     0.060 A 
BRANCH  92  93
ATOM     93  S   UNL A   1      47.466  21.720  35.851  1.00  0.00     0.124 S 
ATOM     94  O   UNL A   1      48.595  22.544  36.270  1.00  0.00    -0.237 OA
ATOM     95  O   UNL A   1      46.473  21.439  36.884  1.00  0.00    -0.237 OA
ATOM     96  O   UNL A   1      47.790  20.594  34.980  1.00  0.00    -0.744 OA
ENDBRANCH  92  93
ENDBRANCH  60  85
ENDBRANCH  34  35
ENDBRANCH  27  29
ENDBRANCH  26  27
ENDBRANCH  25  26
ENDBRANCH   1  25
TORSDOF 17
ENDMDL
MODEL 2
REMARK VINA RESULT:     -12.6      1.134      2.678
REMARK SMILES Cc1cccc(NC(=O)[C@H]2C=C[C@@H]([NH3+])C2)c1C(=O)OCCOC(=O)c1ccc(-c2c3nc(c(-c4c(F)cc(S(=O)(=O)[O-])cc4F)c4ccc([nH]4)c(-c4c(F)cc(S(=O)(=O)[O-])cc4F)c4nc(c(-c5c(F)cc(S(=O)(=O)[O-])cc5F)c5ccc2[nH]5)C=C4)C=C3)cc1
REMARK SMILES IDX 20 1 19 2 17 3 18 4 16 5 1 6 2 7 3 8 4 9 6 10 5 11 7 12 8 13
REMARK SMILES IDX 9 15 10 16 11 17 15 18 12 19 13 20 14 21 21 25 22 26 23 27
REMARK SMILES IDX 24 28 25 29 26 30 90 31 27 32 89 33 28 34 29 35 30 36 83 37
REMARK SMILES IDX 31 38 88 39 82 40 84 41 32 42 87 43 81 44 80 45 33 47 67 48
REMARK SMILES IDX 46 49 66 50 47 51 50 52 65 53 85 54 48 55 49 56 64 58 86 59
REMARK SMILES IDX 51 60 34 61 35 62 44 63 36 64 37 65 43 66 45 67 38 68 39 69
REMARK SMILES IDX 40 70 41 71 42 72 68 73 69 74 78 75 70 76 71 77 77 78 79 79
REMARK SMILES IDX 72 80 73 81 74 82 75 83 76 84 52 85 53 86 62 87 54 88 55 89
REMARK SMILES IDX 61 90 63 91 56 92 57 93 58 94 59 95 60 96
REMARK H PARENT 7 14 14 22 14 23 14 24 84 46 50 57
REMARK Flexibility Score: inf
ROOT
ATOM      1  C   UNL A   1      33.272  28.371  26.590  1.00  0.00     0.275 C 
ENDROOT
BRANCH   1   2
ATOM      2  O   UNL A   1      33.349  26.959  26.272  1.00  0.00    -0.458 OA
BRANCH   2   3
ATOM      3  C   UNL A   1      32.196  26.407  25.792  1.00  0.00     0.340 C 
ATOM      4  O   UNL A   1      31.320  25.886  26.455  1.00  0.00    -0.246 OA
BRANCH   3   5
ATOM      5  C   UNL A   1      32.310  26.104  24.352  1.00  0.00     0.086 A 
ATOM      6  C   UNL A   1      30.294  27.702  24.108  1.00  0.00     0.045 C 
ATOM      7  C   UNL A   1      31.346  26.774  23.550  1.00  0.00    -0.034 A 
ATOM      8  C   UNL A   1      31.421  26.663  22.158  1.00  0.00     0.004 A 
ATOM      9  C   UNL A   1      32.364  25.830  21.578  1.00  0.00     0.002 A 
ATOM     10  C   UNL A   1      33.372  25.385  23.743  1.00  0.00     0.056 A 
ATOM     11  C   UNL A   1      33.288  25.164  22.379  1.00  0.00     0.027 A 
BRANCH  10  12
ATOM     12  N   UNL A   1      34.514  24.946  24.438  1.00  0.00    -0.325 N 
ATOM     13  C   UNL A   1      35.169  23.759  24.578  1.00  0.00     0.231 C 
ATOM     14  H   UNL A   1      34.944  25.671  24.946  1.00  0.00     0.169 HD
ATOM     15  O   UNL A   1      36.262  23.845  25.159  1.00  0.00    -0.274 OA
BRANCH  13  16
ATOM     16  C   UNL A   1      34.812  22.316  24.176  1.00  0.00     0.107 C 
ATOM     17  C   UNL A   1      35.876  21.361  24.635  1.00  0.00    -0.012 C 
ATOM     18  C   UNL A   1      33.497  21.572  24.411  1.00  0.00     0.087 C 
ATOM     19  C   UNL A   1      35.370  20.183  25.004  1.00  0.00     0.033 C 
ATOM     20  C   UNL A   1      33.884  20.144  24.871  1.00  0.00     0.205 C 
BRANCH  20  21
ATOM     21  N   UNL A   1      33.278  19.737  26.131  1.00  0.00    -0.352 N 
ATOM     22  H   UNL A   1      32.286  19.977  26.124  1.00  0.00     0.345 HD
ATOM     23  H   UNL A   1      33.738  20.221  26.902  1.00  0.00     0.345 HD
ATOM     24  H   UNL A   1      33.383  18.730  26.250  1.00  0.00     0.345 HD
ENDBRANCH  20  21
ENDBRANCH  13  16
ENDBRANCH  10  12
ENDBRANCH   3   5
ENDBRANCH   2   3
ENDBRANCH   1   2
BRANCH   1  25
ATOM     25  C   UNL A   1      34.651  29.019  26.849  1.00  0.00     0.275 C 
BRANCH  25  26
ATOM     26  O   UNL A   1      35.001  29.289  28.220  1.00  0.00    -0.458 OA
BRANCH  26  27
ATOM     27  C   UNL A   1      35.722  30.423  28.413  1.00  0.00     0.338 C 
ATOM     28  O   UNL A   1      35.213  31.518  28.620  1.00  0.00    -0.246 OA
BRANCH  27  29
ATOM     29  C   UNL A   1      37.102  29.996  28.780  1.00  0.00     0.060 A 
ATOM     30  C   UNL A   1      37.254  29.063  29.809  1.00  0.00     0.016 A 
ATOM     31  C   UNL A   1      38.142  30.212  27.868  1.00  0.00     0.016 A 
ATOM     32  C   UNL A   1      38.357  28.218  29.832  1.00  0.00     0.010 A 
ATOM     33  C   UNL A   1      39.205  29.339  27.845  1.00  0.00     0.010 A 
ATOM     34  C   UNL A   1      39.299  28.327  28.809  1.00  0.00    -0.014 A 
BRANCH  34  35
ATOM     35  C   UNL A   1      40.584  27.655  28.861  1.00  0.00     0.031 A 
ATOM     36  C   UNL A   1      40.792  26.248  28.455  1.00  0.00     0.074 A 
ATOM     37  C   UNL A   1      41.559  28.483  29.295  1.00  0.00     0.049 A 
ATOM     38  N   UNL A   1      41.804  25.537  28.817  1.00  0.00    -0.248 NA
ATOM     39  C   UNL A   1      39.852  25.494  27.629  1.00  0.00     0.031 C 
ATOM     40  C   UNL A   1      42.991  28.290  29.342  1.00  0.00     0.029 A 
ATOM     41  N   UNL A   1      41.348  29.658  30.038  1.00  0.00    -0.354 N 
ATOM     42  C   UNL A   1      41.800  24.361  28.084  1.00  0.00     0.074 A 
ATOM     43  C   UNL A   1      40.515  24.345  27.434  1.00  0.00     0.031 C 
ATOM     44  C   UNL A   1      43.475  29.067  30.332  1.00  0.00     0.029 A 
ATOM     45  C   UNL A   1      42.328  29.656  31.021  1.00  0.00     0.049 A 
ATOM     46  H   UNL A   1      40.652  30.338  29.891  1.00  0.00     0.167 HD
ATOM     47  C   UNL A   1      42.958  23.633  28.015  1.00  0.00     0.037 A 
ATOM     48  C   UNL A   1      42.008  29.495  32.339  1.00  0.00     0.037 A 
ATOM     49  C   UNL A   1      43.940  24.208  28.932  1.00  0.00     0.049 A 
ATOM     50  C   UNL A   1      42.702  28.270  32.879  1.00  0.00     0.074 A 
ATOM     51  C   UNL A   1      44.918  25.170  28.733  1.00  0.00     0.029 A 
ATOM     52  N   UNL A   1      43.739  24.118  30.305  1.00  0.00    -0.354 N 
ATOM     53  N   UNL A   1      42.941  27.191  32.181  1.00  0.00    -0.248 NA
ATOM     54  C   UNL A   1      43.284  28.231  34.214  1.00  0.00     0.031 C 
ATOM     55  C   UNL A   1      45.199  25.759  29.991  1.00  0.00     0.029 A 
ATOM     56  C   UNL A   1      44.429  25.125  30.953  1.00  0.00     0.049 A 
ATOM     57  H   UNL A   1      43.186  23.435  30.750  1.00  0.00     0.167 HD
ATOM     58  C   UNL A   1      43.788  26.383  32.898  1.00  0.00     0.074 A 
ATOM     59  C   UNL A   1      43.940  27.061  34.177  1.00  0.00     0.031 C 
ATOM     60  C   UNL A   1      44.380  25.258  32.397  1.00  0.00     0.037 A 
BRANCH  47  61
ATOM     61  C   UNL A   1      43.333  22.641  26.917  1.00  0.00     0.058 A 
ATOM     62  C   UNL A   1      42.681  21.384  26.845  1.00  0.00     0.135 A 
ATOM     63  C   UNL A   1      44.360  22.808  25.967  1.00  0.00     0.135 A 
ATOM     64  F   UNL A   1      41.624  21.096  27.617  1.00  0.00    -0.206 F 
ATOM     65  C   UNL A   1      43.085  20.350  25.994  1.00  0.00     0.059 A 
ATOM     66  C   UNL A   1      44.801  21.779  25.119  1.00  0.00     0.059 A 
ATOM     67  F   UNL A   1      44.959  23.991  25.788  1.00  0.00    -0.206 F 
ATOM     68  C   UNL A   1      44.171  20.542  25.156  1.00  0.00     0.060 A 
BRANCH  68  69
ATOM     69  S   UNL A   1      44.724  19.171  24.119  1.00  0.00     0.124 S 
ATOM     70  O   UNL A   1      44.520  19.703  22.775  1.00  0.00    -0.237 OA
ATOM     71  O   UNL A   1      46.115  19.012  24.532  1.00  0.00    -0.237 OA
ATOM     72  O   UNL A   1      43.834  18.078  24.495  1.00  0.00    -0.744 OA
ENDBRANCH  68  69
ENDBRANCH  47  61
BRANCH  48  73
ATOM     73  C   UNL A   1      40.678  30.036  32.776  1.00  0.00     0.058 A 
ATOM     74  C   UNL A   1      40.503  31.436  32.769  1.00  0.00     0.135 A 
ATOM     75  C   UNL A   1      39.512  29.266  32.916  1.00  0.00     0.135 A 
ATOM     76  F   UNL A   1      41.571  32.243  32.663  1.00  0.00    -0.206 F 
ATOM     77  C   UNL A   1      39.246  32.036  32.765  1.00  0.00     0.059 A 
ATOM     78  C   UNL A   1      38.232  29.856  32.933  1.00  0.00     0.059 A 
ATOM     79  F   UNL A   1      39.588  27.928  32.936  1.00  0.00    -0.206 F 
ATOM     80  C   UNL A   1      38.106  31.243  32.809  1.00  0.00     0.060 A 
BRANCH  80  81
ATOM     81  S   UNL A   1      36.503  32.063  32.523  1.00  0.00     0.124 S 
ATOM     82  O   UNL A   1      35.687  30.965  32.018  1.00  0.00    -0.237 OA
ATOM     83  O   UNL A   1      36.156  32.542  33.861  1.00  0.00    -0.237 OA
ATOM     84  O   UNL A   1      36.812  33.123  31.581  1.00  0.00    -0.744 OA
ENDBRANCH  80  81
ENDBRANCH  48  73
BRANCH  60  85
ATOM     85  C   UNL A   1      45.114  24.241  33.230  1.00  0.00     0.058 A 
ATOM     86  C   UNL A   1      46.416  24.448  33.713  1.00  0.00     0.135 A 
ATOM     87  C   UNL A   1      44.459  23.078  33.699  1.00  0.00     0.135 A 
ATOM     88  F   UNL A   1      47.090  25.574  33.436  1.00  0.00    -0.206 F 
ATOM     89  C   UNL A   1      47.060  23.523  34.531  1.00  0.00     0.059 A 
ATOM     90  C   UNL A   1      45.061  22.173  34.564  1.00  0.00     0.059 A 
ATOM     91  F   UNL A   1      43.199  22.785  33.341  1.00  0.00    -0.206 F 
ATOM     92  C   UNL A   1      46.376  22.387  34.947  1.00  0.00     0.060 A 
BRANCH  92  93
ATOM     93  S   UNL A   1      47.185  21.200  36.032  1.00  0.00     0.124 S 
ATOM     94  O   UNL A   1      48.514  21.787  36.159  1.00  0.00    -0.237 OA
ATOM     95  O   UNL A   1      46.358  21.242  37.235  1.00  0.00    -0.237 OA
ATOM     96  O   UNL A   1      47.111  19.955  35.273  1.00  0.00    -0.744 OA
ENDBRANCH  92  93
ENDBRANCH  60  85
ENDBRANCH  34  35
ENDBRANCH  27  29
ENDBRANCH  26  27
ENDBRANCH  25  26
ENDBRANCH   1  25
TORSDOF 17
ENDMDL
MODEL 3
REMARK VINA RESULT:     -12.6      4.315     10.748
REMARK SMILES Cc1cccc(NC(=O)[C@H]2C=C[C@@H]([NH3+])C2)c1C(=O)OCCOC(=O)c1ccc(-c2c3nc(c(-c4c(F)cc(S(=O)(=O)[O-])cc4F)c4ccc([nH]4)c(-c4c(F)cc(S(=O)(=O)[O-])cc4F)c4nc(c(-c5c(F)cc(S(=O)(=O)[O-])cc5F)c5ccc2[nH]5)C=C4)C=C3)cc1
REMARK SMILES IDX 20 1 19 2 17 3 18 4 16 5 1 6 2 7 3 8 4 9 6 10 5 11 7 12 8 13
REMARK SMILES IDX 9 15 10 16 11 17 15 18 12 19 13 20 14 21 21 25 22 26 23 27
REMARK SMILES IDX 24 28 25 29 26 30 90 31 27 32 89 33 28 34 29 35 30 36 83 37
REMARK SMILES IDX 31 38 88 39 82 40 84 41 32 42 87 43 81 44 80 45 33 47 67 48
REMARK SMILES IDX 46 49 66 50 47 51 50 52 65 53 85 54 48 55 49 56 64 58 86 59
REMARK SMILES IDX 51 60 34 61 35 62 44 63 36 64 37 65 43 66 45 67 38 68 39 69
REMARK SMILES IDX 40 70 41 71 42 72 68 73 69 74 78 75 70 76 71 77 77 78 79 79
REMARK SMILES IDX 72 80 73 81 74 82 75 83 76 84 52 85 53 86 62 87 54 88 55 89
REMARK SMILES IDX 61 90 63 91 56 92 57 93 58 94 59 95 60 96
REMARK H PARENT 7 14 14 22 14 23 14 24 84 46 50 57
REMARK Flexibility Score: inf
ROOT
ATOM      1  C   UNL A   1      36.967  23.002  24.492  1.00  0.00     0.275 C 
ENDROOT
BRANCH   1   2
ATOM      2  O   UNL A   1      35.970  23.983  24.110  1.00  0.00    -0.458 OA
BRANCH   2   3
ATOM      3  C   UNL A   1      34.786  23.467  23.669  1.00  0.00     0.340 C 
ATOM      4  O   UNL A   1      34.453  23.324  22.508  1.00  0.00    -0.246 OA
BRANCH   3   5
ATOM      5  C   UNL A   1      33.760  23.505  24.731  1.00  0.00     0.086 A 
ATOM      6  C   UNL A   1      34.068  20.940  24.777  1.00  0.00     0.045 C 
ATOM      7  C   UNL A   1      33.437  22.225  25.257  1.00  0.00    -0.034 A 
ATOM      8  C   UNL A   1      32.566  22.136  26.347  1.00  0.00     0.004 A 
ATOM      9  C   UNL A   1      31.953  23.276  26.841  1.00  0.00     0.002 A 
ATOM     10  C   UNL A   1      33.255  24.680  25.346  1.00  0.00     0.056 A 
ATOM     11  C   UNL A   1      32.264  24.521  26.300  1.00  0.00     0.027 A 
BRANCH  10  12
ATOM     12  N   UNL A   1      33.747  25.972  25.081  1.00  0.00    -0.325 N 
ATOM     13  C   UNL A   1      33.199  27.160  24.700  1.00  0.00     0.231 C 
ATOM     14  H   UNL A   1      34.723  26.031  25.198  1.00  0.00     0.169 HD
ATOM     15  O   UNL A   1      33.983  28.120  24.744  1.00  0.00    -0.274 OA
BRANCH  13  16
ATOM     16  C   UNL A   1      31.796  27.550  24.200  1.00  0.00     0.107 C 
ATOM     17  C   UNL A   1      31.344  28.831  24.841  1.00  0.00    -0.012 C 
ATOM     18  C   UNL A   1      31.306  27.647  22.755  1.00  0.00     0.087 C 
ATOM     19  C   UNL A   1      30.613  29.578  24.011  1.00  0.00     0.033 C 
ATOM     20  C   UNL A   1      30.457  28.940  22.671  1.00  0.00     0.205 C 
BRANCH  20  21
ATOM     21  N   UNL A   1      30.875  29.863  21.624  1.00  0.00    -0.352 N 
ATOM     22  H   UNL A   1      30.383  29.641  20.759  1.00  0.00     0.345 HD
ATOM     23  H   UNL A   1      31.880  29.775  21.475  1.00  0.00     0.345 HD
ATOM     24  H   UNL A   1      30.655  30.818  21.905  1.00  0.00     0.345 HD
ENDBRANCH  20  21
ENDBRANCH  13  16
ENDBRANCH  10  12
ENDBRANCH   3   5
ENDBRANCH   2   3
ENDBRANCH   1   2
BRANCH   1  25
ATOM     25  C   UNL A   1      37.552  23.237  25.903  1.00  0.00     0.275 C 
BRANCH  25  26
ATOM     26  O   UNL A   1      38.436  24.364  26.067  1.00  0.00    -0.458 OA
BRANCH  26  27
ATOM     27  C   UNL A   1      39.635  24.072  26.632  1.00  0.00     0.338 C 
ATOM     28  O   UNL A   1      40.347  23.147  26.262  1.00  0.00    -0.246 OA
BRANCH  27  29
ATOM     29  C   UNL A   1      40.068  25.292  27.371  1.00  0.00     0.060 A 
ATOM     30  C   UNL A   1      40.395  26.431  26.631  1.00  0.00     0.016 A 
ATOM     31  C   UNL A   1      39.764  25.401  28.733  1.00  0.00     0.016 A 
ATOM     32  C   UNL A   1      40.249  27.695  27.190  1.00  0.00     0.010 A 
ATOM     33  C   UNL A   1      39.556  26.649  29.275  1.00  0.00     0.010 A 
ATOM     34  C   UNL A   1      39.773  27.793  28.497  1.00  0.00    -0.014 A 
BRANCH  34  35
ATOM     35  C   UNL A   1      39.796  29.038  29.242  1.00  0.00     0.031 A 
ATOM     36  C   UNL A   1      38.741  30.070  29.151  1.00  0.00     0.074 A 
ATOM     37  C   UNL A   1      40.882  29.115  30.043  1.00  0.00     0.049 A 
ATOM     38  N   UNL A   1      38.904  31.298  29.506  1.00  0.00    -0.248 NA
ATOM     39  C   UNL A   1      37.406  29.821  28.613  1.00  0.00     0.031 C 
ATOM     40  C   UNL A   1      41.217  30.082  31.064  1.00  0.00     0.029 A 
ATOM     41  N   UNL A   1      42.064  28.373  29.873  1.00  0.00    -0.354 N 
ATOM     42  C   UNL A   1      37.667  31.924  29.503  1.00  0.00     0.074 A 
ATOM     43  C   UNL A   1      36.790  30.988  28.849  1.00  0.00     0.031 C 
ATOM     44  C   UNL A   1      42.561  30.115  31.169  1.00  0.00     0.029 A 
ATOM     45  C   UNL A   1      43.100  29.267  30.106  1.00  0.00     0.049 A 
ATOM     46  H   UNL A   1      42.140  27.420  29.639  1.00  0.00     0.167 HD
ATOM     47  C   UNL A   1      37.529  33.098  30.195  1.00  0.00     0.037 A 
ATOM     48  C   UNL A   1      43.931  29.665  29.099  1.00  0.00     0.037 A 
ATOM     49  C   UNL A   1      38.845  33.537  30.658  1.00  0.00     0.049 A 
ATOM     50  C   UNL A   1      43.847  31.162  28.939  1.00  0.00     0.074 A 
ATOM     51  C   UNL A   1      39.520  33.296  31.844  1.00  0.00     0.029 A 
ATOM     52  N   UNL A   1      39.793  33.968  29.737  1.00  0.00    -0.354 N 
ATOM     53  N   UNL A   1      42.762  31.865  29.139  1.00  0.00    -0.248 NA
ATOM     54  C   UNL A   1      45.019  31.982  28.663  1.00  0.00     0.031 C 
ATOM     55  C   UNL A   1      40.905  33.448  31.585  1.00  0.00     0.029 A 
ATOM     56  C   UNL A   1      41.063  33.826  30.262  1.00  0.00     0.049 A 
ATOM     57  H   UNL A   1      39.588  34.324  28.841  1.00  0.00     0.167 HD
ATOM     58  C   UNL A   1      43.096  33.196  29.142  1.00  0.00     0.074 A 
ATOM     59  C   UNL A   1      44.510  33.217  28.802  1.00  0.00     0.031 C 
ATOM     60  C   UNL A   1      42.238  34.199  29.495  1.00  0.00     0.037 A 
BRANCH  47  61
ATOM     61  C   UNL A   1      36.226  33.672  30.743  1.00  0.00     0.058 A 
ATOM     62  C   UNL A   1      35.259  34.209  29.855  1.00  0.00     0.135 A 
ATOM     63  C   UNL A   1      35.890  33.808  32.104  1.00  0.00     0.135 A 
ATOM     64  F   UNL A   1      35.381  34.082  28.526  1.00  0.00    -0.206 F 
ATOM     65  C   UNL A   1      34.129  34.916  30.276  1.00  0.00     0.059 A 
ATOM     66  C   UNL A   1      34.775  34.535  32.554  1.00  0.00     0.059 A 
ATOM     67  F   UNL A   1      36.606  33.211  33.063  1.00  0.00    -0.206 F 
ATOM     68  C   UNL A   1      33.909  35.106  31.631  1.00  0.00     0.060 A 
BRANCH  68  69
ATOM     69  S   UNL A   1      32.486  36.085  32.154  1.00  0.00     0.124 S 
ATOM     70  O   UNL A   1      32.152  36.815  30.933  1.00  0.00    -0.237 OA
ATOM     71  O   UNL A   1      31.533  35.057  32.557  1.00  0.00    -0.237 OA
ATOM     72  O   UNL A   1      33.014  36.904  33.240  1.00  0.00    -0.744 OA
ENDBRANCH  68  69
ENDBRANCH  47  61
BRANCH  48  73
ATOM     73  C   UNL A   1      44.196  28.663  28.013  1.00  0.00     0.058 A 
ATOM     74  C   UNL A   1      44.898  27.489  28.359  1.00  0.00     0.135 A 
ATOM     75  C   UNL A   1      43.563  28.660  26.760  1.00  0.00     0.135 A 
ATOM     76  F   UNL A   1      45.551  27.421  29.530  1.00  0.00    -0.206 F 
ATOM     77  C   UNL A   1      44.866  26.337  27.578  1.00  0.00     0.059 A 
ATOM     78  C   UNL A   1      43.535  27.510  25.947  1.00  0.00     0.059 A 
ATOM     79  F   UNL A   1      42.876  29.737  26.351  1.00  0.00    -0.206 F 
ATOM     80  C   UNL A   1      44.151  26.335  26.386  1.00  0.00     0.060 A 
BRANCH  80  81
ATOM     81  S   UNL A   1      43.917  24.731  25.553  1.00  0.00     0.124 S 
ATOM     82  O   UNL A   1      45.125  24.632  24.742  1.00  0.00    -0.237 OA
ATOM     83  O   UNL A   1      43.837  23.802  26.680  1.00  0.00    -0.237 OA
ATOM     84  O   UNL A   1      42.667  24.887  24.830  1.00  0.00    -0.744 OA
ENDBRANCH  80  81
ENDBRANCH  48  73
BRANCH  60  85
ATOM     85  C   UNL A   1      42.508  35.665  29.279  1.00  0.00     0.058 A 
ATOM     86  C   UNL A   1      43.405  36.399  30.071  1.00  0.00     0.135 A 
ATOM     87  C   UNL A   1      41.979  36.343  28.155  1.00  0.00     0.135 A 
ATOM     88  F   UNL A   1      44.063  35.825  31.090  1.00  0.00    -0.206 F 
ATOM     89  C   UNL A   1      43.690  37.739  29.823  1.00  0.00     0.059 A 
ATOM     90  C   UNL A   1      42.297  37.661  27.854  1.00  0.00     0.059 A 
ATOM     91  F   UNL A   1      41.140  35.740  27.299  1.00  0.00    -0.206 F 
ATOM     92  C   UNL A   1      43.128  38.363  28.715  1.00  0.00     0.060 A 
BRANCH  92  93
ATOM     93  S   UNL A   1      43.513  40.085  28.363  1.00  0.00     0.124 S 
ATOM     94  O   UNL A   1      43.372  40.686  29.685  1.00  0.00    -0.237 OA
ATOM     95  O   UNL A   1      44.876  40.014  27.844  1.00  0.00    -0.237 OA
ATOM     96  O   UNL A   1      42.497  40.458  27.384  1.00  0.00    -0.744 OA
ENDBRANCH  92  93
ENDBRANCH  60  85
ENDBRANCH  34  35
ENDBRANCH  27  29
ENDBRANCH  26  27
ENDBRANCH  25  26
ENDBRANCH   1  25
TORSDOF 17
ENDMDL
