MODEL 1
REMARK VINA RESULT:      -9.5      0.000      0.000
REMARK SMILES CC1(C)CCN(C(=O)CC(C)(C)C(=O)OCCOC(=O)c2ccc(-c3c4nc(c(-c5c(F)cc(S(=O)(=O)[O-])cc5F)c5ccc([nH]5)c(-c5c(F)cc(S(=O)(=O)[O-])cc5F)c5nc(c(-c6c(F)cc(S(=O)(=O)[O-])cc6F)c6ccc3[nH]6)C=C5)C=C4)cc2)C1
REMARK SMILES IDX 16 1 15 2 13 3 14 4 10 5 11 6 12 7 9 8 7 9 8 10 6 11 1 12
REMARK SMILES IDX 2 13 3 14 4 15 87 16 5 17 17 18 18 19 19 20 20 21 21 22
REMARK SMILES IDX 22 23 86 24 23 25 85 26 24 27 25 28 26 29 79 30 27 31 84 32
REMARK SMILES IDX 78 33 80 34 28 35 83 36 77 37 76 38 29 40 63 41 42 42 62 43
REMARK SMILES IDX 43 44 46 45 61 46 81 47 44 48 45 49 60 51 82 52 47 53 30 54
REMARK SMILES IDX 31 55 40 56 32 57 33 58 39 59 41 60 34 61 35 62 36 63 37 64
REMARK SMILES IDX 38 65 64 66 65 67 74 68 66 69 67 70 73 71 75 72 68 73 69 74
REMARK SMILES IDX 70 75 71 76 72 77 48 78 49 79 58 80 50 81 51 82 57 83 59 84
REMARK SMILES IDX 52 85 53 86 54 87 55 88 56 89
REMARK H PARENT 80 39 46 50
REMARK Flexibility Score: inf
ROOT
ATOM      1  C   UNL A   1      34.569  33.776  29.326  1.00  0.00     0.274 C 
ENDROOT
BRANCH   1   2
ATOM      2  O   UNL A   1      33.741  33.991  30.486  1.00  0.00    -0.462 OA
BRANCH   2   3
ATOM      3  C   UNL A   1      33.435  35.283  30.794  1.00  0.00     0.312 C 
ATOM      4  O   UNL A   1      33.492  36.201  29.990  1.00  0.00    -0.252 OA
BRANCH   3   5
ATOM      5  C   UNL A   1      33.224  35.468  32.309  1.00  0.00     0.071 C 
ATOM      6  C   UNL A   1      31.728  35.807  32.451  1.00  0.00     0.024 C 
ATOM      7  C   UNL A   1      34.015  36.672  32.870  1.00  0.00     0.024 C 
BRANCH   5   8
ATOM      8  C   UNL A   1      33.599  34.223  33.170  1.00  0.00     0.118 C 
BRANCH   8   9
ATOM      9  C   UNL A   1      35.027  34.101  33.677  1.00  0.00     0.223 C 
ATOM     10  O   UNL A   1      35.260  34.227  34.880  1.00  0.00    -0.275 OA
BRANCH   9  11
ATOM     11  N   UNL A   1      36.024  33.841  32.773  1.00  0.00    -0.342 N 
ATOM     12  C   UNL A   1      39.006  33.816  33.265  1.00  0.00     0.013 C 
ATOM     13  C   UNL A   1      38.213  33.935  31.951  1.00  0.00    -0.016 C 
ATOM     14  C   UNL A   1      39.112  34.530  30.871  1.00  0.00     0.013 C 
ATOM     15  C   UNL A   1      37.609  32.576  31.550  1.00  0.00     0.030 C 
ATOM     16  C   UNL A   1      36.942  34.768  32.145  1.00  0.00     0.126 C 
ATOM     17  C   UNL A   1      36.345  32.469  32.405  1.00  0.00     0.120 C 
ENDBRANCH   9  11
ENDBRANCH   8   9
ENDBRANCH   5   8
ENDBRANCH   3   5
ENDBRANCH   2   3
ENDBRANCH   1   2
BRANCH   1  18
ATOM     18  C   UNL A   1      33.836  32.896  28.318  1.00  0.00     0.275 C 
BRANCH  18  19
ATOM     19  O   UNL A   1      34.776  32.040  27.644  1.00  0.00    -0.458 OA
BRANCH  19  20
ATOM     20  C   UNL A   1      34.670  30.724  27.939  1.00  0.00     0.338 C 
ATOM     21  O   UNL A   1      33.658  30.039  27.936  1.00  0.00    -0.246 OA
BRANCH  20  22
ATOM     22  C   UNL A   1      36.016  30.170  28.122  1.00  0.00     0.060 A 
ATOM     23  C   UNL A   1      36.352  29.707  29.391  1.00  0.00     0.016 A 
ATOM     24  C   UNL A   1      36.960  30.173  27.098  1.00  0.00     0.016 A 
ATOM     25  C   UNL A   1      37.638  29.256  29.661  1.00  0.00     0.010 A 
ATOM     26  C   UNL A   1      38.253  29.704  27.364  1.00  0.00     0.010 A 
ATOM     27  C   UNL A   1      38.603  29.255  28.652  1.00  0.00    -0.014 A 
BRANCH  27  28
ATOM     28  C   UNL A   1      39.997  28.867  28.978  1.00  0.00     0.031 A 
ATOM     29  C   UNL A   1      40.887  29.851  29.680  1.00  0.00     0.074 A 
ATOM     30  C   UNL A   1      40.445  27.628  28.706  1.00  0.00     0.049 A 
ATOM     31  N   UNL A   1      42.162  29.766  29.959  1.00  0.00    -0.248 NA
ATOM     32  C   UNL A   1      40.251  31.097  30.140  1.00  0.00     0.031 C 
ATOM     33  C   UNL A   1      39.648  26.545  28.128  1.00  0.00     0.029 A 
ATOM     34  N   UNL A   1      41.687  27.069  28.885  1.00  0.00    -0.354 N 
ATOM     35  C   UNL A   1      42.487  30.951  30.605  1.00  0.00     0.074 A 
ATOM     36  C   UNL A   1      41.278  31.744  30.671  1.00  0.00     0.031 C 
ATOM     37  C   UNL A   1      40.423  25.456  27.994  1.00  0.00     0.029 A 
ATOM     38  C   UNL A   1      41.780  25.776  28.428  1.00  0.00     0.049 A 
ATOM     39  H   UNL A   1      42.439  27.550  29.302  1.00  0.00     0.167 HD
ATOM     40  C   UNL A   1      43.687  31.342  31.097  1.00  0.00     0.037 A 
ATOM     41  C   UNL A   1      42.846  24.957  28.340  1.00  0.00     0.037 A 
ATOM     42  C   UNL A   1      44.884  30.543  31.038  1.00  0.00     0.049 A 
ATOM     43  C   UNL A   1      44.192  25.449  28.805  1.00  0.00     0.074 A 
ATOM     44  C   UNL A   1      46.156  30.864  31.475  1.00  0.00     0.029 A 
ATOM     45  N   UNL A   1      44.952  29.261  30.514  1.00  0.00    -0.354 N 
ATOM     46  N   UNL A   1      44.506  26.598  29.356  1.00  0.00    -0.248 NA
ATOM     47  C   UNL A   1      45.331  24.539  28.624  1.00  0.00     0.031 C 
ATOM     48  C   UNL A   1      47.003  29.788  31.184  1.00  0.00     0.029 A 
ATOM     49  C   UNL A   1      46.249  28.782  30.603  1.00  0.00     0.049 A 
ATOM     50  H   UNL A   1      44.192  28.765  30.133  1.00  0.00     0.167 HD
ATOM     51  C   UNL A   1      45.872  26.541  29.606  1.00  0.00     0.074 A 
ATOM     52  C   UNL A   1      46.325  25.240  29.156  1.00  0.00     0.031 C 
ATOM     53  C   UNL A   1      46.681  27.481  30.157  1.00  0.00     0.037 A 
BRANCH  40  54
ATOM     54  C   UNL A   1      43.768  32.715  31.699  1.00  0.00     0.058 A 
ATOM     55  C   UNL A   1      43.955  33.860  30.910  1.00  0.00     0.135 A 
ATOM     56  C   UNL A   1      43.651  32.884  33.088  1.00  0.00     0.135 A 
ATOM     57  F   UNL A   1      44.094  33.750  29.580  1.00  0.00    -0.206 F 
ATOM     58  C   UNL A   1      44.053  35.125  31.482  1.00  0.00     0.059 A 
ATOM     59  C   UNL A   1      43.724  34.143  33.678  1.00  0.00     0.059 A 
ATOM     60  F   UNL A   1      43.474  31.821  33.887  1.00  0.00    -0.206 F 
ATOM     61  C   UNL A   1      43.941  35.256  32.868  1.00  0.00     0.060 A 
BRANCH  61  62
ATOM     62  S   UNL A   1      44.084  36.900  33.598  1.00  0.00     0.124 S 
ATOM     63  O   UNL A   1      44.487  37.697  32.444  1.00  0.00    -0.237 OA
ATOM     64  O   UNL A   1      42.733  37.143  34.094  1.00  0.00    -0.237 OA
ATOM     65  O   UNL A   1      45.104  36.726  34.629  1.00  0.00    -0.744 OA
ENDBRANCH  61  62
ENDBRANCH  40  54
BRANCH  41  66
ATOM     66  C   UNL A   1      42.698  23.599  27.751  1.00  0.00     0.058 A 
ATOM     67  C   UNL A   1      42.471  22.477  28.560  1.00  0.00     0.135 A 
ATOM     68  C   UNL A   1      42.796  23.396  26.365  1.00  0.00     0.135 A 
ATOM     69  F   UNL A   1      42.386  22.617  29.892  1.00  0.00    -0.206 F 
ATOM     70  C   UNL A   1      42.359  21.199  28.020  1.00  0.00     0.059 A 
ATOM     71  C   UNL A   1      42.663  22.133  25.799  1.00  0.00     0.059 A 
ATOM     72  F   UNL A   1      43.011  24.438  25.545  1.00  0.00    -0.206 F 
ATOM     73  C   UNL A   1      42.456  21.038  26.637  1.00  0.00     0.060 A 
BRANCH  73  74
ATOM     74  S   UNL A   1      42.272  19.382  25.939  1.00  0.00     0.124 S 
ATOM     75  O   UNL A   1      42.778  18.548  27.022  1.00  0.00    -0.237 OA
ATOM     76  O   UNL A   1      40.835  19.308  25.693  1.00  0.00    -0.237 OA
ATOM     77  O   UNL A   1      43.102  19.431  24.738  1.00  0.00    -0.744 OA
ENDBRANCH  73  74
ENDBRANCH  41  66
BRANCH  53  78
ATOM     78  C   UNL A   1      48.130  27.127  30.335  1.00  0.00     0.058 A 
ATOM     79  C   UNL A   1      49.100  27.499  29.391  1.00  0.00     0.135 A 
ATOM     80  C   UNL A   1      48.561  26.451  31.487  1.00  0.00     0.135 A 
ATOM     81  F   UNL A   1      48.739  28.141  28.268  1.00  0.00    -0.206 F 
ATOM     82  C   UNL A   1      50.446  27.197  29.574  1.00  0.00     0.059 A 
ATOM     83  C   UNL A   1      49.905  26.159  31.702  1.00  0.00     0.059 A 
ATOM     84  F   UNL A   1      47.675  26.081  32.425  1.00  0.00    -0.206 F 
ATOM     85  C   UNL A   1      50.839  26.526  30.734  1.00  0.00     0.060 A 
BRANCH  85  86
ATOM     86  S   UNL A   1      52.591  26.169  30.982  1.00  0.00     0.124 S 
ATOM     87  O   UNL A   1      53.064  26.049  29.606  1.00  0.00    -0.237 OA
ATOM     88  O   UNL A   1      53.053  27.348  31.709  1.00  0.00    -0.237 OA
ATOM     89  O   UNL A   1      52.580  24.930  31.753  1.00  0.00    -0.744 OA
ENDBRANCH  85  86
ENDBRANCH  53  78
ENDBRANCH  27  28
ENDBRANCH  20  22
ENDBRANCH  19  20
ENDBRANCH  18  19
ENDBRANCH   1  18
TORSDOF 17
ENDMDL
MODEL 2
REMARK VINA RESULT:      -9.4      2.748      5.547
REMARK SMILES CC1(C)CCN(C(=O)CC(C)(C)C(=O)OCCOC(=O)c2ccc(-c3c4nc(c(-c5c(F)cc(S(=O)(=O)[O-])cc5F)c5ccc([nH]5)c(-c5c(F)cc(S(=O)(=O)[O-])cc5F)c5nc(c(-c6c(F)cc(S(=O)(=O)[O-])cc6F)c6ccc3[nH]6)C=C5)C=C4)cc2)C1
REMARK SMILES IDX 16 1 15 2 13 3 14 4 10 5 11 6 12 7 9 8 7 9 8 10 6 11 1 12
REMARK SMILES IDX 2 13 3 14 4 15 87 16 5 17 17 18 18 19 19 20 20 21 21 22
REMARK SMILES IDX 22 23 86 24 23 25 85 26 24 27 25 28 26 29 79 30 27 31 84 32
REMARK SMILES IDX 78 33 80 34 28 35 83 36 77 37 76 38 29 40 63 41 42 42 62 43
REMARK SMILES IDX 43 44 46 45 61 46 81 47 44 48 45 49 60 51 82 52 47 53 30 54
REMARK SMILES IDX 31 55 40 56 32 57 33 58 39 59 41 60 34 61 35 62 36 63 37 64
REMARK SMILES IDX 38 65 64 66 65 67 74 68 66 69 67 70 73 71 75 72 68 73 69 74
REMARK SMILES IDX 70 75 71 76 72 77 48 78 49 79 58 80 50 81 51 82 57 83 59 84
REMARK SMILES IDX 52 85 53 86 54 87 55 88 56 89
REMARK H PARENT 80 39 46 50
REMARK Flexibility Score: inf
ROOT
ATOM      1  C   UNL A   1      31.958  29.766  25.785  1.00  0.00     0.274 C 
ENDROOT
BRANCH   1   2
ATOM      2  O   UNL A   1      31.686  28.353  25.883  1.00  0.00    -0.462 OA
BRANCH   2   3
ATOM      3  C   UNL A   1      32.059  27.579  24.825  1.00  0.00     0.312 C 
ATOM      4  O   UNL A   1      32.309  28.026  23.716  1.00  0.00    -0.252 OA
BRANCH   3   5
ATOM      5  C   UNL A   1      31.914  26.078  25.144  1.00  0.00     0.071 C 
ATOM      6  C   UNL A   1      31.887  25.393  23.765  1.00  0.00     0.024 C 
ATOM      7  C   UNL A   1      30.572  25.752  25.838  1.00  0.00     0.024 C 
BRANCH   5   8
ATOM      8  C   UNL A   1      33.052  25.495  26.035  1.00  0.00     0.118 C 
BRANCH   8   9
ATOM      9  C   UNL A   1      33.425  24.031  25.864  1.00  0.00     0.223 C 
ATOM     10  O   UNL A   1      32.597  23.157  26.125  1.00  0.00    -0.275 OA
BRANCH   9  11
ATOM     11  N   UNL A   1      34.681  23.722  25.411  1.00  0.00    -0.342 N 
ATOM     12  C   UNL A   1      35.900  20.978  25.070  1.00  0.00     0.013 C 
ATOM     13  C   UNL A   1      36.569  22.361  25.170  1.00  0.00    -0.016 C 
ATOM     14  C   UNL A   1      38.034  22.187  25.558  1.00  0.00     0.013 C 
ATOM     15  C   UNL A   1      36.383  23.157  23.864  1.00  0.00     0.030 C 
ATOM     16  C   UNL A   1      35.829  23.263  26.163  1.00  0.00     0.126 C 
ATOM     17  C   UNL A   1      34.971  23.733  23.983  1.00  0.00     0.120 C 
ENDBRANCH   9  11
ENDBRANCH   8   9
ENDBRANCH   5   8
ENDBRANCH   3   5
ENDBRANCH   2   3
ENDBRANCH   1   2
BRANCH   1  18
ATOM     18  C   UNL A   1      32.430  30.300  27.134  1.00  0.00     0.275 C 
BRANCH  18  19
ATOM     19  O   UNL A   1      33.787  29.887  27.374  1.00  0.00    -0.458 OA
BRANCH  19  20
ATOM     20  C   UNL A   1      34.507  30.710  28.170  1.00  0.00     0.338 C 
ATOM     21  O   UNL A   1      34.103  31.669  28.811  1.00  0.00    -0.246 OA
BRANCH  20  22
ATOM     22  C   UNL A   1      35.871  30.182  28.286  1.00  0.00     0.060 A 
ATOM     23  C   UNL A   1      36.298  29.780  29.549  1.00  0.00     0.016 A 
ATOM     24  C   UNL A   1      36.744  30.151  27.202  1.00  0.00     0.016 A 
ATOM     25  C   UNL A   1      37.606  29.359  29.751  1.00  0.00     0.010 A 
ATOM     26  C   UNL A   1      38.060  29.711  27.400  1.00  0.00     0.010 A 
ATOM     27  C   UNL A   1      38.502  29.324  28.681  1.00  0.00    -0.014 A 
BRANCH  27  28
ATOM     28  C   UNL A   1      39.920  28.969  28.929  1.00  0.00     0.031 A 
ATOM     29  C   UNL A   1      40.834  29.988  29.547  1.00  0.00     0.074 A 
ATOM     30  C   UNL A   1      40.373  27.730  28.664  1.00  0.00     0.049 A 
ATOM     31  N   UNL A   1      42.125  29.932  29.747  1.00  0.00    -0.248 NA
ATOM     32  C   UNL A   1      40.205  31.236  30.011  1.00  0.00     0.031 C 
ATOM     33  C   UNL A   1      39.562  26.618  28.167  1.00  0.00     0.029 A 
ATOM     34  N   UNL A   1      41.634  27.198  28.780  1.00  0.00    -0.354 N 
ATOM     35  C   UNL A   1      42.468  31.141  30.339  1.00  0.00     0.074 A 
ATOM     36  C   UNL A   1      41.251  31.915  30.458  1.00  0.00     0.031 C 
ATOM     37  C   UNL A   1      40.347  25.539  28.014  1.00  0.00     0.029 A 
ATOM     38  C   UNL A   1      41.722  25.894  28.353  1.00  0.00     0.049 A 
ATOM     39  H   UNL A   1      42.402  27.703  29.135  1.00  0.00     0.167 HD
ATOM     40  C   UNL A   1      43.689  31.565  30.743  1.00  0.00     0.037 A 
ATOM     41  C   UNL A   1      42.796  25.091  28.221  1.00  0.00     0.037 A 
ATOM     42  C   UNL A   1      44.894  30.785  30.631  1.00  0.00     0.049 A 
ATOM     43  C   UNL A   1      44.158  25.619  28.587  1.00  0.00     0.074 A 
ATOM     44  C   UNL A   1      46.186  31.140  30.978  1.00  0.00     0.029 A 
ATOM     45  N   UNL A   1      44.953  29.490  30.139  1.00  0.00    -0.354 N 
ATOM     46  N   UNL A   1      44.485  26.788  29.086  1.00  0.00    -0.248 NA
ATOM     47  C   UNL A   1      45.301  24.723  28.360  1.00  0.00     0.031 C 
ATOM     48  C   UNL A   1      47.032  30.070  30.664  1.00  0.00     0.029 A 
ATOM     49  C   UNL A   1      46.262  29.035  30.160  1.00  0.00     0.049 A 
ATOM     50  H   UNL A   1      44.181  28.970  29.821  1.00  0.00     0.167 HD
ATOM     51  C   UNL A   1      45.865  26.760  29.251  1.00  0.00     0.074 A 
ATOM     52  C   UNL A   1      46.313  25.455  28.809  1.00  0.00     0.031 C 
ATOM     53  C   UNL A   1      46.689  27.729  29.723  1.00  0.00     0.037 A 
BRANCH  40  54
ATOM     54  C   UNL A   1      43.781  32.956  31.301  1.00  0.00     0.058 A 
ATOM     55  C   UNL A   1      43.497  33.236  32.646  1.00  0.00     0.135 A 
ATOM     56  C   UNL A   1      44.165  34.024  30.473  1.00  0.00     0.135 A 
ATOM     57  F   UNL A   1      43.105  32.254  33.473  1.00  0.00    -0.206 F 
ATOM     58  C   UNL A   1      43.563  34.533  33.145  1.00  0.00     0.059 A 
ATOM     59  C   UNL A   1      44.258  35.325  30.958  1.00  0.00     0.059 A 
ATOM     60  F   UNL A   1      44.444  33.810  29.178  1.00  0.00    -0.206 F 
ATOM     61  C   UNL A   1      43.939  35.572  32.292  1.00  0.00     0.060 A 
BRANCH  61  62
ATOM     62  S   UNL A   1      44.006  37.252  32.948  1.00  0.00     0.124 S 
ATOM     63  O   UNL A   1      43.690  38.041  31.761  1.00  0.00    -0.237 OA
ATOM     64  O   UNL A   1      42.979  37.228  33.984  1.00  0.00    -0.237 OA
ATOM     65  O   UNL A   1      45.378  37.372  33.434  1.00  0.00    -0.744 OA
ENDBRANCH  61  62
ENDBRANCH  40  54
BRANCH  41  66
ATOM     66  C   UNL A   1      42.637  23.715  27.681  1.00  0.00     0.058 A 
ATOM     67  C   UNL A   1      42.482  22.612  28.533  1.00  0.00     0.135 A 
ATOM     68  C   UNL A   1      42.651  23.474  26.297  1.00  0.00     0.135 A 
ATOM     69  F   UNL A   1      42.478  22.789  29.863  1.00  0.00    -0.206 F 
ATOM     70  C   UNL A   1      42.360  21.318  28.036  1.00  0.00     0.059 A 
ATOM     71  C   UNL A   1      42.507  22.192  25.776  1.00  0.00     0.059 A 
ATOM     72  F   UNL A   1      42.795  24.495  25.437  1.00  0.00    -0.206 F 
ATOM     73  C   UNL A   1      42.373  21.119  26.654  1.00  0.00     0.060 A 
BRANCH  73  74
ATOM     74  S   UNL A   1      42.177  19.440  26.015  1.00  0.00     0.124 S 
ATOM     75  O   UNL A   1      42.989  19.490  24.806  1.00  0.00    -0.237 OA
ATOM     76  O   UNL A   1      42.706  18.629  27.107  1.00  0.00    -0.237 OA
ATOM     77  O   UNL A   1      40.736  19.329  25.805  1.00  0.00    -0.744 OA
ENDBRANCH  73  74
ENDBRANCH  41  66
BRANCH  53  78
ATOM     78  C   UNL A   1      48.153  27.405  29.819  1.00  0.00     0.058 A 
ATOM     79  C   UNL A   1      49.045  27.712  28.780  1.00  0.00     0.135 A 
ATOM     80  C   UNL A   1      48.678  26.825  30.985  1.00  0.00     0.135 A 
ATOM     81  F   UNL A   1      48.592  28.261  27.641  1.00  0.00    -0.206 F 
ATOM     82  C   UNL A   1      50.405  27.438  28.885  1.00  0.00     0.059 A 
ATOM     83  C   UNL A   1      50.038  26.564  31.122  1.00  0.00     0.059 A 
ATOM     84  F   UNL A   1      47.869  26.521  32.012  1.00  0.00    -0.206 F 
ATOM     85  C   UNL A   1      50.893  26.864  30.061  1.00  0.00     0.060 A 
BRANCH  85  86
ATOM     86  S   UNL A   1      52.664  26.546  30.204  1.00  0.00     0.124 S 
ATOM     87  O   UNL A   1      52.694  25.503  31.225  1.00  0.00    -0.237 OA
ATOM     88  O   UNL A   1      53.018  26.119  28.853  1.00  0.00    -0.237 OA
ATOM     89  O   UNL A   1      53.210  27.838  30.608  1.00  0.00    -0.744 OA
ENDBRANCH  85  86
ENDBRANCH  53  78
ENDBRANCH  27  28
ENDBRANCH  20  22
ENDBRANCH  19  20
ENDBRANCH  18  19
ENDBRANCH   1  18
TORSDOF 17
ENDMDL
MODEL 3
REMARK VINA RESULT:      -9.4      3.160      5.809
REMARK SMILES CC1(C)CCN(C(=O)CC(C)(C)C(=O)OCCOC(=O)c2ccc(-c3c4nc(c(-c5c(F)cc(S(=O)(=O)[O-])cc5F)c5ccc([nH]5)c(-c5c(F)cc(S(=O)(=O)[O-])cc5F)c5nc(c(-c6c(F)cc(S(=O)(=O)[O-])cc6F)c6ccc3[nH]6)C=C5)C=C4)cc2)C1
REMARK SMILES IDX 16 1 15 2 13 3 14 4 10 5 11 6 12 7 9 8 7 9 8 10 6 11 1 12
REMARK SMILES IDX 2 13 3 14 4 15 87 16 5 17 17 18 18 19 19 20 20 21 21 22
REMARK SMILES IDX 22 23 86 24 23 25 85 26 24 27 25 28 26 29 79 30 27 31 84 32
REMARK SMILES IDX 78 33 80 34 28 35 83 36 77 37 76 38 29 40 63 41 42 42 62 43
REMARK SMILES IDX 43 44 46 45 61 46 81 47 44 48 45 49 60 51 82 52 47 53 30 54
REMARK SMILES IDX 31 55 40 56 32 57 33 58 39 59 41 60 34 61 35 62 36 63 37 64
REMARK SMILES IDX 38 65 64 66 65 67 74 68 66 69 67 70 73 71 75 72 68 73 69 74
REMARK SMILES IDX 70 75 71 76 72 77 48 78 49 79 58 80 50 81 51 82 57 83 59 84
REMARK SMILES IDX 52 85 53 86 54 87 55 88 56 89
REMARK H PARENT 80 39 46 50
REMARK Flexibility Score: inf
ROOT
ATOM      1  C   UNL A   1      33.575  27.514  26.431  1.00  0.00     0.274 C 
ENDROOT
BRANCH   1   2
ATOM      2  O   UNL A   1      32.433  27.096  25.656  1.00  0.00    -0.462 OA
BRANCH   2   3
ATOM      3  C   UNL A   1      32.640  26.114  24.734  1.00  0.00     0.312 C 
ATOM      4  O   UNL A   1      33.732  25.863  24.247  1.00  0.00    -0.252 OA
BRANCH   3   5
ATOM      5  C   UNL A   1      31.309  25.519  24.233  1.00  0.00     0.071 C 
ATOM      6  C   UNL A   1      31.470  25.453  22.702  1.00  0.00     0.024 C 
ATOM      7  C   UNL A   1      30.106  26.446  24.522  1.00  0.00     0.024 C 
BRANCH   5   8
ATOM      8  C   UNL A   1      30.968  24.116  24.820  1.00  0.00     0.118 C 
BRANCH   8   9
ATOM      9  C   UNL A   1      31.460  23.781  26.220  1.00  0.00     0.223 C 
ATOM     10  O   UNL A   1      30.920  24.301  27.197  1.00  0.00    -0.275 OA
BRANCH   9  11
ATOM     11  N   UNL A   1      32.495  22.892  26.356  1.00  0.00    -0.342 N 
ATOM     12  C   UNL A   1      35.453  23.446  26.088  1.00  0.00     0.013 C 
ATOM     13  C   UNL A   1      34.677  22.119  26.021  1.00  0.00    -0.016 C 
ATOM     14  C   UNL A   1      35.530  21.070  25.313  1.00  0.00     0.013 C 
ATOM     15  C   UNL A   1      34.223  21.677  27.425  1.00  0.00     0.030 C 
ATOM     16  C   UNL A   1      33.324  22.303  25.326  1.00  0.00     0.126 C 
ATOM     17  C   UNL A   1      32.961  22.503  27.680  1.00  0.00     0.120 C 
ENDBRANCH   9  11
ENDBRANCH   8   9
ENDBRANCH   5   8
ENDBRANCH   3   5
ENDBRANCH   2   3
ENDBRANCH   1   2
BRANCH   1  18
ATOM     18  C   UNL A   1      33.206  28.715  27.297  1.00  0.00     0.275 C 
BRANCH  18  19
ATOM     19  O   UNL A   1      33.944  29.871  26.866  1.00  0.00    -0.458 OA
BRANCH  19  20
ATOM     20  C   UNL A   1      34.531  30.582  27.856  1.00  0.00     0.338 C 
ATOM     21  O   UNL A   1      34.017  31.432  28.568  1.00  0.00    -0.246 OA
BRANCH  20  22
ATOM     22  C   UNL A   1      35.886  30.064  28.071  1.00  0.00     0.060 A 
ATOM     23  C   UNL A   1      36.197  29.591  29.343  1.00  0.00     0.016 A 
ATOM     24  C   UNL A   1      36.860  30.110  27.076  1.00  0.00     0.016 A 
ATOM     25  C   UNL A   1      37.487  29.173  29.645  1.00  0.00     0.010 A 
ATOM     26  C   UNL A   1      38.158  29.675  27.374  1.00  0.00     0.010 A 
ATOM     27  C   UNL A   1      38.482  29.216  28.666  1.00  0.00    -0.014 A 
BRANCH  27  28
ATOM     28  C   UNL A   1      39.876  28.863  29.028  1.00  0.00     0.031 A 
ATOM     29  C   UNL A   1      40.710  29.855  29.785  1.00  0.00     0.074 A 
ATOM     30  C   UNL A   1      40.373  27.646  28.739  1.00  0.00     0.049 A 
ATOM     31  N   UNL A   1      41.978  29.803  30.104  1.00  0.00    -0.248 NA
ATOM     32  C   UNL A   1      40.020  31.068  30.255  1.00  0.00     0.031 C 
ATOM     33  C   UNL A   1      39.630  26.555  28.107  1.00  0.00     0.029 A 
ATOM     34  N   UNL A   1      41.625  27.123  28.945  1.00  0.00    -0.354 N 
ATOM     35  C   UNL A   1      42.243  30.980  30.791  1.00  0.00     0.074 A 
ATOM     36  C   UNL A   1      41.008  31.733  30.837  1.00  0.00     0.031 C 
ATOM     37  C   UNL A   1      40.444  25.495  27.970  1.00  0.00     0.029 A 
ATOM     38  C   UNL A   1      41.775  25.846  28.458  1.00  0.00     0.049 A 
ATOM     39  H   UNL A   1      42.348  27.615  29.399  1.00  0.00     0.167 HD
ATOM     40  C   UNL A   1      43.413  31.395  31.333  1.00  0.00     0.037 A 
ATOM     41  C   UNL A   1      42.870  25.064  28.385  1.00  0.00     0.037 A 
ATOM     42  C   UNL A   1      44.637  30.636  31.294  1.00  0.00     0.049 A 
ATOM     43  C   UNL A   1      44.183  25.585  28.907  1.00  0.00     0.074 A 
ATOM     44  C   UNL A   1      45.883  30.985  31.781  1.00  0.00     0.029 A 
ATOM     45  N   UNL A   1      44.763  29.372  30.738  1.00  0.00    -0.354 N 
ATOM     46  N   UNL A   1      44.441  26.728  29.498  1.00  0.00    -0.248 NA
ATOM     47  C   UNL A   1      45.357  24.717  28.741  1.00  0.00     0.031 C 
ATOM     48  C   UNL A   1      46.773  29.945  31.490  1.00  0.00     0.029 A 
ATOM     49  C   UNL A   1      46.071  28.931  30.859  1.00  0.00     0.049 A 
ATOM     50  H   UNL A   1      44.033  28.862  30.320  1.00  0.00     0.167 HD
ATOM     51  C   UNL A   1      45.800  26.707  29.792  1.00  0.00     0.074 A 
ATOM     52  C   UNL A   1      46.309  25.434  29.324  1.00  0.00     0.031 C 
ATOM     53  C   UNL A   1      46.559  27.657  30.393  1.00  0.00     0.037 A 
BRANCH  40  54
ATOM     54  C   UNL A   1      43.430  32.753  31.973  1.00  0.00     0.058 A 
ATOM     55  C   UNL A   1      43.532  33.929  31.214  1.00  0.00     0.135 A 
ATOM     56  C   UNL A   1      43.338  32.877  33.368  1.00  0.00     0.135 A 
ATOM     57  F   UNL A   1      43.644  33.864  29.877  1.00  0.00    -0.206 F 
ATOM     58  C   UNL A   1      43.571  35.181  31.819  1.00  0.00     0.059 A 
ATOM     59  C   UNL A   1      43.353  34.120  33.993  1.00  0.00     0.059 A 
ATOM     60  F   UNL A   1      43.243  31.783  34.140  1.00  0.00    -0.206 F 
ATOM     61  C   UNL A   1      43.486  35.266  33.211  1.00  0.00     0.060 A 
BRANCH  61  62
ATOM     62  S   UNL A   1      43.552  36.895  33.986  1.00  0.00     0.124 S 
ATOM     63  O   UNL A   1      44.177  37.692  32.935  1.00  0.00    -0.237 OA
ATOM     64  O   UNL A   1      42.144  37.179  34.242  1.00  0.00    -0.237 OA
ATOM     65  O   UNL A   1      44.369  36.672  35.175  1.00  0.00    -0.744 OA
ENDBRANCH  61  62
ENDBRANCH  40  54
BRANCH  41  66
ATOM     66  C   UNL A   1      42.785  23.718  27.756  1.00  0.00     0.058 A 
ATOM     67  C   UNL A   1      42.935  23.552  26.372  1.00  0.00     0.135 A 
ATOM     68  C   UNL A   1      42.538  22.572  28.529  1.00  0.00     0.135 A 
ATOM     69  F   UNL A   1      43.157  24.618  25.589  1.00  0.00    -0.206 F 
ATOM     70  C   UNL A   1      42.831  22.300  25.773  1.00  0.00     0.059 A 
ATOM     71  C   UNL A   1      42.454  21.307  27.956  1.00  0.00     0.059 A 
ATOM     72  F   UNL A   1      42.388  22.676  29.859  1.00  0.00    -0.206 F 
ATOM     73  C   UNL A   1      42.590  21.183  26.574  1.00  0.00     0.060 A 
BRANCH  73  74
ATOM     74  S   UNL A   1      42.493  19.557  25.794  1.00  0.00     0.124 S 
ATOM     75  O   UNL A   1      41.080  19.483  25.442  1.00  0.00    -0.237 OA
ATOM     76  O   UNL A   1      43.423  19.693  24.678  1.00  0.00    -0.237 OA
ATOM     77  O   UNL A   1      42.929  18.651  26.853  1.00  0.00    -0.744 OA
ENDBRANCH  73  74
ENDBRANCH  41  66
BRANCH  53  78
ATOM     78  C   UNL A   1      48.013  27.344  30.611  1.00  0.00     0.058 A 
ATOM     79  C   UNL A   1      48.452  26.626  31.734  1.00  0.00     0.135 A 
ATOM     80  C   UNL A   1      48.972  27.723  29.658  1.00  0.00     0.135 A 
ATOM     81  F   UNL A   1      47.575  26.247  32.678  1.00  0.00    -0.206 F 
ATOM     82  C   UNL A   1      49.795  26.311  31.917  1.00  0.00     0.059 A 
ATOM     83  C   UNL A   1      50.317  27.398  29.808  1.00  0.00     0.059 A 
ATOM     84  F   UNL A   1      48.604  28.401  28.561  1.00  0.00    -0.206 F 
ATOM     85  C   UNL A   1      50.721  26.702  30.947  1.00  0.00     0.060 A 
BRANCH  85  86
ATOM     86  S   UNL A   1      52.456  26.258  31.173  1.00  0.00     0.124 S 
ATOM     87  O   UNL A   1      52.927  27.341  32.031  1.00  0.00    -0.237 OA
ATOM     88  O   UNL A   1      52.366  24.945  31.805  1.00  0.00    -0.237 OA
ATOM     89  O   UNL A   1      52.986  26.256  29.813  1.00  0.00    -0.744 OA
ENDBRANCH  85  86
ENDBRANCH  53  78
ENDBRANCH  27  28
ENDBRANCH  20  22
ENDBRANCH  19  20
ENDBRANCH  18  19
ENDBRANCH   1  18
TORSDOF 17
ENDMDL
