MODEL 1
REMARK VINA RESULT:      -9.7      0.000      0.000
REMARK SMILES O=C(OCCOC(=O)c1cnc(OCC2CC2)c(Cl)c1)c1ccc(-c2c3nc(c(-c4c(F)cc(S(=O)(=O)[O-])cc4F)c4ccc([nH]4)c(-c4c(F)cc(S(=O)(=O)[O-])cc4F)c4nc(c(-c5c(F)cc(S(=O)(=O)[O-])cc5F)c5ccc2[nH]5)C=C4)C=C3)cc1
REMARK SMILES IDX 4 1 3 2 2 3 1 4 21 5 22 6 86 7 23 8 85 9 24 10 25 11 26 12
REMARK SMILES IDX 79 13 27 14 84 15 78 16 80 17 28 18 83 19 77 20 76 21 29 23
REMARK SMILES IDX 63 24 42 25 62 26 43 27 46 28 61 29 81 30 44 31 45 32 60 34
REMARK SMILES IDX 82 35 47 36 30 37 31 38 40 39 32 40 33 41 39 42 41 43 34 44
REMARK SMILES IDX 35 45 36 46 37 47 38 48 64 49 65 50 74 51 66 52 67 53 73 54
REMARK SMILES IDX 75 55 68 56 69 57 70 58 71 59 72 60 48 61 49 62 58 63 50 64
REMARK SMILES IDX 51 65 57 66 59 67 52 68 53 69 54 70 55 71 56 72 5 73 6 74
REMARK SMILES IDX 7 75 8 76 9 77 10 78 20 79 11 80 18 81 12 82 19 83 13 84
REMARK SMILES IDX 14 85 15 86 16 87 17 88
REMARK H PARENT 80 22 46 33
REMARK Flexibility Score: inf
ROOT
ATOM      1  C   UNL A   1      40.999  20.090  27.349  1.00  0.00     0.275 C 
ENDROOT
BRANCH   1   2
ATOM      2  O   UNL A   1      40.799  21.290  26.586  1.00  0.00    -0.458 OA
BRANCH   2   3
ATOM      3  C   UNL A   1      39.894  22.284  26.738  1.00  0.00     0.338 C 
ATOM      4  O   UNL A   1      38.712  22.038  26.501  1.00  0.00    -0.246 OA
BRANCH   3   5
ATOM      5  C   UNL A   1      40.261  23.703  27.049  1.00  0.00     0.060 A 
ATOM      6  C   UNL A   1      39.768  24.840  26.404  1.00  0.00     0.016 A 
ATOM      7  C   UNL A   1      41.173  23.893  28.103  1.00  0.00     0.016 A 
ATOM      8  C   UNL A   1      40.106  26.123  26.831  1.00  0.00     0.010 A 
ATOM      9  C   UNL A   1      41.510  25.174  28.543  1.00  0.00     0.010 A 
ATOM     10  C   UNL A   1      40.983  26.300  27.897  1.00  0.00    -0.014 A 
BRANCH  10  11
ATOM     11  C   UNL A   1      41.496  27.656  28.185  1.00  0.00     0.031 A 
ATOM     12  C   UNL A   1      42.966  27.891  27.977  1.00  0.00     0.074 A 
ATOM     13  C   UNL A   1      40.668  28.632  28.606  1.00  0.00     0.049 A 
ATOM     14  N   UNL A   1      43.674  28.961  28.209  1.00  0.00    -0.248 NA
ATOM     15  C   UNL A   1      43.744  26.765  27.424  1.00  0.00     0.031 C 
ATOM     16  C   UNL A   1      39.222  28.493  28.817  1.00  0.00     0.029 A 
ATOM     17  N   UNL A   1      40.933  29.916  29.008  1.00  0.00    -0.354 N 
ATOM     18  C   UNL A   1      44.964  28.650  27.792  1.00  0.00     0.074 A 
ATOM     19  C   UNL A   1      44.968  27.264  27.394  1.00  0.00     0.031 C 
ATOM     20  C   UNL A   1      38.749  29.614  29.392  1.00  0.00     0.029 A 
ATOM     21  C   UNL A   1      39.855  30.540  29.598  1.00  0.00     0.049 A 
ATOM     22  H   UNL A   1      41.809  30.349  28.889  1.00  0.00     0.167 HD
ATOM     23  C   UNL A   1      46.033  29.473  27.696  1.00  0.00     0.037 A 
ATOM     24  C   UNL A   1      39.799  31.706  30.273  1.00  0.00     0.037 A 
ATOM     25  C   UNL A   1      45.993  30.844  28.121  1.00  0.00     0.049 A 
ATOM     26  C   UNL A   1      41.050  32.538  30.335  1.00  0.00     0.074 A 
ATOM     27  C   UNL A   1      46.977  31.809  28.033  1.00  0.00     0.029 A 
ATOM     28  N   UNL A   1      44.899  31.436  28.742  1.00  0.00    -0.354 N 
ATOM     29  N   UNL A   1      42.249  32.263  29.876  1.00  0.00    -0.248 NA
ATOM     30  C   UNL A   1      40.929  33.859  30.961  1.00  0.00     0.031 C 
ATOM     31  C   UNL A   1      46.497  32.969  28.653  1.00  0.00     0.029 A 
ATOM     32  C   UNL A   1      45.192  32.745  29.070  1.00  0.00     0.049 A 
ATOM     33  H   UNL A   1      44.041  30.988  28.922  1.00  0.00     0.167 HD
ATOM     34  C   UNL A   1      43.008  33.407  30.085  1.00  0.00     0.074 A 
ATOM     35  C   UNL A   1      42.140  34.358  30.753  1.00  0.00     0.031 C 
ATOM     36  C   UNL A   1      44.290  33.666  29.722  1.00  0.00     0.037 A 
BRANCH  23  37
ATOM     37  C   UNL A   1      47.296  28.904  27.107  1.00  0.00     0.058 A 
ATOM     38  C   UNL A   1      47.421  28.663  25.727  1.00  0.00     0.135 A 
ATOM     39  C   UNL A   1      48.388  28.577  27.925  1.00  0.00     0.135 A 
ATOM     40  F   UNL A   1      46.403  28.938  24.896  1.00  0.00    -0.206 F 
ATOM     41  C   UNL A   1      48.562  28.078  25.187  1.00  0.00     0.059 A 
ATOM     42  C   UNL A   1      49.553  28.019  27.401  1.00  0.00     0.059 A 
ATOM     43  F   UNL A   1      48.326  28.780  29.250  1.00  0.00    -0.206 F 
ATOM     44  C   UNL A   1      49.623  27.756  26.034  1.00  0.00     0.060 A 
BRANCH  44  45
ATOM     45  S   UNL A   1      51.091  26.986  25.318  1.00  0.00     0.124 S 
ATOM     46  O   UNL A   1      50.916  27.286  23.900  1.00  0.00    -0.237 OA
ATOM     47  O   UNL A   1      52.174  27.702  25.987  1.00  0.00    -0.237 OA
ATOM     48  O   UNL A   1      50.951  25.580  25.685  1.00  0.00    -0.744 OA
ENDBRANCH  44  45
ENDBRANCH  23  37
BRANCH  24  49
ATOM     49  C   UNL A   1      38.542  32.164  30.925  1.00  0.00     0.058 A 
ATOM     50  C   UNL A   1      38.262  31.855  32.262  1.00  0.00     0.135 A 
ATOM     51  C   UNL A   1      37.576  32.899  30.219  1.00  0.00     0.135 A 
ATOM     52  F   UNL A   1      39.130  31.121  32.974  1.00  0.00    -0.206 F 
ATOM     53  C   UNL A   1      37.081  32.268  32.879  1.00  0.00     0.059 A 
ATOM     54  C   UNL A   1      36.402  33.348  30.818  1.00  0.00     0.059 A 
ATOM     55  F   UNL A   1      37.747  33.167  28.919  1.00  0.00    -0.206 F 
ATOM     56  C   UNL A   1      36.160  33.022  32.149  1.00  0.00     0.060 A 
BRANCH  56  57
ATOM     57  S   UNL A   1      34.656  33.603  32.965  1.00  0.00     0.124 S 
ATOM     58  O   UNL A   1      33.653  32.703  32.411  1.00  0.00    -0.237 OA
ATOM     59  O   UNL A   1      34.978  33.410  34.376  1.00  0.00    -0.237 OA
ATOM     60  O   UNL A   1      34.561  34.996  32.539  1.00  0.00    -0.744 OA
ENDBRANCH  56  57
ENDBRANCH  24  49
BRANCH  36  61
ATOM     61  C   UNL A   1      44.789  35.064  29.947  1.00  0.00     0.058 A 
ATOM     62  C   UNL A   1      45.487  35.433  31.104  1.00  0.00     0.135 A 
ATOM     63  C   UNL A   1      44.595  36.035  28.950  1.00  0.00     0.135 A 
ATOM     64  F   UNL A   1      45.686  34.543  32.089  1.00  0.00    -0.206 F 
ATOM     65  C   UNL A   1      45.952  36.731  31.280  1.00  0.00     0.059 A 
ATOM     66  C   UNL A   1      45.083  37.327  29.089  1.00  0.00     0.059 A 
ATOM     67  F   UNL A   1      43.941  35.725  27.820  1.00  0.00    -0.206 F 
ATOM     68  C   UNL A   1      45.748  37.669  30.265  1.00  0.00     0.060 A 
BRANCH  68  69
ATOM     69  S   UNL A   1      46.381  39.342  30.492  1.00  0.00     0.124 S 
ATOM     70  O   UNL A   1      46.751  39.702  29.128  1.00  0.00    -0.237 OA
ATOM     71  O   UNL A   1      45.223  40.041  31.042  1.00  0.00    -0.237 OA
ATOM     72  O   UNL A   1      47.495  39.161  31.419  1.00  0.00    -0.744 OA
ENDBRANCH  68  69
ENDBRANCH  36  61
ENDBRANCH  10  11
ENDBRANCH   3   5
ENDBRANCH   2   3
ENDBRANCH   1   2
BRANCH   1  73
ATOM     73  C   UNL A   1      42.160  19.199  26.886  1.00  0.00     0.275 C 
BRANCH  73  74
ATOM     74  O   UNL A   1      42.487  19.309  25.490  1.00  0.00    -0.458 OA
BRANCH  74  75
ATOM     75  C   UNL A   1      43.805  19.192  25.193  1.00  0.00     0.339 C 
ATOM     76  O   UNL A   1      44.424  18.152  25.018  1.00  0.00    -0.246 OA
BRANCH  75  77
ATOM     77  C   UNL A   1      44.397  20.518  24.988  1.00  0.00     0.080 A 
ATOM     78  C   UNL A   1      45.765  20.623  24.854  1.00  0.00     0.131 A 
ATOM     79  C   UNL A   1      43.653  21.691  24.970  1.00  0.00     0.043 A 
ATOM     80  N   UNL A   1      46.403  21.796  24.629  1.00  0.00    -0.220 NA
ATOM     81  C   UNL A   1      44.301  22.932  24.808  1.00  0.00     0.104 A 
ATOM     82  C   UNL A   1      45.684  22.953  24.590  1.00  0.00     0.232 A 
ATOM     83  Cl  UNL A   1      43.270  24.297  25.000  1.00  0.00    -0.078 Cl
BRANCH  82  84
ATOM     84  O   UNL A   1      46.530  23.978  24.334  1.00  0.00    -0.476 OA
BRANCH  84  85
ATOM     85  C   UNL A   1      47.028  24.903  25.289  1.00  0.00     0.235 C 
BRANCH  85  86
ATOM     86  C   UNL A   1      47.423  24.250  26.583  1.00  0.00     0.027 C 
ATOM     87  C   UNL A   1      47.599  25.011  27.868  1.00  0.00     0.007 C 
ATOM     88  C   UNL A   1      46.405  24.130  27.684  1.00  0.00     0.007 C 
ENDBRANCH  85  86
ENDBRANCH  84  85
ENDBRANCH  82  84
ENDBRANCH  75  77
ENDBRANCH  74  75
ENDBRANCH  73  74
ENDBRANCH   1  73
TORSDOF 17
ENDMDL
MODEL 2
REMARK VINA RESULT:      -9.5      2.854      5.346
REMARK SMILES O=C(OCCOC(=O)c1cnc(OCC2CC2)c(Cl)c1)c1ccc(-c2c3nc(c(-c4c(F)cc(S(=O)(=O)[O-])cc4F)c4ccc([nH]4)c(-c4c(F)cc(S(=O)(=O)[O-])cc4F)c4nc(c(-c5c(F)cc(S(=O)(=O)[O-])cc5F)c5ccc2[nH]5)C=C4)C=C3)cc1
REMARK SMILES IDX 4 1 3 2 2 3 1 4 21 5 22 6 86 7 23 8 85 9 24 10 25 11 26 12
REMARK SMILES IDX 79 13 27 14 84 15 78 16 80 17 28 18 83 19 77 20 76 21 29 23
REMARK SMILES IDX 63 24 42 25 62 26 43 27 46 28 61 29 81 30 44 31 45 32 60 34
REMARK SMILES IDX 82 35 47 36 30 37 31 38 40 39 32 40 33 41 39 42 41 43 34 44
REMARK SMILES IDX 35 45 36 46 37 47 38 48 64 49 65 50 74 51 66 52 67 53 73 54
REMARK SMILES IDX 75 55 68 56 69 57 70 58 71 59 72 60 48 61 49 62 58 63 50 64
REMARK SMILES IDX 51 65 57 66 59 67 52 68 53 69 54 70 55 71 56 72 5 73 6 74
REMARK SMILES IDX 7 75 8 76 9 77 10 78 20 79 11 80 18 81 12 82 19 83 13 84
REMARK SMILES IDX 14 85 15 86 16 87 17 88
REMARK H PARENT 80 22 46 33
REMARK Flexibility Score: inf
ROOT
ATOM      1  C   UNL A   1      43.322  18.444  25.788  1.00  0.00     0.275 C 
ENDROOT
BRANCH   1   2
ATOM      2  O   UNL A   1      43.794  19.064  24.581  1.00  0.00    -0.458 OA
BRANCH   2   3
ATOM      3  C   UNL A   1      44.881  19.840  24.363  1.00  0.00     0.338 C 
ATOM      4  O   UNL A   1      45.908  19.302  23.950  1.00  0.00    -0.246 OA
BRANCH   3   5
ATOM      5  C   UNL A   1      44.952  21.293  24.721  1.00  0.00     0.060 A 
ATOM      6  C   UNL A   1      44.684  22.364  23.865  1.00  0.00     0.016 A 
ATOM      7  C   UNL A   1      45.301  21.590  26.051  1.00  0.00     0.016 A 
ATOM      8  C   UNL A   1      44.691  23.681  24.324  1.00  0.00     0.010 A 
ATOM      9  C   UNL A   1      45.301  22.904  26.521  1.00  0.00     0.010 A 
ATOM     10  C   UNL A   1      45.005  23.961  25.650  1.00  0.00    -0.014 A 
BRANCH  10  11
ATOM     11  C   UNL A   1      45.221  25.367  26.053  1.00  0.00     0.031 A 
ATOM     12  C   UNL A   1      46.640  25.862  26.078  1.00  0.00     0.074 A 
ATOM     13  C   UNL A   1      44.180  26.161  26.372  1.00  0.00     0.049 A 
ATOM     14  N   UNL A   1      47.105  27.023  26.448  1.00  0.00    -0.248 NA
ATOM     15  C   UNL A   1      47.678  24.918  25.617  1.00  0.00     0.031 C 
ATOM     16  C   UNL A   1      42.767  25.765  26.356  1.00  0.00     0.029 A 
ATOM     17  N   UNL A   1      44.152  27.447  26.848  1.00  0.00    -0.354 N 
ATOM     18  C   UNL A   1      48.476  26.961  26.223  1.00  0.00     0.074 A 
ATOM     19  C   UNL A   1      48.785  25.621  25.789  1.00  0.00     0.031 C 
ATOM     20  C   UNL A   1      42.024  26.754  26.885  1.00  0.00     0.029 A 
ATOM     21  C   UNL A   1      42.906  27.844  27.284  1.00  0.00     0.049 A 
ATOM     22  H   UNL A   1      44.945  28.030  26.876  1.00  0.00     0.167 HD
ATOM     23  C   UNL A   1      49.385  27.960  26.315  1.00  0.00     0.037 A 
ATOM     24  C   UNL A   1      42.547  28.942  27.978  1.00  0.00     0.037 A 
ATOM     25  C   UNL A   1      49.040  29.277  26.770  1.00  0.00     0.049 A 
ATOM     26  C   UNL A   1      43.607  29.972  28.254  1.00  0.00     0.074 A 
ATOM     27  C   UNL A   1      49.839  30.400  26.862  1.00  0.00     0.029 A 
ATOM     28  N   UNL A   1      47.780  29.637  27.234  1.00  0.00    -0.354 N 
ATOM     29  N   UNL A   1      44.889  29.932  27.975  1.00  0.00    -0.248 NA
ATOM     30  C   UNL A   1      43.164  31.215  28.894  1.00  0.00     0.031 C 
ATOM     31  C   UNL A   1      49.075  31.424  27.436  1.00  0.00     0.029 A 
ATOM     32  C   UNL A   1      47.785  30.957  27.642  1.00  0.00     0.049 A 
ATOM     33  H   UNL A   1      46.999  29.040  27.268  1.00  0.00     0.167 HD
ATOM     34  C   UNL A   1      45.395  31.176  28.332  1.00  0.00     0.074 A 
ATOM     35  C   UNL A   1      44.283  31.926  28.888  1.00  0.00     0.031 C 
ATOM     36  C   UNL A   1      46.649  31.671  28.176  1.00  0.00     0.037 A 
BRANCH  23  37
ATOM     37  C   UNL A   1      50.800  27.649  25.910  1.00  0.00     0.058 A 
ATOM     38  C   UNL A   1      51.219  27.743  24.570  1.00  0.00     0.135 A 
ATOM     39  C   UNL A   1      51.748  27.236  26.858  1.00  0.00     0.135 A 
ATOM     40  F   UNL A   1      50.353  28.115  23.614  1.00  0.00    -0.206 F 
ATOM     41  C   UNL A   1      52.509  27.396  24.181  1.00  0.00     0.059 A 
ATOM     42  C   UNL A   1      53.054  26.914  26.495  1.00  0.00     0.059 A 
ATOM     43  F   UNL A   1      51.405  27.123  28.151  1.00  0.00    -0.206 F 
ATOM     44  C   UNL A   1      53.420  26.979  25.152  1.00  0.00     0.060 A 
BRANCH  44  45
ATOM     45  S   UNL A   1      55.086  26.520  24.627  1.00  0.00     0.124 S 
ATOM     46  O   UNL A   1      55.125  25.106  24.985  1.00  0.00    -0.237 OA
ATOM     47  O   UNL A   1      55.051  26.810  23.196  1.00  0.00    -0.237 OA
ATOM     48  O   UNL A   1      55.945  27.394  25.421  1.00  0.00    -0.744 OA
ENDBRANCH  44  45
ENDBRANCH  23  37
BRANCH  24  49
ATOM     49  C   UNL A   1      41.147  29.141  28.443  1.00  0.00     0.058 A 
ATOM     50  C   UNL A   1      40.817  29.074  29.804  1.00  0.00     0.135 A 
ATOM     51  C   UNL A   1      40.099  29.375  27.539  1.00  0.00     0.135 A 
ATOM     52  F   UNL A   1      41.770  28.813  30.710  1.00  0.00    -0.206 F 
ATOM     53  C   UNL A   1      39.507  29.246  30.249  1.00  0.00     0.059 A 
ATOM     54  C   UNL A   1      38.787  29.579  27.958  1.00  0.00     0.059 A 
ATOM     55  F   UNL A   1      40.333  29.380  26.221  1.00  0.00    -0.206 F 
ATOM     56  C   UNL A   1      38.499  29.506  29.318  1.00  0.00     0.060 A 
BRANCH  56  57
ATOM     57  S   UNL A   1      36.812  29.782  29.903  1.00  0.00     0.124 S 
ATOM     58  O   UNL A   1      36.766  28.931  31.085  1.00  0.00    -0.237 OA
ATOM     59  O   UNL A   1      36.805  31.222  30.150  1.00  0.00    -0.237 OA
ATOM     60  O   UNL A   1      35.992  29.347  28.776  1.00  0.00    -0.744 OA
ENDBRANCH  56  57
ENDBRANCH  24  49
BRANCH  36  61
ATOM     61  C   UNL A   1      46.853  33.119  28.516  1.00  0.00     0.058 A 
ATOM     62  C   UNL A   1      46.631  34.145  27.589  1.00  0.00     0.135 A 
ATOM     63  C   UNL A   1      47.236  33.474  29.821  1.00  0.00     0.135 A 
ATOM     64  F   UNL A   1      46.275  33.853  26.327  1.00  0.00    -0.206 F 
ATOM     65  C   UNL A   1      46.811  35.479  27.935  1.00  0.00     0.059 A 
ATOM     66  C   UNL A   1      47.386  34.802  30.198  1.00  0.00     0.059 A 
ATOM     67  F   UNL A   1      47.450  32.527  30.747  1.00  0.00    -0.206 F 
ATOM     68  C   UNL A   1      47.186  35.797  29.243  1.00  0.00     0.060 A 
BRANCH  68  69
ATOM     69  S   UNL A   1      47.388  37.532  29.688  1.00  0.00     0.124 S 
ATOM     70  O   UNL A   1      47.243  38.185  28.392  1.00  0.00    -0.237 OA
ATOM     71  O   UNL A   1      46.293  37.741  30.631  1.00  0.00    -0.237 OA
ATOM     72  O   UNL A   1      48.727  37.580  30.271  1.00  0.00    -0.744 OA
ENDBRANCH  68  69
ENDBRANCH  36  61
ENDBRANCH  10  11
ENDBRANCH   3   5
ENDBRANCH   2   3
ENDBRANCH   1   2
BRANCH   1  73
ATOM     73  C   UNL A   1      42.064  19.072  26.404  1.00  0.00     0.275 C 
BRANCH  73  74
ATOM     74  O   UNL A   1      41.819  20.436  26.020  1.00  0.00    -0.458 OA
BRANCH  74  75
ATOM     75  C   UNL A   1      41.665  21.306  27.048  1.00  0.00     0.339 C 
ATOM     76  O   UNL A   1      42.439  21.481  27.979  1.00  0.00    -0.246 OA
BRANCH  75  77
ATOM     77  C   UNL A   1      40.467  22.127  26.841  1.00  0.00     0.080 A 
ATOM     78  C   UNL A   1      39.502  21.685  25.962  1.00  0.00     0.131 A 
ATOM     79  C   UNL A   1      40.274  23.360  27.450  1.00  0.00     0.043 A 
ATOM     80  N   UNL A   1      38.348  22.353  25.726  1.00  0.00    -0.220 NA
ATOM     81  C   UNL A   1      39.113  24.108  27.168  1.00  0.00     0.104 A 
ATOM     82  C   UNL A   1      38.134  23.556  26.332  1.00  0.00     0.232 A 
ATOM     83  Cl  UNL A   1      39.110  25.690  27.846  1.00  0.00    -0.078 Cl
BRANCH  82  84
ATOM     84  O   UNL A   1      36.916  24.014  25.962  1.00  0.00    -0.476 OA
BRANCH  84  85
ATOM     85  C   UNL A   1      36.214  23.650  24.782  1.00  0.00     0.235 C 
BRANCH  85  86
ATOM     86  C   UNL A   1      34.751  23.982  24.848  1.00  0.00     0.027 C 
ATOM     87  C   UNL A   1      34.205  25.138  25.640  1.00  0.00     0.007 C 
ATOM     88  C   UNL A   1      34.246  25.213  24.147  1.00  0.00     0.007 C 
ENDBRANCH  85  86
ENDBRANCH  84  85
ENDBRANCH  82  84
ENDBRANCH  75  77
ENDBRANCH  74  75
ENDBRANCH  73  74
ENDBRANCH   1  73
TORSDOF 17
ENDMDL
MODEL 3
REMARK VINA RESULT:      -9.4      5.989      8.435
REMARK SMILES O=C(OCCOC(=O)c1cnc(OCC2CC2)c(Cl)c1)c1ccc(-c2c3nc(c(-c4c(F)cc(S(=O)(=O)[O-])cc4F)c4ccc([nH]4)c(-c4c(F)cc(S(=O)(=O)[O-])cc4F)c4nc(c(-c5c(F)cc(S(=O)(=O)[O-])cc5F)c5ccc2[nH]5)C=C4)C=C3)cc1
REMARK SMILES IDX 4 1 3 2 2 3 1 4 21 5 22 6 86 7 23 8 85 9 24 10 25 11 26 12
REMARK SMILES IDX 79 13 27 14 84 15 78 16 80 17 28 18 83 19 77 20 76 21 29 23
REMARK SMILES IDX 63 24 42 25 62 26 43 27 46 28 61 29 81 30 44 31 45 32 60 34
REMARK SMILES IDX 82 35 47 36 30 37 31 38 40 39 32 40 33 41 39 42 41 43 34 44
REMARK SMILES IDX 35 45 36 46 37 47 38 48 64 49 65 50 74 51 66 52 67 53 73 54
REMARK SMILES IDX 75 55 68 56 69 57 70 58 71 59 72 60 48 61 49 62 58 63 50 64
REMARK SMILES IDX 51 65 57 66 59 67 52 68 53 69 54 70 55 71 56 72 5 73 6 74
REMARK SMILES IDX 7 75 8 76 9 77 10 78 20 79 11 80 18 81 12 82 19 83 13 84
REMARK SMILES IDX 14 85 15 86 16 87 17 88
REMARK H PARENT 80 22 46 33
REMARK Flexibility Score: inf
ROOT
ATOM      1  C   UNL A   1      41.159  22.368  26.119  1.00  0.00     0.275 C 
ENDROOT
BRANCH   1   2
ATOM      2  O   UNL A   1      41.585  23.736  26.217  1.00  0.00    -0.458 OA
BRANCH   2   3
ATOM      3  C   UNL A   1      42.563  24.298  26.965  1.00  0.00     0.338 C 
ATOM      4  O   UNL A   1      43.683  23.790  26.940  1.00  0.00    -0.246 OA
BRANCH   3   5
ATOM      5  C   UNL A   1      42.330  25.423  27.928  1.00  0.00     0.060 A 
ATOM      6  C   UNL A   1      43.256  26.408  28.281  1.00  0.00     0.016 A 
ATOM      7  C   UNL A   1      41.050  25.491  28.507  1.00  0.00     0.016 A 
ATOM      8  C   UNL A   1      42.909  27.465  29.120  1.00  0.00     0.010 A 
ATOM      9  C   UNL A   1      40.691  26.551  29.341  1.00  0.00     0.010 A 
ATOM     10  C   UNL A   1      41.629  27.542  29.661  1.00  0.00    -0.014 A 
BRANCH  10  11
ATOM     11  C   UNL A   1      41.356  28.541  30.715  1.00  0.00     0.031 A 
ATOM     12  C   UNL A   1      42.091  28.383  32.016  1.00  0.00     0.074 A 
ATOM     13  C   UNL A   1      40.490  29.551  30.500  1.00  0.00     0.049 A 
ATOM     14  N   UNL A   1      41.991  29.081  33.113  1.00  0.00    -0.248 NA
ATOM     15  C   UNL A   1      43.081  27.290  32.088  1.00  0.00     0.031 C 
ATOM     16  C   UNL A   1      39.746  29.788  29.257  1.00  0.00     0.029 A 
ATOM     17  N   UNL A   1      40.026  30.524  31.348  1.00  0.00    -0.354 N 
ATOM     18  C   UNL A   1      42.931  28.540  33.984  1.00  0.00     0.074 A 
ATOM     19  C   UNL A   1      43.515  27.392  33.333  1.00  0.00     0.031 C 
ATOM     20  C   UNL A   1      38.858  30.781  29.456  1.00  0.00     0.029 A 
ATOM     21  C   UNL A   1      38.964  31.238  30.836  1.00  0.00     0.049 A 
ATOM     22  H   UNL A   1      40.413  30.695  32.237  1.00  0.00     0.167 HD
ATOM     23  C   UNL A   1      43.312  29.002  35.197  1.00  0.00     0.037 A 
ATOM     24  C   UNL A   1      38.145  32.119  31.445  1.00  0.00     0.037 A 
ATOM     25  C   UNL A   1      42.692  30.138  35.820  1.00  0.00     0.049 A 
ATOM     26  C   UNL A   1      38.453  32.491  32.869  1.00  0.00     0.074 A 
ATOM     27  C   UNL A   1      43.008  30.752  37.016  1.00  0.00     0.029 A 
ATOM     28  N   UNL A   1      41.601  30.818  35.291  1.00  0.00    -0.354 N 
ATOM     29  N   UNL A   1      39.389  32.020  33.661  1.00  0.00    -0.248 NA
ATOM     30  C   UNL A   1      37.628  33.545  33.465  1.00  0.00     0.031 C 
ATOM     31  C   UNL A   1      42.071  31.768  37.236  1.00  0.00     0.029 A 
ATOM     32  C   UNL A   1      41.211  31.828  36.148  1.00  0.00     0.049 A 
ATOM     33  H   UNL A   1      41.169  30.610  34.431  1.00  0.00     0.167 HD
ATOM     34  C   UNL A   1      39.319  32.777  34.823  1.00  0.00     0.074 A 
ATOM     35  C   UNL A   1      38.217  33.704  34.642  1.00  0.00     0.031 C 
ATOM     36  C   UNL A   1      40.116  32.741  35.922  1.00  0.00     0.037 A 
BRANCH  23  37
ATOM     37  C   UNL A   1      44.437  28.283  35.892  1.00  0.00     0.058 A 
ATOM     38  C   UNL A   1      45.783  28.610  35.644  1.00  0.00     0.135 A 
ATOM     39  C   UNL A   1      44.178  27.246  36.801  1.00  0.00     0.135 A 
ATOM     40  F   UNL A   1      46.094  29.581  34.770  1.00  0.00    -0.206 F 
ATOM     41  C   UNL A   1      46.827  27.907  36.235  1.00  0.00     0.059 A 
ATOM     42  C   UNL A   1      45.208  26.549  37.428  1.00  0.00     0.059 A 
ATOM     43  F   UNL A   1      42.914  26.887  37.073  1.00  0.00    -0.206 F 
ATOM     44  C   UNL A   1      46.529  26.874  37.125  1.00  0.00     0.060 A 
BRANCH  44  45
ATOM     45  S   UNL A   1      47.897  25.963  37.873  1.00  0.00     0.124 S 
ATOM     46  O   UNL A   1      47.906  26.510  39.226  1.00  0.00    -0.237 OA
ATOM     47  O   UNL A   1      47.449  24.578  37.754  1.00  0.00    -0.237 OA
ATOM     48  O   UNL A   1      49.041  26.323  37.041  1.00  0.00    -0.744 OA
ENDBRANCH  44  45
ENDBRANCH  23  37
BRANCH  24  49
ATOM     49  C   UNL A   1      36.983  32.717  30.732  1.00  0.00     0.058 A 
ATOM     50  C   UNL A   1      35.684  32.225  30.920  1.00  0.00     0.135 A 
ATOM     51  C   UNL A   1      37.144  33.776  29.825  1.00  0.00     0.135 A 
ATOM     52  F   UNL A   1      35.476  31.187  31.744  1.00  0.00    -0.206 F 
ATOM     53  C   UNL A   1      34.590  32.768  30.247  1.00  0.00     0.059 A 
ATOM     54  C   UNL A   1      36.066  34.356  29.163  1.00  0.00     0.059 A 
ATOM     55  F   UNL A   1      38.366  34.246  29.546  1.00  0.00    -0.206 F 
ATOM     56  C   UNL A   1      34.791  33.841  29.376  1.00  0.00     0.060 A 
BRANCH  56  57
ATOM     57  S   UNL A   1      33.365  34.580  28.548  1.00  0.00     0.124 S 
ATOM     58  O   UNL A   1      32.503  34.905  29.677  1.00  0.00    -0.237 OA
ATOM     59  O   UNL A   1      33.967  35.716  27.855  1.00  0.00    -0.237 OA
ATOM     60  O   UNL A   1      32.891  33.508  27.677  1.00  0.00    -0.744 OA
ENDBRANCH  56  57
ENDBRANCH  24  49
BRANCH  36  61
ATOM     61  C   UNL A   1      39.886  33.801  36.960  1.00  0.00     0.058 A 
ATOM     62  C   UNL A   1      39.056  33.596  38.069  1.00  0.00     0.135 A 
ATOM     63  C   UNL A   1      40.557  35.031  36.850  1.00  0.00     0.135 A 
ATOM     64  F   UNL A   1      38.385  32.442  38.210  1.00  0.00    -0.206 F 
ATOM     65  C   UNL A   1      38.874  34.590  39.025  1.00  0.00     0.059 A 
ATOM     66  C   UNL A   1      40.419  36.023  37.812  1.00  0.00     0.059 A 
ATOM     67  F   UNL A   1      41.371  35.269  35.810  1.00  0.00    -0.206 F 
ATOM     68  C   UNL A   1      39.562  35.797  38.889  1.00  0.00     0.060 A 
BRANCH  68  69
ATOM     69  S   UNL A   1      39.341  37.067  40.150  1.00  0.00     0.124 S 
ATOM     70  O   UNL A   1      40.724  37.400  40.474  1.00  0.00    -0.237 OA
ATOM     71  O   UNL A   1      38.594  38.094  39.429  1.00  0.00    -0.237 OA
ATOM     72  O   UNL A   1      38.596  36.378  41.199  1.00  0.00    -0.744 OA
ENDBRANCH  68  69
ENDBRANCH  36  61
ENDBRANCH  10  11
ENDBRANCH   3   5
ENDBRANCH   2   3
ENDBRANCH   1   2
BRANCH   1  73
ATOM     73  C   UNL A   1      39.721  22.091  26.578  1.00  0.00     0.275 C 
BRANCH  73  74
ATOM     74  O   UNL A   1      38.744  22.068  25.524  1.00  0.00    -0.458 OA
BRANCH  74  75
ATOM     75  C   UNL A   1      37.766  23.002  25.622  1.00  0.00     0.339 C 
ATOM     76  O   UNL A   1      37.908  24.178  25.926  1.00  0.00    -0.246 OA
BRANCH  75  77
ATOM     77  C   UNL A   1      36.482  22.439  25.191  1.00  0.00     0.080 A 
ATOM     78  C   UNL A   1      36.049  21.259  25.759  1.00  0.00     0.131 A 
ATOM     79  C   UNL A   1      35.696  23.006  24.196  1.00  0.00     0.043 A 
ATOM     80  N   UNL A   1      34.866  20.676  25.452  1.00  0.00    -0.220 NA
ATOM     81  C   UNL A   1      34.494  22.381  23.810  1.00  0.00     0.104 A 
ATOM     82  C   UNL A   1      34.074  21.233  24.492  1.00  0.00     0.232 A 
ATOM     83  Cl  UNL A   1      33.734  23.098  22.440  1.00  0.00    -0.078 Cl
BRANCH  82  84
ATOM     84  O   UNL A   1      32.948  20.490  24.379  1.00  0.00    -0.476 OA
BRANCH  84  85
ATOM     85  C   UNL A   1      32.743  19.201  24.937  1.00  0.00     0.235 C 
BRANCH  85  86
ATOM     86  C   UNL A   1      32.303  18.188  23.920  1.00  0.00     0.027 C 
ATOM     87  C   UNL A   1      32.524  18.357  22.442  1.00  0.00     0.007 C 
ATOM     88  C   UNL A   1      33.341  17.365  23.207  1.00  0.00     0.007 C 
ENDBRANCH  85  86
ENDBRANCH  84  85
ENDBRANCH  82  84
ENDBRANCH  75  77
ENDBRANCH  74  75
ENDBRANCH  73  74
ENDBRANCH   1  73
TORSDOF 17
ENDMDL
