MODEL 1
REMARK VINA RESULT:     -10.8      0.000      0.000
REMARK SMILES C[C@H](C(=O)NC1CCCC1)[N@H+]1CCn2nc(CCC(=O)OCCOC(=O)c3ccc(-c4c5nc(c(-c6c(F)cc(S(=O)(=O)[O-])cc6F)c6ccc([nH]6)c(-c6c(F)cc(S(=O)(=O)[O-])cc6F)c6nc(c(-c7c(F)cc(S(=O)(=O)[O-])cc7F)c7ccc4[nH]7)C=C6)C=C5)cc3)cc2C1
REMARK SMILES IDX 22 1 21 2 19 3 20 4 18 5 17 6 16 7 11 8 12 9 95 10 13 12
REMARK SMILES IDX 94 13 14 14 93 15 15 16 2 17 1 18 3 19 4 20 5 21 6 23 7 24
REMARK SMILES IDX 10 25 8 26 9 27 23 28 24 29 25 30 26 31 27 32 28 33 92 34
REMARK SMILES IDX 29 35 91 36 30 37 31 38 32 39 85 40 33 41 90 42 84 43 86 44
REMARK SMILES IDX 34 45 89 46 83 47 82 48 35 50 69 51 48 52 68 53 49 54 52 55
REMARK SMILES IDX 67 56 87 57 50 58 51 59 66 61 88 62 53 63 36 64 37 65 46 66
REMARK SMILES IDX 38 67 39 68 45 69 47 70 40 71 41 72 42 73 43 74 44 75 70 76
REMARK SMILES IDX 71 77 80 78 72 79 73 80 79 81 81 82 74 83 75 84 76 85 77 86
REMARK SMILES IDX 78 87 54 88 55 89 64 90 56 91 57 92 63 93 65 94 58 95 59 96
REMARK SMILES IDX 60 97 61 98 62 99
REMARK H PARENT 11 11 5 22 86 49 52 60
REMARK Flexibility Score: inf
ROOT
ATOM      1  C   UNL A   1      33.294  34.369  28.025  1.00  0.00     0.274 C 
ENDROOT
BRANCH   1   2
ATOM      2  O   UNL A   1      32.754  34.593  29.339  1.00  0.00    -0.462 OA
BRANCH   2   3
ATOM      3  C   UNL A   1      32.852  35.840  29.859  1.00  0.00     0.306 C 
ATOM      4  O   UNL A   1      33.173  36.840  29.226  1.00  0.00    -0.252 OA
BRANCH   3   5
ATOM      5  C   UNL A   1      32.611  35.851  31.351  1.00  0.00     0.129 C 
BRANCH   5   6
ATOM      6  C   UNL A   1      33.844  36.123  32.211  1.00  0.00     0.070 C 
BRANCH   6   7
ATOM      7  C   UNL A   1      34.460  34.887  32.775  1.00  0.00     0.064 A 
ATOM      8  N   UNL A   1      37.655  32.144  33.878  1.00  0.00    -0.318 N 
ATOM      9  C   UNL A   1      36.932  31.105  33.134  1.00  0.00     0.287 C 
ATOM     10  C   UNL A   1      36.749  32.870  34.746  1.00  0.00     0.319 C 
ATOM     11  H   UNL A   1      37.985  32.802  33.172  1.00  0.00     0.349 HD
ATOM     12  C   UNL A   1      35.810  31.707  32.252  1.00  0.00     0.206 C 
ATOM     13  C   UNL A   1      35.736  33.536  33.934  1.00  0.00     0.093 A 
ATOM     14  N   UNL A   1      35.269  32.933  32.813  1.00  0.00    -0.258 N 
ATOM     15  C   UNL A   1      35.181  34.789  33.980  1.00  0.00     0.055 A 
ATOM     16  N   UNL A   1      34.458  33.722  32.112  1.00  0.00    -0.177 NA
BRANCH   8  17
ATOM     17  C   UNL A   1      38.980  31.814  34.425  1.00  0.00     0.271 C 
ATOM     18  C   UNL A   1      39.099  31.091  35.761  1.00  0.00     0.086 C 
BRANCH  17  19
ATOM     19  C   UNL A   1      40.053  32.914  34.179  1.00  0.00     0.278 C 
ATOM     20  O   UNL A   1      40.780  33.255  35.128  1.00  0.00    -0.268 OA
ATOM     21  N   UNL A   1      40.296  33.602  33.033  1.00  0.00    -0.348 N 
ATOM     22  H   UNL A   1      40.936  34.327  33.218  1.00  0.00     0.163 HD
BRANCH  21  23
ATOM     23  C   UNL A   1      39.927  33.628  31.614  1.00  0.00     0.082 C 
ATOM     24  C   UNL A   1      38.541  34.241  31.323  1.00  0.00     0.025 C 
ATOM     25  C   UNL A   1      40.880  34.221  30.595  1.00  0.00     0.025 C 
ATOM     26  C   UNL A   1      38.675  35.001  30.004  1.00  0.00     0.002 C 
ATOM     27  C   UNL A   1      40.000  34.560  29.401  1.00  0.00     0.002 C 
ENDBRANCH  21  23
ENDBRANCH  17  19
ENDBRANCH   8  17
ENDBRANCH   6   7
ENDBRANCH   5   6
ENDBRANCH   3   5
ENDBRANCH   2   3
ENDBRANCH   1   2
BRANCH   1  28
ATOM     28  C   UNL A   1      34.496  33.426  28.020  1.00  0.00     0.275 C 
BRANCH  28  29
ATOM     29  O   UNL A   1      34.126  32.106  28.426  1.00  0.00    -0.458 OA
BRANCH  29  30
ATOM     30  C   UNL A   1      34.781  31.130  27.763  1.00  0.00     0.338 C 
ATOM     31  O   UNL A   1      34.422  30.529  26.772  1.00  0.00    -0.246 OA
BRANCH  30  32
ATOM     32  C   UNL A   1      35.972  30.696  28.470  1.00  0.00     0.060 A 
ATOM     33  C   UNL A   1      36.831  31.695  28.953  1.00  0.00     0.016 A 
ATOM     34  C   UNL A   1      36.363  29.365  28.330  1.00  0.00     0.016 A 
ATOM     35  C   UNL A   1      38.148  31.375  29.186  1.00  0.00     0.010 A 
ATOM     36  C   UNL A   1      37.682  29.052  28.550  1.00  0.00     0.010 A 
ATOM     37  C   UNL A   1      38.568  30.071  28.919  1.00  0.00    -0.014 A 
BRANCH  37  38
ATOM     38  C   UNL A   1      39.970  29.752  29.099  1.00  0.00     0.031 A 
ATOM     39  C   UNL A   1      40.410  29.706  30.515  1.00  0.00     0.074 A 
ATOM     40  C   UNL A   1      40.719  29.328  28.066  1.00  0.00     0.049 A 
ATOM     41  N   UNL A   1      41.396  30.326  31.073  1.00  0.00    -0.248 NA
ATOM     42  C   UNL A   1      39.570  28.944  31.456  1.00  0.00     0.031 C 
ATOM     43  C   UNL A   1      40.271  29.041  26.699  1.00  0.00     0.029 A 
ATOM     44  N   UNL A   1      42.010  28.903  28.065  1.00  0.00    -0.354 N 
ATOM     45  C   UNL A   1      41.422  29.878  32.391  1.00  0.00     0.074 A 
ATOM     46  C   UNL A   1      40.193  29.165  32.611  1.00  0.00     0.031 C 
ATOM     47  C   UNL A   1      41.195  28.268  26.090  1.00  0.00     0.029 A 
ATOM     48  C   UNL A   1      42.330  28.097  26.981  1.00  0.00     0.049 A 
ATOM     49  H   UNL A   1      42.657  29.145  28.766  1.00  0.00     0.167 HD
ATOM     50  C   UNL A   1      42.551  29.924  33.147  1.00  0.00     0.037 A 
ATOM     51  C   UNL A   1      43.394  27.260  26.890  1.00  0.00     0.037 A 
ATOM     52  C   UNL A   1      43.514  30.849  32.615  1.00  0.00     0.049 A 
ATOM     53  C   UNL A   1      44.383  27.682  27.920  1.00  0.00     0.074 A 
ATOM     54  C   UNL A   1      43.499  32.202  32.335  1.00  0.00     0.029 A 
ATOM     55  N   UNL A   1      44.602  30.342  31.947  1.00  0.00    -0.354 N 
ATOM     56  N   UNL A   1      45.050  28.803  27.885  1.00  0.00    -0.248 NA
ATOM     57  C   UNL A   1      44.325  27.039  29.227  1.00  0.00     0.031 C 
ATOM     58  C   UNL A   1      44.276  32.348  31.150  1.00  0.00     0.029 A 
ATOM     59  C   UNL A   1      44.753  31.084  30.801  1.00  0.00     0.049 A 
ATOM     60  H   UNL A   1      45.167  29.588  32.234  1.00  0.00     0.167 HD
ATOM     61  C   UNL A   1      45.125  29.216  29.209  1.00  0.00     0.074 A 
ATOM     62  C   UNL A   1      44.762  28.041  29.993  1.00  0.00     0.031 C 
ATOM     63  C   UNL A   1      45.199  30.540  29.536  1.00  0.00     0.037 A 
BRANCH  50  64
ATOM     64  C   UNL A   1      42.897  28.880  34.176  1.00  0.00     0.058 A 
ATOM     65  C   UNL A   1      43.149  27.556  33.770  1.00  0.00     0.135 A 
ATOM     66  C   UNL A   1      42.724  29.074  35.567  1.00  0.00     0.135 A 
ATOM     67  F   UNL A   1      43.310  27.260  32.470  1.00  0.00    -0.206 F 
ATOM     68  C   UNL A   1      43.162  26.492  34.673  1.00  0.00     0.059 A 
ATOM     69  C   UNL A   1      42.793  28.038  36.488  1.00  0.00     0.059 A 
ATOM     70  F   UNL A   1      42.375  30.258  36.084  1.00  0.00    -0.206 F 
ATOM     71  C   UNL A   1      42.965  26.744  36.028  1.00  0.00     0.060 A 
BRANCH  71  72
ATOM     72  S   UNL A   1      42.846  25.365  37.179  1.00  0.00     0.124 S 
ATOM     73  O   UNL A   1      41.419  25.366  37.481  1.00  0.00    -0.237 OA
ATOM     74  O   UNL A   1      43.329  24.250  36.373  1.00  0.00    -0.237 OA
ATOM     75  O   UNL A   1      43.725  25.766  38.274  1.00  0.00    -0.744 OA
ENDBRANCH  71  72
ENDBRANCH  50  64
BRANCH  51  76
ATOM     76  C   UNL A   1      43.454  25.939  26.210  1.00  0.00     0.058 A 
ATOM     77  C   UNL A   1      44.488  25.638  25.308  1.00  0.00     0.135 A 
ATOM     78  C   UNL A   1      42.652  24.852  26.617  1.00  0.00     0.135 A 
ATOM     79  F   UNL A   1      45.319  26.603  24.886  1.00  0.00    -0.206 F 
ATOM     80  C   UNL A   1      44.741  24.332  24.870  1.00  0.00     0.059 A 
ATOM     81  C   UNL A   1      42.870  23.548  26.178  1.00  0.00     0.059 A 
ATOM     82  F   UNL A   1      41.685  25.001  27.534  1.00  0.00    -0.206 F 
ATOM     83  C   UNL A   1      43.934  23.290  25.326  1.00  0.00     0.060 A 
BRANCH  83  84
ATOM     84  S   UNL A   1      44.361  21.584  24.915  1.00  0.00     0.124 S 
ATOM     85  O   UNL A   1      44.511  21.651  23.466  1.00  0.00    -0.237 OA
ATOM     86  O   UNL A   1      45.591  21.382  25.675  1.00  0.00    -0.237 OA
ATOM     87  O   UNL A   1      43.209  20.821  25.388  1.00  0.00    -0.744 OA
ENDBRANCH  83  84
ENDBRANCH  51  76
BRANCH  63  88
ATOM     88  C   UNL A   1      45.511  31.528  28.442  1.00  0.00     0.058 A 
ATOM     89  C   UNL A   1      44.542  32.139  27.626  1.00  0.00     0.135 A 
ATOM     90  C   UNL A   1      46.835  31.974  28.300  1.00  0.00     0.135 A 
ATOM     91  F   UNL A   1      43.239  31.863  27.777  1.00  0.00    -0.206 F 
ATOM     92  C   UNL A   1      44.879  33.100  26.673  1.00  0.00     0.059 A 
ATOM     93  C   UNL A   1      47.189  32.957  27.380  1.00  0.00     0.059 A 
ATOM     94  F   UNL A   1      47.799  31.484  29.098  1.00  0.00    -0.206 F 
ATOM     95  C   UNL A   1      46.208  33.502  26.554  1.00  0.00     0.060 A 
BRANCH  95  96
ATOM     96  S   UNL A   1      46.633  34.789  25.362  1.00  0.00     0.124 S 
ATOM     97  O   UNL A   1      46.366  36.008  26.118  1.00  0.00    -0.237 OA
ATOM     98  O   UNL A   1      48.039  34.514  25.079  1.00  0.00    -0.237 OA
ATOM     99  O   UNL A   1      45.723  34.535  24.247  1.00  0.00    -0.744 OA
ENDBRANCH  95  96
ENDBRANCH  63  88
ENDBRANCH  37  38
ENDBRANCH  30  32
ENDBRANCH  29  30
ENDBRANCH  28  29
ENDBRANCH   1  28
TORSDOF 19
ENDMDL
MODEL 2
REMARK VINA RESULT:     -10.7      4.388     11.752
REMARK SMILES C[C@H](C(=O)NC1CCCC1)[N@H+]1CCn2nc(CCC(=O)OCCOC(=O)c3ccc(-c4c5nc(c(-c6c(F)cc(S(=O)(=O)[O-])cc6F)c6ccc([nH]6)c(-c6c(F)cc(S(=O)(=O)[O-])cc6F)c6nc(c(-c7c(F)cc(S(=O)(=O)[O-])cc7F)c7ccc4[nH]7)C=C6)C=C5)cc3)cc2C1
REMARK SMILES IDX 22 1 21 2 19 3 20 4 18 5 17 6 16 7 11 8 12 9 95 10 13 12
REMARK SMILES IDX 94 13 14 14 93 15 15 16 2 17 1 18 3 19 4 20 5 21 6 23 7 24
REMARK SMILES IDX 10 25 8 26 9 27 23 28 24 29 25 30 26 31 27 32 28 33 92 34
REMARK SMILES IDX 29 35 91 36 30 37 31 38 32 39 85 40 33 41 90 42 84 43 86 44
REMARK SMILES IDX 34 45 89 46 83 47 82 48 35 50 69 51 48 52 68 53 49 54 52 55
REMARK SMILES IDX 67 56 87 57 50 58 51 59 66 61 88 62 53 63 36 64 37 65 46 66
REMARK SMILES IDX 38 67 39 68 45 69 47 70 40 71 41 72 42 73 43 74 44 75 70 76
REMARK SMILES IDX 71 77 80 78 72 79 73 80 79 81 81 82 74 83 75 84 76 85 77 86
REMARK SMILES IDX 78 87 54 88 55 89 64 90 56 91 57 92 63 93 65 94 58 95 59 96
REMARK SMILES IDX 60 97 61 98 62 99
REMARK H PARENT 11 11 5 22 86 49 52 60
REMARK Flexibility Score: inf
ROOT
ATOM      1  C   UNL A   1      44.022  19.448  25.163  1.00  0.00     0.274 C 
ENDROOT
BRANCH   1   2
ATOM      2  O   UNL A   1      42.693  19.948  25.393  1.00  0.00    -0.462 OA
BRANCH   2   3
ATOM      3  C   UNL A   1      42.305  20.150  26.675  1.00  0.00     0.306 C 
ATOM      4  O   UNL A   1      42.091  19.260  27.491  1.00  0.00    -0.252 OA
BRANCH   3   5
ATOM      5  C   UNL A   1      42.069  21.613  26.971  1.00  0.00     0.129 C 
BRANCH   5   6
ATOM      6  C   UNL A   1      40.761  21.931  27.694  1.00  0.00     0.070 C 
BRANCH   6   7
ATOM      7  C   UNL A   1      39.645  22.296  26.772  1.00  0.00     0.064 A 
ATOM      8  N   UNL A   1      35.523  22.853  25.490  1.00  0.00    -0.318 N 
ATOM      9  C   UNL A   1      35.843  22.026  24.321  1.00  0.00     0.287 C 
ATOM     10  C   UNL A   1      36.547  23.857  25.697  1.00  0.00     0.319 C 
ATOM     11  H   UNL A   1      35.561  22.218  26.288  1.00  0.00     0.349 HD
ATOM     12  C   UNL A   1      37.199  21.295  24.489  1.00  0.00     0.206 C 
ATOM     13  C   UNL A   1      37.821  23.197  25.961  1.00  0.00     0.093 A 
ATOM     14  N   UNL A   1      38.123  22.038  25.327  1.00  0.00    -0.258 N 
ATOM     15  C   UNL A   1      38.823  23.435  26.867  1.00  0.00     0.055 A 
ATOM     16  N   UNL A   1      39.250  21.491  25.776  1.00  0.00    -0.177 NA
BRANCH   8  17
ATOM     17  C   UNL A   1      34.127  23.274  25.684  1.00  0.00     0.271 C 
ATOM     18  C   UNL A   1      33.792  24.749  25.871  1.00  0.00     0.086 C 
BRANCH  17  19
ATOM     19  C   UNL A   1      33.290  22.297  26.559  1.00  0.00     0.278 C 
ATOM     20  O   UNL A   1      32.778  22.730  27.605  1.00  0.00    -0.268 OA
ATOM     21  N   UNL A   1      33.057  20.976  26.345  1.00  0.00    -0.348 N 
ATOM     22  H   UNL A   1      32.614  20.591  27.135  1.00  0.00     0.163 HD
BRANCH  21  23
ATOM     23  C   UNL A   1      33.242  19.931  25.333  1.00  0.00     0.082 C 
ATOM     24  C   UNL A   1      32.927  18.502  25.820  1.00  0.00     0.025 C 
ATOM     25  C   UNL A   1      32.590  20.072  23.970  1.00  0.00     0.025 C 
ATOM     26  C   UNL A   1      32.292  17.772  24.637  1.00  0.00     0.002 C 
ATOM     27  C   UNL A   1      32.541  18.654  23.422  1.00  0.00     0.002 C 
ENDBRANCH  21  23
ENDBRANCH  17  19
ENDBRANCH   8  17
ENDBRANCH   6   7
ENDBRANCH   5   6
ENDBRANCH   3   5
ENDBRANCH   2   3
ENDBRANCH   1   2
BRANCH   1  28
ATOM     28  C   UNL A   1      44.975  20.504  24.609  1.00  0.00     0.275 C 
BRANCH  28  29
ATOM     29  O   UNL A   1      44.263  21.604  24.037  1.00  0.00    -0.458 OA
BRANCH  29  30
ATOM     30  C   UNL A   1      44.857  22.798  24.232  1.00  0.00     0.338 C 
ATOM     31  O   UNL A   1      45.858  23.231  23.700  1.00  0.00    -0.246 OA
BRANCH  30  32
ATOM     32  C   UNL A   1      44.262  23.529  25.336  1.00  0.00     0.060 A 
ATOM     33  C   UNL A   1      43.222  24.419  25.029  1.00  0.00     0.016 A 
ATOM     34  C   UNL A   1      44.960  23.568  26.542  1.00  0.00     0.016 A 
ATOM     35  C   UNL A   1      42.958  25.450  25.902  1.00  0.00     0.010 A 
ATOM     36  C   UNL A   1      44.704  24.606  27.404  1.00  0.00     0.010 A 
ATOM     37  C   UNL A   1      43.748  25.563  27.047  1.00  0.00    -0.014 A 
BRANCH  37  38
ATOM     38  C   UNL A   1      43.516  26.688  27.931  1.00  0.00     0.031 A 
ATOM     39  C   UNL A   1      44.539  27.758  27.842  1.00  0.00     0.074 A 
ATOM     40  C   UNL A   1      42.353  26.814  28.596  1.00  0.00     0.049 A 
ATOM     41  N   UNL A   1      45.228  28.296  28.793  1.00  0.00    -0.248 NA
ATOM     42  C   UNL A   1      44.918  28.216  26.493  1.00  0.00     0.031 C 
ATOM     43  C   UNL A   1      41.167  25.959  28.485  1.00  0.00     0.029 A 
ATOM     44  N   UNL A   1      41.929  27.833  29.387  1.00  0.00    -0.354 N 
ATOM     45  C   UNL A   1      45.982  29.298  28.187  1.00  0.00     0.074 A 
ATOM     46  C   UNL A   1      45.876  29.097  26.767  1.00  0.00     0.031 C 
ATOM     47  C   UNL A   1      40.101  26.626  28.977  1.00  0.00     0.029 A 
ATOM     48  C   UNL A   1      40.549  27.897  29.522  1.00  0.00     0.049 A 
ATOM     49  H   UNL A   1      42.543  28.467  29.825  1.00  0.00     0.167 HD
ATOM     50  C   UNL A   1      46.458  30.364  28.884  1.00  0.00     0.037 A 
ATOM     51  C   UNL A   1      39.832  28.970  29.939  1.00  0.00     0.037 A 
ATOM     52  C   UNL A   1      46.482  30.111  30.299  1.00  0.00     0.049 A 
ATOM     53  C   UNL A   1      40.768  29.885  30.648  1.00  0.00     0.074 A 
ATOM     54  C   UNL A   1      47.091  29.161  31.097  1.00  0.00     0.029 A 
ATOM     55  N   UNL A   1      45.512  30.689  31.081  1.00  0.00    -0.354 N 
ATOM     56  N   UNL A   1      41.340  29.615  31.789  1.00  0.00    -0.248 NA
ATOM     57  C   UNL A   1      41.406  30.943  29.875  1.00  0.00     0.031 C 
ATOM     58  C   UNL A   1      46.155  28.889  32.136  1.00  0.00     0.029 A 
ATOM     59  C   UNL A   1      45.050  29.717  31.934  1.00  0.00     0.049 A 
ATOM     60  H   UNL A   1      45.205  31.624  31.037  1.00  0.00     0.167 HD
ATOM     61  C   UNL A   1      42.618  30.148  31.685  1.00  0.00     0.074 A 
ATOM     62  C   UNL A   1      42.561  31.046  30.536  1.00  0.00     0.031 C 
ATOM     63  C   UNL A   1      43.672  29.603  32.361  1.00  0.00     0.037 A 
BRANCH  50  64
ATOM     64  C   UNL A   1      46.581  31.745  28.296  1.00  0.00     0.058 A 
ATOM     65  C   UNL A   1      47.806  32.433  28.378  1.00  0.00     0.135 A 
ATOM     66  C   UNL A   1      45.466  32.520  27.898  1.00  0.00     0.135 A 
ATOM     67  F   UNL A   1      48.922  31.795  28.763  1.00  0.00    -0.206 F 
ATOM     68  C   UNL A   1      47.903  33.805  28.145  1.00  0.00     0.059 A 
ATOM     69  C   UNL A   1      45.553  33.874  27.604  1.00  0.00     0.059 A 
ATOM     70  F   UNL A   1      44.222  32.024  27.879  1.00  0.00    -0.206 F 
ATOM     71  C   UNL A   1      46.766  34.519  27.776  1.00  0.00     0.060 A 
BRANCH  71  72
ATOM     72  S   UNL A   1      46.856  36.308  27.607  1.00  0.00     0.124 S 
ATOM     73  O   UNL A   1      46.089  36.745  28.768  1.00  0.00    -0.237 OA
ATOM     74  O   UNL A   1      48.294  36.550  27.660  1.00  0.00    -0.237 OA
ATOM     75  O   UNL A   1      46.233  36.553  26.309  1.00  0.00    -0.744 OA
ENDBRANCH  71  72
ENDBRANCH  50  64
BRANCH  51  76
ATOM     76  C   UNL A   1      38.486  29.399  29.473  1.00  0.00     0.058 A 
ATOM     77  C   UNL A   1      37.475  29.727  30.391  1.00  0.00     0.135 A 
ATOM     78  C   UNL A   1      38.237  29.745  28.127  1.00  0.00     0.135 A 
ATOM     79  F   UNL A   1      37.635  29.461  31.696  1.00  0.00    -0.206 F 
ATOM     80  C   UNL A   1      36.306  30.397  30.007  1.00  0.00     0.059 A 
ATOM     81  C   UNL A   1      37.072  30.391  27.719  1.00  0.00     0.059 A 
ATOM     82  F   UNL A   1      39.159  29.554  27.174  1.00  0.00    -0.206 F 
ATOM     83  C   UNL A   1      36.123  30.740  28.668  1.00  0.00     0.060 A 
BRANCH  83  84
ATOM     84  S   UNL A   1      34.711  31.761  28.193  1.00  0.00     0.124 S 
ATOM     85  O   UNL A   1      33.910  30.825  27.412  1.00  0.00    -0.237 OA
ATOM     86  O   UNL A   1      34.160  32.147  29.488  1.00  0.00    -0.237 OA
ATOM     87  O   UNL A   1      35.319  32.849  27.431  1.00  0.00    -0.744 OA
ENDBRANCH  83  84
ENDBRANCH  51  76
BRANCH  63  88
ATOM     88  C   UNL A   1      43.379  28.614  33.460  1.00  0.00     0.058 A 
ATOM     89  C   UNL A   1      43.291  27.224  33.270  1.00  0.00     0.135 A 
ATOM     90  C   UNL A   1      43.314  29.080  34.782  1.00  0.00     0.135 A 
ATOM     91  F   UNL A   1      43.462  26.680  32.057  1.00  0.00    -0.206 F 
ATOM     92  C   UNL A   1      43.086  26.344  34.333  1.00  0.00     0.059 A 
ATOM     93  C   UNL A   1      43.146  28.219  35.863  1.00  0.00     0.059 A 
ATOM     94  F   UNL A   1      43.463  30.391  35.041  1.00  0.00    -0.206 F 
ATOM     95  C   UNL A   1      43.011  26.852  35.629  1.00  0.00     0.060 A 
BRANCH  95  96
ATOM     96  S   UNL A   1      42.807  25.708  37.010  1.00  0.00     0.124 S 
ATOM     97  O   UNL A   1      41.357  25.562  37.077  1.00  0.00    -0.237 OA
ATOM     98  O   UNL A   1      43.542  24.527  36.560  1.00  0.00    -0.237 OA
ATOM     99  O   UNL A   1      43.417  26.416  38.133  1.00  0.00    -0.744 OA
ENDBRANCH  95  96
ENDBRANCH  63  88
ENDBRANCH  37  38
ENDBRANCH  30  32
ENDBRANCH  29  30
ENDBRANCH  28  29
ENDBRANCH   1  28
TORSDOF 19
ENDMDL
MODEL 3
REMARK VINA RESULT:     -10.6      4.689      7.383
REMARK SMILES C[C@H](C(=O)NC1CCCC1)[N@H+]1CCn2nc(CCC(=O)OCCOC(=O)c3ccc(-c4c5nc(c(-c6c(F)cc(S(=O)(=O)[O-])cc6F)c6ccc([nH]6)c(-c6c(F)cc(S(=O)(=O)[O-])cc6F)c6nc(c(-c7c(F)cc(S(=O)(=O)[O-])cc7F)c7ccc4[nH]7)C=C6)C=C5)cc3)cc2C1
REMARK SMILES IDX 22 1 21 2 19 3 20 4 18 5 17 6 16 7 11 8 12 9 95 10 13 12
REMARK SMILES IDX 94 13 14 14 93 15 15 16 2 17 1 18 3 19 4 20 5 21 6 23 7 24
REMARK SMILES IDX 10 25 8 26 9 27 23 28 24 29 25 30 26 31 27 32 28 33 92 34
REMARK SMILES IDX 29 35 91 36 30 37 31 38 32 39 85 40 33 41 90 42 84 43 86 44
REMARK SMILES IDX 34 45 89 46 83 47 82 48 35 50 69 51 48 52 68 53 49 54 52 55
REMARK SMILES IDX 67 56 87 57 50 58 51 59 66 61 88 62 53 63 36 64 37 65 46 66
REMARK SMILES IDX 38 67 39 68 45 69 47 70 40 71 41 72 42 73 43 74 44 75 70 76
REMARK SMILES IDX 71 77 80 78 72 79 73 80 79 81 81 82 74 83 75 84 76 85 77 86
REMARK SMILES IDX 78 87 54 88 55 89 64 90 56 91 57 92 63 93 65 94 58 95 59 96
REMARK SMILES IDX 60 97 61 98 62 99
REMARK H PARENT 11 11 5 22 86 49 52 60
REMARK Flexibility Score: inf
ROOT
ATOM      1  C   UNL A   1      32.208  28.805  25.869  1.00  0.00     0.274 C 
ENDROOT
BRANCH   1   2
ATOM      2  O   UNL A   1      32.109  29.038  24.454  1.00  0.00    -0.462 OA
BRANCH   2   3
ATOM      3  C   UNL A   1      30.884  29.304  23.940  1.00  0.00     0.306 C 
ATOM      4  O   UNL A   1      30.189  30.267  24.249  1.00  0.00    -0.252 OA
BRANCH   3   5
ATOM      5  C   UNL A   1      30.417  28.218  22.998  1.00  0.00     0.129 C 
BRANCH   5   6
ATOM      6  C   UNL A   1      29.700  27.043  23.660  1.00  0.00     0.070 C 
BRANCH   6   7
ATOM      7  C   UNL A   1      30.489  25.777  23.642  1.00  0.00     0.064 A 
ATOM      8  N   UNL A   1      33.767  23.082  24.611  1.00  0.00    -0.318 N 
ATOM      9  C   UNL A   1      33.944  22.882  23.168  1.00  0.00     0.287 C 
ATOM     10  C   UNL A   1      32.368  22.968  24.971  1.00  0.00     0.319 C 
ATOM     11  H   UNL A   1      34.043  24.049  24.786  1.00  0.00     0.349 HD
ATOM     12  C   UNL A   1      33.154  23.928  22.343  1.00  0.00     0.206 C 
ATOM     13  C   UNL A   1      31.609  24.009  24.288  1.00  0.00     0.093 A 
ATOM     14  N   UNL A   1      31.960  24.384  23.034  1.00  0.00    -0.258 N 
ATOM     15  C   UNL A   1      30.607  24.852  24.696  1.00  0.00     0.055 A 
ATOM     16  N   UNL A   1      31.264  25.434  22.603  1.00  0.00    -0.177 NA
BRANCH   8  17
ATOM     17  C   UNL A   1      34.743  22.467  25.524  1.00  0.00     0.271 C 
ATOM     18  C   UNL A   1      36.219  22.421  25.148  1.00  0.00     0.086 C 
BRANCH  17  19
ATOM     19  C   UNL A   1      34.213  21.196  26.248  1.00  0.00     0.278 C 
ATOM     20  O   UNL A   1      34.035  21.245  27.478  1.00  0.00    -0.268 OA
ATOM     21  N   UNL A   1      33.933  19.982  25.706  1.00  0.00    -0.348 N 
ATOM     22  H   UNL A   1      33.751  19.338  26.427  1.00  0.00     0.163 HD
BRANCH  21  23
ATOM     23  C   UNL A   1      33.813  19.309  24.409  1.00  0.00     0.082 C 
ATOM     24  C   UNL A   1      34.447  17.904  24.353  1.00  0.00     0.025 C 
ATOM     25  C   UNL A   1      32.457  19.193  23.739  1.00  0.00     0.025 C 
ATOM     26  C   UNL A   1      33.544  17.058  23.456  1.00  0.00     0.002 C 
ATOM     27  C   UNL A   1      32.611  18.038  22.761  1.00  0.00     0.002 C 
ENDBRANCH  21  23
ENDBRANCH  17  19
ENDBRANCH   8  17
ENDBRANCH   6   7
ENDBRANCH   5   6
ENDBRANCH   3   5
ENDBRANCH   2   3
ENDBRANCH   1   2
BRANCH   1  28
ATOM     28  C   UNL A   1      32.669  30.033  26.651  1.00  0.00     0.275 C 
BRANCH  28  29
ATOM     29  O   UNL A   1      34.090  30.047  26.811  1.00  0.00    -0.458 OA
BRANCH  29  30
ATOM     30  C   UNL A   1      34.542  31.064  27.573  1.00  0.00     0.338 C 
ATOM     31  O   UNL A   1      34.157  32.215  27.588  1.00  0.00    -0.246 OA
BRANCH  30  32
ATOM     32  C   UNL A   1      35.731  30.698  28.321  1.00  0.00     0.060 A 
ATOM     33  C   UNL A   1      36.583  31.739  28.720  1.00  0.00     0.016 A 
ATOM     34  C   UNL A   1      36.128  29.361  28.300  1.00  0.00     0.016 A 
ATOM     35  C   UNL A   1      37.900  31.445  28.988  1.00  0.00     0.010 A 
ATOM     36  C   UNL A   1      37.446  29.075  28.553  1.00  0.00     0.010 A 
ATOM     37  C   UNL A   1      38.326  30.125  28.837  1.00  0.00    -0.014 A 
BRANCH  37  38
ATOM     38  C   UNL A   1      39.728  29.828  29.052  1.00  0.00     0.031 A 
ATOM     39  C   UNL A   1      40.138  29.809  30.478  1.00  0.00     0.074 A 
ATOM     40  C   UNL A   1      40.506  29.401  28.041  1.00  0.00     0.049 A 
ATOM     41  N   UNL A   1      41.103  30.450  31.048  1.00  0.00    -0.248 NA
ATOM     42  C   UNL A   1      39.289  29.047  31.411  1.00  0.00     0.031 C 
ATOM     43  C   UNL A   1      40.092  29.090  26.669  1.00  0.00     0.029 A 
ATOM     44  N   UNL A   1      41.802  28.995  28.074  1.00  0.00    -0.354 N 
ATOM     45  C   UNL A   1      41.106  30.020  32.373  1.00  0.00     0.074 A 
ATOM     46  C   UNL A   1      39.883  29.292  32.576  1.00  0.00     0.031 C 
ATOM     47  C   UNL A   1      41.040  28.322  26.091  1.00  0.00     0.029 A 
ATOM     48  C   UNL A   1      42.158  28.179  27.009  1.00  0.00     0.049 A 
ATOM     49  H   UNL A   1      42.430  29.257  28.786  1.00  0.00     0.167 HD
ATOM     50  C   UNL A   1      42.217  30.093  33.152  1.00  0.00     0.037 A 
ATOM     51  C   UNL A   1      43.235  27.357  26.953  1.00  0.00     0.037 A 
ATOM     52  C   UNL A   1      43.179  31.024  32.628  1.00  0.00     0.049 A 
ATOM     53  C   UNL A   1      44.195  27.807  27.997  1.00  0.00     0.074 A 
ATOM     54  C   UNL A   1      43.150  32.373  32.329  1.00  0.00     0.029 A 
ATOM     55  N   UNL A   1      44.289  30.524  31.991  1.00  0.00    -0.354 N 
ATOM     56  N   UNL A   1      44.847  28.937  27.962  1.00  0.00    -0.248 NA
ATOM     57  C   UNL A   1      44.118  27.181  29.311  1.00  0.00     0.031 C 
ATOM     58  C   UNL A   1      43.952  32.514  31.160  1.00  0.00     0.029 A 
ATOM     59  C   UNL A   1      44.454  31.253  30.838  1.00  0.00     0.049 A 
ATOM     60  H   UNL A   1      44.858  29.783  32.301  1.00  0.00     0.167 HD
ATOM     61  C   UNL A   1      44.887  29.369  29.281  1.00  0.00     0.074 A 
ATOM     62  C   UNL A   1      44.524  28.199  30.074  1.00  0.00     0.031 C 
ATOM     63  C   UNL A   1      44.934  30.699  29.591  1.00  0.00     0.037 A 
BRANCH  50  64
ATOM     64  C   UNL A   1      42.556  29.068  34.202  1.00  0.00     0.058 A 
ATOM     65  C   UNL A   1      42.675  27.713  33.843  1.00  0.00     0.135 A 
ATOM     66  C   UNL A   1      42.499  29.332  35.591  1.00  0.00     0.135 A 
ATOM     67  F   UNL A   1      42.719  27.351  32.550  1.00  0.00    -0.206 F 
ATOM     68  C   UNL A   1      42.672  26.689  34.792  1.00  0.00     0.059 A 
ATOM     69  C   UNL A   1      42.555  28.334  36.554  1.00  0.00     0.059 A 
ATOM     70  F   UNL A   1      42.281  30.562  36.076  1.00  0.00    -0.206 F 
ATOM     71  C   UNL A   1      42.593  27.012  36.144  1.00  0.00     0.060 A 
BRANCH  71  72
ATOM     72  S   UNL A   1      42.452  25.696  37.364  1.00  0.00     0.124 S 
ATOM     73  O   UNL A   1      43.041  24.573  36.644  1.00  0.00    -0.237 OA
ATOM     74  O   UNL A   1      43.233  26.225  38.477  1.00  0.00    -0.237 OA
ATOM     75  O   UNL A   1      41.013  25.612  37.601  1.00  0.00    -0.744 OA
ENDBRANCH  71  72
ENDBRANCH  50  64
BRANCH  51  76
ATOM     76  C   UNL A   1      43.329  26.028  26.292  1.00  0.00     0.058 A 
ATOM     77  C   UNL A   1      44.347  25.753  25.365  1.00  0.00     0.135 A 
ATOM     78  C   UNL A   1      42.583  24.917  26.740  1.00  0.00     0.135 A 
ATOM     79  F   UNL A   1      45.126  26.743  24.903  1.00  0.00    -0.206 F 
ATOM     80  C   UNL A   1      44.640  24.450  24.941  1.00  0.00     0.059 A 
ATOM     81  C   UNL A   1      42.840  23.615  26.316  1.00  0.00     0.059 A 
ATOM     82  F   UNL A   1      41.638  25.043  27.683  1.00  0.00    -0.206 F 
ATOM     83  C   UNL A   1      43.889  23.385  25.437  1.00  0.00     0.060 A 
BRANCH  83  84
ATOM     84  S   UNL A   1      44.373  21.690  25.041  1.00  0.00     0.124 S 
ATOM     85  O   UNL A   1      43.223  20.929  25.513  1.00  0.00    -0.237 OA
ATOM     86  O   UNL A   1      44.548  21.751  23.593  1.00  0.00    -0.237 OA
ATOM     87  O   UNL A   1      45.604  21.501  25.805  1.00  0.00    -0.744 OA
ENDBRANCH  83  84
ENDBRANCH  51  76
BRANCH  63  88
ATOM     88  C   UNL A   1      45.257  31.676  28.490  1.00  0.00     0.058 A 
ATOM     89  C   UNL A   1      44.291  32.344  27.717  1.00  0.00     0.135 A 
ATOM     90  C   UNL A   1      46.596  32.050  28.298  1.00  0.00     0.135 A 
ATOM     91  F   UNL A   1      42.982  32.138  27.918  1.00  0.00    -0.206 F 
ATOM     92  C   UNL A   1      44.642  33.292  26.756  1.00  0.00     0.059 A 
ATOM     93  C   UNL A   1      46.967  33.019  27.370  1.00  0.00     0.059 A 
ATOM     94  F   UNL A   1      47.563  31.502  29.054  1.00  0.00    -0.206 F 
ATOM     95  C   UNL A   1      45.985  33.622  26.587  1.00  0.00     0.060 A 
BRANCH  95  96
ATOM     96  S   UNL A   1      46.432  34.893  25.385  1.00  0.00     0.124 S 
ATOM     97  O   UNL A   1      46.122  36.122  26.108  1.00  0.00    -0.237 OA
ATOM     98  O   UNL A   1      47.851  34.634  25.155  1.00  0.00    -0.237 OA
ATOM     99  O   UNL A   1      45.565  34.605  24.245  1.00  0.00    -0.744 OA
ENDBRANCH  95  96
ENDBRANCH  63  88
ENDBRANCH  37  38
ENDBRANCH  30  32
ENDBRANCH  29  30
ENDBRANCH  28  29
ENDBRANCH   1  28
TORSDOF 19
ENDMDL
