MODEL 1
REMARK VINA RESULT:      -9.7      0.000      0.000
REMARK SMILES O=C(OCCOC(=O)[C@H]1CC1(c1ccccc1)c1ccccc1)c1ccc(-c2c3nc(c(-c4c(F)cc(S(=O)(=O)[O-])cc4F)c4ccc([nH]4)c(-c4c(F)cc(S(=O)(=O)[O-])cc4F)c4nc(c(-c5c(F)cc(S(=O)(=O)[O-])cc5F)c5ccc2[nH]5)C=C4)C=C3)cc1
REMARK SMILES IDX 4 1 3 2 2 3 1 4 24 5 25 6 89 7 26 8 88 9 27 10 28 11 29 12
REMARK SMILES IDX 82 13 30 14 87 15 81 16 83 17 31 18 86 19 80 20 79 21 32 23
REMARK SMILES IDX 66 24 45 25 65 26 46 27 49 28 64 29 84 30 47 31 48 32 63 34
REMARK SMILES IDX 85 35 50 36 33 37 34 38 43 39 35 40 36 41 42 42 44 43 37 44
REMARK SMILES IDX 38 45 39 46 40 47 41 48 67 49 68 50 77 51 69 52 70 53 76 54
REMARK SMILES IDX 78 55 71 56 72 57 73 58 74 59 75 60 51 61 52 62 61 63 53 64
REMARK SMILES IDX 54 65 60 66 62 67 55 68 56 69 57 70 58 71 59 72 5 73 6 74
REMARK SMILES IDX 7 75 8 76 9 77 10 78 11 79 12 80 13 81 17 82 14 83 16 84
REMARK SMILES IDX 15 85 18 86 19 87 23 88 20 89 22 90 21 91
REMARK H PARENT 83 22 49 33
REMARK Flexibility Score: inf
ROOT
ATOM      1  C   UNL A   1      40.438  21.081  27.114  1.00  0.00     0.275 C 
ENDROOT
BRANCH   1   2
ATOM      2  O   UNL A   1      39.684  21.831  26.142  1.00  0.00    -0.458 OA
BRANCH   2   3
ATOM      3  C   UNL A   1      38.958  22.967  26.272  1.00  0.00     0.338 C 
ATOM      4  O   UNL A   1      37.801  22.968  25.850  1.00  0.00    -0.246 OA
BRANCH   3   5
ATOM      5  C   UNL A   1      39.495  24.263  26.801  1.00  0.00     0.060 A 
ATOM      6  C   UNL A   1      40.174  25.234  26.061  1.00  0.00     0.016 A 
ATOM      7  C   UNL A   1      39.336  24.487  28.183  1.00  0.00     0.016 A 
ATOM      8  C   UNL A   1      40.608  26.426  26.656  1.00  0.00     0.010 A 
ATOM      9  C   UNL A   1      39.786  25.668  28.788  1.00  0.00     0.010 A 
ATOM     10  C   UNL A   1      40.417  26.654  28.021  1.00  0.00    -0.014 A 
BRANCH  10  11
ATOM     11  C   UNL A   1      41.004  27.860  28.652  1.00  0.00     0.031 A 
ATOM     12  C   UNL A   1      42.497  27.936  28.783  1.00  0.00     0.074 A 
ATOM     13  C   UNL A   1      40.231  28.887  29.056  1.00  0.00     0.049 A 
ATOM     14  N   UNL A   1      43.239  28.939  29.169  1.00  0.00    -0.248 NA
ATOM     15  C   UNL A   1      43.254  26.730  28.409  1.00  0.00     0.031 C 
ATOM     16  C   UNL A   1      38.775  28.939  28.951  1.00  0.00     0.029 A 
ATOM     17  N   UNL A   1      40.558  30.087  29.633  1.00  0.00    -0.354 N 
ATOM     18  C   UNL A   1      44.550  28.501  29.042  1.00  0.00     0.074 A 
ATOM     19  C   UNL A   1      44.502  27.120  28.616  1.00  0.00     0.031 C 
ATOM     20  C   UNL A   1      38.327  30.091  29.477  1.00  0.00     0.029 A 
ATOM     21  C   UNL A   1      39.468  30.874  29.934  1.00  0.00     0.049 A 
ATOM     22  H   UNL A   1      41.486  30.363  29.816  1.00  0.00     0.167 HD
ATOM     23  C   UNL A   1      45.693  29.201  29.227  1.00  0.00     0.037 A 
ATOM     24  C   UNL A   1      39.402  32.099  30.493  1.00  0.00     0.037 A 
ATOM     25  C   UNL A   1      45.731  30.561  29.684  1.00  0.00     0.049 A 
ATOM     26  C   UNL A   1      40.687  32.826  30.781  1.00  0.00     0.074 A 
ATOM     27  C   UNL A   1      46.831  31.368  29.909  1.00  0.00     0.029 A 
ATOM     28  N   UNL A   1      44.609  31.311  30.009  1.00  0.00    -0.354 N 
ATOM     29  N   UNL A   1      41.921  32.428  30.573  1.00  0.00    -0.248 NA
ATOM     30  C   UNL A   1      40.577  34.178  31.344  1.00  0.00     0.031 C 
ATOM     31  C   UNL A   1      46.373  32.595  30.405  1.00  0.00     0.029 A 
ATOM     32  C   UNL A   1      44.988  32.564  30.453  1.00  0.00     0.049 A 
ATOM     33  H   UNL A   1      43.678  30.996  29.934  1.00  0.00     0.167 HD
ATOM     34  C   UNL A   1      42.731  33.499  30.929  1.00  0.00     0.074 A 
ATOM     35  C   UNL A   1      41.848  34.558  31.375  1.00  0.00     0.031 C 
ATOM     36  C   UNL A   1      44.082  33.605  30.875  1.00  0.00     0.037 A 
BRANCH  23  37
ATOM     37  C   UNL A   1      46.975  28.478  28.933  1.00  0.00     0.058 A 
ATOM     38  C   UNL A   1      47.609  28.599  27.685  1.00  0.00     0.135 A 
ATOM     39  C   UNL A   1      47.547  27.616  29.880  1.00  0.00     0.135 A 
ATOM     40  F   UNL A   1      47.087  29.393  26.735  1.00  0.00    -0.206 F 
ATOM     41  C   UNL A   1      48.740  27.855  27.369  1.00  0.00     0.059 A 
ATOM     42  C   UNL A   1      48.691  26.878  29.593  1.00  0.00     0.059 A 
ATOM     43  F   UNL A   1      46.974  27.459  31.084  1.00  0.00    -0.206 F 
ATOM     44  C   UNL A   1      49.267  26.987  28.327  1.00  0.00     0.060 A 
BRANCH  44  45
ATOM     45  S   UNL A   1      50.704  25.988  27.889  1.00  0.00     0.124 S 
ATOM     46  O   UNL A   1      51.189  26.683  26.700  1.00  0.00    -0.237 OA
ATOM     47  O   UNL A   1      51.543  26.105  29.077  1.00  0.00    -0.237 OA
ATOM     48  O   UNL A   1      50.137  24.663  27.654  1.00  0.00    -0.744 OA
ENDBRANCH  44  45
ENDBRANCH  23  37
BRANCH  24  49
ATOM     49  C   UNL A   1      38.083  32.733  30.761  1.00  0.00     0.058 A 
ATOM     50  C   UNL A   1      37.481  32.659  32.026  1.00  0.00     0.135 A 
ATOM     51  C   UNL A   1      37.394  33.426  29.753  1.00  0.00     0.135 A 
ATOM     52  F   UNL A   1      38.097  32.006  33.023  1.00  0.00    -0.206 F 
ATOM     53  C   UNL A   1      36.237  33.231  32.279  1.00  0.00     0.059 A 
ATOM     54  C   UNL A   1      36.157  34.023  29.986  1.00  0.00     0.059 A 
ATOM     55  F   UNL A   1      37.932  33.540  28.529  1.00  0.00    -0.206 F 
ATOM     56  C   UNL A   1      35.581  33.911  31.251  1.00  0.00     0.060 A 
BRANCH  56  57
ATOM     57  S   UNL A   1      33.984  34.680  31.599  1.00  0.00     0.124 S 
ATOM     58  O   UNL A   1      34.391  35.977  32.124  1.00  0.00    -0.237 OA
ATOM     59  O   UNL A   1      33.356  34.690  30.281  1.00  0.00    -0.237 OA
ATOM     60  O   UNL A   1      33.378  33.768  32.566  1.00  0.00    -0.744 OA
ENDBRANCH  56  57
ENDBRANCH  24  49
BRANCH  36  61
ATOM     61  C   UNL A   1      44.681  34.926  31.259  1.00  0.00     0.058 A 
ATOM     62  C   UNL A   1      45.134  35.179  32.562  1.00  0.00     0.135 A 
ATOM     63  C   UNL A   1      44.846  35.931  30.294  1.00  0.00     0.135 A 
ATOM     64  F   UNL A   1      44.990  34.250  33.521  1.00  0.00    -0.206 F 
ATOM     65  C   UNL A   1      45.717  36.394  32.901  1.00  0.00     0.059 A 
ATOM     66  C   UNL A   1      45.448  37.146  30.606  1.00  0.00     0.059 A 
ATOM     67  F   UNL A   1      44.436  35.732  29.031  1.00  0.00    -0.206 F 
ATOM     68  C   UNL A   1      45.870  37.372  31.915  1.00  0.00     0.060 A 
BRANCH  68  69
ATOM     69  S   UNL A   1      46.663  38.932  32.353  1.00  0.00     0.124 S 
ATOM     70  O   UNL A   1      45.512  39.759  32.698  1.00  0.00    -0.237 OA
ATOM     71  O   UNL A   1      47.524  38.548  33.466  1.00  0.00    -0.237 OA
ATOM     72  O   UNL A   1      47.364  39.309  31.128  1.00  0.00    -0.744 OA
ENDBRANCH  68  69
ENDBRANCH  36  61
ENDBRANCH  10  11
ENDBRANCH   3   5
ENDBRANCH   2   3
ENDBRANCH   1   2
BRANCH   1  73
ATOM     73  C   UNL A   1      41.622  20.311  26.531  1.00  0.00     0.274 C 
BRANCH  73  74
ATOM     74  O   UNL A   1      42.108  20.937  25.340  1.00  0.00    -0.462 OA
BRANCH  74  75
ATOM     75  C   UNL A   1      43.455  21.120  25.252  1.00  0.00     0.310 C 
ATOM     76  O   UNL A   1      44.307  20.244  25.298  1.00  0.00    -0.252 OA
BRANCH  75  77
ATOM     77  C   UNL A   1      43.788  22.517  24.908  1.00  0.00     0.115 C 
ATOM     78  C   UNL A   1      42.824  23.609  25.249  1.00  0.00     0.034 C 
ATOM     79  C   UNL A   1      44.193  23.604  25.908  1.00  0.00     0.034 C 
BRANCH  79  80
ATOM     80  C   UNL A   1      44.096  23.465  27.431  1.00  0.00    -0.037 A 
ATOM     81  C   UNL A   1      42.831  23.307  28.036  1.00  0.00     0.004 A 
ATOM     82  C   UNL A   1      45.208  23.576  28.280  1.00  0.00     0.004 A 
ATOM     83  C   UNL A   1      42.678  23.282  29.422  1.00  0.00     0.000 A 
ATOM     84  C   UNL A   1      45.060  23.550  29.669  1.00  0.00     0.000 A 
ATOM     85  C   UNL A   1      43.796  23.410  30.239  1.00  0.00     0.000 A 
ENDBRANCH  79  80
BRANCH  79  86
ATOM     86  C   UNL A   1      45.288  24.590  25.416  1.00  0.00    -0.037 A 
ATOM     87  C   UNL A   1      46.587  24.123  25.134  1.00  0.00     0.004 A 
ATOM     88  C   UNL A   1      45.077  25.974  25.253  1.00  0.00     0.004 A 
ATOM     89  C   UNL A   1      47.620  24.983  24.753  1.00  0.00     0.000 A 
ATOM     90  C   UNL A   1      46.102  26.840  24.856  1.00  0.00     0.000 A 
ATOM     91  C   UNL A   1      47.377  26.345  24.615  1.00  0.00     0.000 A 
ENDBRANCH  79  86
ENDBRANCH  75  77
ENDBRANCH  74  75
ENDBRANCH  73  74
ENDBRANCH   1  73
TORSDOF 16
ENDMDL
MODEL 2
REMARK VINA RESULT:      -9.3      4.343     10.826
REMARK SMILES O=C(OCCOC(=O)[C@H]1CC1(c1ccccc1)c1ccccc1)c1ccc(-c2c3nc(c(-c4c(F)cc(S(=O)(=O)[O-])cc4F)c4ccc([nH]4)c(-c4c(F)cc(S(=O)(=O)[O-])cc4F)c4nc(c(-c5c(F)cc(S(=O)(=O)[O-])cc5F)c5ccc2[nH]5)C=C4)C=C3)cc1
REMARK SMILES IDX 4 1 3 2 2 3 1 4 24 5 25 6 89 7 26 8 88 9 27 10 28 11 29 12
REMARK SMILES IDX 82 13 30 14 87 15 81 16 83 17 31 18 86 19 80 20 79 21 32 23
REMARK SMILES IDX 66 24 45 25 65 26 46 27 49 28 64 29 84 30 47 31 48 32 63 34
REMARK SMILES IDX 85 35 50 36 33 37 34 38 43 39 35 40 36 41 42 42 44 43 37 44
REMARK SMILES IDX 38 45 39 46 40 47 41 48 67 49 68 50 77 51 69 52 70 53 76 54
REMARK SMILES IDX 78 55 71 56 72 57 73 58 74 59 75 60 51 61 52 62 61 63 53 64
REMARK SMILES IDX 54 65 60 66 62 67 55 68 56 69 57 70 58 71 59 72 5 73 6 74
REMARK SMILES IDX 7 75 8 76 9 77 10 78 11 79 12 80 13 81 17 82 14 83 16 84
REMARK SMILES IDX 15 85 18 86 19 87 23 88 20 89 22 90 21 91
REMARK H PARENT 83 22 49 33
REMARK Flexibility Score: inf
ROOT
ATOM      1  C   UNL A   1      34.683  31.876  29.121  1.00  0.00     0.275 C 
ENDROOT
BRANCH   1   2
ATOM      2  O   UNL A   1      35.868  31.634  29.905  1.00  0.00    -0.458 OA
BRANCH   2   3
ATOM      3  C   UNL A   1      36.538  30.486  30.161  1.00  0.00     0.338 C 
ATOM      4  O   UNL A   1      35.995  29.644  30.877  1.00  0.00    -0.246 OA
BRANCH   3   5
ATOM      5  C   UNL A   1      37.943  30.205  29.720  1.00  0.00     0.060 A 
ATOM      6  C   UNL A   1      38.351  29.911  28.417  1.00  0.00     0.016 A 
ATOM      7  C   UNL A   1      38.925  30.190  30.731  1.00  0.00     0.016 A 
ATOM      8  C   UNL A   1      39.701  29.691  28.112  1.00  0.00     0.010 A 
ATOM      9  C   UNL A   1      40.274  29.951  30.435  1.00  0.00     0.010 A 
ATOM     10  C   UNL A   1      40.672  29.712  29.115  1.00  0.00    -0.014 A 
BRANCH  10  11
ATOM     11  C   UNL A   1      42.071  29.343  28.790  1.00  0.00     0.031 A 
ATOM     12  C   UNL A   1      42.364  27.916  28.436  1.00  0.00     0.074 A 
ATOM     13  C   UNL A   1      43.051  30.268  28.763  1.00  0.00     0.049 A 
ATOM     14  N   UNL A   1      43.471  27.391  27.985  1.00  0.00    -0.248 NA
ATOM     15  C   UNL A   1      41.257  26.958  28.589  1.00  0.00     0.031 C 
ATOM     16  C   UNL A   1      42.879  31.688  29.058  1.00  0.00     0.029 A 
ATOM     17  N   UNL A   1      44.386  30.156  28.471  1.00  0.00    -0.354 N 
ATOM     18  C   UNL A   1      43.182  26.052  27.758  1.00  0.00     0.074 A 
ATOM     19  C   UNL A   1      41.821  25.828  28.191  1.00  0.00     0.031 C 
ATOM     20  C   UNL A   1      44.065  32.313  28.968  1.00  0.00     0.029 A 
ATOM     21  C   UNL A   1      45.080  31.341  28.581  1.00  0.00     0.049 A 
ATOM     22  H   UNL A   1      44.811  29.308  28.206  1.00  0.00     0.167 HD
ATOM     23  C   UNL A   1      43.970  25.103  27.202  1.00  0.00     0.037 A 
ATOM     24  C   UNL A   1      46.383  31.613  28.372  1.00  0.00     0.037 A 
ATOM     25  C   UNL A   1      45.332  25.326  26.808  1.00  0.00     0.049 A 
ATOM     26  C   UNL A   1      47.269  30.518  27.843  1.00  0.00     0.074 A 
ATOM     27  C   UNL A   1      46.225  24.438  26.237  1.00  0.00     0.029 A 
ATOM     28  N   UNL A   1      46.008  26.529  26.968  1.00  0.00    -0.354 N 
ATOM     29  N   UNL A   1      46.955  29.277  27.552  1.00  0.00    -0.248 NA
ATOM     30  C   UNL A   1      48.671  30.864  27.578  1.00  0.00     0.031 C 
ATOM     31  C   UNL A   1      47.452  25.095  26.085  1.00  0.00     0.029 A 
ATOM     32  C   UNL A   1      47.312  26.402  26.527  1.00  0.00     0.049 A 
ATOM     33  H   UNL A   1      45.614  27.352  27.340  1.00  0.00     0.167 HD
ATOM     34  C   UNL A   1      48.107  28.709  27.020  1.00  0.00     0.074 A 
ATOM     35  C   UNL A   1      49.126  29.739  27.040  1.00  0.00     0.031 C 
ATOM     36  C   UNL A   1      48.300  27.454  26.544  1.00  0.00     0.037 A 
BRANCH  23  37
ATOM     37  C   UNL A   1      43.351  23.749  27.007  1.00  0.00     0.058 A 
ATOM     38  C   UNL A   1      43.206  22.854  28.080  1.00  0.00     0.135 A 
ATOM     39  C   UNL A   1      42.952  23.319  25.734  1.00  0.00     0.135 A 
ATOM     40  F   UNL A   1      43.598  23.211  29.315  1.00  0.00    -0.206 F 
ATOM     41  C   UNL A   1      42.728  21.563  27.890  1.00  0.00     0.059 A 
ATOM     42  C   UNL A   1      42.451  22.038  25.523  1.00  0.00     0.059 A 
ATOM     43  F   UNL A   1      43.079  24.133  24.674  1.00  0.00    -0.206 F 
ATOM     44  C   UNL A   1      42.365  21.160  26.604  1.00  0.00     0.060 A 
BRANCH  44  45
ATOM     45  S   UNL A   1      41.795  19.465  26.360  1.00  0.00     0.124 S 
ATOM     46  O   UNL A   1      42.510  19.091  25.144  1.00  0.00    -0.237 OA
ATOM     47  O   UNL A   1      42.239  18.805  27.584  1.00  0.00    -0.237 OA
ATOM     48  O   UNL A   1      40.349  19.610  26.220  1.00  0.00    -0.744 OA
ENDBRANCH  44  45
ENDBRANCH  23  37
BRANCH  24  49
ATOM     49  C   UNL A   1      46.912  32.985  28.605  1.00  0.00     0.058 A 
ATOM     50  C   UNL A   1      46.924  33.946  27.584  1.00  0.00     0.135 A 
ATOM     51  C   UNL A   1      47.419  33.361  29.860  1.00  0.00     0.135 A 
ATOM     52  F   UNL A   1      46.453  33.635  26.367  1.00  0.00    -0.206 F 
ATOM     53  C   UNL A   1      47.437  35.224  27.789  1.00  0.00     0.059 A 
ATOM     54  C   UNL A   1      47.920  34.640  30.094  1.00  0.00     0.059 A 
ATOM     55  F   UNL A   1      47.417  32.486  30.876  1.00  0.00    -0.206 F 
ATOM     56  C   UNL A   1      47.934  35.562  29.049  1.00  0.00     0.060 A 
BRANCH  56  57
ATOM     57  S   UNL A   1      48.564  37.235  29.314  1.00  0.00     0.124 S 
ATOM     58  O   UNL A   1      48.308  37.854  28.019  1.00  0.00    -0.237 OA
ATOM     59  O   UNL A   1      47.735  37.702  30.422  1.00  0.00    -0.237 OA
ATOM     60  O   UNL A   1      49.969  37.014  29.642  1.00  0.00    -0.744 OA
ENDBRANCH  56  57
ENDBRANCH  24  49
BRANCH  36  61
ATOM     61  C   UNL A   1      49.645  27.145  25.957  1.00  0.00     0.058 A 
ATOM     62  C   UNL A   1      50.705  26.677  26.748  1.00  0.00     0.135 A 
ATOM     63  C   UNL A   1      49.858  27.272  24.575  1.00  0.00     0.135 A 
ATOM     64  F   UNL A   1      50.552  26.547  28.076  1.00  0.00    -0.206 F 
ATOM     65  C   UNL A   1      51.939  26.363  26.191  1.00  0.00     0.059 A 
ATOM     66  C   UNL A   1      51.077  26.940  23.994  1.00  0.00     0.059 A 
ATOM     67  F   UNL A   1      48.871  27.707  23.776  1.00  0.00    -0.206 F 
ATOM     68  C   UNL A   1      52.115  26.497  24.812  1.00  0.00     0.060 A 
BRANCH  68  69
ATOM     69  S   UNL A   1      53.707  26.049  24.090  1.00  0.00     0.124 S 
ATOM     70  O   UNL A   1      53.944  24.742  24.695  1.00  0.00    -0.237 OA
ATOM     71  O   UNL A   1      53.415  26.042  22.660  1.00  0.00    -0.237 OA
ATOM     72  O   UNL A   1      54.593  27.120  24.537  1.00  0.00    -0.744 OA
ENDBRANCH  68  69
ENDBRANCH  36  61
ENDBRANCH  10  11
ENDBRANCH   3   5
ENDBRANCH   2   3
ENDBRANCH   1   2
BRANCH   1  73
ATOM     73  C   UNL A   1      34.840  31.560  27.634  1.00  0.00     0.274 C 
BRANCH  73  74
ATOM     74  O   UNL A   1      34.469  30.208  27.352  1.00  0.00    -0.462 OA
BRANCH  74  75
ATOM     75  C   UNL A   1      33.138  29.953  27.223  1.00  0.00     0.310 C 
ATOM     76  O   UNL A   1      32.275  30.763  26.916  1.00  0.00    -0.252 OA
BRANCH  75  77
ATOM     77  C   UNL A   1      32.852  28.508  27.323  1.00  0.00     0.115 C 
ATOM     78  C   UNL A   1      31.431  28.041  27.369  1.00  0.00     0.034 C 
ATOM     79  C   UNL A   1      32.302  27.632  26.193  1.00  0.00     0.034 C 
BRANCH  79  80
ATOM     80  C   UNL A   1      31.758  28.166  24.864  1.00  0.00    -0.037 A 
ATOM     81  C   UNL A   1      30.406  27.943  24.524  1.00  0.00     0.004 A 
ATOM     82  C   UNL A   1      32.566  28.801  23.909  1.00  0.00     0.004 A 
ATOM     83  C   UNL A   1      29.890  28.314  23.284  1.00  0.00     0.000 A 
ATOM     84  C   UNL A   1      32.053  29.178  22.664  1.00  0.00     0.000 A 
ATOM     85  C   UNL A   1      30.718  28.928  22.351  1.00  0.00     0.000 A 
ENDBRANCH  79  80
BRANCH  79  86
ATOM     86  C   UNL A   1      32.876  26.191  26.125  1.00  0.00    -0.037 A 
ATOM     87  C   UNL A   1      34.157  25.964  25.583  1.00  0.00     0.004 A 
ATOM     88  C   UNL A   1      32.174  25.048  26.556  1.00  0.00     0.004 A 
ATOM     89  C   UNL A   1      34.687  24.679  25.441  1.00  0.00     0.000 A 
ATOM     90  C   UNL A   1      32.704  23.759  26.433  1.00  0.00     0.000 A 
ATOM     91  C   UNL A   1      33.958  23.574  25.865  1.00  0.00     0.000 A 
ENDBRANCH  79  86
ENDBRANCH  75  77
ENDBRANCH  74  75
ENDBRANCH  73  74
ENDBRANCH   1  73
TORSDOF 16
ENDMDL
MODEL 3
REMARK VINA RESULT:      -9.3      4.971     11.015
REMARK SMILES O=C(OCCOC(=O)[C@H]1CC1(c1ccccc1)c1ccccc1)c1ccc(-c2c3nc(c(-c4c(F)cc(S(=O)(=O)[O-])cc4F)c4ccc([nH]4)c(-c4c(F)cc(S(=O)(=O)[O-])cc4F)c4nc(c(-c5c(F)cc(S(=O)(=O)[O-])cc5F)c5ccc2[nH]5)C=C4)C=C3)cc1
REMARK SMILES IDX 4 1 3 2 2 3 1 4 24 5 25 6 89 7 26 8 88 9 27 10 28 11 29 12
REMARK SMILES IDX 82 13 30 14 87 15 81 16 83 17 31 18 86 19 80 20 79 21 32 23
REMARK SMILES IDX 66 24 45 25 65 26 46 27 49 28 64 29 84 30 47 31 48 32 63 34
REMARK SMILES IDX 85 35 50 36 33 37 34 38 43 39 35 40 36 41 42 42 44 43 37 44
REMARK SMILES IDX 38 45 39 46 40 47 41 48 67 49 68 50 77 51 69 52 70 53 76 54
REMARK SMILES IDX 78 55 71 56 72 57 73 58 74 59 75 60 51 61 52 62 61 63 53 64
REMARK SMILES IDX 54 65 60 66 62 67 55 68 56 69 57 70 58 71 59 72 5 73 6 74
REMARK SMILES IDX 7 75 8 76 9 77 10 78 11 79 12 80 13 81 17 82 14 83 16 84
REMARK SMILES IDX 15 85 18 86 19 87 23 88 20 89 22 90 21 91
REMARK H PARENT 83 22 49 33
REMARK Flexibility Score: inf
ROOT
ATOM      1  C   UNL A   1      32.598  29.683  25.607  1.00  0.00     0.275 C 
ENDROOT
BRANCH   1   2
ATOM      2  O   UNL A   1      33.880  29.557  26.252  1.00  0.00    -0.458 OA
BRANCH   2   3
ATOM      3  C   UNL A   1      34.443  30.280  27.250  1.00  0.00     0.338 C 
ATOM      4  O   UNL A   1      33.847  31.282  27.647  1.00  0.00    -0.246 OA
BRANCH   3   5
ATOM      5  C   UNL A   1      35.794  30.008  27.840  1.00  0.00     0.060 A 
ATOM      6  C   UNL A   1      37.014  30.077  27.164  1.00  0.00     0.016 A 
ATOM      7  C   UNL A   1      35.815  29.596  29.188  1.00  0.00     0.016 A 
ATOM      8  C   UNL A   1      38.224  29.828  27.826  1.00  0.00     0.010 A 
ATOM      9  C   UNL A   1      37.021  29.327  29.849  1.00  0.00     0.010 A 
ATOM     10  C   UNL A   1      38.238  29.454  29.172  1.00  0.00    -0.014 A 
BRANCH  10  11
ATOM     11  C   UNL A   1      39.517  29.064  29.811  1.00  0.00     0.031 A 
ATOM     12  C   UNL A   1      39.952  29.807  31.040  1.00  0.00     0.074 A 
ATOM     13  C   UNL A   1      40.253  28.039  29.338  1.00  0.00     0.049 A 
ATOM     14  N   UNL A   1      40.950  29.556  31.843  1.00  0.00    -0.248 NA
ATOM     15  C   UNL A   1      39.141  30.973  31.426  1.00  0.00     0.031 C 
ATOM     16  C   UNL A   1      39.917  27.226  28.172  1.00  0.00     0.029 A 
ATOM     17  N   UNL A   1      41.436  27.501  29.778  1.00  0.00    -0.354 N 
ATOM     18  C   UNL A   1      40.861  30.504  32.853  1.00  0.00     0.074 A 
ATOM     19  C   UNL A   1      39.759  31.380  32.523  1.00  0.00     0.031 C 
ATOM     20  C   UNL A   1      40.883  26.316  27.965  1.00  0.00     0.029 A 
ATOM     21  C   UNL A   1      41.897  26.462  29.001  1.00  0.00     0.049 A 
ATOM     22  H   UNL A   1      41.912  27.826  30.577  1.00  0.00     0.167 HD
ATOM     23  C   UNL A   1      41.608  30.610  33.977  1.00  0.00     0.037 A 
ATOM     24  C   UNL A   1      43.003  25.701  29.126  1.00  0.00     0.037 A 
ATOM     25  C   UNL A   1      42.722  29.757  34.278  1.00  0.00     0.049 A 
ATOM     26  C   UNL A   1      43.876  25.898  30.334  1.00  0.00     0.074 A 
ATOM     27  C   UNL A   1      43.552  29.774  35.384  1.00  0.00     0.029 A 
ATOM     28  N   UNL A   1      43.178  28.740  33.449  1.00  0.00    -0.354 N 
ATOM     29  N   UNL A   1      43.727  26.745  31.326  1.00  0.00    -0.248 NA
ATOM     30  C   UNL A   1      45.044  25.017  30.463  1.00  0.00     0.031 C 
ATOM     31  C   UNL A   1      44.531  28.789  35.206  1.00  0.00     0.029 A 
ATOM     32  C   UNL A   1      44.289  28.135  34.008  1.00  0.00     0.049 A 
ATOM     33  H   UNL A   1      42.768  28.486  32.590  1.00  0.00     0.167 HD
ATOM     34  C   UNL A   1      44.751  26.463  32.223  1.00  0.00     0.074 A 
ATOM     35  C   UNL A   1      45.518  25.375  31.650  1.00  0.00     0.031 C 
ATOM     36  C   UNL A   1      45.022  27.040  33.420  1.00  0.00     0.037 A 
BRANCH  23  37
ATOM     37  C   UNL A   1      41.223  31.698  34.936  1.00  0.00     0.058 A 
ATOM     38  C   UNL A   1      40.198  31.510  35.878  1.00  0.00     0.135 A 
ATOM     39  C   UNL A   1      41.841  32.956  34.880  1.00  0.00     0.135 A 
ATOM     40  F   UNL A   1      39.558  30.331  35.953  1.00  0.00    -0.206 F 
ATOM     41  C   UNL A   1      39.767  32.545  36.700  1.00  0.00     0.059 A 
ATOM     42  C   UNL A   1      41.441  34.000  35.708  1.00  0.00     0.059 A 
ATOM     43  F   UNL A   1      42.820  33.190  33.991  1.00  0.00    -0.206 F 
ATOM     44  C   UNL A   1      40.387  33.791  36.599  1.00  0.00     0.060 A 
BRANCH  44  45
ATOM     45  S   UNL A   1      39.785  35.141  37.634  1.00  0.00     0.124 S 
ATOM     46  O   UNL A   1      38.530  34.585  38.133  1.00  0.00    -0.237 OA
ATOM     47  O   UNL A   1      40.852  35.281  38.619  1.00  0.00    -0.237 OA
ATOM     48  O   UNL A   1      39.651  36.252  36.697  1.00  0.00    -0.744 OA
ENDBRANCH  44  45
ENDBRANCH  23  37
BRANCH  24  49
ATOM     49  C   UNL A   1      43.311  24.653  28.115  1.00  0.00     0.058 A 
ATOM     50  C   UNL A   1      42.897  23.325  28.292  1.00  0.00     0.135 A 
ATOM     51  C   UNL A   1      44.031  24.961  26.949  1.00  0.00     0.135 A 
ATOM     52  F   UNL A   1      42.209  22.979  29.390  1.00  0.00    -0.206 F 
ATOM     53  C   UNL A   1      43.201  22.334  27.362  1.00  0.00     0.059 A 
ATOM     54  C   UNL A   1      44.331  23.991  25.995  1.00  0.00     0.059 A 
ATOM     55  F   UNL A   1      44.438  26.218  26.723  1.00  0.00    -0.206 F 
ATOM     56  C   UNL A   1      43.920  22.677  26.215  1.00  0.00     0.060 A 
BRANCH  56  57
ATOM     57  S   UNL A   1      44.278  21.391  24.998  1.00  0.00     0.124 S 
ATOM     58  O   UNL A   1      45.630  20.998  25.374  1.00  0.00    -0.237 OA
ATOM     59  O   UNL A   1      43.228  20.413  25.269  1.00  0.00    -0.237 OA
ATOM     60  O   UNL A   1      44.155  22.093  23.724  1.00  0.00    -0.744 OA
ENDBRANCH  56  57
ENDBRANCH  24  49
BRANCH  36  61
ATOM     61  C   UNL A   1      46.162  26.471  34.211  1.00  0.00     0.058 A 
ATOM     62  C   UNL A   1      45.979  25.407  35.107  1.00  0.00     0.135 A 
ATOM     63  C   UNL A   1      47.463  26.966  34.029  1.00  0.00     0.135 A 
ATOM     64  F   UNL A   1      44.752  24.905  35.320  1.00  0.00    -0.206 F 
ATOM     65  C   UNL A   1      47.047  24.864  35.812  1.00  0.00     0.059 A 
ATOM     66  C   UNL A   1      48.549  26.422  34.706  1.00  0.00     0.059 A 
ATOM     67  F   UNL A   1      47.689  27.977  33.175  1.00  0.00    -0.206 F 
ATOM     68  C   UNL A   1      48.329  25.379  35.604  1.00  0.00     0.060 A 
BRANCH  68  69
ATOM     69  S   UNL A   1      49.716  24.643  36.492  1.00  0.00     0.124 S 
ATOM     70  O   UNL A   1      50.746  25.663  36.325  1.00  0.00    -0.237 OA
ATOM     71  O   UNL A   1      49.184  24.495  37.843  1.00  0.00    -0.237 OA
ATOM     72  O   UNL A   1      49.949  23.391  35.777  1.00  0.00    -0.744 OA
ENDBRANCH  68  69
ENDBRANCH  36  61
ENDBRANCH  10  11
ENDBRANCH   3   5
ENDBRANCH   2   3
ENDBRANCH   1   2
BRANCH   1  73
ATOM     73  C   UNL A   1      32.497  28.956  24.266  1.00  0.00     0.274 C 
BRANCH  73  74
ATOM     74  O   UNL A   1      32.042  27.611  24.442  1.00  0.00    -0.462 OA
BRANCH  74  75
ATOM     75  C   UNL A   1      32.608  26.666  23.642  1.00  0.00     0.310 C 
ATOM     76  O   UNL A   1      32.279  26.400  22.494  1.00  0.00    -0.252 OA
BRANCH  75  77
ATOM     77  C   UNL A   1      33.819  26.089  24.261  1.00  0.00     0.115 C 
ATOM     78  C   UNL A   1      33.994  26.166  25.745  1.00  0.00     0.034 C 
ATOM     79  C   UNL A   1      33.863  24.801  25.090  1.00  0.00     0.034 C 
BRANCH  79  80
ATOM     80  C   UNL A   1      32.629  24.043  25.586  1.00  0.00    -0.037 A 
ATOM     81  C   UNL A   1      32.417  22.710  25.172  1.00  0.00     0.004 A 
ATOM     82  C   UNL A   1      31.632  24.638  26.375  1.00  0.00     0.004 A 
ATOM     83  C   UNL A   1      31.259  22.012  25.509  1.00  0.00     0.000 A 
ATOM     84  C   UNL A   1      30.470  23.942  26.717  1.00  0.00     0.000 A 
ATOM     85  C   UNL A   1      30.281  22.633  26.279  1.00  0.00     0.000 A 
ENDBRANCH  79  80
BRANCH  79  86
ATOM     86  C   UNL A   1      35.126  23.921  24.888  1.00  0.00    -0.037 A 
ATOM     87  C   UNL A   1      36.014  23.699  25.959  1.00  0.00     0.004 A 
ATOM     88  C   UNL A   1      35.478  23.328  23.658  1.00  0.00     0.004 A 
ATOM     89  C   UNL A   1      37.197  22.970  25.807  1.00  0.00     0.000 A 
ATOM     90  C   UNL A   1      36.651  22.582  23.501  1.00  0.00     0.000 A 
ATOM     91  C   UNL A   1      37.516  22.412  24.574  1.00  0.00     0.000 A 
ENDBRANCH  79  86
ENDBRANCH  75  77
ENDBRANCH  74  75
ENDBRANCH  73  74
ENDBRANCH   1  73
TORSDOF 16
ENDMDL
