MODEL 1
REMARK VINA RESULT:     -12.4      0.000      0.000
REMARK SMILES Cc1ncc(CC(=O)N2CCC(Cc3cccc(C(=O)OCCOC(=O)c4ccc(-c5c6nc(c(-c7c(F)cc(S(=O)(=O)[O-])cc7F)c7ccc([nH]7)c(-c7c(F)cc(S(=O)(=O)[O-])cc7F)c7nc(c(-c8c(F)cc(S(=O)(=O)[O-])cc8F)c8ccc5[nH]8)C=C7)C=C6)cc4)c3)CC2)c(=O)[nH]1
REMARK SMILES IDX 22 1 21 2 19 3 20 4 18 5 14 6 15 7 93 8 16 9 17 10 13 11
REMARK SMILES IDX 12 12 7 13 8 14 9 15 10 16 95 17 11 18 94 19 6 20 5 21 1 22
REMARK SMILES IDX 2 23 3 24 98 25 4 26 96 27 97 29 23 30 24 31 25 32 26 33
REMARK SMILES IDX 27 34 28 35 92 36 29 37 91 38 30 39 31 40 32 41 85 42 33 43
REMARK SMILES IDX 90 44 84 45 86 46 34 47 89 48 83 49 82 50 35 52 69 53 48 54
REMARK SMILES IDX 68 55 49 56 52 57 67 58 87 59 50 60 51 61 66 63 88 64 53 65
REMARK SMILES IDX 36 66 37 67 46 68 38 69 39 70 45 71 47 72 40 73 41 74 42 75
REMARK SMILES IDX 43 76 44 77 70 78 71 79 80 80 72 81 73 82 79 83 81 84 74 85
REMARK SMILES IDX 75 86 76 87 77 88 78 89 54 90 55 91 64 92 56 93 57 94 63 95
REMARK SMILES IDX 65 96 58 97 59 98 60 99 61 100 62 101
REMARK H PARENT 98 28 86 51 52 62
REMARK Flexibility Score: inf
ROOT
ATOM      1  C   UNL A   1      38.161  23.041  26.167  1.00  0.00     0.275 C 
ENDROOT
BRANCH   1   2
ATOM      2  O   UNL A   1      37.231  22.059  25.672  1.00  0.00    -0.458 OA
BRANCH   2   3
ATOM      3  C   UNL A   1      36.581  22.370  24.523  1.00  0.00     0.338 C 
ATOM      4  O   UNL A   1      37.011  23.065  23.615  1.00  0.00    -0.246 OA
BRANCH   3   5
ATOM      5  C   UNL A   1      35.272  21.670  24.458  1.00  0.00     0.060 A 
ATOM      6  C   UNL A   1      32.974  21.529  23.699  1.00  0.00    -0.047 A 
ATOM      7  C   UNL A   1      32.839  20.289  24.335  1.00  0.00     0.004 A 
ATOM      8  C   UNL A   1      34.171  22.252  23.835  1.00  0.00     0.019 A 
ATOM      9  C   UNL A   1      33.929  19.717  24.986  1.00  0.00     0.001 A 
ATOM     10  C   UNL A   1      35.157  20.379  24.991  1.00  0.00     0.016 A 
BRANCH   6  11
ATOM     11  C   UNL A   1      31.929  22.003  22.716  1.00  0.00     0.039 C 
BRANCH  11  12
ATOM     12  C   UNL A   1      31.084  23.125  23.359  1.00  0.00    -0.003 C 
ATOM     13  C   UNL A   1      31.305  26.395  25.837  1.00  0.00     0.227 C 
ATOM     14  O   UNL A   1      31.684  26.032  26.958  1.00  0.00    -0.275 OA
ATOM     15  N   UNL A   1      30.692  25.497  24.970  1.00  0.00    -0.342 N 
ATOM     16  C   UNL A   1      30.278  24.200  25.503  1.00  0.00     0.120 C 
ATOM     17  C   UNL A   1      30.612  25.576  23.513  1.00  0.00     0.120 C 
ATOM     18  C   UNL A   1      31.107  23.070  24.903  1.00  0.00     0.025 C 
ATOM     19  C   UNL A   1      31.520  24.515  22.883  1.00  0.00     0.025 C 
BRANCH  13  20
ATOM     20  C   UNL A   1      31.303  27.901  25.538  1.00  0.00     0.143 C 
BRANCH  20  21
ATOM     21  C   UNL A   1      32.311  28.771  26.202  1.00  0.00     0.045 A 
ATOM     22  C   UNL A   1      35.114  31.597  27.612  1.00  0.00     0.087 C 
ATOM     23  C   UNL A   1      34.097  30.585  27.179  1.00  0.00     0.105 A 
ATOM     24  N   UNL A   1      32.874  30.656  27.594  1.00  0.00    -0.243 NA
ATOM     25  N   UNL A   1      34.549  29.615  26.331  1.00  0.00    -0.311 N 
ATOM     26  C   UNL A   1      32.000  29.731  27.087  1.00  0.00     0.123 A 
ATOM     27  C   UNL A   1      33.732  28.643  25.830  1.00  0.00     0.254 A 
ATOM     28  H   UNL A   1      35.499  29.616  26.073  1.00  0.00     0.171 HD
ATOM     29  O   UNL A   1      34.151  27.747  25.110  1.00  0.00    -0.269 OA
ENDBRANCH  20  21
ENDBRANCH  13  20
ENDBRANCH  11  12
ENDBRANCH   6  11
ENDBRANCH   3   5
ENDBRANCH   2   3
ENDBRANCH   1   2
BRANCH   1  30
ATOM     30  C   UNL A   1      39.504  22.390  26.500  1.00  0.00     0.275 C 
BRANCH  30  31
ATOM     31  O   UNL A   1      40.186  23.149  27.515  1.00  0.00    -0.458 OA
BRANCH  31  32
ATOM     32  C   UNL A   1      40.948  24.172  27.065  1.00  0.00     0.338 C 
ATOM     33  O   UNL A   1      41.665  24.189  26.079  1.00  0.00    -0.246 OA
BRANCH  32  34
ATOM     34  C   UNL A   1      40.713  25.359  27.902  1.00  0.00     0.060 A 
ATOM     35  C   UNL A   1      41.751  26.275  28.026  1.00  0.00     0.016 A 
ATOM     36  C   UNL A   1      39.560  25.507  28.663  1.00  0.00     0.016 A 
ATOM     37  C   UNL A   1      41.689  27.302  28.960  1.00  0.00     0.010 A 
ATOM     38  C   UNL A   1      39.458  26.593  29.546  1.00  0.00     0.010 A 
ATOM     39  C   UNL A   1      40.534  27.485  29.728  1.00  0.00    -0.014 A 
BRANCH  39  40
ATOM     40  C   UNL A   1      40.489  28.571  30.748  1.00  0.00     0.031 A 
ATOM     41  C   UNL A   1      41.449  28.557  31.910  1.00  0.00     0.074 A 
ATOM     42  C   UNL A   1      39.613  29.590  30.624  1.00  0.00     0.049 A 
ATOM     43  N   UNL A   1      41.475  29.320  32.974  1.00  0.00    -0.248 NA
ATOM     44  C   UNL A   1      42.513  27.540  31.878  1.00  0.00     0.031 C 
ATOM     45  C   UNL A   1      38.659  29.759  29.526  1.00  0.00     0.029 A 
ATOM     46  N   UNL A   1      39.385  30.682  31.426  1.00  0.00    -0.354 N 
ATOM     47  C   UNL A   1      42.514  28.839  33.763  1.00  0.00     0.074 A 
ATOM     48  C   UNL A   1      43.093  27.716  33.057  1.00  0.00     0.031 C 
ATOM     49  C   UNL A   1      37.970  30.895  29.709  1.00  0.00     0.029 A 
ATOM     50  C   UNL A   1      38.368  31.493  30.977  1.00  0.00     0.049 A 
ATOM     51  H   UNL A   1      39.900  30.866  32.245  1.00  0.00     0.167 HD
ATOM     52  C   UNL A   1      42.944  29.294  34.965  1.00  0.00     0.037 A 
ATOM     53  C   UNL A   1      37.786  32.570  31.540  1.00  0.00     0.037 A 
ATOM     54  C   UNL A   1      42.401  30.449  35.633  1.00  0.00     0.049 A 
ATOM     55  C   UNL A   1      38.265  33.045  32.883  1.00  0.00     0.074 A 
ATOM     56  C   UNL A   1      42.789  31.007  36.839  1.00  0.00     0.029 A 
ATOM     57  N   UNL A   1      41.359  31.229  35.152  1.00  0.00    -0.354 N 
ATOM     58  N   UNL A   1      39.225  32.557  33.635  1.00  0.00    -0.248 NA
ATOM     59  C   UNL A   1      37.578  34.207  33.463  1.00  0.00     0.031 C 
ATOM     60  C   UNL A   1      41.955  32.098  37.107  1.00  0.00     0.029 A 
ATOM     61  C   UNL A   1      41.079  32.251  36.045  1.00  0.00     0.049 A 
ATOM     62  H   UNL A   1      40.889  31.079  34.301  1.00  0.00     0.167 HD
ATOM     63  C   UNL A   1      39.262  33.358  34.771  1.00  0.00     0.074 A 
ATOM     64  C   UNL A   1      38.243  34.375  34.597  1.00  0.00     0.031 C 
ATOM     65  C   UNL A   1      40.062  33.257  35.860  1.00  0.00     0.037 A 
BRANCH  52  66
ATOM     66  C   UNL A   1      44.032  28.516  35.659  1.00  0.00     0.058 A 
ATOM     67  C   UNL A   1      45.394  28.787  35.458  1.00  0.00     0.135 A 
ATOM     68  C   UNL A   1      43.696  27.495  36.563  1.00  0.00     0.135 A 
ATOM     69  F   UNL A   1      45.773  29.742  34.593  1.00  0.00    -0.206 F 
ATOM     70  C   UNL A   1      46.384  28.053  36.104  1.00  0.00     0.059 A 
ATOM     71  C   UNL A   1      44.668  26.767  37.242  1.00  0.00     0.059 A 
ATOM     72  F   UNL A   1      42.409  27.193  36.795  1.00  0.00    -0.206 F 
ATOM     73  C   UNL A   1      46.012  27.042  36.993  1.00  0.00     0.060 A 
BRANCH  73  74
ATOM     74  S   UNL A   1      47.306  26.094  37.819  1.00  0.00     0.124 S 
ATOM     75  O   UNL A   1      47.294  26.684  39.154  1.00  0.00    -0.237 OA
ATOM     76  O   UNL A   1      46.801  24.727  37.726  1.00  0.00    -0.237 OA
ATOM     77  O   UNL A   1      48.496  26.374  37.021  1.00  0.00    -0.744 OA
ENDBRANCH  73  74
ENDBRANCH  52  66
BRANCH  53  78
ATOM     78  C   UNL A   1      36.648  33.239  30.851  1.00  0.00     0.058 A 
ATOM     79  C   UNL A   1      35.326  33.059  31.284  1.00  0.00     0.135 A 
ATOM     80  C   UNL A   1      36.867  34.098  29.761  1.00  0.00     0.135 A 
ATOM     81  F   UNL A   1      35.063  32.238  32.312  1.00  0.00    -0.206 F 
ATOM     82  C   UNL A   1      34.261  33.702  30.660  1.00  0.00     0.059 A 
ATOM     83  C   UNL A   1      35.822  34.774  29.140  1.00  0.00     0.059 A 
ATOM     84  F   UNL A   1      38.114  34.313  29.314  1.00  0.00    -0.206 F 
ATOM     85  C   UNL A   1      34.520  34.563  29.593  1.00  0.00     0.060 A 
BRANCH  85  86
ATOM     86  S   UNL A   1      33.141  35.446  28.831  1.00  0.00     0.124 S 
ATOM     87  O   UNL A   1      32.419  35.928  30.003  1.00  0.00    -0.237 OA
ATOM     88  O   UNL A   1      33.826  36.464  28.041  1.00  0.00    -0.237 OA
ATOM     89  O   UNL A   1      32.467  34.409  28.055  1.00  0.00    -0.744 OA
ENDBRANCH  85  86
ENDBRANCH  53  78
BRANCH  65  90
ATOM     90  C   UNL A   1      39.890  34.290  36.939  1.00  0.00     0.058 A 
ATOM     91  C   UNL A   1      40.506  35.549  36.859  1.00  0.00     0.135 A 
ATOM     92  C   UNL A   1      39.069  34.029  38.048  1.00  0.00     0.135 A 
ATOM     93  F   UNL A   1      41.306  35.847  35.824  1.00  0.00    -0.206 F 
ATOM     94  C   UNL A   1      40.335  36.505  37.856  1.00  0.00     0.059 A 
ATOM     95  C   UNL A   1      38.863  34.980  39.043  1.00  0.00     0.059 A 
ATOM     96  F   UNL A   1      38.449  32.845  38.168  1.00  0.00    -0.206 F 
ATOM     97  C   UNL A   1      39.512  36.210  38.946  1.00  0.00     0.060 A 
BRANCH  97  98
ATOM     98  S   UNL A   1      39.282  37.466  40.221  1.00  0.00     0.124 S 
ATOM     99  O   UNL A   1      38.803  36.663  41.342  1.00  0.00    -0.237 OA
ATOM    100  O   UNL A   1      40.624  38.019  40.365  1.00  0.00    -0.237 OA
ATOM    101  O   UNL A   1      38.298  38.371  39.631  1.00  0.00    -0.744 OA
ENDBRANCH  97  98
ENDBRANCH  65  90
ENDBRANCH  39  40
ENDBRANCH  32  34
ENDBRANCH  31  32
ENDBRANCH  30  31
ENDBRANCH   1  30
TORSDOF 18
ENDMDL
MODEL 2
REMARK VINA RESULT:     -12.3      6.462     12.012
REMARK SMILES Cc1ncc(CC(=O)N2CCC(Cc3cccc(C(=O)OCCOC(=O)c4ccc(-c5c6nc(c(-c7c(F)cc(S(=O)(=O)[O-])cc7F)c7ccc([nH]7)c(-c7c(F)cc(S(=O)(=O)[O-])cc7F)c7nc(c(-c8c(F)cc(S(=O)(=O)[O-])cc8F)c8ccc5[nH]8)C=C7)C=C6)cc4)c3)CC2)c(=O)[nH]1
REMARK SMILES IDX 22 1 21 2 19 3 20 4 18 5 14 6 15 7 93 8 16 9 17 10 13 11
REMARK SMILES IDX 12 12 7 13 8 14 9 15 10 16 95 17 11 18 94 19 6 20 5 21 1 22
REMARK SMILES IDX 2 23 3 24 98 25 4 26 96 27 97 29 23 30 24 31 25 32 26 33
REMARK SMILES IDX 27 34 28 35 92 36 29 37 91 38 30 39 31 40 32 41 85 42 33 43
REMARK SMILES IDX 90 44 84 45 86 46 34 47 89 48 83 49 82 50 35 52 69 53 48 54
REMARK SMILES IDX 68 55 49 56 52 57 67 58 87 59 50 60 51 61 66 63 88 64 53 65
REMARK SMILES IDX 36 66 37 67 46 68 38 69 39 70 45 71 47 72 40 73 41 74 42 75
REMARK SMILES IDX 43 76 44 77 70 78 71 79 80 80 72 81 73 82 79 83 81 84 74 85
REMARK SMILES IDX 75 86 76 87 77 88 78 89 54 90 55 91 64 92 56 93 57 94 63 95
REMARK SMILES IDX 65 96 58 97 59 98 60 99 61 100 62 101
REMARK H PARENT 98 28 86 51 52 62
REMARK Flexibility Score: inf
ROOT
ATOM      1  C   UNL A   1      34.217  31.634  27.636  1.00  0.00     0.275 C 
ENDROOT
BRANCH   1   2
ATOM      2  O   UNL A   1      33.412  30.440  27.639  1.00  0.00    -0.458 OA
BRANCH   2   3
ATOM      3  C   UNL A   1      33.927  29.364  26.993  1.00  0.00     0.338 C 
ATOM      4  O   UNL A   1      35.032  28.875  27.170  1.00  0.00    -0.246 OA
BRANCH   3   5
ATOM      5  C   UNL A   1      32.919  28.778  26.072  1.00  0.00     0.060 A 
ATOM      6  C   UNL A   1      31.191  27.153  25.572  1.00  0.00    -0.047 A 
ATOM      7  C   UNL A   1      31.006  27.735  24.313  1.00  0.00     0.004 A 
ATOM      8  C   UNL A   1      32.209  27.629  26.415  1.00  0.00     0.019 A 
ATOM      9  C   UNL A   1      31.736  28.864  23.954  1.00  0.00     0.001 A 
ATOM     10  C   UNL A   1      32.643  29.418  24.857  1.00  0.00     0.016 A 
BRANCH   6  11
ATOM     11  C   UNL A   1      30.191  26.156  26.109  1.00  0.00     0.039 C 
BRANCH  11  12
ATOM     12  C   UNL A   1      30.537  24.742  25.589  1.00  0.00    -0.003 C 
ATOM     13  C   UNL A   1      33.562  22.492  23.956  1.00  0.00     0.227 C 
ATOM     14  O   UNL A   1      33.889  22.979  22.866  1.00  0.00    -0.275 OA
ATOM     15  N   UNL A   1      32.299  22.728  24.488  1.00  0.00    -0.342 N 
ATOM     16  C   UNL A   1      31.291  23.339  23.624  1.00  0.00     0.120 C 
ATOM     17  C   UNL A   1      31.896  22.665  25.892  1.00  0.00     0.120 C 
ATOM     18  C   UNL A   1      30.941  24.746  24.098  1.00  0.00     0.025 C 
ATOM     19  C   UNL A   1      31.637  24.078  26.423  1.00  0.00     0.025 C 
BRANCH  13  20
ATOM     20  C   UNL A   1      34.487  21.431  24.570  1.00  0.00     0.143 C 
BRANCH  20  21
ATOM     21  C   UNL A   1      35.855  21.827  25.001  1.00  0.00     0.045 A 
ATOM     22  C   UNL A   1      39.615  22.663  26.732  1.00  0.00     0.087 C 
ATOM     23  C   UNL A   1      38.313  22.359  26.054  1.00  0.00     0.105 A 
ATOM     24  N   UNL A   1      38.203  21.349  25.254  1.00  0.00    -0.243 NA
ATOM     25  N   UNL A   1      37.281  23.204  26.345  1.00  0.00    -0.311 N 
ATOM     26  C   UNL A   1      36.957  21.107  24.739  1.00  0.00     0.123 A 
ATOM     27  C   UNL A   1      36.030  23.037  25.827  1.00  0.00     0.254 A 
ATOM     28  H   UNL A   1      37.446  23.963  26.951  1.00  0.00     0.171 HD
ATOM     29  O   UNL A   1      35.120  23.824  26.051  1.00  0.00    -0.269 OA
ENDBRANCH  20  21
ENDBRANCH  13  20
ENDBRANCH  11  12
ENDBRANCH   6  11
ENDBRANCH   3   5
ENDBRANCH   2   3
ENDBRANCH   1   2
BRANCH   1  30
ATOM     30  C   UNL A   1      34.651  31.995  29.057  1.00  0.00     0.275 C 
BRANCH  30  31
ATOM     31  O   UNL A   1      36.074  31.834  29.197  1.00  0.00    -0.458 OA
BRANCH  31  32
ATOM     32  C   UNL A   1      36.471  30.949  30.141  1.00  0.00     0.338 C 
ATOM     33  O   UNL A   1      35.883  30.636  31.162  1.00  0.00    -0.246 OA
BRANCH  32  34
ATOM     34  C   UNL A   1      37.718  30.301  29.707  1.00  0.00     0.060 A 
ATOM     35  C   UNL A   1      38.631  29.938  30.690  1.00  0.00     0.016 A 
ATOM     36  C   UNL A   1      38.056  30.178  28.364  1.00  0.00     0.016 A 
ATOM     37  C   UNL A   1      39.913  29.522  30.355  1.00  0.00     0.010 A 
ATOM     38  C   UNL A   1      39.321  29.676  28.021  1.00  0.00     0.010 A 
ATOM     39  C   UNL A   1      40.276  29.373  29.012  1.00  0.00    -0.014 A 
BRANCH  39  40
ATOM     40  C   UNL A   1      41.663  28.955  28.663  1.00  0.00     0.031 A 
ATOM     41  C   UNL A   1      42.785  29.962  28.691  1.00  0.00     0.074 A 
ATOM     42  C   UNL A   1      41.933  27.670  28.351  1.00  0.00     0.049 A 
ATOM     43  N   UNL A   1      44.023  29.836  28.283  1.00  0.00    -0.248 NA
ATOM     44  C   UNL A   1      42.470  31.290  29.239  1.00  0.00     0.031 C 
ATOM     45  C   UNL A   1      40.955  26.580  28.330  1.00  0.00     0.029 A 
ATOM     46  N   UNL A   1      43.112  27.060  27.995  1.00  0.00    -0.354 N 
ATOM     47  C   UNL A   1      44.614  31.081  28.467  1.00  0.00     0.074 A 
ATOM     48  C   UNL A   1      43.599  31.950  29.022  1.00  0.00     0.031 C 
ATOM     49  C   UNL A   1      41.576  25.435  28.007  1.00  0.00     0.029 A 
ATOM     50  C   UNL A   1      42.975  25.720  27.713  1.00  0.00     0.049 A 
ATOM     51  H   UNL A   1      43.972  27.537  27.945  1.00  0.00     0.167 HD
ATOM     52  C   UNL A   1      45.887  31.462  28.198  1.00  0.00     0.037 A 
ATOM     53  C   UNL A   1      43.860  24.827  27.228  1.00  0.00     0.037 A 
ATOM     54  C   UNL A   1      46.907  30.575  27.700  1.00  0.00     0.049 A 
ATOM     55  C   UNL A   1      45.261  25.276  26.918  1.00  0.00     0.074 A 
ATOM     56  C   UNL A   1      48.234  30.859  27.425  1.00  0.00     0.029 A 
ATOM     57  N   UNL A   1      46.720  29.230  27.411  1.00  0.00    -0.354 N 
ATOM     58  N   UNL A   1      45.794  26.466  27.062  1.00  0.00    -0.248 NA
ATOM     59  C   UNL A   1      46.176  24.268  26.366  1.00  0.00     0.031 C 
ATOM     60  C   UNL A   1      48.838  29.698  26.929  1.00  0.00     0.029 A 
ATOM     61  C   UNL A   1      47.902  28.677  26.943  1.00  0.00     0.049 A 
ATOM     62  H   UNL A   1      45.874  28.742  27.523  1.00  0.00     0.167 HD
ATOM     63  C   UNL A   1      47.110  26.347  26.629  1.00  0.00     0.074 A 
ATOM     64  C   UNL A   1      47.297  24.964  26.238  1.00  0.00     0.031 C 
ATOM     65  C   UNL A   1      48.074  27.298  26.557  1.00  0.00     0.037 A 
BRANCH  52  66
ATOM     66  C   UNL A   1      46.239  32.913  28.395  1.00  0.00     0.058 A 
ATOM     67  C   UNL A   1      46.094  33.866  27.375  1.00  0.00     0.135 A 
ATOM     68  C   UNL A   1      46.707  33.358  29.643  1.00  0.00     0.135 A 
ATOM     69  F   UNL A   1      45.667  33.495  26.158  1.00  0.00    -0.206 F 
ATOM     70  C   UNL A   1      46.430  35.202  27.576  1.00  0.00     0.059 A 
ATOM     71  C   UNL A   1      47.021  34.693  29.875  1.00  0.00     0.059 A 
ATOM     72  F   UNL A   1      46.863  32.490  30.655  1.00  0.00    -0.206 F 
ATOM     73  C   UNL A   1      46.896  35.606  28.829  1.00  0.00     0.060 A 
BRANCH  73  74
ATOM     74  S   UNL A   1      47.336  37.340  29.073  1.00  0.00     0.124 S 
ATOM     75  O   UNL A   1      46.328  38.013  28.260  1.00  0.00    -0.237 OA
ATOM     76  O   UNL A   1      47.194  37.499  30.517  1.00  0.00    -0.237 OA
ATOM     77  O   UNL A   1      48.703  37.420  28.568  1.00  0.00    -0.744 OA
ENDBRANCH  73  74
ENDBRANCH  52  66
BRANCH  53  78
ATOM     78  C   UNL A   1      43.426  23.428  26.960  1.00  0.00     0.058 A 
ATOM     79  C   UNL A   1      43.221  22.966  25.652  1.00  0.00     0.135 A 
ATOM     80  C   UNL A   1      43.235  22.516  28.012  1.00  0.00     0.135 A 
ATOM     81  F   UNL A   1      43.377  23.802  24.614  1.00  0.00    -0.206 F 
ATOM     82  C   UNL A   1      42.841  21.653  25.394  1.00  0.00     0.059 A 
ATOM     83  C   UNL A   1      42.884  21.191  27.778  1.00  0.00     0.059 A 
ATOM     84  F   UNL A   1      43.427  22.904  29.282  1.00  0.00    -0.206 F 
ATOM     85  C   UNL A   1      42.681  20.770  26.464  1.00  0.00     0.060 A 
BRANCH  85  86
ATOM     86  S   UNL A   1      42.252  19.051  26.118  1.00  0.00     0.124 S 
ATOM     87  O   UNL A   1      43.164  18.735  25.025  1.00  0.00    -0.237 OA
ATOM     88  O   UNL A   1      42.535  18.401  27.393  1.00  0.00    -0.237 OA
ATOM     89  O   UNL A   1      40.838  19.123  25.761  1.00  0.00    -0.744 OA
ENDBRANCH  85  86
ENDBRANCH  53  78
BRANCH  65  90
ATOM     90  C   UNL A   1      49.428  26.870  26.062  1.00  0.00     0.058 A 
ATOM     91  C   UNL A   1      50.378  26.294  26.920  1.00  0.00     0.135 A 
ATOM     92  C   UNL A   1      49.763  27.004  24.705  1.00  0.00     0.135 A 
ATOM     93  F   UNL A   1      50.110  26.149  28.227  1.00  0.00    -0.206 F 
ATOM     94  C   UNL A   1      51.626  25.891  26.455  1.00  0.00     0.059 A 
ATOM     95  C   UNL A   1      50.996  26.583  24.213  1.00  0.00     0.059 A 
ATOM     96  F   UNL A   1      48.888  27.539  23.841  1.00  0.00    -0.206 F 
ATOM     97  C   UNL A   1      51.926  26.041  25.099  1.00  0.00     0.060 A 
BRANCH  97  98
ATOM     98  S   UNL A   1      53.540  25.494  24.503  1.00  0.00     0.124 S 
ATOM     99  O   UNL A   1      54.443  26.264  25.353  1.00  0.00    -0.237 OA
ATOM    100  O   UNL A   1      53.499  24.058  24.758  1.00  0.00    -0.237 OA
ATOM    101  O   UNL A   1      53.527  25.874  23.093  1.00  0.00    -0.744 OA
ENDBRANCH  97  98
ENDBRANCH  65  90
ENDBRANCH  39  40
ENDBRANCH  32  34
ENDBRANCH  31  32
ENDBRANCH  30  31
ENDBRANCH   1  30
TORSDOF 18
ENDMDL
MODEL 3
REMARK VINA RESULT:     -12.2      0.668      1.615
REMARK SMILES Cc1ncc(CC(=O)N2CCC(Cc3cccc(C(=O)OCCOC(=O)c4ccc(-c5c6nc(c(-c7c(F)cc(S(=O)(=O)[O-])cc7F)c7ccc([nH]7)c(-c7c(F)cc(S(=O)(=O)[O-])cc7F)c7nc(c(-c8c(F)cc(S(=O)(=O)[O-])cc8F)c8ccc5[nH]8)C=C7)C=C6)cc4)c3)CC2)c(=O)[nH]1
REMARK SMILES IDX 22 1 21 2 19 3 20 4 18 5 14 6 15 7 93 8 16 9 17 10 13 11
REMARK SMILES IDX 12 12 7 13 8 14 9 15 10 16 95 17 11 18 94 19 6 20 5 21 1 22
REMARK SMILES IDX 2 23 3 24 98 25 4 26 96 27 97 29 23 30 24 31 25 32 26 33
REMARK SMILES IDX 27 34 28 35 92 36 29 37 91 38 30 39 31 40 32 41 85 42 33 43
REMARK SMILES IDX 90 44 84 45 86 46 34 47 89 48 83 49 82 50 35 52 69 53 48 54
REMARK SMILES IDX 68 55 49 56 52 57 67 58 87 59 50 60 51 61 66 63 88 64 53 65
REMARK SMILES IDX 36 66 37 67 46 68 38 69 39 70 45 71 47 72 40 73 41 74 42 75
REMARK SMILES IDX 43 76 44 77 70 78 71 79 80 80 72 81 73 82 79 83 81 84 74 85
REMARK SMILES IDX 75 86 76 87 77 88 78 89 54 90 55 91 64 92 56 93 57 94 63 95
REMARK SMILES IDX 65 96 58 97 59 98 60 99 61 100 62 101
REMARK H PARENT 98 28 86 51 52 62
REMARK Flexibility Score: inf
ROOT
ATOM      1  C   UNL A   1      38.779  21.685  26.109  1.00  0.00     0.275 C 
ENDROOT
BRANCH   1   2
ATOM      2  O   UNL A   1      37.971  22.264  25.066  1.00  0.00    -0.458 OA
BRANCH   2   3
ATOM      3  C   UNL A   1      36.947  23.058  25.469  1.00  0.00     0.338 C 
ATOM      4  O   UNL A   1      37.044  24.093  26.108  1.00  0.00    -0.246 OA
BRANCH   3   5
ATOM      5  C   UNL A   1      35.654  22.545  24.946  1.00  0.00     0.060 A 
ATOM      6  C   UNL A   1      33.839  22.604  23.340  1.00  0.00    -0.047 A 
ATOM      7  C   UNL A   1      33.236  21.515  23.980  1.00  0.00     0.004 A 
ATOM      8  C   UNL A   1      35.008  23.166  23.880  1.00  0.00     0.019 A 
ATOM      9  C   UNL A   1      33.863  20.910  25.065  1.00  0.00     0.001 A 
ATOM     10  C   UNL A   1      35.098  21.386  25.505  1.00  0.00     0.016 A 
BRANCH   6  11
ATOM     11  C   UNL A   1      33.361  23.053  21.979  1.00  0.00     0.039 C 
BRANCH  11  12
ATOM     12  C   UNL A   1      32.311  24.175  22.143  1.00  0.00    -0.003 C 
ATOM     13  C   UNL A   1      31.020  27.119  24.701  1.00  0.00     0.227 C 
ATOM     14  O   UNL A   1      30.640  26.602  25.759  1.00  0.00    -0.275 OA
ATOM     15  N   UNL A   1      31.048  26.384  23.521  1.00  0.00    -0.342 N 
ATOM     16  C   UNL A   1      30.383  25.082  23.507  1.00  0.00     0.120 C 
ATOM     17  C   UNL A   1      31.867  26.629  22.336  1.00  0.00     0.120 C 
ATOM     18  C   UNL A   1      31.394  23.950  23.366  1.00  0.00     0.025 C 
ATOM     19  C   UNL A   1      32.960  25.560  22.229  1.00  0.00     0.025 C 
BRANCH  13  20
ATOM     20  C   UNL A   1      31.215  28.643  24.682  1.00  0.00     0.143 C 
BRANCH  20  21
ATOM     21  C   UNL A   1      32.186  29.260  25.625  1.00  0.00     0.045 A 
ATOM     22  C   UNL A   1      35.082  31.376  27.853  1.00  0.00     0.087 C 
ATOM     23  C   UNL A   1      34.014  30.620  27.121  1.00  0.00     0.105 A 
ATOM     24  N   UNL A   1      32.771  30.954  27.235  1.00  0.00    -0.243 NA
ATOM     25  N   UNL A   1      34.448  29.586  26.343  1.00  0.00    -0.311 N 
ATOM     26  C   UNL A   1      31.875  30.252  26.473  1.00  0.00     0.123 A 
ATOM     27  C   UNL A   1      33.596  28.825  25.596  1.00  0.00     0.254 A 
ATOM     28  H   UNL A   1      35.410  29.380  26.320  1.00  0.00     0.171 HD
ATOM     29  O   UNL A   1      33.982  27.869  24.938  1.00  0.00    -0.269 OA
ENDBRANCH  20  21
ENDBRANCH  13  20
ENDBRANCH  11  12
ENDBRANCH   6  11
ENDBRANCH   3   5
ENDBRANCH   2   3
ENDBRANCH   1   2
BRANCH   1  30
ATOM     30  C   UNL A   1      40.116  22.417  26.223  1.00  0.00     0.275 C 
BRANCH  30  31
ATOM     31  O   UNL A   1      39.996  23.531  27.126  1.00  0.00    -0.458 OA
BRANCH  31  32
ATOM     32  C   UNL A   1      40.606  24.673  26.729  1.00  0.00     0.338 C 
ATOM     33  O   UNL A   1      40.945  24.981  25.599  1.00  0.00    -0.246 OA
BRANCH  32  34
ATOM     34  C   UNL A   1      40.722  25.586  27.876  1.00  0.00     0.060 A 
ATOM     35  C   UNL A   1      39.622  25.710  28.715  1.00  0.00     0.016 A 
ATOM     36  C   UNL A   1      41.827  26.412  28.051  1.00  0.00     0.016 A 
ATOM     37  C   UNL A   1      39.571  26.702  29.686  1.00  0.00     0.010 A 
ATOM     38  C   UNL A   1      41.815  27.359  29.087  1.00  0.00     0.010 A 
ATOM     39  C   UNL A   1      40.674  27.537  29.896  1.00  0.00    -0.014 A 
BRANCH  39  40
ATOM     40  C   UNL A   1      40.599  28.618  30.919  1.00  0.00     0.031 A 
ATOM     41  C   UNL A   1      41.544  28.613  32.094  1.00  0.00     0.074 A 
ATOM     42  C   UNL A   1      39.711  29.625  30.787  1.00  0.00     0.049 A 
ATOM     43  N   UNL A   1      41.546  29.373  33.160  1.00  0.00    -0.248 NA
ATOM     44  C   UNL A   1      42.623  27.613  32.072  1.00  0.00     0.031 C 
ATOM     45  C   UNL A   1      38.768  29.784  29.677  1.00  0.00     0.029 A 
ATOM     46  N   UNL A   1      39.456  30.711  31.590  1.00  0.00    -0.354 N 
ATOM     47  C   UNL A   1      42.582  28.904  33.961  1.00  0.00     0.074 A 
ATOM     48  C   UNL A   1      43.185  27.792  33.259  1.00  0.00     0.031 C 
ATOM     49  C   UNL A   1      38.061  30.910  29.855  1.00  0.00     0.029 A 
ATOM     50  C   UNL A   1      38.434  31.508  31.131  1.00  0.00     0.049 A 
ATOM     51  H   UNL A   1      39.958  30.899  32.416  1.00  0.00     0.167 HD
ATOM     52  C   UNL A   1      42.989  29.360  35.171  1.00  0.00     0.037 A 
ATOM     53  C   UNL A   1      37.829  32.575  31.690  1.00  0.00     0.037 A 
ATOM     54  C   UNL A   1      42.420  30.505  35.836  1.00  0.00     0.049 A 
ATOM     55  C   UNL A   1      38.284  33.052  33.041  1.00  0.00     0.074 A 
ATOM     56  C   UNL A   1      42.785  31.064  37.048  1.00  0.00     0.029 A 
ATOM     57  N   UNL A   1      41.374  31.272  35.343  1.00  0.00    -0.354 N 
ATOM     58  N   UNL A   1      39.240  32.575  33.803  1.00  0.00    -0.248 NA
ATOM     59  C   UNL A   1      37.572  34.201  33.616  1.00  0.00     0.031 C 
ATOM     60  C   UNL A   1      41.932  32.142  37.309  1.00  0.00     0.029 A 
ATOM     61  C   UNL A   1      41.068  32.287  36.236  1.00  0.00     0.049 A 
ATOM     62  H   UNL A   1      40.917  31.118  34.486  1.00  0.00     0.167 HD
ATOM     63  C   UNL A   1      39.251  33.372  34.942  1.00  0.00     0.074 A 
ATOM     64  C   UNL A   1      38.221  34.375  34.759  1.00  0.00     0.031 C 
ATOM     65  C   UNL A   1      40.039  33.278  36.042  1.00  0.00     0.037 A 
BRANCH  52  66
ATOM     66  C   UNL A   1      44.078  28.596  35.876  1.00  0.00     0.058 A 
ATOM     67  C   UNL A   1      43.810  27.483  36.687  1.00  0.00     0.135 A 
ATOM     68  C   UNL A   1      45.421  28.974  35.710  1.00  0.00     0.135 A 
ATOM     69  F   UNL A   1      42.544  27.086  36.894  1.00  0.00    -0.206 F 
ATOM     70  C   UNL A   1      44.830  26.792  37.335  1.00  0.00     0.059 A 
ATOM     71  C   UNL A   1      46.460  28.282  36.325  1.00  0.00     0.059 A 
ATOM     72  F   UNL A   1      45.737  30.030  34.944  1.00  0.00    -0.206 F 
ATOM     73  C   UNL A   1      46.153  27.201  37.150  1.00  0.00     0.060 A 
BRANCH  73  74
ATOM     74  S   UNL A   1      47.465  26.301  38.002  1.00  0.00     0.124 S 
ATOM     75  O   UNL A   1      46.900  24.957  38.071  1.00  0.00    -0.237 OA
ATOM     76  O   UNL A   1      48.598  26.466  37.096  1.00  0.00    -0.237 OA
ATOM     77  O   UNL A   1      47.583  26.998  39.279  1.00  0.00    -0.744 OA
ENDBRANCH  73  74
ENDBRANCH  52  66
BRANCH  53  78
ATOM     78  C   UNL A   1      36.691  33.230  30.989  1.00  0.00     0.058 A 
ATOM     79  C   UNL A   1      35.367  33.036  31.409  1.00  0.00     0.135 A 
ATOM     80  C   UNL A   1      36.911  34.089  29.899  1.00  0.00     0.135 A 
ATOM     81  F   UNL A   1      35.103  32.215  32.436  1.00  0.00    -0.206 F 
ATOM     82  C   UNL A   1      34.301  33.667  30.773  1.00  0.00     0.059 A 
ATOM     83  C   UNL A   1      35.865  34.753  29.267  1.00  0.00     0.059 A 
ATOM     84  F   UNL A   1      38.159  34.316  29.463  1.00  0.00    -0.206 F 
ATOM     85  C   UNL A   1      34.561  34.529  29.707  1.00  0.00     0.060 A 
BRANCH  85  86
ATOM     86  S   UNL A   1      33.180  35.395  28.930  1.00  0.00     0.124 S 
ATOM     87  O   UNL A   1      32.414  35.827  30.093  1.00  0.00    -0.237 OA
ATOM     88  O   UNL A   1      33.859  36.450  28.185  1.00  0.00    -0.237 OA
ATOM     89  O   UNL A   1      32.555  34.361  28.109  1.00  0.00    -0.744 OA
ENDBRANCH  85  86
ENDBRANCH  53  78
BRANCH  65  90
ATOM     90  C   UNL A   1      39.838  34.305  37.122  1.00  0.00     0.058 A 
ATOM     91  C   UNL A   1      39.003  34.061  38.224  1.00  0.00     0.135 A 
ATOM     92  C   UNL A   1      40.517  35.533  37.071  1.00  0.00     0.135 A 
ATOM     93  F   UNL A   1      38.325  32.906  38.318  1.00  0.00    -0.206 F 
ATOM     94  C   UNL A   1      38.828  35.011  39.226  1.00  0.00     0.059 A 
ATOM     95  C   UNL A   1      40.377  36.486  38.075  1.00  0.00     0.059 A 
ATOM     96  F   UNL A   1      41.334  35.812  36.044  1.00  0.00    -0.206 F 
ATOM     97  C   UNL A   1      39.519  36.222  39.141  1.00  0.00     0.060 A 
BRANCH  97  98
ATOM     98  S   UNL A   1      39.299  37.437  40.458  1.00  0.00     0.124 S 
ATOM     99  O   UNL A   1      38.228  38.267  39.917  1.00  0.00    -0.237 OA
ATOM    100  O   UNL A   1      38.940  36.603  41.600  1.00  0.00    -0.237 OA
ATOM    101  O   UNL A   1      40.608  38.080  40.547  1.00  0.00    -0.744 OA
ENDBRANCH  97  98
ENDBRANCH  65  90
ENDBRANCH  39  40
ENDBRANCH  32  34
ENDBRANCH  31  32
ENDBRANCH  30  31
ENDBRANCH   1  30
TORSDOF 18
ENDMDL
