MODEL 1
REMARK VINA RESULT:     -10.8      0.000      0.000
REMARK SMILES C[C@H](NC(=O)N1CC[C@H](C(=O)OCCOC(=O)c2ccc(-c3c4nc(c(-c5c(F)cc(S(=O)(=O)[O-])cc5F)c5ccc([nH]5)c(-c5c(F)cc(S(=O)(=O)[O-])cc5F)c5nc(c(-c6c(F)cc(S(=O)(=O)[O-])cc6F)c6ccc3[nH]6)C=C5)C=C4)cc2)[C@H]1C)c1ccsc1
REMARK SMILES IDX 13 1 12 2 10 3 11 4 9 5 6 6 7 7 84 8 8 9 85 10 4 11 3 12
REMARK SMILES IDX 5 14 2 15 1 16 86 17 87 18 90 19 88 20 89 21 14 22 15 23
REMARK SMILES IDX 16 24 17 25 18 26 19 27 83 28 20 29 82 30 21 31 22 32 23 33
REMARK SMILES IDX 76 34 24 35 81 36 75 37 77 38 25 39 80 40 74 41 73 42 26 44
REMARK SMILES IDX 60 45 39 46 59 47 40 48 43 49 58 50 78 51 41 52 42 53 57 55
REMARK SMILES IDX 79 56 44 57 27 58 28 59 37 60 29 61 30 62 36 63 38 64 31 65
REMARK SMILES IDX 32 66 33 67 34 68 35 69 61 70 62 71 71 72 63 73 64 74 70 75
REMARK SMILES IDX 72 76 65 77 66 78 67 79 68 80 69 81 45 82 46 83 55 84 47 85
REMARK SMILES IDX 48 86 54 87 56 88 49 89 50 90 51 91 52 92 53 93
REMARK H PARENT 3 13 77 43 43 54
REMARK Flexibility Score: inf
ROOT
ATOM      1  C   UNL A   1      31.760  30.159  26.230  1.00  0.00     0.274 C 
ENDROOT
BRANCH   1   2
ATOM      2  O   UNL A   1      32.383  29.388  25.183  1.00  0.00    -0.462 OA
BRANCH   2   3
ATOM      3  C   UNL A   1      31.536  28.750  24.327  1.00  0.00     0.311 C 
ATOM      4  O   UNL A   1      31.090  29.246  23.302  1.00  0.00    -0.252 OA
BRANCH   3   5
ATOM      5  C   UNL A   1      31.193  27.363  24.839  1.00  0.00     0.123 C 
ATOM      6  N   UNL A   1      32.314  25.628  23.607  1.00  0.00    -0.321 N 
ATOM      7  C   UNL A   1      31.129  26.033  22.868  1.00  0.00     0.122 C 
ATOM      8  C   UNL A   1      32.421  26.434  24.833  1.00  0.00     0.098 C 
ATOM      9  C   UNL A   1      30.214  26.664  23.902  1.00  0.00     0.039 C 
ATOM     10  C   UNL A   1      32.482  25.597  26.106  1.00  0.00     0.032 C 
BRANCH   6  11
ATOM     11  C   UNL A   1      33.426  25.373  22.844  1.00  0.00     0.318 C 
ATOM     12  N   UNL A   1      34.104  24.221  23.042  1.00  0.00    -0.331 N 
ATOM     13  H   UNL A   1      34.792  24.048  22.359  1.00  0.00     0.165 HD
ATOM     14  O   UNL A   1      33.781  26.109  21.925  1.00  0.00    -0.249 OA
BRANCH  12  15
ATOM     15  C   UNL A   1      34.023  23.186  24.062  1.00  0.00     0.112 C 
ATOM     16  C   UNL A   1      33.422  21.865  23.558  1.00  0.00     0.036 C 
BRANCH  15  17
ATOM     17  C   UNL A   1      35.406  22.920  24.673  1.00  0.00    -0.015 A 
ATOM     18  C   UNL A   1      36.092  21.659  24.819  1.00  0.00     0.017 A 
ATOM     19  C   UNL A   1      36.213  23.932  25.181  1.00  0.00     0.070 A 
ATOM     20  C   UNL A   1      37.306  21.768  25.464  1.00  0.00     0.065 A 
ATOM     21  S   UNL A   1      37.666  23.379  25.883  1.00  0.00    -0.152 S 
ENDBRANCH  15  17
ENDBRANCH  12  15
ENDBRANCH   6  11
ENDBRANCH   3   5
ENDBRANCH   2   3
ENDBRANCH   1   2
BRANCH   1  22
ATOM     22  C   UNL A   1      32.787  30.989  27.003  1.00  0.00     0.275 C 
BRANCH  22  23
ATOM     23  O   UNL A   1      33.556  30.181  27.915  1.00  0.00    -0.458 OA
BRANCH  23  24
ATOM     24  C   UNL A   1      34.552  30.841  28.545  1.00  0.00     0.338 C 
ATOM     25  O   UNL A   1      34.463  31.893  29.162  1.00  0.00    -0.246 OA
BRANCH  24  26
ATOM     26  C   UNL A   1      35.812  30.088  28.492  1.00  0.00     0.060 A 
ATOM     27  C   UNL A   1      36.317  29.600  29.688  1.00  0.00     0.016 A 
ATOM     28  C   UNL A   1      36.617  30.112  27.354  1.00  0.00     0.016 A 
ATOM     29  C   UNL A   1      37.678  29.339  29.808  1.00  0.00     0.010 A 
ATOM     30  C   UNL A   1      37.947  29.673  27.443  1.00  0.00     0.010 A 
ATOM     31  C   UNL A   1      38.520  29.345  28.687  1.00  0.00    -0.014 A 
BRANCH  31  32
ATOM     32  C   UNL A   1      39.981  29.033  28.830  1.00  0.00     0.031 A 
ATOM     33  C   UNL A   1      40.951  30.070  29.358  1.00  0.00     0.074 A 
ATOM     34  C   UNL A   1      40.454  27.808  28.510  1.00  0.00     0.049 A 
ATOM     35  N   UNL A   1      42.261  30.047  29.372  1.00  0.00    -0.248 NA
ATOM     36  C   UNL A   1      40.377  31.301  29.923  1.00  0.00     0.031 C 
ATOM     37  C   UNL A   1      39.649  26.686  28.016  1.00  0.00     0.029 A 
ATOM     38  N   UNL A   1      41.726  27.290  28.566  1.00  0.00    -0.354 N 
ATOM     39  C   UNL A   1      42.665  31.281  29.875  1.00  0.00     0.074 A 
ATOM     40  C   UNL A   1      41.460  32.031  30.153  1.00  0.00     0.031 C 
ATOM     41  C   UNL A   1      40.426  25.604  27.884  1.00  0.00     0.029 A 
ATOM     42  C   UNL A   1      41.806  25.976  28.163  1.00  0.00     0.049 A 
ATOM     43  H   UNL A   1      42.506  27.810  28.867  1.00  0.00     0.167 HD
ATOM     44  C   UNL A   1      43.922  31.747  30.084  1.00  0.00     0.037 A 
ATOM     45  C   UNL A   1      42.866  25.165  27.982  1.00  0.00     0.037 A 
ATOM     46  C   UNL A   1      45.119  30.968  29.883  1.00  0.00     0.049 A 
ATOM     47  C   UNL A   1      44.248  25.700  28.217  1.00  0.00     0.074 A 
ATOM     48  C   UNL A   1      46.436  31.345  30.088  1.00  0.00     0.029 A 
ATOM     49  N   UNL A   1      45.147  29.648  29.456  1.00  0.00    -0.354 N 
ATOM     50  N   UNL A   1      44.610  26.894  28.618  1.00  0.00    -0.248 NA
ATOM     51  C   UNL A   1      45.366  24.786  27.951  1.00  0.00     0.031 C 
ATOM     52  C   UNL A   1      47.262  30.263  29.757  1.00  0.00     0.029 A 
ATOM     53  C   UNL A   1      46.456  29.199  29.387  1.00  0.00     0.049 A 
ATOM     54  H   UNL A   1      44.353  29.110  29.236  1.00  0.00     0.167 HD
ATOM     55  C   UNL A   1      45.999  26.872  28.663  1.00  0.00     0.074 A 
ATOM     56  C   UNL A   1      46.410  25.541  28.266  1.00  0.00     0.031 C 
ATOM     57  C   UNL A   1      46.854  27.869  28.998  1.00  0.00     0.037 A 
BRANCH  44  58
ATOM     58  C   UNL A   1      44.080  33.178  30.526  1.00  0.00     0.058 A 
ATOM     59  C   UNL A   1      44.135  33.544  31.880  1.00  0.00     0.135 A 
ATOM     60  C   UNL A   1      44.220  34.200  29.570  1.00  0.00     0.135 A 
ATOM     61  F   UNL A   1      43.996  32.613  32.837  1.00  0.00    -0.206 F 
ATOM     62  C   UNL A   1      44.292  34.872  32.271  1.00  0.00     0.059 A 
ATOM     63  C   UNL A   1      44.404  35.530  29.938  1.00  0.00     0.059 A 
ATOM     64  F   UNL A   1      44.183  33.909  28.261  1.00  0.00    -0.206 F 
ATOM     65  C   UNL A   1      44.420  35.859  31.292  1.00  0.00     0.060 A 
BRANCH  65  66
ATOM     66  S   UNL A   1      44.613  37.578  31.812  1.00  0.00     0.124 S 
ATOM     67  O   UNL A   1      43.942  37.565  33.108  1.00  0.00    -0.237 OA
ATOM     68  O   UNL A   1      46.063  37.734  31.852  1.00  0.00    -0.237 OA
ATOM     69  O   UNL A   1      43.933  38.329  30.761  1.00  0.00    -0.744 OA
ENDBRANCH  65  66
ENDBRANCH  44  58
BRANCH  45  70
ATOM     70  C   UNL A   1      42.653  23.772  27.505  1.00  0.00     0.058 A 
ATOM     71  C   UNL A   1      42.667  23.466  26.137  1.00  0.00     0.135 A 
ATOM     72  C   UNL A   1      42.470  22.715  28.410  1.00  0.00     0.135 A 
ATOM     73  F   UNL A   1      42.828  24.444  25.233  1.00  0.00    -0.206 F 
ATOM     74  C   UNL A   1      42.502  22.162  25.681  1.00  0.00     0.059 A 
ATOM     75  C   UNL A   1      42.336  21.399  27.981  1.00  0.00     0.059 A 
ATOM     76  F   UNL A   1      42.463  22.953  29.732  1.00  0.00    -0.206 F 
ATOM     77  C   UNL A   1      42.344  21.133  26.613  1.00  0.00     0.060 A 
BRANCH  77  78
ATOM     78  S   UNL A   1      42.194  19.435  26.018  1.00  0.00     0.124 S 
ATOM     79  O   UNL A   1      42.710  18.681  27.155  1.00  0.00    -0.237 OA
ATOM     80  O   UNL A   1      40.760  19.318  25.772  1.00  0.00    -0.237 OA
ATOM     81  O   UNL A   1      43.030  19.426  24.821  1.00  0.00    -0.744 OA
ENDBRANCH  77  78
ENDBRANCH  45  70
BRANCH  57  82
ATOM     82  C   UNL A   1      48.321  27.546  28.988  1.00  0.00     0.058 A 
ATOM     83  C   UNL A   1      49.121  27.782  27.860  1.00  0.00     0.135 A 
ATOM     84  C   UNL A   1      48.939  27.024  30.136  1.00  0.00     0.135 A 
ATOM     85  F   UNL A   1      48.575  28.270  26.735  1.00  0.00    -0.206 F 
ATOM     86  C   UNL A   1      50.481  27.490  27.861  1.00  0.00     0.059 A 
ATOM     87  C   UNL A   1      50.302  26.747  30.168  1.00  0.00     0.059 A 
ATOM     88  F   UNL A   1      48.219  26.786  31.244  1.00  0.00    -0.206 F 
ATOM     89  C   UNL A   1      51.062  26.972  29.021  1.00  0.00     0.060 A 
BRANCH  89  90
ATOM     90  S   UNL A   1      52.835  26.624  29.021  1.00  0.00     0.124 S 
ATOM     91  O   UNL A   1      53.008  25.984  30.321  1.00  0.00    -0.237 OA
ATOM     92  O   UNL A   1      52.983  25.752  27.860  1.00  0.00    -0.237 OA
ATOM     93  O   UNL A   1      53.439  27.946  28.886  1.00  0.00    -0.744 OA
ENDBRANCH  89  90
ENDBRANCH  57  82
ENDBRANCH  31  32
ENDBRANCH  24  26
ENDBRANCH  23  24
ENDBRANCH  22  23
ENDBRANCH   1  22
TORSDOF 17
ENDMDL
MODEL 2
REMARK VINA RESULT:     -10.7      5.373     10.984
REMARK SMILES C[C@H](NC(=O)N1CC[C@H](C(=O)OCCOC(=O)c2ccc(-c3c4nc(c(-c5c(F)cc(S(=O)(=O)[O-])cc5F)c5ccc([nH]5)c(-c5c(F)cc(S(=O)(=O)[O-])cc5F)c5nc(c(-c6c(F)cc(S(=O)(=O)[O-])cc6F)c6ccc3[nH]6)C=C5)C=C4)cc2)[C@H]1C)c1ccsc1
REMARK SMILES IDX 13 1 12 2 10 3 11 4 9 5 6 6 7 7 84 8 8 9 85 10 4 11 3 12
REMARK SMILES IDX 5 14 2 15 1 16 86 17 87 18 90 19 88 20 89 21 14 22 15 23
REMARK SMILES IDX 16 24 17 25 18 26 19 27 83 28 20 29 82 30 21 31 22 32 23 33
REMARK SMILES IDX 76 34 24 35 81 36 75 37 77 38 25 39 80 40 74 41 73 42 26 44
REMARK SMILES IDX 60 45 39 46 59 47 40 48 43 49 58 50 78 51 41 52 42 53 57 55
REMARK SMILES IDX 79 56 44 57 27 58 28 59 37 60 29 61 30 62 36 63 38 64 31 65
REMARK SMILES IDX 32 66 33 67 34 68 35 69 61 70 62 71 71 72 63 73 64 74 70 75
REMARK SMILES IDX 72 76 65 77 66 78 67 79 68 80 69 81 45 82 46 83 55 84 47 85
REMARK SMILES IDX 48 86 54 87 56 88 49 89 50 90 51 91 52 92 53 93
REMARK H PARENT 3 13 77 43 43 54
REMARK Flexibility Score: inf
ROOT
ATOM      1  C   UNL A   1      38.266  21.597  25.510  1.00  0.00     0.274 C 
ENDROOT
BRANCH   1   2
ATOM      2  O   UNL A   1      37.246  22.532  25.104  1.00  0.00    -0.462 OA
BRANCH   2   3
ATOM      3  C   UNL A   1      35.966  22.202  25.438  1.00  0.00     0.311 C 
ATOM      4  O   UNL A   1      35.663  21.505  26.396  1.00  0.00    -0.252 OA
BRANCH   3   5
ATOM      5  C   UNL A   1      34.980  22.777  24.437  1.00  0.00     0.123 C 
ATOM      6  N   UNL A   1      32.911  23.437  25.469  1.00  0.00    -0.321 N 
ATOM      7  C   UNL A   1      32.870  22.006  25.218  1.00  0.00     0.122 C 
ATOM      8  C   UNL A   1      34.207  23.972  25.024  1.00  0.00     0.098 C 
ATOM      9  C   UNL A   1      33.883  21.769  24.113  1.00  0.00     0.039 C 
ATOM     10  C   UNL A   1      34.081  25.099  24.005  1.00  0.00     0.032 C 
BRANCH   6  11
ATOM     11  C   UNL A   1      32.363  23.843  26.661  1.00  0.00     0.318 C 
ATOM     12  N   UNL A   1      31.504  24.886  26.664  1.00  0.00    -0.331 N 
ATOM     13  H   UNL A   1      31.047  25.015  27.526  1.00  0.00     0.165 HD
ATOM     14  O   UNL A   1      32.554  23.240  27.715  1.00  0.00    -0.249 OA
BRANCH  12  15
ATOM     15  C   UNL A   1      31.122  25.858  25.651  1.00  0.00     0.112 C 
ATOM     16  C   UNL A   1      29.613  25.895  25.366  1.00  0.00     0.036 C 
BRANCH  15  17
ATOM     17  C   UNL A   1      31.605  27.263  26.039  1.00  0.00    -0.015 A 
ATOM     18  C   UNL A   1      31.492  27.926  27.316  1.00  0.00     0.017 A 
ATOM     19  C   UNL A   1      32.256  28.109  25.149  1.00  0.00     0.070 A 
ATOM     20  C   UNL A   1      31.986  29.214  27.308  1.00  0.00     0.065 A 
ATOM     21  S   UNL A   1      32.620  29.648  25.788  1.00  0.00    -0.152 S 
ENDBRANCH  15  17
ENDBRANCH  12  15
ENDBRANCH   6  11
ENDBRANCH   3   5
ENDBRANCH   2   3
ENDBRANCH   1   2
BRANCH   1  22
ATOM     22  C   UNL A   1      39.275  22.247  26.460  1.00  0.00     0.275 C 
BRANCH  22  23
ATOM     23  O   UNL A   1      39.404  23.662  26.223  1.00  0.00    -0.458 OA
BRANCH  23  24
ATOM     24  C   UNL A   1      40.476  24.233  26.814  1.00  0.00     0.338 C 
ATOM     25  O   UNL A   1      41.644  23.891  26.708  1.00  0.00    -0.246 OA
BRANCH  24  26
ATOM     26  C   UNL A   1      40.093  25.431  27.574  1.00  0.00     0.060 A 
ATOM     27  C   UNL A   1      40.843  26.582  27.376  1.00  0.00     0.016 A 
ATOM     28  C   UNL A   1      39.219  25.347  28.656  1.00  0.00     0.016 A 
ATOM     29  C   UNL A   1      40.886  27.558  28.366  1.00  0.00     0.010 A 
ATOM     30  C   UNL A   1      39.134  26.421  29.557  1.00  0.00     0.010 A 
ATOM     31  C   UNL A   1      40.017  27.514  29.466  1.00  0.00    -0.014 A 
BRANCH  31  32
ATOM     32  C   UNL A   1      40.057  28.591  30.510  1.00  0.00     0.031 A 
ATOM     33  C   UNL A   1      41.081  28.557  31.626  1.00  0.00     0.074 A 
ATOM     34  C   UNL A   1      39.190  29.627  30.459  1.00  0.00     0.049 A 
ATOM     35  N   UNL A   1      41.146  29.286  32.712  1.00  0.00    -0.248 NA
ATOM     36  C   UNL A   1      42.158  27.560  31.519  1.00  0.00     0.031 C 
ATOM     37  C   UNL A   1      38.161  29.827  29.434  1.00  0.00     0.029 A 
ATOM     38  N   UNL A   1      39.041  30.719  31.280  1.00  0.00    -0.354 N 
ATOM     39  C   UNL A   1      42.220  28.790  33.449  1.00  0.00     0.074 A 
ATOM     40  C   UNL A   1      42.776  27.696  32.685  1.00  0.00     0.031 C 
ATOM     41  C   UNL A   1      37.542  30.996  29.645  1.00  0.00     0.029 A 
ATOM     42  C   UNL A   1      38.038  31.575  30.885  1.00  0.00     0.049 A 
ATOM     43  H   UNL A   1      39.601  30.875  32.075  1.00  0.00     0.167 HD
ATOM     44  C   UNL A   1      42.696  29.207  34.649  1.00  0.00     0.037 A 
ATOM     45  C   UNL A   1      37.528  32.676  31.469  1.00  0.00     0.037 A 
ATOM     46  C   UNL A   1      42.191  30.350  35.369  1.00  0.00     0.049 A 
ATOM     47  C   UNL A   1      38.067  33.120  32.797  1.00  0.00     0.074 A 
ATOM     48  C   UNL A   1      42.622  30.864  36.581  1.00  0.00     0.029 A 
ATOM     49  N   UNL A   1      41.162  31.173  34.933  1.00  0.00    -0.354 N 
ATOM     50  N   UNL A   1      39.031  32.590  33.511  1.00  0.00    -0.248 NA
ATOM     51  C   UNL A   1      37.435  34.294  33.411  1.00  0.00     0.031 C 
ATOM     52  C   UNL A   1      41.835  31.978  36.893  1.00  0.00     0.029 A 
ATOM     53  C   UNL A   1      40.942  32.186  35.855  1.00  0.00     0.049 A 
ATOM     54  H   UNL A   1      40.663  31.056  34.094  1.00  0.00     0.167 HD
ATOM     55  C   UNL A   1      39.128  33.374  34.654  1.00  0.00     0.074 A 
ATOM     56  C   UNL A   1      38.138  34.424  34.528  1.00  0.00     0.031 C 
ATOM     57  C   UNL A   1      39.960  33.230  35.715  1.00  0.00     0.037 A 
BRANCH  44  58
ATOM     58  C   UNL A   1      43.804  28.408  35.285  1.00  0.00     0.058 A 
ATOM     59  C   UNL A   1      43.551  27.331  36.148  1.00  0.00     0.135 A 
ATOM     60  C   UNL A   1      45.146  28.705  34.989  1.00  0.00     0.135 A 
ATOM     61  F   UNL A   1      42.291  27.008  36.475  1.00  0.00    -0.206 F 
ATOM     62  C   UNL A   1      44.588  26.597  36.719  1.00  0.00     0.059 A 
ATOM     63  C   UNL A   1      46.197  27.968  35.528  1.00  0.00     0.059 A 
ATOM     64  F   UNL A   1      45.447  29.720  34.165  1.00  0.00    -0.206 F 
ATOM     65  C   UNL A   1      45.908  26.926  36.407  1.00  0.00     0.060 A 
BRANCH  65  66
ATOM     66  S   UNL A   1      47.244  25.972  37.162  1.00  0.00     0.124 S 
ATOM     67  O   UNL A   1      47.037  26.257  38.579  1.00  0.00    -0.237 OA
ATOM     68  O   UNL A   1      46.935  24.610  36.740  1.00  0.00    -0.237 OA
ATOM     69  O   UNL A   1      48.448  26.550  36.575  1.00  0.00    -0.744 OA
ENDBRANCH  65  66
ENDBRANCH  44  58
BRANCH  45  70
ATOM     70  C   UNL A   1      36.407  33.404  30.815  1.00  0.00     0.058 A 
ATOM     71  C   UNL A   1      35.107  33.350  31.338  1.00  0.00     0.135 A 
ATOM     72  C   UNL A   1      36.622  34.197  29.677  1.00  0.00     0.135 A 
ATOM     73  F   UNL A   1      34.850  32.598  32.419  1.00  0.00    -0.206 F 
ATOM     74  C   UNL A   1      34.059  34.053  30.754  1.00  0.00     0.059 A 
ATOM     75  C   UNL A   1      35.597  34.934  29.094  1.00  0.00     0.059 A 
ATOM     76  F   UNL A   1      37.851  34.293  29.144  1.00  0.00    -0.206 F 
ATOM     77  C   UNL A   1      34.315  34.848  29.635  1.00  0.00     0.060 A 
BRANCH  77  78
ATOM     78  S   UNL A   1      32.963  35.808  28.920  1.00  0.00     0.124 S 
ATOM     79  O   UNL A   1      32.329  34.819  28.055  1.00  0.00    -0.237 OA
ATOM     80  O   UNL A   1      32.205  36.202  30.103  1.00  0.00    -0.237 OA
ATOM     81  O   UNL A   1      33.653  36.897  28.236  1.00  0.00    -0.744 OA
ENDBRANCH  77  78
ENDBRANCH  45  70
BRANCH  57  82
ATOM     82  C   UNL A   1      39.862  34.258  36.807  1.00  0.00     0.058 A 
ATOM     83  C   UNL A   1      39.068  34.052  37.945  1.00  0.00     0.135 A 
ATOM     84  C   UNL A   1      40.600  35.450  36.726  1.00  0.00     0.135 A 
ATOM     85  F   UNL A   1      38.335  32.933  38.064  1.00  0.00    -0.206 F 
ATOM     86  C   UNL A   1      38.990  35.002  38.957  1.00  0.00     0.059 A 
ATOM     87  C   UNL A   1      40.556  36.404  37.737  1.00  0.00     0.059 A 
ATOM     88  F   UNL A   1      41.380  35.692  35.661  1.00  0.00    -0.206 F 
ATOM     89  C   UNL A   1      39.738  36.176  38.844  1.00  0.00     0.060 A 
BRANCH  89  90
ATOM     90  S   UNL A   1      39.652  37.391  40.177  1.00  0.00     0.124 S 
ATOM     91  O   UNL A   1      39.883  36.556  41.351  1.00  0.00    -0.237 OA
ATOM     92  O   UNL A   1      40.730  38.313  39.832  1.00  0.00    -0.237 OA
ATOM     93  O   UNL A   1      38.304  37.938  40.051  1.00  0.00    -0.744 OA
ENDBRANCH  89  90
ENDBRANCH  57  82
ENDBRANCH  31  32
ENDBRANCH  24  26
ENDBRANCH  23  24
ENDBRANCH  22  23
ENDBRANCH   1  22
TORSDOF 17
ENDMDL
MODEL 3
REMARK VINA RESULT:     -10.7      2.010      2.882
REMARK SMILES C[C@H](NC(=O)N1CC[C@H](C(=O)OCCOC(=O)c2ccc(-c3c4nc(c(-c5c(F)cc(S(=O)(=O)[O-])cc5F)c5ccc([nH]5)c(-c5c(F)cc(S(=O)(=O)[O-])cc5F)c5nc(c(-c6c(F)cc(S(=O)(=O)[O-])cc6F)c6ccc3[nH]6)C=C5)C=C4)cc2)[C@H]1C)c1ccsc1
REMARK SMILES IDX 13 1 12 2 10 3 11 4 9 5 6 6 7 7 84 8 8 9 85 10 4 11 3 12
REMARK SMILES IDX 5 14 2 15 1 16 86 17 87 18 90 19 88 20 89 21 14 22 15 23
REMARK SMILES IDX 16 24 17 25 18 26 19 27 83 28 20 29 82 30 21 31 22 32 23 33
REMARK SMILES IDX 76 34 24 35 81 36 75 37 77 38 25 39 80 40 74 41 73 42 26 44
REMARK SMILES IDX 60 45 39 46 59 47 40 48 43 49 58 50 78 51 41 52 42 53 57 55
REMARK SMILES IDX 79 56 44 57 27 58 28 59 37 60 29 61 30 62 36 63 38 64 31 65
REMARK SMILES IDX 32 66 33 67 34 68 35 69 61 70 62 71 71 72 63 73 64 74 70 75
REMARK SMILES IDX 72 76 65 77 66 78 67 79 68 80 69 81 45 82 46 83 55 84 47 85
REMARK SMILES IDX 48 86 54 87 56 88 49 89 50 90 51 91 52 92 53 93
REMARK H PARENT 3 13 77 43 43 54
REMARK Flexibility Score: inf
ROOT
ATOM      1  C   UNL A   1      33.201  29.955  26.933  1.00  0.00     0.274 C 
ENDROOT
BRANCH   1   2
ATOM      2  O   UNL A   1      32.984  29.605  25.552  1.00  0.00    -0.462 OA
BRANCH   2   3
ATOM      3  C   UNL A   1      31.684  29.496  25.160  1.00  0.00     0.311 C 
ATOM      4  O   UNL A   1      30.975  30.446  24.855  1.00  0.00    -0.252 OA
BRANCH   3   5
ATOM      5  C   UNL A   1      31.226  28.050  25.195  1.00  0.00     0.123 C 
ATOM      6  N   UNL A   1      32.255  26.723  23.473  1.00  0.00    -0.321 N 
ATOM      7  C   UNL A   1      31.124  27.434  22.900  1.00  0.00     0.122 C 
ATOM      8  C   UNL A   1      32.384  27.079  24.894  1.00  0.00     0.098 C 
ATOM      9  C   UNL A   1      30.228  27.767  24.078  1.00  0.00     0.039 C 
ATOM     10  C   UNL A   1      32.348  25.875  25.829  1.00  0.00     0.032 C 
BRANCH   6  11
ATOM     11  C   UNL A   1      33.368  26.640  22.674  1.00  0.00     0.318 C 
ATOM     12  N   UNL A   1      33.966  25.440  22.506  1.00  0.00    -0.331 N 
ATOM     13  H   UNL A   1      34.659  25.441  21.807  1.00  0.00     0.165 HD
ATOM     14  O   UNL A   1      33.793  27.599  22.032  1.00  0.00    -0.249 OA
BRANCH  12  15
ATOM     15  C   UNL A   1      33.793  24.148  23.153  1.00  0.00     0.112 C 
ATOM     16  C   UNL A   1      33.317  23.039  22.203  1.00  0.00     0.036 C 
BRANCH  15  17
ATOM     17  C   UNL A   1      35.093  23.710  23.842  1.00  0.00    -0.015 A 
ATOM     18  C   UNL A   1      36.074  22.759  23.379  1.00  0.00     0.017 A 
ATOM     19  C   UNL A   1      35.504  24.220  25.068  1.00  0.00     0.070 A 
ATOM     20  C   UNL A   1      37.104  22.557  24.274  1.00  0.00     0.065 A 
ATOM     21  S   UNL A   1      36.938  23.518  25.670  1.00  0.00    -0.152 S 
ENDBRANCH  15  17
ENDBRANCH  12  15
ENDBRANCH   6  11
ENDBRANCH   3   5
ENDBRANCH   2   3
ENDBRANCH   1   2
BRANCH   1  22
ATOM     22  C   UNL A   1      34.402  29.208  27.519  1.00  0.00     0.275 C 
BRANCH  22  23
ATOM     23  O   UNL A   1      35.530  30.080  27.724  1.00  0.00    -0.458 OA
BRANCH  23  24
ATOM     24  C   UNL A   1      36.142  29.932  28.919  1.00  0.00     0.338 C 
ATOM     25  O   UNL A   1      35.610  29.703  29.995  1.00  0.00    -0.246 OA
BRANCH  24  26
ATOM     26  C   UNL A   1      37.604  29.991  28.783  1.00  0.00     0.060 A 
ATOM     27  C   UNL A   1      38.134  29.846  27.509  1.00  0.00     0.016 A 
ATOM     28  C   UNL A   1      38.434  29.897  29.898  1.00  0.00     0.016 A 
ATOM     29  C   UNL A   1      39.441  29.395  27.352  1.00  0.00     0.010 A 
ATOM     30  C   UNL A   1      39.799  29.619  29.718  1.00  0.00     0.010 A 
ATOM     31  C   UNL A   1      40.311  29.295  28.447  1.00  0.00    -0.014 A 
BRANCH  31  32
ATOM     32  C   UNL A   1      41.726  28.835  28.256  1.00  0.00     0.031 A 
ATOM     33  C   UNL A   1      42.885  29.798  28.406  1.00  0.00     0.074 A 
ATOM     34  C   UNL A   1      41.992  27.541  27.968  1.00  0.00     0.049 A 
ATOM     35  N   UNL A   1      44.147  29.629  28.097  1.00  0.00    -0.248 NA
ATOM     36  C   UNL A   1      42.585  31.129  28.955  1.00  0.00     0.031 C 
ATOM     37  C   UNL A   1      40.994  26.478  27.819  1.00  0.00     0.029 A 
ATOM     38  N   UNL A   1      43.186  26.891  27.763  1.00  0.00    -0.354 N 
ATOM     39  C   UNL A   1      44.773  30.850  28.341  1.00  0.00     0.074 A 
ATOM     40  C   UNL A   1      43.750  31.751  28.825  1.00  0.00     0.031 C 
ATOM     41  C   UNL A   1      41.614  25.308  27.620  1.00  0.00     0.029 A 
ATOM     42  C   UNL A   1      43.045  25.546  27.503  1.00  0.00     0.049 A 
ATOM     43  H   UNL A   1      44.059  27.344  27.800  1.00  0.00     0.167 HD
ATOM     44  C   UNL A   1      46.077  31.188  28.177  1.00  0.00     0.037 A 
ATOM     45  C   UNL A   1      43.948  24.609  27.156  1.00  0.00     0.037 A 
ATOM     46  C   UNL A   1      47.109  30.265  27.773  1.00  0.00     0.049 A 
ATOM     47  C   UNL A   1      45.385  25.003  26.979  1.00  0.00     0.074 A 
ATOM     48  C   UNL A   1      48.461  30.508  27.601  1.00  0.00     0.029 A 
ATOM     49  N   UNL A   1      46.911  28.919  27.505  1.00  0.00    -0.354 N 
ATOM     50  N   UNL A   1      45.940  26.180  27.140  1.00  0.00    -0.248 NA
ATOM     51  C   UNL A   1      46.313  23.951  26.547  1.00  0.00     0.031 C 
ATOM     52  C   UNL A   1      49.076  29.317  27.198  1.00  0.00     0.029 A 
ATOM     53  C   UNL A   1      48.114  28.321  27.162  1.00  0.00     0.049 A 
ATOM     54  H   UNL A   1      46.044  28.456  27.550  1.00  0.00     0.167 HD
ATOM     55  C   UNL A   1      47.286  26.007  26.841  1.00  0.00     0.074 A 
ATOM     56  C   UNL A   1      47.464  24.608  26.506  1.00  0.00     0.031 C 
ATOM     57  C   UNL A   1      48.281  26.927  26.839  1.00  0.00     0.037 A 
BRANCH  44  58
ATOM     58  C   UNL A   1      46.467  32.625  28.403  1.00  0.00     0.058 A 
ATOM     59  C   UNL A   1      46.378  33.594  27.391  1.00  0.00     0.135 A 
ATOM     60  C   UNL A   1      46.900  33.047  29.672  1.00  0.00     0.135 A 
ATOM     61  F   UNL A   1      45.981  33.248  26.157  1.00  0.00    -0.206 F 
ATOM     62  C   UNL A   1      46.733  34.922  27.621  1.00  0.00     0.059 A 
ATOM     63  C   UNL A   1      47.236  34.374  29.930  1.00  0.00     0.059 A 
ATOM     64  F   UNL A   1      46.998  32.166  30.679  1.00  0.00    -0.206 F 
ATOM     65  C   UNL A   1      47.166  35.301  28.892  1.00  0.00     0.060 A 
BRANCH  65  66
ATOM     66  S   UNL A   1      47.634  37.023  29.174  1.00  0.00     0.124 S 
ATOM     67  O   UNL A   1      49.091  36.937  29.137  1.00  0.00    -0.237 OA
ATOM     68  O   UNL A   1      47.012  37.706  28.045  1.00  0.00    -0.237 OA
ATOM     69  O   UNL A   1      47.056  37.323  30.480  1.00  0.00    -0.744 OA
ENDBRANCH  65  66
ENDBRANCH  44  58
BRANCH  45  70
ATOM     70  C   UNL A   1      43.500  23.213  26.907  1.00  0.00     0.058 A 
ATOM     71  C   UNL A   1      43.448  22.692  25.606  1.00  0.00     0.135 A 
ATOM     72  C   UNL A   1      43.152  22.361  27.968  1.00  0.00     0.135 A 
ATOM     73  F   UNL A   1      43.761  23.469  24.559  1.00  0.00    -0.206 F 
ATOM     74  C   UNL A   1      43.062  21.377  25.365  1.00  0.00     0.059 A 
ATOM     75  C   UNL A   1      42.795  21.035  27.754  1.00  0.00     0.059 A 
ATOM     76  F   UNL A   1      43.199  22.807  29.233  1.00  0.00    -0.206 F 
ATOM     77  C   UNL A   1      42.743  20.554  26.447  1.00  0.00     0.060 A 
BRANCH  77  78
ATOM     78  S   UNL A   1      42.305  18.830  26.131  1.00  0.00     0.124 S 
ATOM     79  O   UNL A   1      43.246  18.479  25.073  1.00  0.00    -0.237 OA
ATOM     80  O   UNL A   1      42.543  18.208  27.429  1.00  0.00    -0.237 OA
ATOM     81  O   UNL A   1      40.904  18.910  25.731  1.00  0.00    -0.744 OA
ENDBRANCH  77  78
ENDBRANCH  45  70
BRANCH  57  82
ATOM     82  C   UNL A   1      49.662  26.442  26.501  1.00  0.00     0.058 A 
ATOM     83  C   UNL A   1      50.529  25.939  27.483  1.00  0.00     0.135 A 
ATOM     84  C   UNL A   1      50.110  26.450  25.170  1.00  0.00     0.135 A 
ATOM     85  F   UNL A   1      50.151  25.919  28.771  1.00  0.00    -0.206 F 
ATOM     86  C   UNL A   1      51.802  25.481  27.161  1.00  0.00     0.059 A 
ATOM     87  C   UNL A   1      51.371  25.976  24.822  1.00  0.00     0.059 A 
ATOM     88  F   UNL A   1      49.317  26.915  24.192  1.00  0.00    -0.206 F 
ATOM     89  C   UNL A   1      52.214  25.504  25.827  1.00  0.00     0.060 A 
BRANCH  89  90
ATOM     90  S   UNL A   1      53.859  24.881  25.416  1.00  0.00     0.124 S 
ATOM     91  O   UNL A   1      54.217  25.725  24.281  1.00  0.00    -0.237 OA
ATOM     92  O   UNL A   1      54.603  25.124  26.647  1.00  0.00    -0.237 OA
ATOM     93  O   UNL A   1      53.620  23.475  25.103  1.00  0.00    -0.744 OA
ENDBRANCH  89  90
ENDBRANCH  57  82
ENDBRANCH  31  32
ENDBRANCH  24  26
ENDBRANCH  23  24
ENDBRANCH  22  23
ENDBRANCH   1  22
TORSDOF 17
ENDMDL
