MODEL 1
REMARK VINA RESULT:     -13.4      0.000      0.000
REMARK SMILES Cc1cc(C(=O)N[C@H]2C=C[C@H](C(=O)OCCOC(=O)c3ccc(-c4c5nc(c(-c6c(F)cc(S(=O)(=O)[O-])cc6F)c6ccc([nH]6)c(-c6c(F)cc(S(=O)(=O)[O-])cc6F)c6nc(c(-c7c(F)cc(S(=O)(=O)[O-])cc7F)c7ccc4[nH]7)C=C6)C=C5)cc3)C2)ccc1F
REMARK SMILES IDX 16 1 15 2 14 3 12 4 13 5 11 6 8 7 9 8 86 9 10 10 7 11 5 12
REMARK SMILES IDX 6 13 4 15 1 16 2 17 3 18 89 19 88 20 90 21 87 22 17 23 18 24
REMARK SMILES IDX 19 25 20 26 21 27 85 28 22 29 84 30 23 31 24 32 25 33 78 34
REMARK SMILES IDX 26 35 83 36 77 37 79 38 27 39 82 40 76 41 75 42 28 44 62 45
REMARK SMILES IDX 41 46 61 47 42 48 45 49 60 50 80 51 43 52 44 53 59 55 81 56
REMARK SMILES IDX 46 57 29 58 30 59 39 60 31 61 32 62 38 63 40 64 33 65 34 66
REMARK SMILES IDX 35 67 36 68 37 69 63 70 64 71 73 72 65 73 66 74 72 75 74 76
REMARK SMILES IDX 67 77 68 78 69 79 70 80 71 81 47 82 48 83 57 84 49 85 50 86
REMARK SMILES IDX 56 87 58 88 51 89 52 90 53 91 54 92 55 93
REMARK H PARENT 7 14 79 43 45 54
REMARK Flexibility Score: inf
ROOT
ATOM      1  C   UNL A   1      34.102  29.194  26.595  1.00  0.00     0.275 C 
ENDROOT
BRANCH   1   2
ATOM      2  C   UNL A   1      32.930  28.493  27.281  1.00  0.00     0.274 C 
BRANCH   2   3
ATOM      3  O   UNL A   1      31.736  28.705  26.511  1.00  0.00    -0.462 OA
BRANCH   3   4
ATOM      4  C   UNL A   1      31.117  27.592  26.031  1.00  0.00     0.312 C 
ATOM      5  O   UNL A   1      31.051  26.522  26.630  1.00  0.00    -0.252 OA
BRANCH   4   6
ATOM      6  C   UNL A   1      30.481  27.862  24.666  1.00  0.00     0.124 C 
ATOM      7  C   UNL A   1      32.130  27.117  23.083  1.00  0.00     0.106 C 
ATOM      8  C   UNL A   1      31.987  28.610  23.019  1.00  0.00    -0.006 C 
ATOM      9  C   UNL A   1      30.787  26.722  23.690  1.00  0.00     0.048 C 
ATOM     10  C   UNL A   1      31.108  29.025  23.941  1.00  0.00    -0.014 C 
BRANCH   7  11
ATOM     11  N   UNL A   1      32.380  26.563  21.780  1.00  0.00    -0.346 N 
ATOM     12  C   UNL A   1      32.900  25.357  21.386  1.00  0.00     0.251 C 
ATOM     13  O   UNL A   1      33.066  25.206  20.170  1.00  0.00    -0.269 OA
ATOM     14  H   UNL A   1      32.134  27.158  21.035  1.00  0.00     0.164 HD
BRANCH  12  15
ATOM     15  C   UNL A   1      33.251  24.215  22.299  1.00  0.00     0.040 A 
ATOM     16  C   UNL A   1      32.306  20.671  23.408  1.00  0.00     0.047 C 
ATOM     17  C   UNL A   1      33.009  21.992  23.310  1.00  0.00    -0.015 A 
ATOM     18  C   UNL A   1      32.576  22.992  22.414  1.00  0.00     0.020 A 
ATOM     19  C   UNL A   1      34.132  22.230  24.097  1.00  0.00     0.126 A 
ATOM     20  C   UNL A   1      34.807  23.438  24.027  1.00  0.00     0.040 A 
ATOM     21  F   UNL A   1      34.567  21.286  24.945  1.00  0.00    -0.207 F 
ATOM     22  C   UNL A   1      34.365  24.423  23.138  1.00  0.00     0.017 A 
ENDBRANCH  12  15
ENDBRANCH   7  11
ENDBRANCH   4   6
ENDBRANCH   3   4
ENDBRANCH   2   3
ENDBRANCH   1   2
BRANCH   1  23
ATOM     23  O   UNL A   1      35.393  28.883  27.154  1.00  0.00    -0.458 OA
BRANCH  23  24
ATOM     24  C   UNL A   1      35.975  29.892  27.857  1.00  0.00     0.338 C 
ATOM     25  O   UNL A   1      35.456  30.947  28.113  1.00  0.00    -0.246 OA
BRANCH  24  26
ATOM     26  C   UNL A   1      37.330  29.499  28.288  1.00  0.00     0.060 A 
ATOM     27  C   UNL A   1      38.394  29.665  27.388  1.00  0.00     0.016 A 
ATOM     28  C   UNL A   1      37.515  28.875  29.518  1.00  0.00     0.016 A 
ATOM     29  C   UNL A   1      39.622  29.070  27.652  1.00  0.00     0.010 A 
ATOM     30  C   UNL A   1      38.731  28.297  29.786  1.00  0.00     0.010 A 
ATOM     31  C   UNL A   1      39.757  28.348  28.831  1.00  0.00    -0.014 A 
BRANCH  31  32
ATOM     32  C   UNL A   1      40.977  27.695  29.255  1.00  0.00     0.031 A 
ATOM     33  C   UNL A   1      41.206  26.298  28.822  1.00  0.00     0.074 A 
ATOM     34  C   UNL A   1      41.951  28.473  29.776  1.00  0.00     0.049 A 
ATOM     35  N   UNL A   1      42.199  25.566  29.190  1.00  0.00    -0.248 NA
ATOM     36  C   UNL A   1      40.261  25.582  27.962  1.00  0.00     0.031 C 
ATOM     37  C   UNL A   1      43.380  28.201  29.758  1.00  0.00     0.029 A 
ATOM     38  N   UNL A   1      41.862  29.649  30.523  1.00  0.00    -0.354 N 
ATOM     39  C   UNL A   1      42.204  24.439  28.392  1.00  0.00     0.074 A 
ATOM     40  C   UNL A   1      40.900  24.422  27.781  1.00  0.00     0.031 C 
ATOM     41  C   UNL A   1      43.978  28.990  30.666  1.00  0.00     0.029 A 
ATOM     42  C   UNL A   1      42.917  29.603  31.450  1.00  0.00     0.049 A 
ATOM     43  H   UNL A   1      41.195  30.366  30.422  1.00  0.00     0.167 HD
ATOM     44  C   UNL A   1      43.376  23.754  28.240  1.00  0.00     0.037 A 
ATOM     45  C   UNL A   1      42.752  29.392  32.798  1.00  0.00     0.037 A 
ATOM     46  C   UNL A   1      44.381  24.277  29.169  1.00  0.00     0.049 A 
ATOM     47  C   UNL A   1      43.359  28.095  33.300  1.00  0.00     0.074 A 
ATOM     48  C   UNL A   1      45.395  25.212  29.058  1.00  0.00     0.029 A 
ATOM     49  N   UNL A   1      44.203  24.059  30.522  1.00  0.00    -0.354 N 
ATOM     50  N   UNL A   1      43.929  27.208  32.534  1.00  0.00    -0.248 NA
ATOM     51  C   UNL A   1      43.281  27.656  34.694  1.00  0.00     0.031 C 
ATOM     52  C   UNL A   1      45.739  25.637  30.377  1.00  0.00     0.029 A 
ATOM     53  C   UNL A   1      44.964  24.930  31.281  1.00  0.00     0.049 A 
ATOM     54  H   UNL A   1      43.609  23.372  30.899  1.00  0.00     0.167 HD
ATOM     55  C   UNL A   1      44.229  26.098  33.266  1.00  0.00     0.074 A 
ATOM     56  C   UNL A   1      43.816  26.426  34.619  1.00  0.00     0.031 C 
ATOM     57  C   UNL A   1      44.760  24.969  32.719  1.00  0.00     0.037 A 
BRANCH  44  58
ATOM     58  C   UNL A   1      43.726  22.764  27.137  1.00  0.00     0.058 A 
ATOM     59  C   UNL A   1      43.016  21.541  27.053  1.00  0.00     0.135 A 
ATOM     60  C   UNL A   1      44.773  22.880  26.198  1.00  0.00     0.135 A 
ATOM     61  F   UNL A   1      41.964  21.286  27.847  1.00  0.00    -0.206 F 
ATOM     62  C   UNL A   1      43.355  20.512  26.169  1.00  0.00     0.059 A 
ATOM     63  C   UNL A   1      45.126  21.869  25.298  1.00  0.00     0.059 A 
ATOM     64  F   UNL A   1      45.528  23.974  26.091  1.00  0.00    -0.206 F 
ATOM     65  C   UNL A   1      44.423  20.678  25.302  1.00  0.00     0.060 A 
BRANCH  65  66
ATOM     66  S   UNL A   1      44.874  19.336  24.191  1.00  0.00     0.124 S 
ATOM     67  O   UNL A   1      46.317  19.247  24.393  1.00  0.00    -0.237 OA
ATOM     68  O   UNL A   1      44.088  18.225  24.716  1.00  0.00    -0.237 OA
ATOM     69  O   UNL A   1      44.459  19.825  22.878  1.00  0.00    -0.744 OA
ENDBRANCH  65  66
ENDBRANCH  44  58
BRANCH  45  70
ATOM     70  C   UNL A   1      41.501  29.969  33.360  1.00  0.00     0.058 A 
ATOM     71  C   UNL A   1      41.484  31.362  33.530  1.00  0.00     0.135 A 
ATOM     72  C   UNL A   1      40.293  29.301  33.118  1.00  0.00     0.135 A 
ATOM     73  F   UNL A   1      42.607  32.020  33.856  1.00  0.00    -0.206 F 
ATOM     74  C   UNL A   1      40.385  32.098  33.129  1.00  0.00     0.059 A 
ATOM     75  C   UNL A   1      39.179  30.019  32.713  1.00  0.00     0.059 A 
ATOM     76  F   UNL A   1      40.254  27.965  33.038  1.00  0.00    -0.206 F 
ATOM     77  C   UNL A   1      39.295  31.406  32.604  1.00  0.00     0.060 A 
BRANCH  77  78
ATOM     78  S   UNL A   1      38.266  32.289  31.422  1.00  0.00     0.124 S 
ATOM     79  O   UNL A   1      38.327  33.661  31.909  1.00  0.00    -0.237 OA
ATOM     80  O   UNL A   1      38.972  32.020  30.173  1.00  0.00    -0.237 OA
ATOM     81  O   UNL A   1      36.980  31.620  31.565  1.00  0.00    -0.744 OA
ENDBRANCH  77  78
ENDBRANCH  45  70
BRANCH  57  82
ATOM     82  C   UNL A   1      45.121  23.803  33.576  1.00  0.00     0.058 A 
ATOM     83  C   UNL A   1      46.445  23.602  33.994  1.00  0.00     0.135 A 
ATOM     84  C   UNL A   1      44.181  22.817  33.929  1.00  0.00     0.135 A 
ATOM     85  F   UNL A   1      47.409  24.476  33.659  1.00  0.00    -0.206 F 
ATOM     86  C   UNL A   1      46.809  22.512  34.775  1.00  0.00     0.059 A 
ATOM     87  C   UNL A   1      44.534  21.690  34.664  1.00  0.00     0.059 A 
ATOM     88  F   UNL A   1      42.886  22.940  33.602  1.00  0.00    -0.206 F 
ATOM     89  C   UNL A   1      45.844  21.564  35.109  1.00  0.00     0.060 A 
BRANCH  89  90
ATOM     90  S   UNL A   1      46.313  20.164  36.137  1.00  0.00     0.124 S 
ATOM     91  O   UNL A   1      47.771  20.194  36.075  1.00  0.00    -0.237 OA
ATOM     92  O   UNL A   1      45.729  20.543  37.420  1.00  0.00    -0.237 OA
ATOM     93  O   UNL A   1      45.685  19.030  35.467  1.00  0.00    -0.744 OA
ENDBRANCH  89  90
ENDBRANCH  57  82
ENDBRANCH  31  32
ENDBRANCH  24  26
ENDBRANCH  23  24
ENDBRANCH   1  23
TORSDOF 16
ENDMDL
MODEL 2
REMARK VINA RESULT:     -13.1      4.880     11.368
REMARK SMILES Cc1cc(C(=O)N[C@H]2C=C[C@H](C(=O)OCCOC(=O)c3ccc(-c4c5nc(c(-c6c(F)cc(S(=O)(=O)[O-])cc6F)c6ccc([nH]6)c(-c6c(F)cc(S(=O)(=O)[O-])cc6F)c6nc(c(-c7c(F)cc(S(=O)(=O)[O-])cc7F)c7ccc4[nH]7)C=C6)C=C5)cc3)C2)ccc1F
REMARK SMILES IDX 16 1 15 2 14 3 12 4 13 5 11 6 8 7 9 8 86 9 10 10 7 11 5 12
REMARK SMILES IDX 6 13 4 15 1 16 2 17 3 18 89 19 88 20 90 21 87 22 17 23 18 24
REMARK SMILES IDX 19 25 20 26 21 27 85 28 22 29 84 30 23 31 24 32 25 33 78 34
REMARK SMILES IDX 26 35 83 36 77 37 79 38 27 39 82 40 76 41 75 42 28 44 62 45
REMARK SMILES IDX 41 46 61 47 42 48 45 49 60 50 80 51 43 52 44 53 59 55 81 56
REMARK SMILES IDX 46 57 29 58 30 59 39 60 31 61 32 62 38 63 40 64 33 65 34 66
REMARK SMILES IDX 35 67 36 68 37 69 63 70 64 71 73 72 65 73 66 74 72 75 74 76
REMARK SMILES IDX 67 77 68 78 69 79 70 80 71 81 47 82 48 83 57 84 49 85 50 86
REMARK SMILES IDX 56 87 58 88 51 89 52 90 53 91 54 92 55 93
REMARK H PARENT 7 14 79 43 45 54
REMARK Flexibility Score: inf
ROOT
ATOM      1  C   UNL A   1      37.126  23.376  25.806  1.00  0.00     0.275 C 
ENDROOT
BRANCH   1   2
ATOM      2  C   UNL A   1      36.971  23.371  24.286  1.00  0.00     0.274 C 
BRANCH   2   3
ATOM      3  O   UNL A   1      36.087  22.303  23.904  1.00  0.00    -0.462 OA
BRANCH   3   4
ATOM      4  C   UNL A   1      34.837  22.662  23.506  1.00  0.00     0.312 C 
ATOM      5  O   UNL A   1      34.582  23.655  22.829  1.00  0.00    -0.252 OA
BRANCH   4   6
ATOM      6  C   UNL A   1      33.796  21.646  23.979  1.00  0.00     0.124 C 
ATOM      7  C   UNL A   1      32.595  22.790  25.720  1.00  0.00     0.106 C 
ATOM      8  C   UNL A   1      33.400  21.665  26.300  1.00  0.00    -0.006 C 
ATOM      9  C   UNL A   1      32.459  22.334  24.270  1.00  0.00     0.048 C 
ATOM     10  C   UNL A   1      34.111  21.066  25.335  1.00  0.00    -0.014 C 
BRANCH   7  11
ATOM     11  N   UNL A   1      31.346  22.946  26.413  1.00  0.00    -0.346 N 
ATOM     12  C   UNL A   1      30.523  24.032  26.581  1.00  0.00     0.251 C 
ATOM     13  O   UNL A   1      29.541  23.864  27.311  1.00  0.00    -0.269 OA
ATOM     14  H   UNL A   1      31.021  22.125  26.849  1.00  0.00     0.164 HD
BRANCH  12  15
ATOM     15  C   UNL A   1      30.708  25.377  25.934  1.00  0.00     0.040 A 
ATOM     16  C   UNL A   1      32.057  28.932  26.406  1.00  0.00     0.047 C 
ATOM     17  C   UNL A   1      31.407  27.725  25.797  1.00  0.00    -0.015 A 
ATOM     18  C   UNL A   1      31.287  26.515  26.513  1.00  0.00     0.020 A 
ATOM     19  C   UNL A   1      30.939  27.786  24.489  1.00  0.00     0.126 A 
ATOM     20  C   UNL A   1      30.338  26.687  23.896  1.00  0.00     0.040 A 
ATOM     21  F   UNL A   1      31.057  28.924  23.788  1.00  0.00    -0.207 F 
ATOM     22  C   UNL A   1      30.220  25.495  24.617  1.00  0.00     0.017 A 
ENDBRANCH  12  15
ENDBRANCH   7  11
ENDBRANCH   4   6
ENDBRANCH   3   4
ENDBRANCH   2   3
ENDBRANCH   1   2
BRANCH   1  23
ATOM     23  O   UNL A   1      37.769  24.552  26.336  1.00  0.00    -0.458 OA
BRANCH  23  24
ATOM     24  C   UNL A   1      38.998  24.340  26.881  1.00  0.00     0.338 C 
ATOM     25  O   UNL A   1      39.621  23.313  26.809  1.00  0.00    -0.246 OA
BRANCH  24  26
ATOM     26  C   UNL A   1      39.475  25.563  27.555  1.00  0.00     0.060 A 
ATOM     27  C   UNL A   1      39.203  25.724  28.922  1.00  0.00     0.016 A 
ATOM     28  C   UNL A   1      40.080  26.574  26.814  1.00  0.00     0.016 A 
ATOM     29  C   UNL A   1      39.398  26.961  29.524  1.00  0.00     0.010 A 
ATOM     30  C   UNL A   1      40.284  27.794  27.411  1.00  0.00     0.010 A 
ATOM     31  C   UNL A   1      39.892  27.997  28.742  1.00  0.00    -0.014 A 
BRANCH  31  32
ATOM     32  C   UNL A   1      40.171  29.331  29.231  1.00  0.00     0.031 A 
ATOM     33  C   UNL A   1      39.098  30.346  29.132  1.00  0.00     0.074 A 
ATOM     34  C   UNL A   1      41.274  29.497  29.993  1.00  0.00     0.049 A 
ATOM     35  N   UNL A   1      39.229  31.588  29.447  1.00  0.00    -0.248 NA
ATOM     36  C   UNL A   1      37.774  30.035  28.592  1.00  0.00     0.031 C 
ATOM     37  C   UNL A   1      41.479  30.515  31.011  1.00  0.00     0.029 A 
ATOM     38  N   UNL A   1      42.502  28.834  29.956  1.00  0.00    -0.354 N 
ATOM     39  C   UNL A   1      37.967  32.149  29.462  1.00  0.00     0.074 A 
ATOM     40  C   UNL A   1      37.140  31.199  28.765  1.00  0.00     0.031 C 
ATOM     41  C   UNL A   1      42.792  30.590  31.284  1.00  0.00     0.029 A 
ATOM     42  C   UNL A   1      43.474  29.797  30.274  1.00  0.00     0.049 A 
ATOM     43  H   UNL A   1      42.656  27.883  29.750  1.00  0.00     0.167 HD
ATOM     44  C   UNL A   1      37.765  33.279  30.202  1.00  0.00     0.037 A 
ATOM     45  C   UNL A   1      44.363  30.325  29.367  1.00  0.00     0.037 A 
ATOM     46  C   UNL A   1      39.051  33.793  30.684  1.00  0.00     0.049 A 
ATOM     47  C   UNL A   1      44.176  31.808  29.111  1.00  0.00     0.074 A 
ATOM     48  C   UNL A   1      39.760  33.647  31.863  1.00  0.00     0.029 A 
ATOM     49  N   UNL A   1      39.936  34.320  29.763  1.00  0.00    -0.354 N 
ATOM     50  N   UNL A   1      43.223  32.528  29.632  1.00  0.00    -0.248 NA
ATOM     51  C   UNL A   1      44.994  32.571  28.166  1.00  0.00     0.031 C 
ATOM     52  C   UNL A   1      41.120  33.988  31.594  1.00  0.00     0.029 A 
ATOM     53  C   UNL A   1      41.221  34.377  30.269  1.00  0.00     0.049 A 
ATOM     54  H   UNL A   1      39.683  34.617  28.859  1.00  0.00     0.167 HD
ATOM     55  C   UNL A   1      43.241  33.776  29.085  1.00  0.00     0.074 A 
ATOM     56  C   UNL A   1      44.375  33.764  28.178  1.00  0.00     0.031 C 
ATOM     57  C   UNL A   1      42.311  34.728  29.375  1.00  0.00     0.037 A 
BRANCH  44  58
ATOM     58  C   UNL A   1      36.433  33.832  30.692  1.00  0.00     0.058 A 
ATOM     59  C   UNL A   1      35.482  34.287  29.747  1.00  0.00     0.135 A 
ATOM     60  C   UNL A   1      36.045  34.035  32.034  1.00  0.00     0.135 A 
ATOM     61  F   UNL A   1      35.677  34.133  28.429  1.00  0.00    -0.206 F 
ATOM     62  C   UNL A   1      34.296  34.937  30.099  1.00  0.00     0.059 A 
ATOM     63  C   UNL A   1      34.860  34.674  32.412  1.00  0.00     0.059 A 
ATOM     64  F   UNL A   1      36.787  33.635  33.068  1.00  0.00    -0.206 F 
ATOM     65  C   UNL A   1      33.997  35.141  31.437  1.00  0.00     0.060 A 
BRANCH  65  66
ATOM     66  S   UNL A   1      32.484  36.008  31.882  1.00  0.00     0.124 S 
ATOM     67  O   UNL A   1      31.725  34.963  32.561  1.00  0.00    -0.237 OA
ATOM     68  O   UNL A   1      32.985  37.084  32.731  1.00  0.00    -0.237 OA
ATOM     69  O   UNL A   1      31.943  36.433  30.593  1.00  0.00    -0.744 OA
ENDBRANCH  65  66
ENDBRANCH  44  58
BRANCH  45  70
ATOM     70  C   UNL A   1      44.803  29.371  28.314  1.00  0.00     0.058 A 
ATOM     71  C   UNL A   1      45.709  28.378  28.716  1.00  0.00     0.135 A 
ATOM     72  C   UNL A   1      43.924  29.098  27.256  1.00  0.00     0.135 A 
ATOM     73  F   UNL A   1      46.625  28.639  29.661  1.00  0.00    -0.206 F 
ATOM     74  C   UNL A   1      45.518  27.065  28.332  1.00  0.00     0.059 A 
ATOM     75  C   UNL A   1      43.716  27.788  26.855  1.00  0.00     0.059 A 
ATOM     76  F   UNL A   1      43.105  30.047  26.784  1.00  0.00    -0.206 F 
ATOM     77  C   UNL A   1      44.435  26.781  27.502  1.00  0.00     0.060 A 
BRANCH  77  78
ATOM     78  S   UNL A   1      43.728  25.132  27.625  1.00  0.00     0.124 S 
ATOM     79  O   UNL A   1      44.896  24.304  27.900  1.00  0.00    -0.237 OA
ATOM     80  O   UNL A   1      42.791  25.304  28.731  1.00  0.00    -0.237 OA
ATOM     81  O   UNL A   1      43.117  24.954  26.316  1.00  0.00    -0.744 OA
ENDBRANCH  77  78
ENDBRANCH  45  70
BRANCH  57  82
ATOM     82  C   UNL A   1      42.412  36.096  28.789  1.00  0.00     0.058 A 
ATOM     83  C   UNL A   1      41.914  36.366  27.505  1.00  0.00     0.135 A 
ATOM     84  C   UNL A   1      43.077  37.145  29.451  1.00  0.00     0.135 A 
ATOM     85  F   UNL A   1      41.306  35.403  26.791  1.00  0.00    -0.206 F 
ATOM     86  C   UNL A   1      42.014  37.626  26.930  1.00  0.00     0.059 A 
ATOM     87  C   UNL A   1      43.238  38.398  28.872  1.00  0.00     0.059 A 
ATOM     88  F   UNL A   1      43.556  36.990  30.694  1.00  0.00    -0.206 F 
ATOM     89  C   UNL A   1      42.674  38.638  27.625  1.00  0.00     0.060 A 
BRANCH  89  90
ATOM     90  S   UNL A   1      42.787  40.275  26.887  1.00  0.00     0.124 S 
ATOM     91  O   UNL A   1      43.293  41.089  27.987  1.00  0.00    -0.237 OA
ATOM     92  O   UNL A   1      43.727  40.033  25.796  1.00  0.00    -0.237 OA
ATOM     93  O   UNL A   1      41.413  40.558  26.485  1.00  0.00    -0.744 OA
ENDBRANCH  89  90
ENDBRANCH  57  82
ENDBRANCH  31  32
ENDBRANCH  24  26
ENDBRANCH  23  24
ENDBRANCH   1  23
TORSDOF 16
ENDMDL
MODEL 3
REMARK VINA RESULT:     -13.0      4.810     11.206
REMARK SMILES Cc1cc(C(=O)N[C@H]2C=C[C@H](C(=O)OCCOC(=O)c3ccc(-c4c5nc(c(-c6c(F)cc(S(=O)(=O)[O-])cc6F)c6ccc([nH]6)c(-c6c(F)cc(S(=O)(=O)[O-])cc6F)c6nc(c(-c7c(F)cc(S(=O)(=O)[O-])cc7F)c7ccc4[nH]7)C=C6)C=C5)cc3)C2)ccc1F
REMARK SMILES IDX 16 1 15 2 14 3 12 4 13 5 11 6 8 7 9 8 86 9 10 10 7 11 5 12
REMARK SMILES IDX 6 13 4 15 1 16 2 17 3 18 89 19 88 20 90 21 87 22 17 23 18 24
REMARK SMILES IDX 19 25 20 26 21 27 85 28 22 29 84 30 23 31 24 32 25 33 78 34
REMARK SMILES IDX 26 35 83 36 77 37 79 38 27 39 82 40 76 41 75 42 28 44 62 45
REMARK SMILES IDX 41 46 61 47 42 48 45 49 60 50 80 51 43 52 44 53 59 55 81 56
REMARK SMILES IDX 46 57 29 58 30 59 39 60 31 61 32 62 38 63 40 64 33 65 34 66
REMARK SMILES IDX 35 67 36 68 37 69 63 70 64 71 73 72 65 73 66 74 72 75 74 76
REMARK SMILES IDX 67 77 68 78 69 79 70 80 71 81 47 82 48 83 57 84 49 85 50 86
REMARK SMILES IDX 56 87 58 88 51 89 52 90 53 91 54 92 55 93
REMARK H PARENT 7 14 79 43 45 54
REMARK Flexibility Score: inf
ROOT
ATOM      1  C   UNL A   1      37.144  23.298  25.754  1.00  0.00     0.275 C 
ENDROOT
BRANCH   1   2
ATOM      2  C   UNL A   1      35.665  23.152  26.109  1.00  0.00     0.274 C 
BRANCH   2   3
ATOM      3  O   UNL A   1      35.032  22.289  25.150  1.00  0.00    -0.462 OA
BRANCH   3   4
ATOM      4  C   UNL A   1      33.674  22.344  25.087  1.00  0.00     0.312 C 
ATOM      5  O   UNL A   1      32.928  22.232  26.056  1.00  0.00    -0.252 OA
BRANCH   4   6
ATOM      6  C   UNL A   1      33.201  22.605  23.655  1.00  0.00     0.124 C 
ATOM      7  C   UNL A   1      33.491  24.973  23.353  1.00  0.00     0.106 C 
ATOM      8  C   UNL A   1      32.031  24.627  23.368  1.00  0.00    -0.006 C 
ATOM      9  C   UNL A   1      34.104  23.631  22.964  1.00  0.00     0.048 C 
ATOM     10  C   UNL A   1      31.873  23.316  23.592  1.00  0.00    -0.014 C 
BRANCH   7  11
ATOM     11  N   UNL A   1      33.763  26.041  22.431  1.00  0.00    -0.346 N 
ATOM     12  C   UNL A   1      33.607  27.400  22.536  1.00  0.00     0.251 C 
ATOM     13  O   UNL A   1      33.861  28.058  21.521  1.00  0.00    -0.269 OA
ATOM     14  H   UNL A   1      34.126  25.744  21.566  1.00  0.00     0.164 HD
BRANCH  12  15
ATOM     15  C   UNL A   1      33.186  28.139  23.776  1.00  0.00     0.040 A 
ATOM     16  C   UNL A   1      34.242  29.239  27.291  1.00  0.00     0.047 C 
ATOM     17  C   UNL A   1      33.427  29.030  26.049  1.00  0.00    -0.015 A 
ATOM     18  C   UNL A   1      33.934  28.308  24.949  1.00  0.00     0.020 A 
ATOM     19  C   UNL A   1      32.154  29.586  25.965  1.00  0.00     0.126 A 
ATOM     20  C   UNL A   1      31.378  29.415  24.830  1.00  0.00     0.040 A 
ATOM     21  F   UNL A   1      31.660  30.288  26.995  1.00  0.00    -0.207 F 
ATOM     22  C   UNL A   1      31.889  28.693  23.748  1.00  0.00     0.017 A 
ENDBRANCH  12  15
ENDBRANCH   7  11
ENDBRANCH   4   6
ENDBRANCH   3   4
ENDBRANCH   2   3
ENDBRANCH   1   2
BRANCH   1  23
ATOM     23  O   UNL A   1      37.784  24.456  26.327  1.00  0.00    -0.458 OA
BRANCH  23  24
ATOM     24  C   UNL A   1      38.969  24.210  26.948  1.00  0.00     0.338 C 
ATOM     25  O   UNL A   1      39.552  23.158  26.939  1.00  0.00    -0.246 OA
BRANCH  24  26
ATOM     26  C   UNL A   1      39.457  25.431  27.617  1.00  0.00     0.060 A 
ATOM     27  C   UNL A   1      39.143  25.625  28.972  1.00  0.00     0.016 A 
ATOM     28  C   UNL A   1      40.115  26.413  26.881  1.00  0.00     0.016 A 
ATOM     29  C   UNL A   1      39.352  26.866  29.560  1.00  0.00     0.010 A 
ATOM     30  C   UNL A   1      40.333  27.636  27.464  1.00  0.00     0.010 A 
ATOM     31  C   UNL A   1      39.901  27.874  28.777  1.00  0.00    -0.014 A 
BRANCH  31  32
ATOM     32  C   UNL A   1      40.200  29.208  29.253  1.00  0.00     0.031 A 
ATOM     33  C   UNL A   1      39.138  30.235  29.158  1.00  0.00     0.074 A 
ATOM     34  C   UNL A   1      41.313  29.367  30.002  1.00  0.00     0.049 A 
ATOM     35  N   UNL A   1      39.286  31.478  29.462  1.00  0.00    -0.248 NA
ATOM     36  C   UNL A   1      37.804  29.934  28.635  1.00  0.00     0.031 C 
ATOM     37  C   UNL A   1      41.540  30.390  31.011  1.00  0.00     0.029 A 
ATOM     38  N   UNL A   1      42.533  28.690  29.958  1.00  0.00    -0.354 N 
ATOM     39  C   UNL A   1      38.031  32.053  29.486  1.00  0.00     0.074 A 
ATOM     40  C   UNL A   1      37.186  31.107  28.805  1.00  0.00     0.031 C 
ATOM     41  C   UNL A   1      42.857  30.453  31.269  1.00  0.00     0.029 A 
ATOM     42  C   UNL A   1      43.520  29.644  30.258  1.00  0.00     0.049 A 
ATOM     43  H   UNL A   1      42.674  27.736  29.757  1.00  0.00     0.167 HD
ATOM     44  C   UNL A   1      37.850  33.190  30.220  1.00  0.00     0.037 A 
ATOM     45  C   UNL A   1      44.404  30.155  29.338  1.00  0.00     0.037 A 
ATOM     46  C   UNL A   1      39.146  33.693  30.684  1.00  0.00     0.049 A 
ATOM     47  C   UNL A   1      44.232  31.639  29.072  1.00  0.00     0.074 A 
ATOM     48  C   UNL A   1      39.866  33.548  31.857  1.00  0.00     0.029 A 
ATOM     49  N   UNL A   1      40.027  34.203  29.750  1.00  0.00    -0.354 N 
ATOM     50  N   UNL A   1      43.292  32.373  29.598  1.00  0.00    -0.248 NA
ATOM     51  C   UNL A   1      45.048  32.385  28.113  1.00  0.00     0.031 C 
ATOM     52  C   UNL A   1      41.228  33.871  31.571  1.00  0.00     0.029 A 
ATOM     53  C   UNL A   1      41.319  34.250  30.242  1.00  0.00     0.049 A 
ATOM     54  H   UNL A   1      39.769  34.497  28.847  1.00  0.00     0.167 HD
ATOM     55  C   UNL A   1      43.319  33.617  29.041  1.00  0.00     0.074 A 
ATOM     56  C   UNL A   1      44.443  33.585  28.122  1.00  0.00     0.031 C 
ATOM     57  C   UNL A   1      42.403  34.581  29.334  1.00  0.00     0.037 A 
BRANCH  44  58
ATOM     58  C   UNL A   1      36.530  33.762  30.720  1.00  0.00     0.058 A 
ATOM     59  C   UNL A   1      35.581  34.237  29.782  1.00  0.00     0.135 A 
ATOM     60  C   UNL A   1      36.152  33.965  32.065  1.00  0.00     0.135 A 
ATOM     61  F   UNL A   1      35.767  34.087  28.462  1.00  0.00    -0.206 F 
ATOM     62  C   UNL A   1      34.407  34.905  30.144  1.00  0.00     0.059 A 
ATOM     63  C   UNL A   1      34.979  34.621  32.452  1.00  0.00     0.059 A 
ATOM     64  F   UNL A   1      36.892  33.547  33.093  1.00  0.00    -0.206 F 
ATOM     65  C   UNL A   1      34.119  35.106  31.485  1.00  0.00     0.060 A 
BRANCH  65  66
ATOM     66  S   UNL A   1      32.623  35.995  31.941  1.00  0.00     0.124 S 
ATOM     67  O   UNL A   1      33.136  36.993  32.875  1.00  0.00    -0.237 OA
ATOM     68  O   UNL A   1      32.163  36.506  30.654  1.00  0.00    -0.237 OA
ATOM     69  O   UNL A   1      31.779  34.962  32.537  1.00  0.00    -0.744 OA
ENDBRANCH  65  66
ENDBRANCH  44  58
BRANCH  45  70
ATOM     70  C   UNL A   1      44.822  29.189  28.287  1.00  0.00     0.058 A 
ATOM     71  C   UNL A   1      45.733  28.198  28.683  1.00  0.00     0.135 A 
ATOM     72  C   UNL A   1      43.924  28.906  27.249  1.00  0.00     0.135 A 
ATOM     73  F   UNL A   1      46.668  28.466  29.608  1.00  0.00    -0.206 F 
ATOM     74  C   UNL A   1      45.531  26.881  28.317  1.00  0.00     0.059 A 
ATOM     75  C   UNL A   1      43.704  27.593  26.866  1.00  0.00     0.059 A 
ATOM     76  F   UNL A   1      43.098  29.852  26.781  1.00  0.00    -0.206 F 
ATOM     77  C   UNL A   1      44.433  26.591  27.511  1.00  0.00     0.060 A 
BRANCH  77  78
ATOM     78  S   UNL A   1      43.724  24.945  27.665  1.00  0.00     0.124 S 
ATOM     79  O   UNL A   1      43.124  24.731  26.354  1.00  0.00    -0.237 OA
ATOM     80  O   UNL A   1      44.911  24.150  27.963  1.00  0.00    -0.237 OA
ATOM     81  O   UNL A   1      42.792  25.107  28.772  1.00  0.00    -0.744 OA
ENDBRANCH  77  78
ENDBRANCH  45  70
BRANCH  57  82
ATOM     82  C   UNL A   1      42.513  35.944  28.737  1.00  0.00     0.058 A 
ATOM     83  C   UNL A   1      43.132  36.989  29.440  1.00  0.00     0.135 A 
ATOM     84  C   UNL A   1      41.933  36.264  27.496  1.00  0.00     0.135 A 
ATOM     85  F   UNL A   1      43.671  36.773  30.652  1.00  0.00    -0.206 F 
ATOM     86  C   UNL A   1      43.228  38.271  28.913  1.00  0.00     0.059 A 
ATOM     87  C   UNL A   1      41.968  37.552  26.974  1.00  0.00     0.059 A 
ATOM     88  F   UNL A   1      41.348  35.324  26.738  1.00  0.00    -0.206 F 
ATOM     89  C   UNL A   1      42.646  38.540  27.676  1.00  0.00     0.060 A 
BRANCH  89  90
ATOM     90  S   UNL A   1      42.788  40.197  26.987  1.00  0.00     0.124 S 
ATOM     91  O   UNL A   1      41.487  40.393  26.354  1.00  0.00    -0.237 OA
ATOM     92  O   UNL A   1      43.029  40.988  28.190  1.00  0.00    -0.237 OA
ATOM     93  O   UNL A   1      43.916  40.083  26.068  1.00  0.00    -0.744 OA
ENDBRANCH  89  90
ENDBRANCH  57  82
ENDBRANCH  31  32
ENDBRANCH  24  26
ENDBRANCH  23  24
ENDBRANCH   1  23
TORSDOF 16
ENDMDL
