MODEL 1
REMARK VINA RESULT:     -13.2      0.000      0.000
REMARK SMILES COc1cc([C@@H]2CC(=O)Nc3c(C(=O)OCCOC(=O)c4ccc(-c5c6nc(c(-c7c(F)cc(S(=O)(=O)[O-])cc7F)c7ccc([nH]7)c(-c7c(F)cc(S(=O)(=O)[O-])cc7F)c7nc(c(-c8c(F)cc(S(=O)(=O)[O-])cc8F)c8ccc5[nH]8)C=C7)C=C6)cc4)cn(-c4ccc(F)cc4)c32)c(OC)c2c1OCO2
REMARK SMILES IDX 17 1 16 2 15 3 13 4 14 5 12 6 6 7 7 8 96 9 8 10 11 11 88 12
REMARK SMILES IDX 9 13 10 14 87 15 5 17 3 18 4 19 101 20 100 21 102 22 97 23
REMARK SMILES IDX 104 24 103 25 2 26 1 27 98 28 99 29 89 30 90 31 95 32 91 33
REMARK SMILES IDX 94 34 92 35 93 36 18 37 19 38 20 39 21 40 22 41 86 42 23 43
REMARK SMILES IDX 85 44 24 45 25 46 26 47 79 48 27 49 84 50 78 51 80 52 28 53
REMARK SMILES IDX 83 54 77 55 76 56 29 58 63 59 42 60 62 61 43 62 46 63 61 64
REMARK SMILES IDX 81 65 44 66 45 67 60 69 82 70 47 71 30 72 31 73 40 74 32 75
REMARK SMILES IDX 33 76 39 77 41 78 34 79 35 80 36 81 37 82 38 83 64 84 65 85
REMARK SMILES IDX 74 86 66 87 67 88 73 89 75 90 68 91 69 92 70 93 71 94 72 95
REMARK SMILES IDX 48 96 49 97 58 98 50 99 51 100 57 101 59 102 52 103 53 104
REMARK SMILES IDX 54 105 55 106 56 107
REMARK H PARENT 10 16 80 57 46 68
REMARK Flexibility Score: inf
ROOT
ATOM      1  C   UNL A   1      37.290  22.032  25.481  1.00  0.00     0.275 C 
ENDROOT
BRANCH   1   2
ATOM      2  C   UNL A   1      35.801  22.022  25.798  1.00  0.00     0.275 C 
BRANCH   2   3
ATOM      3  O   UNL A   1      35.329  23.347  26.090  1.00  0.00    -0.458 OA
BRANCH   3   4
ATOM      4  C   UNL A   1      34.098  23.671  25.584  1.00  0.00     0.341 C 
ATOM      5  O   UNL A   1      33.176  22.871  25.435  1.00  0.00    -0.246 OA
BRANCH   4   6
ATOM      6  C   UNL A   1      33.986  25.081  25.263  1.00  0.00     0.102 A 
ATOM      7  C   UNL A   1      32.867  27.859  23.133  1.00  0.00     0.082 C 
ATOM      8  C   UNL A   1      33.351  27.353  21.760  1.00  0.00     0.115 C 
ATOM      9  C   UNL A   1      33.442  26.993  24.206  1.00  0.00     0.055 A 
ATOM     10  C   UNL A   1      33.438  25.837  21.625  1.00  0.00     0.225 C 
ATOM     11  C   UNL A   1      33.799  25.683  24.003  1.00  0.00     0.078 A 
ATOM     12  N   UNL A   1      33.716  27.304  25.520  1.00  0.00    -0.317 N 
ATOM     13  O   UNL A   1      33.300  25.276  20.537  1.00  0.00    -0.275 OA
ATOM     14  N   UNL A   1      33.771  25.121  22.747  1.00  0.00    -0.324 N 
ATOM     15  C   UNL A   1      34.055  26.133  26.167  1.00  0.00     0.109 A 
ATOM     16  H   UNL A   1      33.998  24.168  22.650  1.00  0.00     0.170 HD
BRANCH   7  17
ATOM     17  C   UNL A   1      31.332  27.959  23.200  1.00  0.00     0.012 A 
ATOM     18  C   UNL A   1      29.378  29.438  23.001  1.00  0.00     0.165 A 
ATOM     19  C   UNL A   1      30.748  29.209  22.866  1.00  0.00     0.059 A 
ATOM     20  C   UNL A   1      28.584  28.379  23.395  1.00  0.00     0.211 A 
ATOM     21  C   UNL A   1      29.122  27.142  23.686  1.00  0.00     0.211 A 
ATOM     22  O   UNL A   1      27.225  28.388  23.530  1.00  0.00    -0.449 OA
ATOM     23  C   UNL A   1      30.484  26.897  23.607  1.00  0.00     0.168 A 
ATOM     24  O   UNL A   1      28.157  26.249  24.056  1.00  0.00    -0.449 OA
ATOM     25  C   UNL A   1      26.965  27.017  23.863  1.00  0.00     0.468 C 
BRANCH  18  26
ATOM     26  O   UNL A   1      28.945  30.696  22.693  1.00  0.00    -0.493 OA
ATOM     27  C   UNL A   1      28.755  30.916  21.297  1.00  0.00     0.278 C 
ENDBRANCH  18  26
BRANCH  23  28
ATOM     28  O   UNL A   1      31.084  25.715  23.903  1.00  0.00    -0.492 OA
ATOM     29  C   UNL A   1      30.544  24.489  23.445  1.00  0.00     0.278 C 
ENDBRANCH  23  28
ENDBRANCH   7  17
BRANCH  12  30
ATOM     30  C   UNL A   1      33.619  28.563  26.148  1.00  0.00     0.046 A 
ATOM     31  C   UNL A   1      34.763  29.158  26.684  1.00  0.00     0.029 A 
ATOM     32  C   UNL A   1      32.376  29.204  26.220  1.00  0.00     0.029 A 
ATOM     33  C   UNL A   1      34.660  30.381  27.344  1.00  0.00     0.041 A 
ATOM     34  C   UNL A   1      32.279  30.425  26.894  1.00  0.00     0.041 A 
ATOM     35  C   UNL A   1      33.419  30.997  27.455  1.00  0.00     0.123 A 
ATOM     36  F   UNL A   1      33.324  32.165  28.106  1.00  0.00    -0.207 F 
ENDBRANCH  12  30
ENDBRANCH   4   6
ENDBRANCH   3   4
ENDBRANCH   2   3
ENDBRANCH   1   2
BRANCH   1  37
ATOM     37  O   UNL A   1      37.964  23.014  26.262  1.00  0.00    -0.458 OA
BRANCH  37  38
ATOM     38  C   UNL A   1      39.243  22.712  26.581  1.00  0.00     0.338 C 
ATOM     39  O   UNL A   1      39.708  21.607  26.801  1.00  0.00    -0.246 OA
BRANCH  38  40
ATOM     40  C   UNL A   1      39.968  23.952  26.840  1.00  0.00     0.060 A 
ATOM     41  C   UNL A   1      41.099  23.887  27.660  1.00  0.00     0.016 A 
ATOM     42  C   UNL A   1      39.316  25.157  26.550  1.00  0.00     0.016 A 
ATOM     43  C   UNL A   1      41.465  25.020  28.351  1.00  0.00     0.010 A 
ATOM     44  C   UNL A   1      39.661  26.272  27.261  1.00  0.00     0.010 A 
ATOM     45  C   UNL A   1      40.679  26.166  28.207  1.00  0.00    -0.014 A 
BRANCH  45  46
ATOM     46  C   UNL A   1      41.001  27.344  28.981  1.00  0.00     0.031 A 
ATOM     47  C   UNL A   1      42.150  28.085  28.409  1.00  0.00     0.074 A 
ATOM     48  C   UNL A   1      40.180  27.770  29.960  1.00  0.00     0.049 A 
ATOM     49  N   UNL A   1      43.309  28.298  28.936  1.00  0.00    -0.248 NA
ATOM     50  C   UNL A   1      42.071  28.451  26.981  1.00  0.00     0.031 C 
ATOM     51  C   UNL A   1      38.879  27.209  30.346  1.00  0.00     0.029 A 
ATOM     52  N   UNL A   1      40.271  28.877  30.739  1.00  0.00    -0.354 N 
ATOM     53  C   UNL A   1      43.994  29.067  27.999  1.00  0.00     0.074 A 
ATOM     54  C   UNL A   1      43.306  28.893  26.754  1.00  0.00     0.031 C 
ATOM     55  C   UNL A   1      38.213  28.106  31.109  1.00  0.00     0.029 A 
ATOM     56  C   UNL A   1      39.081  29.243  31.362  1.00  0.00     0.049 A 
ATOM     57  H   UNL A   1      41.108  29.381  30.854  1.00  0.00     0.167 HD
ATOM     58  C   UNL A   1      44.850  30.046  28.402  1.00  0.00     0.037 A 
ATOM     59  C   UNL A   1      38.823  30.434  31.960  1.00  0.00     0.037 A 
ATOM     60  C   UNL A   1      45.295  29.806  29.755  1.00  0.00     0.049 A 
ATOM     61  C   UNL A   1      40.140  31.073  32.233  1.00  0.00     0.074 A 
ATOM     62  C   UNL A   1      45.941  28.762  30.391  1.00  0.00     0.029 A 
ATOM     63  N   UNL A   1      44.732  30.562  30.755  1.00  0.00    -0.354 N 
ATOM     64  N   UNL A   1      41.021  30.587  33.067  1.00  0.00    -0.248 NA
ATOM     65  C   UNL A   1      40.677  31.971  31.220  1.00  0.00     0.031 C 
ATOM     66  C   UNL A   1      45.347  28.687  31.684  1.00  0.00     0.029 A 
ATOM     67  C   UNL A   1      44.421  29.726  31.797  1.00  0.00     0.049 A 
ATOM     68  H   UNL A   1      44.577  31.534  30.728  1.00  0.00     0.167 HD
ATOM     69  C   UNL A   1      42.250  30.770  32.443  1.00  0.00     0.074 A 
ATOM     70  C   UNL A   1      41.979  31.699  31.347  1.00  0.00     0.031 C 
ATOM     71  C   UNL A   1      43.299  29.932  32.691  1.00  0.00     0.037 A 
BRANCH  58  72
ATOM     72  C   UNL A   1      44.906  31.417  27.751  1.00  0.00     0.058 A 
ATOM     73  C   UNL A   1      46.065  31.769  27.027  1.00  0.00     0.135 A 
ATOM     74  C   UNL A   1      44.032  32.493  28.043  1.00  0.00     0.135 A 
ATOM     75  F   UNL A   1      46.957  30.834  26.670  1.00  0.00    -0.206 F 
ATOM     76  C   UNL A   1      46.388  33.094  26.731  1.00  0.00     0.059 A 
ATOM     77  C   UNL A   1      44.311  33.812  27.712  1.00  0.00     0.059 A 
ATOM     78  F   UNL A   1      42.901  32.353  28.741  1.00  0.00    -0.206 F 
ATOM     79  C   UNL A   1      45.516  34.110  27.104  1.00  0.00     0.060 A 
BRANCH  79  80
ATOM     80  S   UNL A   1      45.985  35.827  26.849  1.00  0.00     0.124 S 
ATOM     81  O   UNL A   1      44.684  36.449  26.633  1.00  0.00    -0.237 OA
ATOM     82  O   UNL A   1      46.650  36.145  28.108  1.00  0.00    -0.237 OA
ATOM     83  O   UNL A   1      46.860  35.767  25.682  1.00  0.00    -0.744 OA
ENDBRANCH  79  80
ENDBRANCH  58  72
BRANCH  59  84
ATOM     84  C   UNL A   1      37.539  31.192  31.952  1.00  0.00     0.058 A 
ATOM     85  C   UNL A   1      36.917  31.606  33.143  1.00  0.00     0.135 A 
ATOM     86  C   UNL A   1      37.026  31.753  30.763  1.00  0.00     0.135 A 
ATOM     87  F   UNL A   1      37.357  31.153  34.326  1.00  0.00    -0.206 F 
ATOM     88  C   UNL A   1      35.866  32.536  33.157  1.00  0.00     0.059 A 
ATOM     89  C   UNL A   1      35.975  32.670  30.751  1.00  0.00     0.059 A 
ATOM     90  F   UNL A   1      37.588  31.491  29.574  1.00  0.00    -0.206 F 
ATOM     91  C   UNL A   1      35.411  33.073  31.953  1.00  0.00     0.060 A 
BRANCH  91  92
ATOM     92  S   UNL A   1      34.151  34.373  31.967  1.00  0.00     0.124 S 
ATOM     93  O   UNL A   1      33.171  33.834  32.904  1.00  0.00    -0.237 OA
ATOM     94  O   UNL A   1      34.906  35.532  32.431  1.00  0.00    -0.237 OA
ATOM     95  O   UNL A   1      33.712  34.435  30.575  1.00  0.00    -0.744 OA
ENDBRANCH  91  92
ENDBRANCH  59  84
BRANCH  71  96
ATOM     96  C   UNL A   1      43.192  28.983  33.861  1.00  0.00     0.058 A 
ATOM     97  C   UNL A   1      43.432  29.342  35.201  1.00  0.00     0.135 A 
ATOM     98  C   UNL A   1      42.664  27.705  33.629  1.00  0.00     0.135 A 
ATOM     99  F   UNL A   1      43.840  30.576  35.521  1.00  0.00    -0.206 F 
ATOM    100  C   UNL A   1      43.190  28.458  36.256  1.00  0.00     0.059 A 
ATOM    101  C   UNL A   1      42.385  26.819  34.667  1.00  0.00     0.059 A 
ATOM    102  F   UNL A   1      42.353  27.324  32.379  1.00  0.00    -0.206 F 
ATOM    103  C   UNL A   1      42.660  27.199  35.979  1.00  0.00     0.060 A 
BRANCH 103 104
ATOM    104  S   UNL A   1      42.261  26.090  37.348  1.00  0.00     0.124 S 
ATOM    105  O   UNL A   1      40.871  26.433  37.627  1.00  0.00    -0.237 OA
ATOM    106  O   UNL A   1      42.484  24.770  36.763  1.00  0.00    -0.237 OA
ATOM    107  O   UNL A   1      43.219  26.470  38.385  1.00  0.00    -0.744 OA
ENDBRANCH 103 104
ENDBRANCH  71  96
ENDBRANCH  45  46
ENDBRANCH  38  40
ENDBRANCH  37  38
ENDBRANCH   1  37
TORSDOF 18
ENDMDL
MODEL 2
REMARK VINA RESULT:     -11.4      5.366     10.805
REMARK SMILES COc1cc([C@@H]2CC(=O)Nc3c(C(=O)OCCOC(=O)c4ccc(-c5c6nc(c(-c7c(F)cc(S(=O)(=O)[O-])cc7F)c7ccc([nH]7)c(-c7c(F)cc(S(=O)(=O)[O-])cc7F)c7nc(c(-c8c(F)cc(S(=O)(=O)[O-])cc8F)c8ccc5[nH]8)C=C7)C=C6)cc4)cn(-c4ccc(F)cc4)c32)c(OC)c2c1OCO2
REMARK SMILES IDX 17 1 16 2 15 3 13 4 14 5 12 6 6 7 7 8 96 9 8 10 11 11 88 12
REMARK SMILES IDX 9 13 10 14 87 15 5 17 3 18 4 19 101 20 100 21 102 22 97 23
REMARK SMILES IDX 104 24 103 25 2 26 1 27 98 28 99 29 89 30 90 31 95 32 91 33
REMARK SMILES IDX 94 34 92 35 93 36 18 37 19 38 20 39 21 40 22 41 86 42 23 43
REMARK SMILES IDX 85 44 24 45 25 46 26 47 79 48 27 49 84 50 78 51 80 52 28 53
REMARK SMILES IDX 83 54 77 55 76 56 29 58 63 59 42 60 62 61 43 62 46 63 61 64
REMARK SMILES IDX 81 65 44 66 45 67 60 69 82 70 47 71 30 72 31 73 40 74 32 75
REMARK SMILES IDX 33 76 39 77 41 78 34 79 35 80 36 81 37 82 38 83 64 84 65 85
REMARK SMILES IDX 74 86 66 87 67 88 73 89 75 90 68 91 69 92 70 93 71 94 72 95
REMARK SMILES IDX 48 96 49 97 58 98 50 99 51 100 57 101 59 102 52 103 53 104
REMARK SMILES IDX 54 105 55 106 56 107
REMARK H PARENT 10 16 80 57 46 68
REMARK Flexibility Score: inf
ROOT
ATOM      1  C   UNL A   1      47.309  29.698  26.514  1.00  0.00     0.275 C 
ENDROOT
BRANCH   1   2
ATOM      2  C   UNL A   1      48.308  28.707  25.933  1.00  0.00     0.275 C 
BRANCH   2   3
ATOM      3  O   UNL A   1      47.639  27.681  25.184  1.00  0.00    -0.458 OA
BRANCH   3   4
ATOM      4  C   UNL A   1      47.626  26.434  25.751  1.00  0.00     0.341 C 
ATOM      5  O   UNL A   1      48.466  25.564  25.534  1.00  0.00    -0.246 OA
BRANCH   4   6
ATOM      6  C   UNL A   1      46.516  26.257  26.669  1.00  0.00     0.102 A 
ATOM      7  C   UNL A   1      42.944  25.815  27.416  1.00  0.00     0.082 C 
ATOM      8  C   UNL A   1      42.352  26.952  26.562  1.00  0.00     0.115 C 
ATOM      9  C   UNL A   1      44.431  25.961  27.465  1.00  0.00     0.055 A 
ATOM     10  C   UNL A   1      43.174  27.336  25.337  1.00  0.00     0.225 C 
ATOM     11  C   UNL A   1      45.157  26.578  26.477  1.00  0.00     0.078 A 
ATOM     12  N   UNL A   1      45.314  25.544  28.437  1.00  0.00    -0.317 N 
ATOM     13  O   UNL A   1      42.649  27.808  24.328  1.00  0.00    -0.275 OA
ATOM     14  N   UNL A   1      44.538  27.224  25.431  1.00  0.00    -0.324 N 
ATOM     15  C   UNL A   1      46.592  25.730  27.951  1.00  0.00     0.109 A 
ATOM     16  H   UNL A   1      45.096  27.621  24.724  1.00  0.00     0.170 HD
BRANCH   7  17
ATOM     17  C   UNL A   1      42.494  24.429  26.919  1.00  0.00     0.012 A 
ATOM     18  C   UNL A   1      42.949  22.573  25.372  1.00  0.00     0.165 A 
ATOM     19  C   UNL A   1      43.323  23.779  25.967  1.00  0.00     0.059 A 
ATOM     20  C   UNL A   1      41.778  21.979  25.799  1.00  0.00     0.211 A 
ATOM     21  C   UNL A   1      40.974  22.571  26.753  1.00  0.00     0.211 A 
ATOM     22  O   UNL A   1      41.275  20.781  25.381  1.00  0.00    -0.449 OA
ATOM     23  C   UNL A   1      41.294  23.791  27.328  1.00  0.00     0.168 A 
ATOM     24  O   UNL A   1      39.870  21.812  27.018  1.00  0.00    -0.449 OA
ATOM     25  C   UNL A   1      40.119  20.651  26.220  1.00  0.00     0.468 C 
BRANCH  18  26
ATOM     26  O   UNL A   1      43.809  22.073  24.437  1.00  0.00    -0.493 OA
ATOM     27  C   UNL A   1      45.057  22.760  24.373  1.00  0.00     0.278 C 
ENDBRANCH  18  26
BRANCH  23  28
ATOM     28  O   UNL A   1      40.539  24.441  28.251  1.00  0.00    -0.492 OA
ATOM     29  C   UNL A   1      39.335  25.087  27.883  1.00  0.00     0.278 C 
ENDBRANCH  23  28
ENDBRANCH   7  17
BRANCH  12  30
ATOM     30  C   UNL A   1      45.011  24.965  29.687  1.00  0.00     0.046 A 
ATOM     31  C   UNL A   1      45.382  25.625  30.861  1.00  0.00     0.029 A 
ATOM     32  C   UNL A   1      44.336  23.739  29.736  1.00  0.00     0.029 A 
ATOM     33  C   UNL A   1      45.125  25.033  32.096  1.00  0.00     0.041 A 
ATOM     34  C   UNL A   1      44.091  23.147  30.978  1.00  0.00     0.041 A 
ATOM     35  C   UNL A   1      44.493  23.795  32.143  1.00  0.00     0.123 A 
ATOM     36  F   UNL A   1      44.263  23.223  33.334  1.00  0.00    -0.207 F 
ENDBRANCH  12  30
ENDBRANCH   4   6
ENDBRANCH   3   4
ENDBRANCH   2   3
ENDBRANCH   1   2
BRANCH   1  37
ATOM     37  O   UNL A   1      46.468  30.222  25.490  1.00  0.00    -0.458 OA
BRANCH  37  38
ATOM     38  C   UNL A   1      45.595  31.171  25.898  1.00  0.00     0.338 C 
ATOM     39  O   UNL A   1      45.384  32.252  25.378  1.00  0.00    -0.246 OA
BRANCH  38  40
ATOM     40  C   UNL A   1      45.073  30.796  27.208  1.00  0.00     0.060 A 
ATOM     41  C   UNL A   1      43.818  30.178  27.257  1.00  0.00     0.016 A 
ATOM     42  C   UNL A   1      45.674  31.370  28.335  1.00  0.00     0.016 A 
ATOM     43  C   UNL A   1      43.076  30.309  28.410  1.00  0.00     0.010 A 
ATOM     44  C   UNL A   1      44.923  31.526  29.466  1.00  0.00     0.010 A 
ATOM     45  C   UNL A   1      43.609  31.062  29.459  1.00  0.00    -0.014 A 
BRANCH  45  46
ATOM     46  C   UNL A   1      42.816  31.274  30.649  1.00  0.00     0.031 A 
ATOM     47  C   UNL A   1      42.655  30.028  31.436  1.00  0.00     0.074 A 
ATOM     48  C   UNL A   1      42.483  32.519  31.041  1.00  0.00     0.049 A 
ATOM     49  N   UNL A   1      41.570  29.379  31.696  1.00  0.00    -0.248 NA
ATOM     50  C   UNL A   1      43.885  29.297  31.799  1.00  0.00     0.031 C 
ATOM     51  C   UNL A   1      42.888  33.790  30.428  1.00  0.00     0.029 A 
ATOM     52  N   UNL A   1      41.815  32.921  32.152  1.00  0.00    -0.354 N 
ATOM     53  C   UNL A   1      41.972  28.310  32.492  1.00  0.00     0.074 A 
ATOM     54  C   UNL A   1      43.385  28.166  32.291  1.00  0.00     0.031 C 
ATOM     55  C   UNL A   1      42.656  34.800  31.297  1.00  0.00     0.029 A 
ATOM     56  C   UNL A   1      41.982  34.267  32.468  1.00  0.00     0.049 A 
ATOM     57  H   UNL A   1      41.258  32.314  32.689  1.00  0.00     0.167 HD
ATOM     58  C   UNL A   1      41.179  27.866  33.505  1.00  0.00     0.037 A 
ATOM     59  C   UNL A   1      41.662  34.858  33.648  1.00  0.00     0.037 A 
ATOM     60  C   UNL A   1      39.807  28.257  33.283  1.00  0.00     0.049 A 
ATOM     61  C   UNL A   1      40.707  33.948  34.340  1.00  0.00     0.074 A 
ATOM     62  C   UNL A   1      38.893  28.049  32.267  1.00  0.00     0.029 A 
ATOM     63  N   UNL A   1      39.318  29.312  34.016  1.00  0.00    -0.354 N 
ATOM     64  N   UNL A   1      39.510  33.678  33.890  1.00  0.00    -0.248 NA
ATOM     65  C   UNL A   1      41.259  32.962  35.258  1.00  0.00     0.031 C 
ATOM     66  C   UNL A   1      38.161  29.268  32.168  1.00  0.00     0.029 A 
ATOM     67  C   UNL A   1      38.615  30.130  33.168  1.00  0.00     0.049 A 
ATOM     68  H   UNL A   1      39.450  29.457  34.981  1.00  0.00     0.167 HD
ATOM     69  C   UNL A   1      39.335  32.319  34.123  1.00  0.00     0.074 A 
ATOM     70  C   UNL A   1      40.412  31.952  35.040  1.00  0.00     0.031 C 
ATOM     71  C   UNL A   1      38.517  31.567  33.328  1.00  0.00     0.037 A 
BRANCH  58  72
ATOM     72  C   UNL A   1      41.716  27.497  34.877  1.00  0.00     0.058 A 
ATOM     73  C   UNL A   1      42.558  28.416  35.537  1.00  0.00     0.135 A 
ATOM     74  C   UNL A   1      41.692  26.197  35.438  1.00  0.00     0.135 A 
ATOM     75  F   UNL A   1      42.647  29.686  35.115  1.00  0.00    -0.206 F 
ATOM     76  C   UNL A   1      43.401  28.040  36.584  1.00  0.00     0.059 A 
ATOM     77  C   UNL A   1      42.486  25.816  36.512  1.00  0.00     0.059 A 
ATOM     78  F   UNL A   1      40.973  25.191  34.932  1.00  0.00    -0.206 F 
ATOM     79  C   UNL A   1      43.375  26.729  37.045  1.00  0.00     0.060 A 
BRANCH  79  80
ATOM     80  S   UNL A   1      44.550  26.201  38.299  1.00  0.00     0.124 S 
ATOM     81  O   UNL A   1      43.906  26.684  39.515  1.00  0.00    -0.237 OA
ATOM     82  O   UNL A   1      44.562  24.754  38.108  1.00  0.00    -0.237 OA
ATOM     83  O   UNL A   1      45.781  26.889  37.919  1.00  0.00    -0.744 OA
ENDBRANCH  79  80
ENDBRANCH  58  72
BRANCH  59  84
ATOM     84  C   UNL A   1      42.412  35.935  34.353  1.00  0.00     0.058 A 
ATOM     85  C   UNL A   1      41.775  36.821  35.241  1.00  0.00     0.135 A 
ATOM     86  C   UNL A   1      43.823  35.959  34.369  1.00  0.00     0.135 A 
ATOM     87  F   UNL A   1      40.436  36.847  35.321  1.00  0.00    -0.206 F 
ATOM     88  C   UNL A   1      42.492  37.660  36.108  1.00  0.00     0.059 A 
ATOM     89  C   UNL A   1      44.557  36.791  35.214  1.00  0.00     0.059 A 
ATOM     90  F   UNL A   1      44.538  35.106  33.621  1.00  0.00    -0.206 F 
ATOM     91  C   UNL A   1      43.886  37.627  36.095  1.00  0.00     0.060 A 
BRANCH  91  92
ATOM     92  S   UNL A   1      44.820  38.602  37.301  1.00  0.00     0.124 S 
ATOM     93  O   UNL A   1      44.153  39.898  37.223  1.00  0.00    -0.237 OA
ATOM     94  O   UNL A   1      44.613  37.852  38.534  1.00  0.00    -0.237 OA
ATOM     95  O   UNL A   1      46.184  38.573  36.778  1.00  0.00    -0.744 OA
ENDBRANCH  91  92
ENDBRANCH  59  84
BRANCH  71  96
ATOM     96  C   UNL A   1      37.591  32.285  32.375  1.00  0.00     0.058 A 
ATOM     97  C   UNL A   1      37.890  32.556  31.027  1.00  0.00     0.135 A 
ATOM     98  C   UNL A   1      36.286  32.561  32.805  1.00  0.00     0.135 A 
ATOM     99  F   UNL A   1      39.080  32.230  30.506  1.00  0.00    -0.206 F 
ATOM    100  C   UNL A   1      36.945  33.106  30.157  1.00  0.00     0.059 A 
ATOM    101  C   UNL A   1      35.317  33.080  31.948  1.00  0.00     0.059 A 
ATOM    102  F   UNL A   1      35.916  32.267  34.063  1.00  0.00    -0.206 F 
ATOM    103  C   UNL A   1      35.657  33.360  30.627  1.00  0.00     0.060 A 
BRANCH 103 104
ATOM    104  S   UNL A   1      34.409  33.985  29.481  1.00  0.00     0.124 S 
ATOM    105  O   UNL A   1      33.961  32.766  28.818  1.00  0.00    -0.237 OA
ATOM    106  O   UNL A   1      33.441  34.612  30.377  1.00  0.00    -0.237 OA
ATOM    107  O   UNL A   1      35.156  34.916  28.637  1.00  0.00    -0.744 OA
ENDBRANCH 103 104
ENDBRANCH  71  96
ENDBRANCH  45  46
ENDBRANCH  38  40
ENDBRANCH  37  38
ENDBRANCH   1  37
TORSDOF 18
ENDMDL
MODEL 3
REMARK VINA RESULT:     -11.3      7.287     14.509
REMARK SMILES COc1cc([C@@H]2CC(=O)Nc3c(C(=O)OCCOC(=O)c4ccc(-c5c6nc(c(-c7c(F)cc(S(=O)(=O)[O-])cc7F)c7ccc([nH]7)c(-c7c(F)cc(S(=O)(=O)[O-])cc7F)c7nc(c(-c8c(F)cc(S(=O)(=O)[O-])cc8F)c8ccc5[nH]8)C=C7)C=C6)cc4)cn(-c4ccc(F)cc4)c32)c(OC)c2c1OCO2
REMARK SMILES IDX 17 1 16 2 15 3 13 4 14 5 12 6 6 7 7 8 96 9 8 10 11 11 88 12
REMARK SMILES IDX 9 13 10 14 87 15 5 17 3 18 4 19 101 20 100 21 102 22 97 23
REMARK SMILES IDX 104 24 103 25 2 26 1 27 98 28 99 29 89 30 90 31 95 32 91 33
REMARK SMILES IDX 94 34 92 35 93 36 18 37 19 38 20 39 21 40 22 41 86 42 23 43
REMARK SMILES IDX 85 44 24 45 25 46 26 47 79 48 27 49 84 50 78 51 80 52 28 53
REMARK SMILES IDX 83 54 77 55 76 56 29 58 63 59 42 60 62 61 43 62 46 63 61 64
REMARK SMILES IDX 81 65 44 66 45 67 60 69 82 70 47 71 30 72 31 73 40 74 32 75
REMARK SMILES IDX 33 76 39 77 41 78 34 79 35 80 36 81 37 82 38 83 64 84 65 85
REMARK SMILES IDX 74 86 66 87 67 88 73 89 75 90 68 91 69 92 70 93 71 94 72 95
REMARK SMILES IDX 48 96 49 97 58 98 50 99 51 100 57 101 59 102 52 103 53 104
REMARK SMILES IDX 54 105 55 106 56 107
REMARK H PARENT 10 16 80 57 46 68
REMARK Flexibility Score: inf
ROOT
ATOM      1  C   UNL A   1      43.342  39.472  27.020  1.00  0.00     0.275 C 
ENDROOT
BRANCH   1   2
ATOM      2  C   UNL A   1      43.071  40.896  26.555  1.00  0.00     0.275 C 
BRANCH   2   3
ATOM      3  O   UNL A   1      43.240  41.013  25.133  1.00  0.00    -0.458 OA
BRANCH   3   4
ATOM      4  C   UNL A   1      42.139  41.424  24.430  1.00  0.00     0.341 C 
ATOM      5  O   UNL A   1      40.996  41.016  24.628  1.00  0.00    -0.246 OA
BRANCH   4   6
ATOM      6  C   UNL A   1      42.464  42.425  23.431  1.00  0.00     0.102 A 
ATOM      7  C   UNL A   1      44.661  44.993  21.986  1.00  0.00     0.082 C 
ATOM      8  C   UNL A   1      44.960  45.826  23.247  1.00  0.00     0.115 C 
ATOM      9  C   UNL A   1      43.567  44.021  22.288  1.00  0.00     0.055 A 
ATOM     10  C   UNL A   1      44.894  45.056  24.561  1.00  0.00     0.225 C 
ATOM     11  C   UNL A   1      43.318  43.539  23.550  1.00  0.00     0.078 A 
ATOM     12  N   UNL A   1      42.649  43.451  21.433  1.00  0.00    -0.317 N 
ATOM     13  O   UNL A   1      45.566  45.387  25.539  1.00  0.00    -0.275 OA
ATOM     14  N   UNL A   1      43.986  44.031  24.648  1.00  0.00    -0.324 N 
ATOM     15  C   UNL A   1      41.969  42.477  22.134  1.00  0.00     0.109 A 
ATOM     16  H   UNL A   1      43.805  43.633  25.529  1.00  0.00     0.170 HD
BRANCH   7  17
ATOM     17  C   UNL A   1      45.928  44.317  21.430  1.00  0.00     0.012 A 
ATOM     18  C   UNL A   1      47.316  42.287  21.421  1.00  0.00     0.165 A 
ATOM     19  C   UNL A   1      46.146  42.959  21.780  1.00  0.00     0.059 A 
ATOM     20  C   UNL A   1      48.231  42.962  20.636  1.00  0.00     0.211 A 
ATOM     21  C   UNL A   1      48.023  44.270  20.248  1.00  0.00     0.211 A 
ATOM     22  O   UNL A   1      49.399  42.462  20.139  1.00  0.00    -0.449 OA
ATOM     23  C   UNL A   1      46.894  44.978  20.628  1.00  0.00     0.168 A 
ATOM     24  O   UNL A   1      49.054  44.734  19.482  1.00  0.00    -0.449 OA
ATOM     25  C   UNL A   1      49.863  43.563  19.345  1.00  0.00     0.468 C 
BRANCH  18  26
ATOM     26  O   UNL A   1      47.428  40.999  21.858  1.00  0.00    -0.493 OA
ATOM     27  C   UNL A   1      47.120  40.828  23.240  1.00  0.00     0.278 C 
ENDBRANCH  18  26
BRANCH  23  28
ATOM     28  O   UNL A   1      46.638  46.272  20.304  1.00  0.00    -0.492 OA
ATOM     29  C   UNL A   1      46.136  46.617  19.026  1.00  0.00     0.278 C 
ENDBRANCH  23  28
ENDBRANCH   7  17
BRANCH  12  30
ATOM     30  C   UNL A   1      42.451  43.735  20.065  1.00  0.00     0.046 A 
ATOM     31  C   UNL A   1      43.531  43.667  19.183  1.00  0.00     0.029 A 
ATOM     32  C   UNL A   1      41.172  44.075  19.609  1.00  0.00     0.029 A 
ATOM     33  C   UNL A   1      43.347  43.991  17.840  1.00  0.00     0.041 A 
ATOM     34  C   UNL A   1      40.997  44.410  18.263  1.00  0.00     0.041 A 
ATOM     35  C   UNL A   1      42.086  44.372  17.395  1.00  0.00     0.123 A 
ATOM     36  F   UNL A   1      41.919  44.698  16.106  1.00  0.00    -0.207 F 
ENDBRANCH  12  30
ENDBRANCH   4   6
ENDBRANCH   3   4
ENDBRANCH   2   3
ENDBRANCH   1   2
BRANCH   1  37
ATOM     37  O   UNL A   1      43.855  39.466  28.349  1.00  0.00    -0.458 OA
BRANCH  37  38
ATOM     38  C   UNL A   1      44.999  38.765  28.518  1.00  0.00     0.338 C 
ATOM     39  O   UNL A   1      46.054  38.920  27.928  1.00  0.00    -0.246 OA
BRANCH  38  40
ATOM     40  C   UNL A   1      44.726  37.623  29.385  1.00  0.00     0.060 A 
ATOM     41  C   UNL A   1      45.055  36.350  28.909  1.00  0.00     0.016 A 
ATOM     42  C   UNL A   1      43.857  37.822  30.465  1.00  0.00     0.016 A 
ATOM     43  C   UNL A   1      44.354  35.272  29.401  1.00  0.00     0.010 A 
ATOM     44  C   UNL A   1      43.140  36.755  30.929  1.00  0.00     0.010 A 
ATOM     45  C   UNL A   1      43.344  35.510  30.336  1.00  0.00    -0.014 A 
BRANCH  45  46
ATOM     46  C   UNL A   1      42.545  34.402  30.810  1.00  0.00     0.031 A 
ATOM     47  C   UNL A   1      43.055  33.861  32.092  1.00  0.00     0.074 A 
ATOM     48  C   UNL A   1      41.373  34.097  30.220  1.00  0.00     0.049 A 
ATOM     49  N   UNL A   1      43.535  32.686  32.332  1.00  0.00    -0.248 NA
ATOM     50  C   UNL A   1      43.255  34.820  33.196  1.00  0.00     0.031 C 
ATOM     51  C   UNL A   1      40.707  34.814  29.126  1.00  0.00     0.029 A 
ATOM     52  N   UNL A   1      40.459  33.153  30.559  1.00  0.00    -0.354 N 
ATOM     53  C   UNL A   1      43.833  32.690  33.691  1.00  0.00     0.074 A 
ATOM     54  C   UNL A   1      43.898  34.067  34.086  1.00  0.00     0.031 C 
ATOM     55  C   UNL A   1      39.413  34.424  29.057  1.00  0.00     0.029 A 
ATOM     56  C   UNL A   1      39.194  33.354  30.013  1.00  0.00     0.049 A 
ATOM     57  H   UNL A   1      40.672  32.390  31.143  1.00  0.00     0.167 HD
ATOM     58  C   UNL A   1      43.655  31.568  34.441  1.00  0.00     0.037 A 
ATOM     59  C   UNL A   1      38.048  32.735  30.398  1.00  0.00     0.037 A 
ATOM     60  C   UNL A   1      43.652  30.393  33.602  1.00  0.00     0.049 A 
ATOM     61  C   UNL A   1      38.451  31.515  31.151  1.00  0.00     0.074 A 
ATOM     62  C   UNL A   1      44.548  29.841  32.705  1.00  0.00     0.029 A 
ATOM     63  N   UNL A   1      42.438  29.811  33.325  1.00  0.00    -0.354 N 
ATOM     64  N   UNL A   1      39.083  30.506  30.610  1.00  0.00    -0.248 NA
ATOM     65  C   UNL A   1      38.591  31.629  32.596  1.00  0.00     0.031 C 
ATOM     66  C   UNL A   1      43.745  29.318  31.650  1.00  0.00     0.029 A 
ATOM     67  C   UNL A   1      42.404  29.514  31.986  1.00  0.00     0.049 A 
ATOM     68  H   UNL A   1      41.718  29.638  33.973  1.00  0.00     0.167 HD
ATOM     69  C   UNL A   1      40.022  30.118  31.558  1.00  0.00     0.074 A 
ATOM     70  C   UNL A   1      39.616  30.793  32.789  1.00  0.00     0.031 C 
ATOM     71  C   UNL A   1      41.196  29.526  31.186  1.00  0.00     0.037 A 
BRANCH  58  72
ATOM     72  C   UNL A   1      43.037  31.588  35.828  1.00  0.00     0.058 A 
ATOM     73  C   UNL A   1      41.792  32.228  35.999  1.00  0.00     0.135 A 
ATOM     74  C   UNL A   1      43.724  31.283  37.029  1.00  0.00     0.135 A 
ATOM     75  F   UNL A   1      41.036  32.545  34.937  1.00  0.00    -0.206 F 
ATOM     76  C   UNL A   1      41.329  32.642  37.249  1.00  0.00     0.059 A 
ATOM     77  C   UNL A   1      43.256  31.642  38.286  1.00  0.00     0.059 A 
ATOM     78  F   UNL A   1      44.926  30.702  37.062  1.00  0.00    -0.206 F 
ATOM     79  C   UNL A   1      42.084  32.368  38.383  1.00  0.00     0.060 A 
BRANCH  79  80
ATOM     80  S   UNL A   1      41.565  33.015  39.978  1.00  0.00     0.124 S 
ATOM     81  O   UNL A   1      42.721  32.694  40.806  1.00  0.00    -0.237 OA
ATOM     82  O   UNL A   1      41.362  34.428  39.676  1.00  0.00    -0.237 OA
ATOM     83  O   UNL A   1      40.349  32.260  40.268  1.00  0.00    -0.744 OA
ENDBRANCH  79  80
ENDBRANCH  58  72
BRANCH  59  84
ATOM     84  C   UNL A   1      36.684  33.328  30.484  1.00  0.00     0.058 A 
ATOM     85  C   UNL A   1      36.209  33.924  31.667  1.00  0.00     0.135 A 
ATOM     86  C   UNL A   1      35.908  33.554  29.327  1.00  0.00     0.135 A 
ATOM     87  F   UNL A   1      36.898  33.793  32.810  1.00  0.00    -0.206 F 
ATOM     88  C   UNL A   1      35.050  34.714  31.695  1.00  0.00     0.059 A 
ATOM     89  C   UNL A   1      34.746  34.327  29.334  1.00  0.00     0.059 A 
ATOM     90  F   UNL A   1      36.302  33.100  28.129  1.00  0.00    -0.206 F 
ATOM     91  C   UNL A   1      34.332  34.920  30.518  1.00  0.00     0.060 A 
BRANCH  91  92
ATOM     92  S   UNL A   1      32.914  36.046  30.514  1.00  0.00     0.124 S 
ATOM     93  O   UNL A   1      32.484  35.985  29.120  1.00  0.00    -0.237 OA
ATOM     94  O   UNL A   1      32.021  35.424  31.484  1.00  0.00    -0.237 OA
ATOM     95  O   UNL A   1      33.492  37.322  30.930  1.00  0.00    -0.744 OA
ENDBRANCH  91  92
ENDBRANCH  59  84
BRANCH  71  96
ATOM     96  C   UNL A   1      41.331  29.042  29.762  1.00  0.00     0.058 A 
ATOM     97  C   UNL A   1      41.940  29.776  28.727  1.00  0.00     0.135 A 
ATOM     98  C   UNL A   1      40.975  27.717  29.478  1.00  0.00     0.135 A 
ATOM     99  F   UNL A   1      42.403  31.014  28.940  1.00  0.00    -0.206 F 
ATOM    100  C   UNL A   1      42.155  29.226  27.460  1.00  0.00     0.059 A 
ATOM    101  C   UNL A   1      41.207  27.137  28.232  1.00  0.00     0.059 A 
ATOM    102  F   UNL A   1      40.447  26.942  30.440  1.00  0.00    -0.206 F 
ATOM    103  C   UNL A   1      41.789  27.902  27.224  1.00  0.00     0.060 A 
BRANCH 103 104
ATOM    104  S   UNL A   1      42.148  27.162  25.616  1.00  0.00     0.124 S 
ATOM    105  O   UNL A   1      43.386  26.436  25.880  1.00  0.00    -0.237 OA
ATOM    106  O   UNL A   1      40.968  26.336  25.375  1.00  0.00    -0.237 OA
ATOM    107  O   UNL A   1      42.279  28.317  24.730  1.00  0.00    -0.744 OA
ENDBRANCH 103 104
ENDBRANCH  71  96
ENDBRANCH  45  46
ENDBRANCH  38  40
ENDBRANCH  37  38
ENDBRANCH   1  37
TORSDOF 18
ENDMDL
