MODEL 1
REMARK VINA RESULT:     -11.8      0.000      0.000
REMARK SMILES COc1ccc(-c2ncn(CC(=O)OCCOC(=O)c3ccc(-c4c5nc(c(-c6c(F)cc(S(=O)(=O)[O-])cc6F)c6ccc([nH]6)c(-c6c(F)cc(S(=O)(=O)[O-])cc6F)c6nc(c(-c7c(F)cc(S(=O)(=O)[O-])cc7F)c7ccc4[nH]7)C=C6)C=C5)cc3)c2-c2ccc(OC)cc2)cc1
REMARK SMILES IDX 15 1 14 2 12 3 13 4 11 5 10 6 7 7 8 8 86 9 9 10 6 11 3 12
REMARK SMILES IDX 4 13 96 14 5 15 95 16 2 17 1 18 87 19 88 20 94 21 89 22
REMARK SMILES IDX 93 23 90 24 91 25 92 26 16 27 17 28 18 29 19 30 20 31 21 32
REMARK SMILES IDX 85 33 22 34 84 35 23 36 24 37 25 38 78 39 26 40 83 41 77 42
REMARK SMILES IDX 79 43 27 44 82 45 76 46 75 47 28 49 62 50 41 51 61 52 42 53
REMARK SMILES IDX 45 54 60 55 80 56 43 57 44 58 59 60 81 61 46 62 29 63 30 64
REMARK SMILES IDX 39 65 31 66 32 67 38 68 40 69 33 70 34 71 35 72 36 73 37 74
REMARK SMILES IDX 63 75 64 76 73 77 65 78 66 79 72 80 74 81 67 82 68 83 69 84
REMARK SMILES IDX 70 85 71 86 47 87 48 88 57 89 49 90 50 91 56 92 58 93 51 94
REMARK SMILES IDX 52 95 53 96 54 97 55 98
REMARK H PARENT 79 48 45 59
REMARK Flexibility Score: inf
ROOT
ATOM      1  C   UNL A   1      35.226  21.415  24.545  1.00  0.00     0.274 C 
ENDROOT
BRANCH   1   2
ATOM      2  O   UNL A   1      34.638  22.487  23.807  1.00  0.00    -0.461 OA
BRANCH   2   3
ATOM      3  C   UNL A   1      33.297  22.413  23.635  1.00  0.00     0.326 C 
ATOM      4  O   UNL A   1      32.644  21.378  23.727  1.00  0.00    -0.250 OA
BRANCH   3   5
ATOM      5  C   UNL A   1      32.691  23.773  23.460  1.00  0.00     0.246 C 
BRANCH   5   6
ATOM      6  N   UNL A   1      32.433  24.533  24.674  1.00  0.00    -0.319 N 
ATOM      7  C   UNL A   1      32.739  26.198  26.053  1.00  0.00     0.096 A 
ATOM      8  N   UNL A   1      33.080  25.055  26.736  1.00  0.00    -0.236 NA
ATOM      9  C   UNL A   1      32.222  25.895  24.796  1.00  0.00     0.076 A 
ATOM     10  C   UNL A   1      32.822  24.072  25.908  1.00  0.00     0.201 A 
BRANCH   7  11
ATOM     11  C   UNL A   1      32.997  27.539  26.557  1.00  0.00     0.003 A 
ATOM     12  C   UNL A   1      33.502  30.231  27.157  1.00  0.00     0.118 A 
ATOM     13  C   UNL A   1      32.219  29.710  27.305  1.00  0.00     0.047 A 
ATOM     14  C   UNL A   1      34.548  29.399  26.761  1.00  0.00     0.047 A 
ATOM     15  C   UNL A   1      31.966  28.369  27.014  1.00  0.00     0.014 A 
ATOM     16  C   UNL A   1      34.295  28.057  26.459  1.00  0.00     0.014 A 
BRANCH  12  17
ATOM     17  O   UNL A   1      33.654  31.547  27.485  1.00  0.00    -0.497 OA
ATOM     18  C   UNL A   1      34.273  31.780  28.749  1.00  0.00     0.278 C 
ENDBRANCH  12  17
ENDBRANCH   7  11
BRANCH   9  19
ATOM     19  C   UNL A   1      31.607  26.783  23.813  1.00  0.00     0.001 A 
ATOM     20  C   UNL A   1      30.213  26.888  23.751  1.00  0.00     0.014 A 
ATOM     21  C   UNL A   1      32.370  27.711  23.110  1.00  0.00     0.014 A 
ATOM     22  C   UNL A   1      29.590  27.837  22.943  1.00  0.00     0.047 A 
ATOM     23  C   UNL A   1      31.742  28.711  22.361  1.00  0.00     0.047 A 
ATOM     24  C   UNL A   1      30.355  28.733  22.223  1.00  0.00     0.118 A 
BRANCH  24  25
ATOM     25  O   UNL A   1      29.702  29.732  21.563  1.00  0.00    -0.497 OA
ATOM     26  C   UNL A   1      28.527  30.200  22.225  1.00  0.00     0.278 C 
ENDBRANCH  24  25
ENDBRANCH   9  19
ENDBRANCH   5   6
ENDBRANCH   3   5
ENDBRANCH   2   3
ENDBRANCH   1   2
BRANCH   1  27
ATOM     27  C   UNL A   1      35.998  21.980  25.730  1.00  0.00     0.275 C 
BRANCH  27  28
ATOM     28  O   UNL A   1      37.315  22.528  25.512  1.00  0.00    -0.458 OA
BRANCH  28  29
ATOM     29  C   UNL A   1      38.510  22.037  25.911  1.00  0.00     0.338 C 
ATOM     30  O   UNL A   1      38.847  20.876  26.056  1.00  0.00    -0.246 OA
BRANCH  29  31
ATOM     31  C   UNL A   1      39.304  23.238  26.275  1.00  0.00     0.060 A 
ATOM     32  C   UNL A   1      40.603  23.132  26.784  1.00  0.00     0.016 A 
ATOM     33  C   UNL A   1      38.642  24.464  26.318  1.00  0.00     0.016 A 
ATOM     34  C   UNL A   1      41.139  24.197  27.531  1.00  0.00     0.010 A 
ATOM     35  C   UNL A   1      39.157  25.489  27.094  1.00  0.00     0.010 A 
ATOM     36  C   UNL A   1      40.357  25.329  27.801  1.00  0.00    -0.014 A 
BRANCH  36  37
ATOM     37  C   UNL A   1      40.850  26.494  28.570  1.00  0.00     0.031 A 
ATOM     38  C   UNL A   1      42.060  27.051  27.939  1.00  0.00     0.074 A 
ATOM     39  C   UNL A   1      40.207  27.209  29.533  1.00  0.00     0.049 A 
ATOM     40  N   UNL A   1      43.252  27.043  28.437  1.00  0.00    -0.248 NA
ATOM     41  C   UNL A   1      41.991  27.493  26.536  1.00  0.00     0.031 C 
ATOM     42  C   UNL A   1      38.973  26.879  30.219  1.00  0.00     0.029 A 
ATOM     43  N   UNL A   1      40.436  28.475  30.029  1.00  0.00    -0.354 N 
ATOM     44  C   UNL A   1      43.990  27.781  27.528  1.00  0.00     0.074 A 
ATOM     45  C   UNL A   1      43.276  27.739  26.280  1.00  0.00     0.031 C 
ATOM     46  C   UNL A   1      38.370  27.970  30.723  1.00  0.00     0.029 A 
ATOM     47  C   UNL A   1      39.300  29.066  30.606  1.00  0.00     0.049 A 
ATOM     48  H   UNL A   1      41.312  28.921  29.984  1.00  0.00     0.167 HD
ATOM     49  C   UNL A   1      44.849  28.735  27.967  1.00  0.00     0.037 A 
ATOM     50  C   UNL A   1      39.103  30.321  31.083  1.00  0.00     0.037 A 
ATOM     51  C   UNL A   1      45.136  28.604  29.373  1.00  0.00     0.049 A 
ATOM     52  C   UNL A   1      40.431  30.832  31.456  1.00  0.00     0.074 A 
ATOM     53  C   UNL A   1      45.682  27.634  30.188  1.00  0.00     0.029 A 
ATOM     54  N   UNL A   1      44.474  29.487  30.186  1.00  0.00    -0.354 N 
ATOM     55  N   UNL A   1      41.110  30.373  32.470  1.00  0.00    -0.248 NA
ATOM     56  C   UNL A   1      41.177  31.657  30.518  1.00  0.00     0.031 C 
ATOM     57  C   UNL A   1      45.150  27.856  31.490  1.00  0.00     0.029 A 
ATOM     58  C   UNL A   1      44.313  28.967  31.444  1.00  0.00     0.049 A 
ATOM     59  H   UNL A   1      44.158  30.375  29.904  1.00  0.00     0.167 HD
ATOM     60  C   UNL A   1      42.418  30.444  32.044  1.00  0.00     0.074 A 
ATOM     61  C   UNL A   1      42.414  31.417  30.961  1.00  0.00     0.031 C 
ATOM     62  C   UNL A   1      43.286  29.440  32.349  1.00  0.00     0.037 A 
BRANCH  49  63
ATOM     63  C   UNL A   1      45.033  30.044  27.240  1.00  0.00     0.058 A 
ATOM     64  C   UNL A   1      46.323  30.442  26.862  1.00  0.00     0.135 A 
ATOM     65  C   UNL A   1      44.023  31.029  27.126  1.00  0.00     0.135 A 
ATOM     66  F   UNL A   1      47.359  29.601  26.999  1.00  0.00    -0.206 F 
ATOM     67  C   UNL A   1      46.591  31.731  26.400  1.00  0.00     0.059 A 
ATOM     68  C   UNL A   1      44.250  32.289  26.599  1.00  0.00     0.059 A 
ATOM     69  F   UNL A   1      42.790  30.852  27.619  1.00  0.00    -0.206 F 
ATOM     70  C   UNL A   1      45.545  32.644  26.269  1.00  0.00     0.060 A 
BRANCH  70  71
ATOM     71  S   UNL A   1      45.888  34.324  25.725  1.00  0.00     0.124 S 
ATOM     72  O   UNL A   1      45.085  34.400  24.511  1.00  0.00    -0.237 OA
ATOM     73  O   UNL A   1      45.418  35.112  26.859  1.00  0.00    -0.237 OA
ATOM     74  O   UNL A   1      47.335  34.321  25.531  1.00  0.00    -0.744 OA
ENDBRANCH  70  71
ENDBRANCH  49  63
BRANCH  50  75
ATOM     75  C   UNL A   1      37.868  31.144  31.218  1.00  0.00     0.058 A 
ATOM     76  C   UNL A   1      36.939  30.880  32.244  1.00  0.00     0.135 A 
ATOM     77  C   UNL A   1      37.723  32.381  30.558  1.00  0.00     0.135 A 
ATOM     78  F   UNL A   1      36.983  29.722  32.919  1.00  0.00    -0.206 F 
ATOM     79  C   UNL A   1      36.001  31.826  32.666  1.00  0.00     0.059 A 
ATOM     80  C   UNL A   1      36.784  33.337  30.955  1.00  0.00     0.059 A 
ATOM     81  F   UNL A   1      38.559  32.737  29.571  1.00  0.00    -0.206 F 
ATOM     82  C   UNL A   1      35.958  33.070  32.042  1.00  0.00     0.060 A 
BRANCH  82  83
ATOM     83  S   UNL A   1      34.944  34.381  32.772  1.00  0.00     0.124 S 
ATOM     84  O   UNL A   1      35.824  35.540  32.672  1.00  0.00    -0.237 OA
ATOM     85  O   UNL A   1      33.778  34.388  31.897  1.00  0.00    -0.237 OA
ATOM     86  O   UNL A   1      34.696  33.899  34.129  1.00  0.00    -0.744 OA
ENDBRANCH  82  83
ENDBRANCH  50  75
BRANCH  62  87
ATOM     87  C   UNL A   1      43.051  28.682  33.628  1.00  0.00     0.058 A 
ATOM     88  C   UNL A   1      43.484  29.073  34.907  1.00  0.00     0.135 A 
ATOM     89  C   UNL A   1      42.282  27.511  33.542  1.00  0.00     0.135 A 
ATOM     90  F   UNL A   1      44.147  30.224  35.092  1.00  0.00    -0.206 F 
ATOM     91  C   UNL A   1      43.206  28.302  36.042  1.00  0.00     0.059 A 
ATOM     92  C   UNL A   1      41.967  26.747  34.660  1.00  0.00     0.059 A 
ATOM     93  F   UNL A   1      41.798  27.110  32.354  1.00  0.00    -0.206 F 
ATOM     94  C   UNL A   1      42.453  27.136  35.905  1.00  0.00     0.060 A 
BRANCH  94  95
ATOM     95  S   UNL A   1      42.051  26.150  37.363  1.00  0.00     0.124 S 
ATOM     96  O   UNL A   1      40.714  26.626  37.698  1.00  0.00    -0.237 OA
ATOM     97  O   UNL A   1      42.131  24.784  36.858  1.00  0.00    -0.237 OA
ATOM     98  O   UNL A   1      43.102  26.509  38.314  1.00  0.00    -0.744 OA
ENDBRANCH  94  95
ENDBRANCH  62  87
ENDBRANCH  36  37
ENDBRANCH  29  31
ENDBRANCH  28  29
ENDBRANCH  27  28
ENDBRANCH   1  27
TORSDOF 19
ENDMDL
MODEL 2
REMARK VINA RESULT:     -11.7      2.726      9.192
REMARK SMILES COc1ccc(-c2ncn(CC(=O)OCCOC(=O)c3ccc(-c4c5nc(c(-c6c(F)cc(S(=O)(=O)[O-])cc6F)c6ccc([nH]6)c(-c6c(F)cc(S(=O)(=O)[O-])cc6F)c6nc(c(-c7c(F)cc(S(=O)(=O)[O-])cc7F)c7ccc4[nH]7)C=C6)C=C5)cc3)c2-c2ccc(OC)cc2)cc1
REMARK SMILES IDX 15 1 14 2 12 3 13 4 11 5 10 6 7 7 8 8 86 9 9 10 6 11 3 12
REMARK SMILES IDX 4 13 96 14 5 15 95 16 2 17 1 18 87 19 88 20 94 21 89 22
REMARK SMILES IDX 93 23 90 24 91 25 92 26 16 27 17 28 18 29 19 30 20 31 21 32
REMARK SMILES IDX 85 33 22 34 84 35 23 36 24 37 25 38 78 39 26 40 83 41 77 42
REMARK SMILES IDX 79 43 27 44 82 45 76 46 75 47 28 49 62 50 41 51 61 52 42 53
REMARK SMILES IDX 45 54 60 55 80 56 43 57 44 58 59 60 81 61 46 62 29 63 30 64
REMARK SMILES IDX 39 65 31 66 32 67 38 68 40 69 33 70 34 71 35 72 36 73 37 74
REMARK SMILES IDX 63 75 64 76 73 77 65 78 66 79 72 80 74 81 67 82 68 83 69 84
REMARK SMILES IDX 70 85 71 86 47 87 48 88 57 89 49 90 50 91 56 92 58 93 51 94
REMARK SMILES IDX 52 95 53 96 54 97 55 98
REMARK H PARENT 79 48 45 59
REMARK Flexibility Score: inf
ROOT
ATOM      1  C   UNL A   1      31.508  28.908  25.659  1.00  0.00     0.274 C 
ENDROOT
BRANCH   1   2
ATOM      2  O   UNL A   1      31.919  28.196  24.491  1.00  0.00    -0.461 OA
BRANCH   2   3
ATOM      3  C   UNL A   1      31.058  28.238  23.447  1.00  0.00     0.326 C 
ATOM      4  O   UNL A   1      30.771  29.257  22.827  1.00  0.00    -0.250 OA
BRANCH   3   5
ATOM      5  C   UNL A   1      30.610  26.863  23.051  1.00  0.00     0.246 C 
BRANCH   5   6
ATOM      6  N   UNL A   1      31.651  25.921  22.669  1.00  0.00    -0.319 N 
ATOM      7  C   UNL A   1      33.578  24.922  22.899  1.00  0.00     0.096 A 
ATOM      8  N   UNL A   1      33.627  25.597  21.703  1.00  0.00    -0.236 NA
ATOM      9  C   UNL A   1      32.313  25.012  23.475  1.00  0.00     0.076 A 
ATOM     10  C   UNL A   1      32.437  26.128  21.562  1.00  0.00     0.201 A 
BRANCH   7  11
ATOM     11  C   UNL A   1      34.740  24.297  23.513  1.00  0.00     0.003 A 
ATOM     12  C   UNL A   1      36.726  22.891  24.909  1.00  0.00     0.118 A 
ATOM     13  C   UNL A   1      36.400  22.530  23.603  1.00  0.00     0.047 A 
ATOM     14  C   UNL A   1      36.101  23.986  25.503  1.00  0.00     0.047 A 
ATOM     15  C   UNL A   1      35.417  23.234  22.903  1.00  0.00     0.014 A 
ATOM     16  C   UNL A   1      35.109  24.685  24.808  1.00  0.00     0.014 A 
BRANCH  12  17
ATOM     17  O   UNL A   1      37.712  22.158  25.502  1.00  0.00    -0.497 OA
ATOM     18  C   UNL A   1      38.579  22.903  26.355  1.00  0.00     0.278 C 
ENDBRANCH  12  17
ENDBRANCH   7  11
BRANCH   9  19
ATOM     19  C   UNL A   1      31.785  24.332  24.653  1.00  0.00     0.001 A 
ATOM     20  C   UNL A   1      31.449  25.074  25.790  1.00  0.00     0.014 A 
ATOM     21  C   UNL A   1      31.375  23.003  24.589  1.00  0.00     0.014 A 
ATOM     22  C   UNL A   1      30.795  24.491  26.873  1.00  0.00     0.047 A 
ATOM     23  C   UNL A   1      30.651  22.441  25.645  1.00  0.00     0.047 A 
ATOM     24  C   UNL A   1      30.421  23.164  26.815  1.00  0.00     0.118 A 
BRANCH  24  25
ATOM     25  O   UNL A   1      29.658  22.678  27.836  1.00  0.00    -0.497 OA
ATOM     26  C   UNL A   1      28.376  22.197  27.431  1.00  0.00     0.278 C 
ENDBRANCH  24  25
ENDBRANCH   9  19
ENDBRANCH   5   6
ENDBRANCH   3   5
ENDBRANCH   2   3
ENDBRANCH   1   2
BRANCH   1  27
ATOM     27  C   UNL A   1      32.473  30.056  25.919  1.00  0.00     0.275 C 
BRANCH  27  28
ATOM     28  O   UNL A   1      33.030  30.220  27.240  1.00  0.00    -0.458 OA
BRANCH  28  29
ATOM     29  C   UNL A   1      33.663  31.294  27.761  1.00  0.00     0.338 C 
ATOM     30  O   UNL A   1      33.191  32.355  28.127  1.00  0.00    -0.246 OA
BRANCH  29  31
ATOM     31  C   UNL A   1      35.107  30.958  27.667  1.00  0.00     0.060 A 
ATOM     32  C   UNL A   1      35.542  29.647  27.447  1.00  0.00     0.016 A 
ATOM     33  C   UNL A   1      36.026  31.940  28.034  1.00  0.00     0.016 A 
ATOM     34  C   UNL A   1      36.851  29.285  27.814  1.00  0.00     0.010 A 
ATOM     35  C   UNL A   1      37.297  31.566  28.437  1.00  0.00     0.010 A 
ATOM     36  C   UNL A   1      37.689  30.220  28.438  1.00  0.00    -0.014 A 
BRANCH  36  37
ATOM     37  C   UNL A   1      39.081  29.920  28.846  1.00  0.00     0.031 A 
ATOM     38  C   UNL A   1      39.196  29.913  30.315  1.00  0.00     0.074 A 
ATOM     39  C   UNL A   1      40.096  29.417  28.092  1.00  0.00     0.049 A 
ATOM     40  N   UNL A   1      39.859  30.759  31.032  1.00  0.00    -0.248 NA
ATOM     41  C   UNL A   1      38.342  28.997  31.091  1.00  0.00     0.031 C 
ATOM     42  C   UNL A   1      40.151  29.264  26.651  1.00  0.00     0.029 A 
ATOM     43  N   UNL A   1      41.272  28.793  28.452  1.00  0.00    -0.354 N 
ATOM     44  C   UNL A   1      39.752  30.253  32.316  1.00  0.00     0.074 A 
ATOM     45  C   UNL A   1      38.586  29.409  32.335  1.00  0.00     0.031 C 
ATOM     46  C   UNL A   1      41.036  28.323  26.278  1.00  0.00     0.029 A 
ATOM     47  C   UNL A   1      41.799  27.964  27.448  1.00  0.00     0.049 A 
ATOM     48  H   UNL A   1      41.701  28.916  29.329  1.00  0.00     0.167 HD
ATOM     49  C   UNL A   1      40.849  30.179  33.110  1.00  0.00     0.037 A 
ATOM     50  C   UNL A   1      42.853  27.111  27.470  1.00  0.00     0.037 A 
ATOM     51  C   UNL A   1      41.937  30.981  32.612  1.00  0.00     0.049 A 
ATOM     52  C   UNL A   1      43.752  27.594  28.529  1.00  0.00     0.074 A 
ATOM     53  C   UNL A   1      42.138  32.318  32.335  1.00  0.00     0.029 A 
ATOM     54  N   UNL A   1      42.928  30.285  31.972  1.00  0.00    -0.354 N 
ATOM     55  N   UNL A   1      44.436  28.700  28.431  1.00  0.00    -0.248 NA
ATOM     56  C   UNL A   1      43.673  27.016  29.863  1.00  0.00     0.031 C 
ATOM     57  C   UNL A   1      43.157  32.375  31.343  1.00  0.00     0.029 A 
ATOM     58  C   UNL A   1      43.570  31.077  31.055  1.00  0.00     0.049 A 
ATOM     59  H   UNL A   1      43.149  29.342  32.147  1.00  0.00     0.167 HD
ATOM     60  C   UNL A   1      44.451  29.187  29.719  1.00  0.00     0.074 A 
ATOM     61  C   UNL A   1      44.169  28.037  30.566  1.00  0.00     0.031 C 
ATOM     62  C   UNL A   1      44.309  30.525  29.940  1.00  0.00     0.037 A 
BRANCH  49  63
ATOM     63  C   UNL A   1      41.084  29.019  34.045  1.00  0.00     0.058 A 
ATOM     64  C   UNL A   1      41.267  29.268  35.414  1.00  0.00     0.135 A 
ATOM     65  C   UNL A   1      41.384  27.705  33.610  1.00  0.00     0.135 A 
ATOM     66  F   UNL A   1      41.077  30.500  35.909  1.00  0.00    -0.206 F 
ATOM     67  C   UNL A   1      41.716  28.279  36.289  1.00  0.00     0.059 A 
ATOM     68  C   UNL A   1      41.756  26.688  34.473  1.00  0.00     0.059 A 
ATOM     69  F   UNL A   1      41.432  27.374  32.313  1.00  0.00    -0.206 F 
ATOM     70  C   UNL A   1      41.952  26.992  35.808  1.00  0.00     0.060 A 
BRANCH  70  71
ATOM     71  S   UNL A   1      42.581  25.724  36.917  1.00  0.00     0.124 S 
ATOM     72  O   UNL A   1      43.721  25.223  36.161  1.00  0.00    -0.237 OA
ATOM     73  O   UNL A   1      42.891  26.495  38.116  1.00  0.00    -0.237 OA
ATOM     74  O   UNL A   1      41.451  24.807  37.047  1.00  0.00    -0.744 OA
ENDBRANCH  70  71
ENDBRANCH  49  63
BRANCH  50  75
ATOM     75  C   UNL A   1      43.146  25.883  26.678  1.00  0.00     0.058 A 
ATOM     76  C   UNL A   1      43.918  25.955  25.502  1.00  0.00     0.135 A 
ATOM     77  C   UNL A   1      42.950  24.591  27.209  1.00  0.00     0.135 A 
ATOM     78  F   UNL A   1      44.146  27.137  24.910  1.00  0.00    -0.206 F 
ATOM     79  C   UNL A   1      44.552  24.838  24.952  1.00  0.00     0.059 A 
ATOM     80  C   UNL A   1      43.563  23.458  26.667  1.00  0.00     0.059 A 
ATOM     81  F   UNL A   1      42.238  24.408  28.330  1.00  0.00    -0.206 F 
ATOM     82  C   UNL A   1      44.402  23.597  25.566  1.00  0.00     0.060 A 
BRANCH  82  83
ATOM     83  S   UNL A   1      45.442  22.219  25.020  1.00  0.00     0.124 S 
ATOM     84  O   UNL A   1      46.269  22.847  23.995  1.00  0.00    -0.237 OA
ATOM     85  O   UNL A   1      46.129  21.847  26.252  1.00  0.00    -0.237 OA
ATOM     86  O   UNL A   1      44.475  21.240  24.531  1.00  0.00    -0.744 OA
ENDBRANCH  82  83
ENDBRANCH  50  75
BRANCH  62  87
ATOM     87  C   UNL A   1      44.812  31.461  28.875  1.00  0.00     0.058 A 
ATOM     88  C   UNL A   1      44.135  31.797  27.689  1.00  0.00     0.135 A 
ATOM     89  C   UNL A   1      46.039  32.098  29.114  1.00  0.00     0.135 A 
ATOM     90  F   UNL A   1      42.917  31.304  27.424  1.00  0.00    -0.206 F 
ATOM     91  C   UNL A   1      44.684  32.689  26.761  1.00  0.00     0.059 A 
ATOM     92  C   UNL A   1      46.588  33.011  28.221  1.00  0.00     0.059 A 
ATOM     93  F   UNL A   1      46.712  31.855  30.253  1.00  0.00    -0.206 F 
ATOM     94  C   UNL A   1      45.915  33.284  27.034  1.00  0.00     0.060 A 
BRANCH  94  95
ATOM     95  S   UNL A   1      46.620  34.468  25.867  1.00  0.00     0.124 S 
ATOM     96  O   UNL A   1      46.484  35.729  26.587  1.00  0.00    -0.237 OA
ATOM     97  O   UNL A   1      47.983  33.978  25.696  1.00  0.00    -0.237 OA
ATOM     98  O   UNL A   1      45.769  34.326  24.686  1.00  0.00    -0.744 OA
ENDBRANCH  94  95
ENDBRANCH  62  87
ENDBRANCH  36  37
ENDBRANCH  29  31
ENDBRANCH  28  29
ENDBRANCH  27  28
ENDBRANCH   1  27
TORSDOF 19
ENDMDL
MODEL 3
REMARK VINA RESULT:     -11.6      2.588      4.960
REMARK SMILES COc1ccc(-c2ncn(CC(=O)OCCOC(=O)c3ccc(-c4c5nc(c(-c6c(F)cc(S(=O)(=O)[O-])cc6F)c6ccc([nH]6)c(-c6c(F)cc(S(=O)(=O)[O-])cc6F)c6nc(c(-c7c(F)cc(S(=O)(=O)[O-])cc7F)c7ccc4[nH]7)C=C6)C=C5)cc3)c2-c2ccc(OC)cc2)cc1
REMARK SMILES IDX 15 1 14 2 12 3 13 4 11 5 10 6 7 7 8 8 86 9 9 10 6 11 3 12
REMARK SMILES IDX 4 13 96 14 5 15 95 16 2 17 1 18 87 19 88 20 94 21 89 22
REMARK SMILES IDX 93 23 90 24 91 25 92 26 16 27 17 28 18 29 19 30 20 31 21 32
REMARK SMILES IDX 85 33 22 34 84 35 23 36 24 37 25 38 78 39 26 40 83 41 77 42
REMARK SMILES IDX 79 43 27 44 82 45 76 46 75 47 28 49 62 50 41 51 61 52 42 53
REMARK SMILES IDX 45 54 60 55 80 56 43 57 44 58 59 60 81 61 46 62 29 63 30 64
REMARK SMILES IDX 39 65 31 66 32 67 38 68 40 69 33 70 34 71 35 72 36 73 37 74
REMARK SMILES IDX 63 75 64 76 73 77 65 78 66 79 72 80 74 81 67 82 68 83 69 84
REMARK SMILES IDX 70 85 71 86 47 87 48 88 57 89 49 90 50 91 56 92 58 93 51 94
REMARK SMILES IDX 52 95 53 96 54 97 55 98
REMARK H PARENT 79 48 45 59
REMARK Flexibility Score: inf
ROOT
ATOM      1  C   UNL A   1      41.801  19.817  27.129  1.00  0.00     0.274 C 
ENDROOT
BRANCH   1   2
ATOM      2  O   UNL A   1      40.469  19.915  26.620  1.00  0.00    -0.461 OA
BRANCH   2   3
ATOM      3  C   UNL A   1      40.008  21.173  26.427  1.00  0.00     0.326 C 
ATOM      4  O   UNL A   1      40.654  22.191  26.657  1.00  0.00    -0.250 OA
BRANCH   3   5
ATOM      5  C   UNL A   1      38.663  21.168  25.763  1.00  0.00     0.246 C 
BRANCH   5   6
ATOM      6  N   UNL A   1      37.800  22.309  26.028  1.00  0.00    -0.319 N 
ATOM      7  C   UNL A   1      36.282  23.789  25.505  1.00  0.00     0.096 A 
ATOM      8  N   UNL A   1      37.435  24.487  25.774  1.00  0.00    -0.236 NA
ATOM      9  C   UNL A   1      36.447  22.431  25.766  1.00  0.00     0.076 A 
ATOM     10  C   UNL A   1      38.304  23.581  26.148  1.00  0.00     0.201 A 
BRANCH   7  11
ATOM     11  C   UNL A   1      35.095  24.396  24.922  1.00  0.00     0.003 A 
ATOM     12  C   UNL A   1      33.030  25.876  23.734  1.00  0.00     0.118 A 
ATOM     13  C   UNL A   1      33.670  24.867  23.017  1.00  0.00     0.047 A 
ATOM     14  C   UNL A   1      33.381  26.114  25.062  1.00  0.00     0.047 A 
ATOM     15  C   UNL A   1      34.693  24.124  23.609  1.00  0.00     0.014 A 
ATOM     16  C   UNL A   1      34.413  25.378  25.653  1.00  0.00     0.014 A 
BRANCH  12  17
ATOM     17  O   UNL A   1      32.030  26.532  23.078  1.00  0.00    -0.497 OA
ATOM     18  C   UNL A   1      31.792  26.081  21.746  1.00  0.00     0.278 C 
ENDBRANCH  12  17
ENDBRANCH   7  11
BRANCH   9  19
ATOM     19  C   UNL A   1      35.451  21.363  25.760  1.00  0.00     0.001 A 
ATOM     20  C   UNL A   1      34.316  21.470  26.571  1.00  0.00     0.014 A 
ATOM     21  C   UNL A   1      35.475  20.365  24.789  1.00  0.00     0.014 A 
ATOM     22  C   UNL A   1      33.267  20.558  26.479  1.00  0.00     0.047 A 
ATOM     23  C   UNL A   1      34.387  19.499  24.648  1.00  0.00     0.047 A 
ATOM     24  C   UNL A   1      33.314  19.552  25.536  1.00  0.00     0.118 A 
BRANCH  24  25
ATOM     25  O   UNL A   1      32.203  18.774  25.387  1.00  0.00    -0.497 OA
ATOM     26  C   UNL A   1      32.481  17.386  25.203  1.00  0.00     0.278 C 
ENDBRANCH  24  25
ENDBRANCH   9  19
ENDBRANCH   5   6
ENDBRANCH   3   5
ENDBRANCH   2   3
ENDBRANCH   1   2
BRANCH   1  27
ATOM     27  C   UNL A   1      42.723  19.295  26.036  1.00  0.00     0.275 C 
BRANCH  27  28
ATOM     28  O   UNL A   1      43.166  20.198  25.001  1.00  0.00    -0.458 OA
BRANCH  28  29
ATOM     29  C   UNL A   1      44.430  20.508  24.636  1.00  0.00     0.338 C 
ATOM     30  O   UNL A   1      45.266  19.800  24.106  1.00  0.00    -0.246 OA
BRANCH  29  31
ATOM     31  C   UNL A   1      44.640  21.885  25.153  1.00  0.00     0.060 A 
ATOM     32  C   UNL A   1      45.647  22.175  26.079  1.00  0.00     0.016 A 
ATOM     33  C   UNL A   1      43.662  22.838  24.871  1.00  0.00     0.016 A 
ATOM     34  C   UNL A   1      45.537  23.328  26.877  1.00  0.00     0.010 A 
ATOM     35  C   UNL A   1      43.535  23.946  25.692  1.00  0.00     0.010 A 
ATOM     36  C   UNL A   1      44.403  24.147  26.775  1.00  0.00    -0.014 A 
BRANCH  36  37
ATOM     37  C   UNL A   1      44.217  25.381  27.572  1.00  0.00     0.031 A 
ATOM     38  C   UNL A   1      45.317  26.328  27.317  1.00  0.00     0.074 A 
ATOM     39  C   UNL A   1      43.102  25.809  28.225  1.00  0.00     0.049 A 
ATOM     40  N   UNL A   1      46.219  26.695  28.166  1.00  0.00    -0.248 NA
ATOM     41  C   UNL A   1      45.567  26.773  25.935  1.00  0.00     0.031 C 
ATOM     42  C   UNL A   1      41.889  25.066  28.507  1.00  0.00     0.029 A 
ATOM     43  N   UNL A   1      42.736  27.061  28.673  1.00  0.00    -0.354 N 
ATOM     44  C   UNL A   1      46.931  27.668  27.486  1.00  0.00     0.074 A 
ATOM     45  C   UNL A   1      46.713  27.438  26.082  1.00  0.00     0.031 C 
ATOM     46  C   UNL A   1      40.837  25.879  28.712  1.00  0.00     0.029 A 
ATOM     47  C   UNL A   1      41.348  27.224  28.814  1.00  0.00     0.049 A 
ATOM     48  H   UNL A   1      43.385  27.773  28.874  1.00  0.00     0.167 HD
ATOM     49  C   UNL A   1      47.244  28.835  28.102  1.00  0.00     0.037 A 
ATOM     50  C   UNL A   1      40.613  28.325  29.109  1.00  0.00     0.037 A 
ATOM     51  C   UNL A   1      47.086  28.755  29.531  1.00  0.00     0.049 A 
ATOM     52  C   UNL A   1      41.508  29.232  29.844  1.00  0.00     0.074 A 
ATOM     53  C   UNL A   1      47.622  27.992  30.548  1.00  0.00     0.029 A 
ATOM     54  N   UNL A   1      45.950  29.341  30.025  1.00  0.00    -0.354 N 
ATOM     55  N   UNL A   1      41.932  28.987  31.052  1.00  0.00    -0.248 NA
ATOM     56  C   UNL A   1      42.209  30.290  29.131  1.00  0.00     0.031 C 
ATOM     57  C   UNL A   1      46.656  27.979  31.593  1.00  0.00     0.029 A 
ATOM     58  C   UNL A   1      45.567  28.752  31.202  1.00  0.00     0.049 A 
ATOM     59  H   UNL A   1      45.473  30.085  29.591  1.00  0.00     0.167 HD
ATOM     60  C   UNL A   1      43.210  29.500  31.058  1.00  0.00     0.074 A 
ATOM     61  C   UNL A   1      43.243  30.455  29.960  1.00  0.00     0.031 C 
ATOM     62  C   UNL A   1      44.209  28.827  31.697  1.00  0.00     0.037 A 
BRANCH  49  63
ATOM     63  C   UNL A   1      47.220  30.156  27.374  1.00  0.00     0.058 A 
ATOM     64  C   UNL A   1      48.355  30.979  27.410  1.00  0.00     0.135 A 
ATOM     65  C   UNL A   1      46.042  30.750  26.859  1.00  0.00     0.135 A 
ATOM     66  F   UNL A   1      49.500  30.530  27.945  1.00  0.00    -0.206 F 
ATOM     67  C   UNL A   1      48.323  32.300  26.962  1.00  0.00     0.059 A 
ATOM     68  C   UNL A   1      46.006  32.032  26.338  1.00  0.00     0.059 A 
ATOM     69  F   UNL A   1      44.846  30.150  26.933  1.00  0.00    -0.206 F 
ATOM     70  C   UNL A   1      47.144  32.813  26.424  1.00  0.00     0.060 A 
BRANCH  70  71
ATOM     71  S   UNL A   1      47.076  34.530  25.893  1.00  0.00     0.124 S 
ATOM     72  O   UNL A   1      47.158  35.227  27.170  1.00  0.00    -0.237 OA
ATOM     73  O   UNL A   1      48.248  34.627  25.029  1.00  0.00    -0.237 OA
ATOM     74  O   UNL A   1      45.791  34.614  25.204  1.00  0.00    -0.744 OA
ENDBRANCH  70  71
ENDBRANCH  49  63
BRANCH  50  75
ATOM     75  C   UNL A   1      39.206  28.690  28.783  1.00  0.00     0.058 A 
ATOM     76  C   UNL A   1      38.214  28.687  29.784  1.00  0.00     0.135 A 
ATOM     77  C   UNL A   1      38.866  29.342  27.580  1.00  0.00     0.135 A 
ATOM     78  F   UNL A   1      38.435  28.077  30.958  1.00  0.00    -0.206 F 
ATOM     79  C   UNL A   1      37.010  29.382  29.648  1.00  0.00     0.059 A 
ATOM     80  C   UNL A   1      37.661  30.033  27.417  1.00  0.00     0.059 A 
ATOM     81  F   UNL A   1      39.738  29.412  26.564  1.00  0.00    -0.206 F 
ATOM     82  C   UNL A   1      36.759  30.088  28.474  1.00  0.00     0.060 A 
BRANCH  82  83
ATOM     83  S   UNL A   1      35.337  31.208  28.414  1.00  0.00     0.124 S 
ATOM     84  O   UNL A   1      35.177  31.574  29.817  1.00  0.00    -0.237 OA
ATOM     85  O   UNL A   1      35.818  32.265  27.530  1.00  0.00    -0.237 OA
ATOM     86  O   UNL A   1      34.274  30.374  27.859  1.00  0.00    -0.744 OA
ENDBRANCH  82  83
ENDBRANCH  50  75
BRANCH  62  87
ATOM     87  C   UNL A   1      43.830  27.989  32.888  1.00  0.00     0.058 A 
ATOM     88  C   UNL A   1      43.505  28.476  34.166  1.00  0.00     0.135 A 
ATOM     89  C   UNL A   1      43.740  26.603  32.689  1.00  0.00     0.135 A 
ATOM     90  F   UNL A   1      43.479  29.793  34.420  1.00  0.00    -0.206 F 
ATOM     91  C   UNL A   1      43.155  27.613  35.211  1.00  0.00     0.059 A 
ATOM     92  C   UNL A   1      43.364  25.731  33.704  1.00  0.00     0.059 A 
ATOM     93  F   UNL A   1      43.992  26.080  31.476  1.00  0.00    -0.206 F 
ATOM     94  C   UNL A   1      43.096  26.241  34.970  1.00  0.00     0.060 A 
BRANCH  94  95
ATOM     95  S   UNL A   1      42.608  25.116  36.296  1.00  0.00     0.124 S 
ATOM     96  O   UNL A   1      42.647  25.985  37.467  1.00  0.00    -0.237 OA
ATOM     97  O   UNL A   1      41.282  24.679  35.874  1.00  0.00    -0.237 OA
ATOM     98  O   UNL A   1      43.635  24.076  36.252  1.00  0.00    -0.744 OA
ENDBRANCH  94  95
ENDBRANCH  62  87
ENDBRANCH  36  37
ENDBRANCH  29  31
ENDBRANCH  28  29
ENDBRANCH  27  28
ENDBRANCH   1  27
TORSDOF 19
ENDMDL
