MODEL 1
REMARK VINA RESULT:     -14.2      0.000      0.000
REMARK SMILES Cc1ccc(NC(=O)C[C@@H](C(=O)OCCOC(=O)c2ccc(-c3c4nc(c(-c5c(F)cc(S(=O)(=O)[O-])cc5F)c5ccc([nH]5)c(-c5c(F)cc(S(=O)(=O)[O-])cc5F)c5nc(c(-c6c(F)cc(S(=O)(=O)[O-])cc6F)c6ccc3[nH]6)C=C5)C=C4)cc2)[NH+]2CCOCC2)cc1
REMARK SMILES IDX 14 1 13 2 11 3 12 4 10 5 9 6 7 7 6 8 8 10 5 11 1 12 2 13
REMARK SMILES IDX 3 14 92 15 4 16 91 17 85 18 86 19 90 20 87 22 89 23 88 24
REMARK SMILES IDX 15 25 16 26 17 27 18 28 19 29 20 30 84 31 21 32 83 33 22 34
REMARK SMILES IDX 23 35 24 36 77 37 25 38 82 39 76 40 78 41 26 42 81 43 75 44
REMARK SMILES IDX 74 45 27 47 61 48 40 49 60 50 41 51 44 52 59 53 79 54 42 55
REMARK SMILES IDX 43 56 58 58 80 59 45 60 28 61 29 62 38 63 30 64 31 65 37 66
REMARK SMILES IDX 39 67 32 68 33 69 34 70 35 71 36 72 62 73 63 74 72 75 64 76
REMARK SMILES IDX 65 77 71 78 73 79 66 80 67 81 68 82 69 83 70 84 46 85 47 86
REMARK SMILES IDX 56 87 48 88 49 89 55 90 57 91 50 92 51 93 52 94 53 95 54 96
REMARK H PARENT 6 9 85 21 78 46 44 57
REMARK Flexibility Score: inf
ROOT
ATOM      1  C   UNL A   1      33.910  26.636  25.249  1.00  0.00     0.274 C 
ENDROOT
BRANCH   1   2
ATOM      2  O   UNL A   1      33.066  26.173  23.752  1.00  0.00    -0.458 OA
BRANCH   2   3
ATOM      3  C   UNL A   1      33.249  25.029  22.961  1.00  0.00     0.365 C 
ATOM      4  O   UNL A   1      34.044  25.043  22.044  1.00  0.00    -0.245 OA
BRANCH   3   5
ATOM      5  C   UNL A   1      32.356  23.755  23.294  1.00  0.00     0.304 C 
BRANCH   5   6
ATOM      6  C   UNL A   1      30.877  24.103  23.534  1.00  0.00     0.177 C 
BRANCH   6   7
ATOM      7  C   UNL A   1      30.569  24.646  24.902  1.00  0.00     0.231 C 
ATOM      8  N   UNL A   1      30.261  25.956  25.110  1.00  0.00    -0.326 N 
ATOM      9  H   UNL A   1      30.465  26.295  26.012  1.00  0.00     0.169 HD
ATOM     10  O   UNL A   1      30.610  23.904  25.889  1.00  0.00    -0.274 OA
BRANCH   8  11
ATOM     11  C   UNL A   1      29.699  26.892  24.234  1.00  0.00     0.041 A 
ATOM     12  C   UNL A   1      27.748  31.165  22.236  1.00  0.00     0.044 C 
ATOM     13  C   UNL A   1      28.290  30.071  23.148  1.00  0.00    -0.051 A 
ATOM     14  C   UNL A   1      27.299  28.619  23.218  1.00  0.00     0.005 A 
ATOM     15  C   UNL A   1      29.937  29.919  23.557  1.00  0.00     0.005 A 
ATOM     16  C   UNL A   1      27.956  26.951  23.763  1.00  0.00     0.026 A 
ATOM     17  C   UNL A   1      30.643  28.394  24.079  1.00  0.00     0.026 A 
ENDBRANCH   8  11
ENDBRANCH   6   7
ENDBRANCH   5   6
BRANCH   5  18
ATOM     18  N   UNL A   1      32.841  22.720  24.372  1.00  0.00    -0.319 N 
ATOM     19  C   UNL A   1      32.663  21.280  24.083  1.00  0.00     0.291 C 
ATOM     20  C   UNL A   1      34.194  22.893  24.969  1.00  0.00     0.291 C 
ATOM     21  H   UNL A   1      32.149  23.006  25.065  1.00  0.00     0.348 HD
ATOM     22  C   UNL A   1      33.040  20.302  25.232  1.00  0.00     0.221 C 
ATOM     23  C   UNL A   1      34.500  21.898  26.127  1.00  0.00     0.221 C 
ATOM     24  O   UNL A   1      34.369  20.538  25.717  1.00  0.00    -0.370 OA
ENDBRANCH   5  18
ENDBRANCH   3   5
ENDBRANCH   2   3
ENDBRANCH   1   2
BRANCH   1  25
ATOM     25  C   UNL A   1      33.953  28.719  26.000  1.00  0.00     0.275 C 
BRANCH  25  26
ATOM     26  O   UNL A   1      34.643  29.083  27.689  1.00  0.00    -0.458 OA
BRANCH  26  27
ATOM     27  C   UNL A   1      35.488  30.130  28.388  1.00  0.00     0.338 C 
ATOM     28  O   UNL A   1      34.873  31.102  28.834  1.00  0.00    -0.246 OA
BRANCH  27  29
ATOM     29  C   UNL A   1      37.010  29.922  28.962  1.00  0.00     0.060 A 
ATOM     30  C   UNL A   1      37.405  29.001  29.947  1.00  0.00     0.016 A 
ATOM     31  C   UNL A   1      38.108  30.468  28.340  1.00  0.00     0.016 A 
ATOM     32  C   UNL A   1      38.722  28.402  29.919  1.00  0.00     0.010 A 
ATOM     33  C   UNL A   1      39.065  29.540  27.944  1.00  0.00     0.010 A 
ATOM     34  C   UNL A   1      39.472  28.504  28.755  1.00  0.00    -0.014 A 
BRANCH  34  35
ATOM     35  C   UNL A   1      40.774  27.884  28.344  1.00  0.00     0.031 A 
ATOM     36  C   UNL A   1      40.897  26.398  28.024  1.00  0.00     0.074 A 
ATOM     37  C   UNL A   1      41.750  28.845  28.429  1.00  0.00     0.049 A 
ATOM     38  N   UNL A   1      41.465  25.491  28.753  1.00  0.00    -0.248 NA
ATOM     39  C   UNL A   1      40.347  25.767  26.792  1.00  0.00     0.031 C 
ATOM     40  C   UNL A   1      43.188  28.841  28.584  1.00  0.00     0.029 A 
ATOM     41  N   UNL A   1      41.477  30.207  28.760  1.00  0.00    -0.354 N 
ATOM     42  C   UNL A   1      41.728  24.395  27.917  1.00  0.00     0.074 A 
ATOM     43  C   UNL A   1      40.781  24.493  26.846  1.00  0.00     0.031 C 
ATOM     44  C   UNL A   1      43.474  29.824  29.486  1.00  0.00     0.029 A 
ATOM     45  C   UNL A   1      42.223  30.510  29.869  1.00  0.00     0.049 A 
ATOM     46  H   UNL A   1      40.868  30.815  28.281  1.00  0.00     0.167 HD
ATOM     47  C   UNL A   1      42.952  23.769  27.950  1.00  0.00     0.037 A 
ATOM     48  C   UNL A   1      41.540  30.519  31.059  1.00  0.00     0.037 A 
ATOM     49  C   UNL A   1      43.815  24.586  28.794  1.00  0.00     0.049 A 
ATOM     50  C   UNL A   1      42.050  29.343  31.848  1.00  0.00     0.074 A 
ATOM     51  C   UNL A   1      44.704  25.590  28.453  1.00  0.00     0.029 A 
ATOM     52  N   UNL A   1      43.484  24.783  30.127  1.00  0.00    -0.354 N 
ATOM     53  N   UNL A   1      42.308  28.152  31.364  1.00  0.00    -0.248 NA
ATOM     54  C   UNL A   1      42.596  29.574  33.171  1.00  0.00     0.031 C 
ATOM     55  C   UNL A   1      44.894  26.405  29.593  1.00  0.00     0.029 A 
ATOM     56  C   UNL A   1      44.038  25.962  30.588  1.00  0.00     0.049 A 
ATOM     57  H   UNL A   1      42.934  24.170  30.668  1.00  0.00     0.167 HD
ATOM     58  C   UNL A   1      43.188  27.524  32.221  1.00  0.00     0.074 A 
ATOM     59  C   UNL A   1      43.334  28.466  33.322  1.00  0.00     0.031 C 
ATOM     60  C   UNL A   1      43.863  26.356  31.972  1.00  0.00     0.037 A 
BRANCH  47  61
ATOM     61  C   UNL A   1      43.530  22.710  26.997  1.00  0.00     0.058 A 
ATOM     62  C   UNL A   1      42.994  21.395  26.944  1.00  0.00     0.135 A 
ATOM     63  C   UNL A   1      44.539  22.950  26.040  1.00  0.00     0.135 A 
ATOM     64  F   UNL A   1      42.006  21.002  27.756  1.00  0.00    -0.206 F 
ATOM     65  C   UNL A   1      43.435  20.400  26.065  1.00  0.00     0.059 A 
ATOM     66  C   UNL A   1      45.000  21.959  25.136  1.00  0.00     0.059 A 
ATOM     67  F   UNL A   1      45.094  24.167  25.932  1.00  0.00    -0.206 F 
ATOM     68  C   UNL A   1      44.443  20.682  25.161  1.00  0.00     0.060 A 
BRANCH  68  69
ATOM     69  S   UNL A   1      44.972  19.353  24.050  1.00  0.00     0.124 S 
ATOM     70  O   UNL A   1      44.463  19.810  22.760  1.00  0.00    -0.237 OA
ATOM     71  O   UNL A   1      46.424  19.382  24.197  1.00  0.00    -0.237 OA
ATOM     72  O   UNL A   1      44.314  18.169  24.592  1.00  0.00    -0.744 OA
ENDBRANCH  68  69
ENDBRANCH  47  61
BRANCH  48  73
ATOM     73  C   UNL A   1      40.188  31.239  31.208  1.00  0.00     0.058 A 
ATOM     74  C   UNL A   1      39.236  30.740  32.139  1.00  0.00     0.135 A 
ATOM     75  C   UNL A   1      39.782  32.433  30.568  1.00  0.00     0.135 A 
ATOM     76  F   UNL A   1      39.480  29.598  32.803  1.00  0.00    -0.206 F 
ATOM     77  C   UNL A   1      38.053  31.414  32.496  1.00  0.00     0.059 A 
ATOM     78  C   UNL A   1      38.591  33.141  30.917  1.00  0.00     0.059 A 
ATOM     79  F   UNL A   1      40.578  33.004  29.650  1.00  0.00    -0.206 F 
ATOM     80  C   UNL A   1      37.750  32.640  31.914  1.00  0.00     0.060 A 
BRANCH  80  81
ATOM     81  S   UNL A   1      36.434  33.635  32.702  1.00  0.00     0.124 S 
ATOM     82  O   UNL A   1      37.197  34.551  33.541  1.00  0.00    -0.237 OA
ATOM     83  O   UNL A   1      35.796  34.249  31.535  1.00  0.00    -0.237 OA
ATOM     84  O   UNL A   1      35.636  32.648  33.414  1.00  0.00    -0.744 OA
ENDBRANCH  80  81
ENDBRANCH  48  73
BRANCH  60  85
ATOM     85  C   UNL A   1      44.570  25.497  33.004  1.00  0.00     0.058 A 
ATOM     86  C   UNL A   1      45.949  25.248  33.003  1.00  0.00     0.135 A 
ATOM     87  C   UNL A   1      43.875  25.012  34.150  1.00  0.00     0.135 A 
ATOM     88  F   UNL A   1      46.770  25.768  32.085  1.00  0.00    -0.206 F 
ATOM     89  C   UNL A   1      46.571  24.495  33.992  1.00  0.00     0.059 A 
ATOM     90  C   UNL A   1      44.498  24.358  35.201  1.00  0.00     0.059 A 
ATOM     91  F   UNL A   1      42.555  25.173  34.323  1.00  0.00    -0.206 F 
ATOM     92  C   UNL A   1      45.842  24.067  35.093  1.00  0.00     0.060 A 
BRANCH  92  93
ATOM     93  S   UNL A   1      46.684  23.176  36.399  1.00  0.00     0.124 S 
ATOM     94  O   UNL A   1      47.986  22.934  35.785  1.00  0.00    -0.237 OA
ATOM     95  O   UNL A   1      46.668  24.143  37.493  1.00  0.00    -0.237 OA
ATOM     96  O   UNL A   1      45.849  21.997  36.601  1.00  0.00    -0.744 OA
ENDBRANCH  92  93
ENDBRANCH  60  85
ENDBRANCH  34  35
ENDBRANCH  27  29
ENDBRANCH  26  27
ENDBRANCH  25  26
ENDBRANCH   1  25
TORSDOF 18
ENDMDL
MODEL 2
REMARK VINA RESULT:     -14.0      1.325      3.272
REMARK SMILES Cc1ccc(NC(=O)C[C@@H](C(=O)OCCOC(=O)c2ccc(-c3c4nc(c(-c5c(F)cc(S(=O)(=O)[O-])cc5F)c5ccc([nH]5)c(-c5c(F)cc(S(=O)(=O)[O-])cc5F)c5nc(c(-c6c(F)cc(S(=O)(=O)[O-])cc6F)c6ccc3[nH]6)C=C5)C=C4)cc2)[NH+]2CCOCC2)cc1
REMARK SMILES IDX 14 1 13 2 11 3 12 4 10 5 9 6 7 7 6 8 8 10 5 11 1 12 2 13
REMARK SMILES IDX 3 14 92 15 4 16 91 17 85 18 86 19 90 20 87 22 89 23 88 24
REMARK SMILES IDX 15 25 16 26 17 27 18 28 19 29 20 30 84 31 21 32 83 33 22 34
REMARK SMILES IDX 23 35 24 36 77 37 25 38 82 39 76 40 78 41 26 42 81 43 75 44
REMARK SMILES IDX 74 45 27 47 61 48 40 49 60 50 41 51 44 52 59 53 79 54 42 55
REMARK SMILES IDX 43 56 58 58 80 59 45 60 28 61 29 62 38 63 30 64 31 65 37 66
REMARK SMILES IDX 39 67 32 68 33 69 34 70 35 71 36 72 62 73 63 74 72 75 64 76
REMARK SMILES IDX 65 77 71 78 73 79 66 80 67 81 68 82 69 83 70 84 46 85 47 86
REMARK SMILES IDX 56 87 48 88 49 89 55 90 57 91 50 92 51 93 52 94 53 95 54 96
REMARK H PARENT 6 9 85 21 78 46 44 57
REMARK Flexibility Score: inf
ROOT
ATOM      1  C   UNL A   1      32.242  29.573  25.201  1.00  0.00     0.274 C 
ENDROOT
BRANCH   1   2
ATOM      2  O   UNL A   1      31.860  28.391  23.927  1.00  0.00    -0.458 OA
BRANCH   2   3
ATOM      3  C   UNL A   1      31.100  27.216  24.021  1.00  0.00     0.365 C 
ATOM      4  O   UNL A   1      29.910  27.277  24.247  1.00  0.00    -0.245 OA
BRANCH   3   5
ATOM      5  C   UNL A   1      31.865  25.830  23.858  1.00  0.00     0.304 C 
BRANCH   5   6
ATOM      6  C   UNL A   1      31.630  25.171  22.489  1.00  0.00     0.177 C 
BRANCH   6   7
ATOM      7  C   UNL A   1      32.879  24.727  21.777  1.00  0.00     0.231 C 
ATOM      8  N   UNL A   1      33.618  23.667  22.204  1.00  0.00    -0.326 N 
ATOM      9  H   UNL A   1      34.571  23.693  21.953  1.00  0.00     0.169 HD
ATOM     10  O   UNL A   1      33.279  25.341  20.783  1.00  0.00    -0.274 OA
BRANCH   8  11
ATOM     11  C   UNL A   1      33.228  22.545  22.946  1.00  0.00     0.041 A 
ATOM     12  C   UNL A   1      33.102  17.948  25.161  1.00  0.00     0.044 C 
ATOM     13  C   UNL A   1      33.423  19.176  24.317  1.00  0.00    -0.051 A 
ATOM     14  C   UNL A   1      32.178  19.607  23.151  1.00  0.00     0.005 A 
ATOM     15  C   UNL A   1      34.494  20.404  24.815  1.00  0.00     0.005 A 
ATOM     16  C   UNL A   1      32.016  21.320  22.407  1.00  0.00     0.026 A 
ATOM     17  C   UNL A   1      34.417  22.041  24.171  1.00  0.00     0.026 A 
ENDBRANCH   8  11
ENDBRANCH   6   7
ENDBRANCH   5   6
BRANCH   5  18
ATOM     18  N   UNL A   1      31.772  24.746  24.993  1.00  0.00    -0.319 N 
ATOM     19  C   UNL A   1      32.864  24.688  25.989  1.00  0.00     0.291 C 
ATOM     20  C   UNL A   1      30.486  24.591  25.727  1.00  0.00     0.291 C 
ATOM     21  H   UNL A   1      31.868  23.960  24.351  1.00  0.00     0.348 HD
ATOM     22  C   UNL A   1      32.790  23.520  27.013  1.00  0.00     0.221 C 
ATOM     23  C   UNL A   1      30.472  23.392  26.719  1.00  0.00     0.221 C 
ATOM     24  O   UNL A   1      31.522  23.475  27.681  1.00  0.00    -0.370 OA
ENDBRANCH   5  18
ENDBRANCH   3   5
ENDBRANCH   2   3
ENDBRANCH   1   2
BRANCH   1  25
ATOM     25  C   UNL A   1      32.927  28.975  27.220  1.00  0.00     0.275 C 
BRANCH  25  26
ATOM     26  O   UNL A   1      34.704  29.227  27.710  1.00  0.00    -0.458 OA
BRANCH  26  27
ATOM     27  C   UNL A   1      35.563  30.231  28.455  1.00  0.00     0.338 C 
ATOM     28  O   UNL A   1      34.967  31.208  28.914  1.00  0.00    -0.246 OA
BRANCH  27  29
ATOM     29  C   UNL A   1      37.067  29.962  29.054  1.00  0.00     0.060 A 
ATOM     30  C   UNL A   1      37.419  28.983  29.996  1.00  0.00     0.016 A 
ATOM     31  C   UNL A   1      38.189  30.520  28.490  1.00  0.00     0.016 A 
ATOM     32  C   UNL A   1      38.727  28.361  29.969  1.00  0.00     0.010 A 
ATOM     33  C   UNL A   1      39.140  29.597  28.067  1.00  0.00     0.010 A 
ATOM     34  C   UNL A   1      39.507  28.512  28.831  1.00  0.00    -0.014 A 
BRANCH  34  35
ATOM     35  C   UNL A   1      40.808  27.890  28.418  1.00  0.00     0.031 A 
ATOM     36  C   UNL A   1      40.923  26.411  28.069  1.00  0.00     0.074 A 
ATOM     37  C   UNL A   1      41.791  28.841  28.532  1.00  0.00     0.049 A 
ATOM     38  N   UNL A   1      41.477  25.483  28.784  1.00  0.00    -0.248 NA
ATOM     39  C   UNL A   1      40.380  25.810  26.819  1.00  0.00     0.031 C 
ATOM     40  C   UNL A   1      43.227  28.823  28.700  1.00  0.00     0.029 A 
ATOM     41  N   UNL A   1      41.526  30.199  28.889  1.00  0.00    -0.354 N 
ATOM     42  C   UNL A   1      41.740  24.403  27.927  1.00  0.00     0.074 A 
ATOM     43  C   UNL A   1      40.804  24.531  26.850  1.00  0.00     0.031 C 
ATOM     44  C   UNL A   1      43.513  29.785  29.625  1.00  0.00     0.029 A 
ATOM     45  C   UNL A   1      42.263  30.473  30.011  1.00  0.00     0.049 A 
ATOM     46  H   UNL A   1      40.926  30.821  28.417  1.00  0.00     0.167 HD
ATOM     47  C   UNL A   1      42.959  23.767  27.959  1.00  0.00     0.037 A 
ATOM     48  C   UNL A   1      41.569  30.462  31.195  1.00  0.00     0.037 A 
ATOM     49  C   UNL A   1      43.820  24.560  28.827  1.00  0.00     0.049 A 
ATOM     50  C   UNL A   1      42.063  29.266  31.963  1.00  0.00     0.074 A 
ATOM     51  C   UNL A   1      44.720  25.563  28.515  1.00  0.00     0.029 A 
ATOM     52  N   UNL A   1      43.478  24.731  30.161  1.00  0.00    -0.354 N 
ATOM     53  N   UNL A   1      42.316  28.083  31.457  1.00  0.00    -0.248 NA
ATOM     54  C   UNL A   1      42.598  29.465  33.297  1.00  0.00     0.031 C 
ATOM     55  C   UNL A   1      44.905  26.353  29.673  1.00  0.00     0.029 A 
ATOM     56  C   UNL A   1      44.037  25.897  30.651  1.00  0.00     0.049 A 
ATOM     57  H   UNL A   1      42.919  24.112  30.684  1.00  0.00     0.167 HD
ATOM     58  C   UNL A   1      43.183  27.431  32.309  1.00  0.00     0.074 A 
ATOM     59  C   UNL A   1      43.326  28.348  33.431  1.00  0.00     0.031 C 
ATOM     60  C   UNL A   1      43.852  26.263  32.041  1.00  0.00     0.037 A 
BRANCH  47  61
ATOM     61  C   UNL A   1      43.537  22.724  26.989  1.00  0.00     0.058 A 
ATOM     62  C   UNL A   1      43.056  21.386  26.972  1.00  0.00     0.135 A 
ATOM     63  C   UNL A   1      44.490  22.996  25.984  1.00  0.00     0.135 A 
ATOM     64  F   UNL A   1      42.123  20.961  27.831  1.00  0.00    -0.206 F 
ATOM     65  C   UNL A   1      43.498  20.402  26.082  1.00  0.00     0.059 A 
ATOM     66  C   UNL A   1      44.952  22.016  25.069  1.00  0.00     0.059 A 
ATOM     67  F   UNL A   1      44.987  24.235  25.841  1.00  0.00    -0.206 F 
ATOM     68  C   UNL A   1      44.452  20.717  25.130  1.00  0.00     0.060 A 
BRANCH  68  69
ATOM     69  S   UNL A   1      44.986  19.401  24.007  1.00  0.00     0.124 S 
ATOM     70  O   UNL A   1      44.486  19.873  22.719  1.00  0.00    -0.237 OA
ATOM     71  O   UNL A   1      46.437  19.425  24.164  1.00  0.00    -0.237 OA
ATOM     72  O   UNL A   1      44.321  18.211  24.530  1.00  0.00    -0.744 OA
ENDBRANCH  68  69
ENDBRANCH  47  61
BRANCH  48  73
ATOM     73  C   UNL A   1      40.221  31.189  31.346  1.00  0.00     0.058 A 
ATOM     74  C   UNL A   1      39.244  30.659  32.232  1.00  0.00     0.135 A 
ATOM     75  C   UNL A   1      39.843  32.416  30.753  1.00  0.00     0.135 A 
ATOM     76  F   UNL A   1      39.461  29.485  32.848  1.00  0.00    -0.206 F 
ATOM     77  C   UNL A   1      38.059  31.328  32.593  1.00  0.00     0.059 A 
ATOM     78  C   UNL A   1      38.651  33.120  31.108  1.00  0.00     0.059 A 
ATOM     79  F   UNL A   1      40.665  33.019  29.881  1.00  0.00    -0.206 F 
ATOM     80  C   UNL A   1      37.782  32.584  32.062  1.00  0.00     0.060 A 
BRANCH  80  81
ATOM     81  S   UNL A   1      36.459  33.556  32.864  1.00  0.00     0.124 S 
ATOM     82  O   UNL A   1      36.074  32.697  33.978  1.00  0.00    -0.237 OA
ATOM     83  O   UNL A   1      37.180  34.774  33.240  1.00  0.00    -0.237 OA
ATOM     84  O   UNL A   1      35.460  33.709  31.816  1.00  0.00    -0.744 OA
ENDBRANCH  80  81
ENDBRANCH  48  73
BRANCH  60  85
ATOM     85  C   UNL A   1      44.543  25.377  33.062  1.00  0.00     0.058 A 
ATOM     86  C   UNL A   1      45.921  25.128  33.076  1.00  0.00     0.135 A 
ATOM     87  C   UNL A   1      43.830  24.863  34.184  1.00  0.00     0.135 A 
ATOM     88  F   UNL A   1      46.757  25.672  32.185  1.00  0.00    -0.206 F 
ATOM     89  C   UNL A   1      46.529  24.350  34.055  1.00  0.00     0.059 A 
ATOM     90  C   UNL A   1      44.436  24.181  35.227  1.00  0.00     0.059 A 
ATOM     91  F   UNL A   1      42.508  25.019  34.340  1.00  0.00    -0.206 F 
ATOM     92  C   UNL A   1      45.783  23.893  35.133  1.00  0.00     0.060 A 
BRANCH  92  93
ATOM     93  S   UNL A   1      46.603  22.968  36.428  1.00  0.00     0.124 S 
ATOM     94  O   UNL A   1      45.681  23.159  37.543  1.00  0.00    -0.237 OA
ATOM     95  O   UNL A   1      46.649  21.622  35.866  1.00  0.00    -0.237 OA
ATOM     96  O   UNL A   1      47.896  23.632  36.555  1.00  0.00    -0.744 OA
ENDBRANCH  92  93
ENDBRANCH  60  85
ENDBRANCH  34  35
ENDBRANCH  27  29
ENDBRANCH  26  27
ENDBRANCH  25  26
ENDBRANCH   1  25
TORSDOF 18
ENDMDL
MODEL 3
REMARK VINA RESULT:     -13.9      1.894      4.281
REMARK SMILES Cc1ccc(NC(=O)C[C@@H](C(=O)OCCOC(=O)c2ccc(-c3c4nc(c(-c5c(F)cc(S(=O)(=O)[O-])cc5F)c5ccc([nH]5)c(-c5c(F)cc(S(=O)(=O)[O-])cc5F)c5nc(c(-c6c(F)cc(S(=O)(=O)[O-])cc6F)c6ccc3[nH]6)C=C5)C=C4)cc2)[NH+]2CCOCC2)cc1
REMARK SMILES IDX 14 1 13 2 11 3 12 4 10 5 9 6 7 7 6 8 8 10 5 11 1 12 2 13
REMARK SMILES IDX 3 14 92 15 4 16 91 17 85 18 86 19 90 20 87 22 89 23 88 24
REMARK SMILES IDX 15 25 16 26 17 27 18 28 19 29 20 30 84 31 21 32 83 33 22 34
REMARK SMILES IDX 23 35 24 36 77 37 25 38 82 39 76 40 78 41 26 42 81 43 75 44
REMARK SMILES IDX 74 45 27 47 61 48 40 49 60 50 41 51 44 52 59 53 79 54 42 55
REMARK SMILES IDX 43 56 58 58 80 59 45 60 28 61 29 62 38 63 30 64 31 65 37 66
REMARK SMILES IDX 39 67 32 68 33 69 34 70 35 71 36 72 62 73 63 74 72 75 64 76
REMARK SMILES IDX 65 77 71 78 73 79 66 80 67 81 68 82 69 83 70 84 46 85 47 86
REMARK SMILES IDX 56 87 48 88 49 89 55 90 57 91 50 92 51 93 52 94 53 95 54 96
REMARK H PARENT 6 9 85 21 78 46 44 57
REMARK Flexibility Score: inf
ROOT
ATOM      1  C   UNL A   1      33.106  28.779  25.678  1.00  0.00     0.274 C 
ENDROOT
BRANCH   1   2
ATOM      2  O   UNL A   1      31.533  28.078  26.127  1.00  0.00    -0.458 OA
BRANCH   2   3
ATOM      3  C   UNL A   1      31.016  26.813  25.814  1.00  0.00     0.365 C 
ATOM      4  O   UNL A   1      31.159  25.888  26.586  1.00  0.00    -0.245 OA
BRANCH   3   5
ATOM      5  C   UNL A   1      30.282  26.645  24.412  1.00  0.00     0.304 C 
BRANCH   5   6
ATOM      6  C   UNL A   1      31.024  25.696  23.455  1.00  0.00     0.177 C 
BRANCH   6   7
ATOM      7  C   UNL A   1      32.517  25.657  23.633  1.00  0.00     0.231 C 
ATOM      8  N   UNL A   1      33.140  24.660  24.318  1.00  0.00    -0.326 N 
ATOM      9  H   UNL A   1      34.007  24.905  24.718  1.00  0.00     0.169 HD
ATOM     10  O   UNL A   1      33.221  26.559  23.168  1.00  0.00    -0.274 OA
BRANCH   8  11
ATOM     11  C   UNL A   1      32.733  23.339  24.543  1.00  0.00     0.041 A 
ATOM     12  C   UNL A   1      32.702  18.330  25.529  1.00  0.00     0.044 C 
ATOM     13  C   UNL A   1      33.072  19.772  25.202  1.00  0.00    -0.051 A 
ATOM     14  C   UNL A   1      32.461  20.352  23.658  1.00  0.00     0.005 A 
ATOM     15  C   UNL A   1      33.447  20.938  26.388  1.00  0.00     0.005 A 
ATOM     16  C   UNL A   1      32.257  22.170  23.250  1.00  0.00     0.026 A 
ATOM     17  C   UNL A   1      33.286  22.666  26.095  1.00  0.00     0.026 A 
ENDBRANCH   8  11
ENDBRANCH   6   7
ENDBRANCH   5   6
BRANCH   5  18
ATOM     18  N   UNL A   1      29.793  27.916  23.628  1.00  0.00    -0.319 N 
ATOM     19  C   UNL A   1      30.611  28.387  22.489  1.00  0.00     0.291 C 
ATOM     20  C   UNL A   1      28.365  27.994  23.215  1.00  0.00     0.291 C 
ATOM     21  H   UNL A   1      29.931  28.546  24.417  1.00  0.00     0.348 HD
ATOM     22  C   UNL A   1      30.156  29.719  21.828  1.00  0.00     0.221 C 
ATOM     23  C   UNL A   1      27.969  29.359  22.581  1.00  0.00     0.221 C 
ATOM     24  O   UNL A   1      28.774  29.679  21.448  1.00  0.00    -0.370 OA
ENDBRANCH   5  18
ENDBRANCH   3   5
ENDBRANCH   2   3
ENDBRANCH   1   2
BRANCH   1  25
ATOM     25  C   UNL A   1      34.577  29.475  27.180  1.00  0.00     0.275 C 
BRANCH  25  26
ATOM     26  O   UNL A   1      34.232  31.006  28.179  1.00  0.00    -0.458 OA
BRANCH  26  27
ATOM     27  C   UNL A   1      34.889  31.857  29.248  1.00  0.00     0.338 C 
ATOM     28  O   UNL A   1      34.143  32.642  29.840  1.00  0.00    -0.246 OA
BRANCH  27  29
ATOM     29  C   UNL A   1      36.335  31.566  29.965  1.00  0.00     0.060 A 
ATOM     30  C   UNL A   1      36.660  30.448  30.750  1.00  0.00     0.016 A 
ATOM     31  C   UNL A   1      37.465  32.283  29.650  1.00  0.00     0.016 A 
ATOM     32  C   UNL A   1      38.007  29.917  30.767  1.00  0.00     0.010 A 
ATOM     33  C   UNL A   1      38.525  31.511  29.185  1.00  0.00     0.010 A 
ATOM     34  C   UNL A   1      38.891  30.323  29.778  1.00  0.00    -0.014 A 
BRANCH  34  35
ATOM     35  C   UNL A   1      40.273  29.865  29.419  1.00  0.00     0.031 A 
ATOM     36  C   UNL A   1      40.543  28.479  28.844  1.00  0.00     0.074 A 
ATOM     37  C   UNL A   1      41.160  30.841  29.802  1.00  0.00     0.049 A 
ATOM     38  N   UNL A   1      41.093  27.478  29.453  1.00  0.00    -0.248 NA
ATOM     39  C   UNL A   1      40.180  28.073  27.457  1.00  0.00     0.031 C 
ATOM     40  C   UNL A   1      42.568  30.883  30.128  1.00  0.00     0.029 A 
ATOM     41  N   UNL A   1      40.750  32.096  30.348  1.00  0.00    -0.354 N 
ATOM     42  C   UNL A   1      41.529  26.582  28.464  1.00  0.00     0.074 A 
ATOM     43  C   UNL A   1      40.700  26.838  27.323  1.00  0.00     0.031 C 
ATOM     44  C   UNL A   1      42.679  31.684  31.227  1.00  0.00     0.029 A 
ATOM     45  C   UNL A   1      41.345  32.215  31.577  1.00  0.00     0.049 A 
ATOM     46  H   UNL A   1      40.154  32.753  29.920  1.00  0.00     0.167 HD
ATOM     47  C   UNL A   1      42.785  26.027  28.528  1.00  0.00     0.037 A 
ATOM     48  C   UNL A   1      40.536  31.955  32.655  1.00  0.00     0.037 A 
ATOM     49  C   UNL A   1      43.486  26.708  29.609  1.00  0.00     0.049 A 
ATOM     50  C   UNL A   1      41.044  30.676  33.264  1.00  0.00     0.074 A 
ATOM     51  C   UNL A   1      44.329  27.804  29.574  1.00  0.00     0.029 A 
ATOM     52  N   UNL A   1      42.997  26.622  30.905  1.00  0.00    -0.354 N 
ATOM     53  N   UNL A   1      41.442  29.618  32.600  1.00  0.00    -0.248 NA
ATOM     54  C   UNL A   1      41.423  30.672  34.664  1.00  0.00     0.031 C 
ATOM     55  C   UNL A   1      44.331  28.390  30.861  1.00  0.00     0.029 A 
ATOM     56  C   UNL A   1      43.407  27.717  31.643  1.00  0.00     0.049 A 
ATOM     57  H   UNL A   1      42.439  25.888  31.249  1.00  0.00     0.167 HD
ATOM     58  C   UNL A   1      42.268  28.882  33.425  1.00  0.00     0.074 A 
ATOM     59  C   UNL A   1      42.221  29.597  34.693  1.00  0.00     0.031 C 
ATOM     60  C   UNL A   1      43.053  27.822  33.045  1.00  0.00     0.037 A 
BRANCH  47  61
ATOM     61  C   UNL A   1      43.542  25.207  27.470  1.00  0.00     0.058 A 
ATOM     62  C   UNL A   1      43.697  23.800  27.601  1.00  0.00     0.135 A 
ATOM     63  C   UNL A   1      44.049  25.723  26.259  1.00  0.00     0.135 A 
ATOM     64  F   UNL A   1      43.245  23.136  28.669  1.00  0.00    -0.206 F 
ATOM     65  C   UNL A   1      44.326  22.987  26.652  1.00  0.00     0.059 A 
ATOM     66  C   UNL A   1      44.687  24.919  25.281  1.00  0.00     0.059 A 
ATOM     67  F   UNL A   1      43.916  27.028  25.972  1.00  0.00    -0.206 F 
ATOM     68  C   UNL A   1      44.825  23.548  25.490  1.00  0.00     0.060 A 
BRANCH  68  69
ATOM     69  S   UNL A   1      45.630  22.445  24.300  1.00  0.00     0.124 S 
ATOM     70  O   UNL A   1      44.554  22.183  23.348  1.00  0.00    -0.237 OA
ATOM     71  O   UNL A   1      46.725  23.269  23.799  1.00  0.00    -0.237 OA
ATOM     72  O   UNL A   1      46.031  21.300  25.111  1.00  0.00    -0.744 OA
ENDBRANCH  68  69
ENDBRANCH  47  61
BRANCH  48  73
ATOM     73  C   UNL A   1      39.126  32.559  32.770  1.00  0.00     0.058 A 
ATOM     74  C   UNL A   1      38.107  31.818  33.426  1.00  0.00     0.135 A 
ATOM     75  C   UNL A   1      38.715  33.849  32.360  1.00  0.00     0.135 A 
ATOM     76  F   UNL A   1      38.351  30.567  33.848  1.00  0.00    -0.206 F 
ATOM     77  C   UNL A   1      36.840  32.338  33.756  1.00  0.00     0.059 A 
ATOM     78  C   UNL A   1      37.439  34.404  32.688  1.00  0.00     0.059 A 
ATOM     79  F   UNL A   1      39.573  34.651  31.711  1.00  0.00    -0.206 F 
ATOM     80  C   UNL A   1      36.521  33.650  33.424  1.00  0.00     0.060 A 
BRANCH  80  81
ATOM     81  S   UNL A   1      35.045  34.377  34.221  1.00  0.00     0.124 S 
ATOM     82  O   UNL A   1      33.963  33.575  33.663  1.00  0.00    -0.237 OA
ATOM     83  O   UNL A   1      35.331  34.135  35.637  1.00  0.00    -0.237 OA
ATOM     84  O   UNL A   1      35.077  35.769  33.797  1.00  0.00    -0.744 OA
ENDBRANCH  80  81
ENDBRANCH  48  73
BRANCH  60  85
ATOM     85  C   UNL A   1      43.705  26.816  33.975  1.00  0.00     0.058 A 
ATOM     86  C   UNL A   1      45.088  26.721  34.180  1.00  0.00     0.135 A 
ATOM     87  C   UNL A   1      42.915  25.997  34.834  1.00  0.00     0.135 A 
ATOM     88  F   UNL A   1      45.959  27.532  33.571  1.00  0.00    -0.206 F 
ATOM     89  C   UNL A   1      45.649  25.820  35.077  1.00  0.00     0.059 A 
ATOM     90  C   UNL A   1      43.452  25.175  35.812  1.00  0.00     0.059 A 
ATOM     91  F   UNL A   1      41.576  25.971  34.785  1.00  0.00    -0.206 F 
ATOM     92  C   UNL A   1      44.825  25.062  35.898  1.00  0.00     0.060 A 
BRANCH  92  93
ATOM     93  S   UNL A   1      45.570  23.973  37.109  1.00  0.00     0.124 S 
ATOM     94  O   UNL A   1      44.843  24.351  38.317  1.00  0.00    -0.237 OA
ATOM     95  O   UNL A   1      45.259  22.653  36.570  1.00  0.00    -0.237 OA
ATOM     96  O   UNL A   1      46.981  24.340  37.076  1.00  0.00    -0.744 OA
ENDBRANCH  92  93
ENDBRANCH  60  85
ENDBRANCH  34  35
ENDBRANCH  27  29
ENDBRANCH  26  27
ENDBRANCH  25  26
ENDBRANCH   1  25
TORSDOF 18
ENDMDL
