MODEL 1
REMARK VINA RESULT:     -13.0      0.000      0.000
REMARK SMILES Cc1c(CC(=O)N[C@@H](C)C(=O)OCCOC(=O)c2ccc(-c3c4nc(c(-c5c(F)cc(S(=O)(=O)[O-])cc5F)c5ccc([nH]5)c(-c5c(F)cc(S(=O)(=O)[O-])cc5F)c5nc(c(-c6c(F)cc(S(=O)(=O)[O-])cc6F)c6ccc3[nH]6)C=C5)C=C4)cc2)c(=O)oc2cc3oc4c(c3cc12)CCCC4
REMARK SMILES IDX 13 1 12 2 10 3 11 4 8 5 9 6 7 7 5 8 6 9 4 11 3 12 1 13 2 14
REMARK SMILES IDX 95 15 84 16 87 17 94 18 85 19 86 20 88 21 93 22 89 23 92 24
REMARK SMILES IDX 90 25 91 26 96 27 99 28 97 29 98 30 14 31 15 32 16 33 17 34
REMARK SMILES IDX 18 35 19 36 83 37 20 38 82 39 21 40 22 41 23 42 76 43 24 44
REMARK SMILES IDX 81 45 75 46 77 47 25 48 80 49 74 50 73 51 26 53 60 54 39 55
REMARK SMILES IDX 59 56 40 57 43 58 58 59 78 60 41 61 42 62 57 64 79 65 44 66
REMARK SMILES IDX 27 67 28 68 37 69 29 70 30 71 36 72 38 73 31 74 32 75 33 76
REMARK SMILES IDX 34 77 35 78 61 79 62 80 71 81 63 82 64 83 70 84 72 85 65 86
REMARK SMILES IDX 66 87 67 88 68 89 69 90 45 91 46 92 55 93 47 94 48 95 54 96
REMARK SMILES IDX 56 97 49 98 50 99 51 100 52 101 53 102
REMARK H PARENT 7 10 77 52 43 63
REMARK Flexibility Score: inf
ROOT
ATOM      1  C   UNL A   1      46.171  22.016  36.383  1.00  0.00     0.274 C 
ENDROOT
BRANCH   1   2
ATOM      2  O   UNL A   1      47.047  21.076  37.029  1.00  0.00    -0.461 OA
BRANCH   2   3
ATOM      3  C   UNL A   1      46.446  20.071  37.724  1.00  0.00     0.328 C 
ATOM      4  O   UNL A   1      45.570  19.342  37.279  1.00  0.00    -0.250 OA
BRANCH   3   5
ATOM      5  C   UNL A   1      46.994  19.955  39.152  1.00  0.00     0.189 C 
ATOM      6  C   UNL A   1      48.221  20.845  39.284  1.00  0.00     0.043 C 
BRANCH   5   7
ATOM      7  N   UNL A   1      47.312  18.577  39.538  1.00  0.00    -0.343 N 
ATOM      8  C   UNL A   1      46.534  17.654  40.177  1.00  0.00     0.225 C 
ATOM      9  O   UNL A   1      46.977  16.507  40.298  1.00  0.00    -0.275 OA
ATOM     10  H   UNL A   1      48.219  18.273  39.303  1.00  0.00     0.164 HD
BRANCH   8  11
ATOM     11  C   UNL A   1      45.182  18.046  40.781  1.00  0.00     0.143 C 
BRANCH  11  12
ATOM     12  C   UNL A   1      44.283  16.846  40.956  1.00  0.00     0.051 A 
ATOM     13  C   UNL A   1      45.179  16.254  43.233  1.00  0.00     0.046 C 
ATOM     14  C   UNL A   1      44.187  16.142  42.099  1.00  0.00    -0.029 A 
ATOM     15  C   UNL A   1      43.096  15.169  42.237  1.00  0.00     0.022 A 
ATOM     16  C   UNL A   1      43.448  16.515  39.768  1.00  0.00     0.340 A 
ATOM     17  C   UNL A   1      42.334  14.828  41.118  1.00  0.00     0.142 A 
ATOM     18  C   UNL A   1      42.874  14.501  43.445  1.00  0.00     0.024 A 
ATOM     19  O   UNL A   1      43.599  17.103  38.705  1.00  0.00    -0.246 OA
ATOM     20  O   UNL A   1      42.493  15.525  39.909  1.00  0.00    -0.422 OA
ATOM     21  C   UNL A   1      41.459  13.736  41.081  1.00  0.00     0.095 A 
ATOM     22  C   UNL A   1      42.167  13.295  43.390  1.00  0.00     0.025 A 
ATOM     23  C   UNL A   1      41.534  12.929  42.205  1.00  0.00     0.138 A 
ATOM     24  C   UNL A   1      42.214  12.136  44.202  1.00  0.00     0.001 A 
ATOM     25  O   UNL A   1      41.210  11.603  42.241  1.00  0.00    -0.461 OA
ATOM     26  C   UNL A   1      41.821  11.123  43.351  1.00  0.00     0.108 A 
ATOM     27  C   UNL A   1      43.137  11.834  45.327  1.00  0.00     0.040 C 
ATOM     28  C   UNL A   1      42.584   9.846  43.259  1.00  0.00     0.076 C 
ATOM     29  C   UNL A   1      44.348  11.048  44.777  1.00  0.00     0.005 C 
ATOM     30  C   UNL A   1      44.074  10.244  43.469  1.00  0.00     0.008 C 
ENDBRANCH  11  12
ENDBRANCH   8  11
ENDBRANCH   5   7
ENDBRANCH   3   5
ENDBRANCH   2   3
ENDBRANCH   1   2
BRANCH   1  31
ATOM     31  C   UNL A   1      46.164  23.327  37.170  1.00  0.00     0.275 C 
BRANCH  31  32
ATOM     32  O   UNL A   1      46.066  24.449  36.278  1.00  0.00    -0.458 OA
BRANCH  32  33
ATOM     33  C   UNL A   1      44.824  24.716  35.801  1.00  0.00     0.338 C 
ATOM     34  O   UNL A   1      43.769  24.643  36.382  1.00  0.00    -0.246 OA
BRANCH  33  35
ATOM     35  C   UNL A   1      44.997  25.277  34.456  1.00  0.00     0.060 A 
ATOM     36  C   UNL A   1      44.285  24.759  33.378  1.00  0.00     0.016 A 
ATOM     37  C   UNL A   1      45.914  26.315  34.285  1.00  0.00     0.016 A 
ATOM     38  C   UNL A   1      44.507  25.291  32.112  1.00  0.00     0.010 A 
ATOM     39  C   UNL A   1      46.138  26.842  33.022  1.00  0.00     0.010 A 
ATOM     40  C   UNL A   1      45.433  26.335  31.932  1.00  0.00    -0.014 A 
BRANCH  40  41
ATOM     41  C   UNL A   1      45.632  26.859  30.574  1.00  0.00     0.031 A 
ATOM     42  C   UNL A   1      45.411  25.896  29.446  1.00  0.00     0.074 A 
ATOM     43  C   UNL A   1      45.374  28.163  30.352  1.00  0.00     0.049 A 
ATOM     44  N   UNL A   1      44.240  25.578  28.973  1.00  0.00    -0.248 NA
ATOM     45  C   UNL A   1      46.497  25.057  28.937  1.00  0.00     0.031 C 
ATOM     46  C   UNL A   1      44.285  28.905  31.006  1.00  0.00     0.029 A 
ATOM     47  N   UNL A   1      45.833  29.014  29.378  1.00  0.00    -0.354 N 
ATOM     48  C   UNL A   1      44.416  24.496  28.124  1.00  0.00     0.074 A 
ATOM     49  C   UNL A   1      45.834  24.211  28.133  1.00  0.00     0.031 C 
ATOM     50  C   UNL A   1      44.046  30.027  30.301  1.00  0.00     0.029 A 
ATOM     51  C   UNL A   1      45.045  30.154  29.246  1.00  0.00     0.049 A 
ATOM     52  H   UNL A   1      46.632  28.836  28.832  1.00  0.00     0.167 HD
ATOM     53  C   UNL A   1      43.401  23.898  27.444  1.00  0.00     0.037 A 
ATOM     54  C   UNL A   1      44.882  30.841  28.083  1.00  0.00     0.037 A 
ATOM     55  C   UNL A   1      42.103  24.473  27.632  1.00  0.00     0.049 A 
ATOM     56  C   UNL A   1      43.939  29.905  27.358  1.00  0.00     0.074 A 
ATOM     57  C   UNL A   1      41.003  24.265  28.436  1.00  0.00     0.029 A 
ATOM     58  N   UNL A   1      41.775  25.572  26.873  1.00  0.00    -0.354 N 
ATOM     59  N   UNL A   1      42.650  29.802  27.558  1.00  0.00    -0.248 NA
ATOM     60  C   UNL A   1      44.535  28.771  26.647  1.00  0.00     0.031 C 
ATOM     61  C   UNL A   1      40.295  25.509  28.441  1.00  0.00     0.029 A 
ATOM     62  C   UNL A   1      41.043  26.406  27.680  1.00  0.00     0.049 A 
ATOM     63  H   UNL A   1      42.018  25.730  25.932  1.00  0.00     0.167 HD
ATOM     64  C   UNL A   1      42.331  28.475  27.254  1.00  0.00     0.074 A 
ATOM     65  C   UNL A   1      43.532  27.905  26.677  1.00  0.00     0.031 C 
ATOM     66  C   UNL A   1      41.185  27.846  27.652  1.00  0.00     0.037 A 
BRANCH  53  67
ATOM     67  C   UNL A   1      43.579  22.866  26.400  1.00  0.00     0.058 A 
ATOM     68  C   UNL A   1      43.203  21.549  26.708  1.00  0.00     0.135 A 
ATOM     69  C   UNL A   1      44.304  23.088  25.224  1.00  0.00     0.135 A 
ATOM     70  F   UNL A   1      42.514  21.294  27.833  1.00  0.00    -0.206 F 
ATOM     71  C   UNL A   1      43.584  20.477  25.915  1.00  0.00     0.059 A 
ATOM     72  C   UNL A   1      44.690  22.028  24.404  1.00  0.00     0.059 A 
ATOM     73  F   UNL A   1      44.693  24.330  24.891  1.00  0.00    -0.206 F 
ATOM     74  C   UNL A   1      44.350  20.724  24.776  1.00  0.00     0.060 A 
BRANCH  74  75
ATOM     75  S   UNL A   1      44.931  19.302  23.826  1.00  0.00     0.124 S 
ATOM     76  O   UNL A   1      44.406  19.593  22.497  1.00  0.00    -0.237 OA
ATOM     77  O   UNL A   1      46.379  19.410  23.975  1.00  0.00    -0.237 OA
ATOM     78  O   UNL A   1      44.319  18.164  24.508  1.00  0.00    -0.744 OA
ENDBRANCH  74  75
ENDBRANCH  53  67
BRANCH  54  79
ATOM     79  C   UNL A   1      46.167  31.371  27.518  1.00  0.00     0.058 A 
ATOM     80  C   UNL A   1      46.247  32.757  27.251  1.00  0.00     0.135 A 
ATOM     81  C   UNL A   1      47.332  30.632  27.274  1.00  0.00     0.135 A 
ATOM     82  F   UNL A   1      45.148  33.527  27.326  1.00  0.00    -0.206 F 
ATOM     83  C   UNL A   1      47.445  33.394  26.944  1.00  0.00     0.059 A 
ATOM     84  C   UNL A   1      48.553  31.248  26.985  1.00  0.00     0.059 A 
ATOM     85  F   UNL A   1      47.329  29.294  27.340  1.00  0.00    -0.206 F 
ATOM     86  C   UNL A   1      48.606  32.634  26.865  1.00  0.00     0.060 A 
BRANCH  86  87
ATOM     87  S   UNL A   1      50.180  33.495  26.676  1.00  0.00     0.124 S 
ATOM     88  O   UNL A   1      49.833  34.854  27.080  1.00  0.00    -0.237 OA
ATOM     89  O   UNL A   1      51.035  32.756  27.601  1.00  0.00    -0.237 OA
ATOM     90  O   UNL A   1      50.494  33.320  25.262  1.00  0.00    -0.744 OA
ENDBRANCH  86  87
ENDBRANCH  54  79
BRANCH  66  91
ATOM     91  C   UNL A   1      40.143  28.699  28.294  1.00  0.00     0.058 A 
ATOM     92  C   UNL A   1      39.206  29.379  27.507  1.00  0.00     0.135 A 
ATOM     93  C   UNL A   1      39.997  28.763  29.690  1.00  0.00     0.135 A 
ATOM     94  F   UNL A   1      39.290  29.343  26.167  1.00  0.00    -0.206 F 
ATOM     95  C   UNL A   1      38.136  30.062  28.080  1.00  0.00     0.059 A 
ATOM     96  C   UNL A   1      38.920  29.417  30.284  1.00  0.00     0.059 A 
ATOM     97  F   UNL A   1      40.875  28.149  30.501  1.00  0.00    -0.206 F 
ATOM     98  C   UNL A   1      37.988  30.055  29.468  1.00  0.00     0.060 A 
BRANCH  98  99
ATOM     99  S   UNL A   1      36.517  30.819  30.183  1.00  0.00     0.124 S 
ATOM    100  O   UNL A   1      37.025  32.117  30.613  1.00  0.00    -0.237 OA
ATOM    101  O   UNL A   1      35.597  30.844  29.048  1.00  0.00    -0.237 OA
ATOM    102  O   UNL A   1      36.141  29.905  31.259  1.00  0.00    -0.744 OA
ENDBRANCH  98  99
ENDBRANCH  66  91
ENDBRANCH  40  41
ENDBRANCH  33  35
ENDBRANCH  32  33
ENDBRANCH  31  32
ENDBRANCH   1  31
TORSDOF 17
ENDMDL
MODEL 2
REMARK VINA RESULT:     -12.9      7.709     15.303
REMARK SMILES Cc1c(CC(=O)N[C@@H](C)C(=O)OCCOC(=O)c2ccc(-c3c4nc(c(-c5c(F)cc(S(=O)(=O)[O-])cc5F)c5ccc([nH]5)c(-c5c(F)cc(S(=O)(=O)[O-])cc5F)c5nc(c(-c6c(F)cc(S(=O)(=O)[O-])cc6F)c6ccc3[nH]6)C=C5)C=C4)cc2)c(=O)oc2cc3oc4c(c3cc12)CCCC4
REMARK SMILES IDX 13 1 12 2 10 3 11 4 8 5 9 6 7 7 5 8 6 9 4 11 3 12 1 13 2 14
REMARK SMILES IDX 95 15 84 16 87 17 94 18 85 19 86 20 88 21 93 22 89 23 92 24
REMARK SMILES IDX 90 25 91 26 96 27 99 28 97 29 98 30 14 31 15 32 16 33 17 34
REMARK SMILES IDX 18 35 19 36 83 37 20 38 82 39 21 40 22 41 23 42 76 43 24 44
REMARK SMILES IDX 81 45 75 46 77 47 25 48 80 49 74 50 73 51 26 53 60 54 39 55
REMARK SMILES IDX 59 56 40 57 43 58 58 59 78 60 41 61 42 62 57 64 79 65 44 66
REMARK SMILES IDX 27 67 28 68 37 69 29 70 30 71 36 72 38 73 31 74 32 75 33 76
REMARK SMILES IDX 34 77 35 78 61 79 62 80 71 81 63 82 64 83 70 84 72 85 65 86
REMARK SMILES IDX 66 87 67 88 68 89 69 90 45 91 46 92 55 93 47 94 48 95 54 96
REMARK SMILES IDX 56 97 49 98 50 99 51 100 52 101 53 102
REMARK H PARENT 7 10 77 52 43 63
REMARK Flexibility Score: inf
ROOT
ATOM      1  C   UNL A   1      38.138  22.430  25.875  1.00  0.00     0.274 C 
ENDROOT
BRANCH   1   2
ATOM      2  O   UNL A   1      37.322  22.202  24.712  1.00  0.00    -0.461 OA
BRANCH   2   3
ATOM      3  C   UNL A   1      36.208  21.442  24.896  1.00  0.00     0.328 C 
ATOM      4  O   UNL A   1      36.206  20.225  25.021  1.00  0.00    -0.250 OA
BRANCH   3   5
ATOM      5  C   UNL A   1      34.933  22.294  24.924  1.00  0.00     0.189 C 
ATOM      6  C   UNL A   1      33.796  21.462  25.500  1.00  0.00     0.043 C 
BRANCH   5   7
ATOM      7  N   UNL A   1      34.567  22.828  23.608  1.00  0.00    -0.343 N 
ATOM      8  C   UNL A   1      34.187  24.093  23.261  1.00  0.00     0.225 C 
ATOM      9  O   UNL A   1      34.035  24.343  22.061  1.00  0.00    -0.275 OA
ATOM     10  H   UNL A   1      34.599  22.180  22.867  1.00  0.00     0.164 HD
BRANCH   8  11
ATOM     11  C   UNL A   1      33.897  25.150  24.332  1.00  0.00     0.143 C 
BRANCH  11  12
ATOM     12  C   UNL A   1      32.491  25.688  24.214  1.00  0.00     0.051 A 
ATOM     13  C   UNL A   1      33.142  27.628  22.747  1.00  0.00     0.046 C 
ATOM     14  C   UNL A   1      32.143  26.701  23.398  1.00  0.00    -0.029 A 
ATOM     15  C   UNL A   1      30.716  26.962  23.170  1.00  0.00     0.022 A 
ATOM     16  C   UNL A   1      31.479  24.973  25.038  1.00  0.00     0.340 A 
ATOM     17  C   UNL A   1      29.764  26.321  23.965  1.00  0.00     0.142 A 
ATOM     18  C   UNL A   1      30.298  27.918  22.239  1.00  0.00     0.024 A 
ATOM     19  O   UNL A   1      31.811  24.109  25.840  1.00  0.00    -0.246 OA
ATOM     20  O   UNL A   1      30.150  25.313  24.864  1.00  0.00    -0.422 OA
ATOM     21  C   UNL A   1      28.416  26.691  24.007  1.00  0.00     0.095 A 
ATOM     22  C   UNL A   1      29.012  28.445  22.396  1.00  0.00     0.025 A 
ATOM     23  C   UNL A   1      28.139  27.854  23.305  1.00  0.00     0.138 A 
ATOM     24  C   UNL A   1      28.463  29.708  22.064  1.00  0.00     0.001 A 
ATOM     25  O   UNL A   1      27.096  28.696  23.563  1.00  0.00    -0.461 OA
ATOM     26  C   UNL A   1      27.437  29.868  22.973  1.00  0.00     0.108 A 
ATOM     27  C   UNL A   1      29.159  30.904  21.524  1.00  0.00     0.040 C 
ATOM     28  C   UNL A   1      27.267  31.136  23.738  1.00  0.00     0.076 C 
ATOM     29  C   UNL A   1      29.578  31.808  22.704  1.00  0.00     0.005 C 
ATOM     30  C   UNL A   1      28.712  31.656  23.992  1.00  0.00     0.008 C 
ENDBRANCH  11  12
ENDBRANCH   8  11
ENDBRANCH   5   7
ENDBRANCH   3   5
ENDBRANCH   2   3
ENDBRANCH   1   2
BRANCH   1  31
ATOM     31  C   UNL A   1      39.272  21.405  25.909  1.00  0.00     0.275 C 
BRANCH  31  32
ATOM     32  O   UNL A   1      40.032  21.535  27.121  1.00  0.00    -0.458 OA
BRANCH  32  33
ATOM     33  C   UNL A   1      41.373  21.673  26.964  1.00  0.00     0.338 C 
ATOM     34  O   UNL A   1      42.178  20.833  26.643  1.00  0.00    -0.246 OA
BRANCH  33  35
ATOM     35  C   UNL A   1      41.672  23.103  27.105  1.00  0.00     0.060 A 
ATOM     36  C   UNL A   1      42.573  23.722  26.243  1.00  0.00     0.016 A 
ATOM     37  C   UNL A   1      41.057  23.810  28.138  1.00  0.00     0.016 A 
ATOM     38  C   UNL A   1      42.861  25.070  26.433  1.00  0.00     0.010 A 
ATOM     39  C   UNL A   1      41.347  25.152  28.330  1.00  0.00     0.010 A 
ATOM     40  C   UNL A   1      42.248  25.788  27.476  1.00  0.00    -0.014 A 
BRANCH  40  41
ATOM     41  C   UNL A   1      42.588  27.208  27.635  1.00  0.00     0.031 A 
ATOM     42  C   UNL A   1      41.443  28.175  27.634  1.00  0.00     0.074 A 
ATOM     43  C   UNL A   1      43.681  27.522  28.359  1.00  0.00     0.049 A 
ATOM     44  N   UNL A   1      40.684  28.413  28.665  1.00  0.00    -0.248 NA
ATOM     45  C   UNL A   1      40.944  28.764  26.390  1.00  0.00     0.031 C 
ATOM     46  C   UNL A   1      44.112  26.781  29.554  1.00  0.00     0.029 A 
ATOM     47  N   UNL A   1      44.472  28.643  28.346  1.00  0.00    -0.354 N 
ATOM     48  C   UNL A   1      39.604  29.160  28.221  1.00  0.00     0.074 A 
ATOM     49  C   UNL A   1      39.811  29.353  26.803  1.00  0.00     0.031 C 
ATOM     50  C   UNL A   1      44.966  27.553  30.254  1.00  0.00     0.029 A 
ATOM     51  C   UNL A   1      45.250  28.764  29.494  1.00  0.00     0.049 A 
ATOM     52  H   UNL A   1      44.487  29.291  27.606  1.00  0.00     0.167 HD
ATOM     53  C   UNL A   1      38.604  29.596  29.033  1.00  0.00     0.037 A 
ATOM     54  C   UNL A   1      45.653  29.951  30.024  1.00  0.00     0.037 A 
ATOM     55  C   UNL A   1      38.736  29.259  30.419  1.00  0.00     0.049 A 
ATOM     56  C   UNL A   1      44.356  30.408  30.656  1.00  0.00     0.074 A 
ATOM     57  C   UNL A   1      38.303  28.268  31.273  1.00  0.00     0.029 A 
ATOM     58  N   UNL A   1      39.531  30.067  31.199  1.00  0.00    -0.354 N 
ATOM     59  N   UNL A   1      43.863  29.989  31.794  1.00  0.00    -0.248 NA
ATOM     60  C   UNL A   1      43.388  31.082  29.787  1.00  0.00     0.031 C 
ATOM     61  C   UNL A   1      39.225  28.280  32.367  1.00  0.00     0.029 A 
ATOM     62  C   UNL A   1      40.190  29.244  32.077  1.00  0.00     0.049 A 
ATOM     63  H   UNL A   1      39.611  31.046  31.139  1.00  0.00     0.167 HD
ATOM     64  C   UNL A   1      42.475  30.094  31.658  1.00  0.00     0.074 A 
ATOM     65  C   UNL A   1      42.253  30.796  30.411  1.00  0.00     0.031 C 
ATOM     66  C   UNL A   1      41.572  29.448  32.455  1.00  0.00     0.037 A 
BRANCH  53  67
ATOM     67  C   UNL A   1      37.539  30.539  28.628  1.00  0.00     0.058 A 
ATOM     68  C   UNL A   1      37.743  31.906  28.880  1.00  0.00     0.135 A 
ATOM     69  C   UNL A   1      36.265  30.125  28.226  1.00  0.00     0.135 A 
ATOM     70  F   UNL A   1      38.950  32.342  29.277  1.00  0.00    -0.206 F 
ATOM     71  C   UNL A   1      36.708  32.825  28.797  1.00  0.00     0.059 A 
ATOM     72  C   UNL A   1      35.210  31.032  28.125  1.00  0.00     0.059 A 
ATOM     73  F   UNL A   1      36.019  28.827  27.981  1.00  0.00    -0.206 F 
ATOM     74  C   UNL A   1      35.437  32.375  28.443  1.00  0.00     0.060 A 
BRANCH  74  75
ATOM     75  S   UNL A   1      34.084  33.571  28.458  1.00  0.00     0.124 S 
ATOM     76  O   UNL A   1      33.826  33.715  29.886  1.00  0.00    -0.237 OA
ATOM     77  O   UNL A   1      34.693  34.724  27.803  1.00  0.00    -0.237 OA
ATOM     78  O   UNL A   1      33.032  32.906  27.695  1.00  0.00    -0.744 OA
ENDBRANCH  74  75
ENDBRANCH  53  67
BRANCH  54  79
ATOM     79  C   UNL A   1      46.484  30.773  29.083  1.00  0.00     0.058 A 
ATOM     80  C   UNL A   1      46.571  32.164  29.323  1.00  0.00     0.135 A 
ATOM     81  C   UNL A   1      47.239  30.290  28.006  1.00  0.00     0.135 A 
ATOM     82  F   UNL A   1      45.783  32.743  30.246  1.00  0.00    -0.206 F 
ATOM     83  C   UNL A   1      47.480  32.984  28.664  1.00  0.00     0.059 A 
ATOM     84  C   UNL A   1      48.176  31.086  27.342  1.00  0.00     0.059 A 
ATOM     85  F   UNL A   1      47.115  29.023  27.587  1.00  0.00    -0.206 F 
ATOM     86  C   UNL A   1      48.318  32.422  27.708  1.00  0.00     0.060 A 
BRANCH  86  87
ATOM     87  S   UNL A   1      49.632  33.446  27.015  1.00  0.00     0.124 S 
ATOM     88  O   UNL A   1      49.281  34.770  27.516  1.00  0.00    -0.237 OA
ATOM     89  O   UNL A   1      50.822  32.839  27.604  1.00  0.00    -0.237 OA
ATOM     90  O   UNL A   1      49.484  33.257  25.576  1.00  0.00    -0.744 OA
ENDBRANCH  86  87
ENDBRANCH  54  79
BRANCH  66  91
ATOM     91  C   UNL A   1      42.119  28.738  33.647  1.00  0.00     0.058 A 
ATOM     92  C   UNL A   1      42.019  29.316  34.919  1.00  0.00     0.135 A 
ATOM     93  C   UNL A   1      42.647  27.439  33.557  1.00  0.00     0.135 A 
ATOM     94  F   UNL A   1      41.511  30.550  35.066  1.00  0.00    -0.206 F 
ATOM     95  C   UNL A   1      42.387  28.616  36.065  1.00  0.00     0.059 A 
ATOM     96  C   UNL A   1      42.996  26.711  34.691  1.00  0.00     0.059 A 
ATOM     97  F   UNL A   1      42.788  26.838  32.363  1.00  0.00    -0.206 F 
ATOM     98  C   UNL A   1      42.852  27.305  35.943  1.00  0.00     0.060 A 
BRANCH  98  99
ATOM     99  S   UNL A   1      43.184  26.363  37.447  1.00  0.00     0.124 S 
ATOM    100  O   UNL A   1      41.847  26.208  38.011  1.00  0.00    -0.237 OA
ATOM    101  O   UNL A   1      43.794  25.144  36.922  1.00  0.00    -0.237 OA
ATOM    102  O   UNL A   1      44.086  27.227  38.204  1.00  0.00    -0.744 OA
ENDBRANCH  98  99
ENDBRANCH  66  91
ENDBRANCH  40  41
ENDBRANCH  33  35
ENDBRANCH  32  33
ENDBRANCH  31  32
ENDBRANCH   1  31
TORSDOF 17
ENDMDL
MODEL 3
REMARK VINA RESULT:     -12.8      7.927     14.159
REMARK SMILES Cc1c(CC(=O)N[C@@H](C)C(=O)OCCOC(=O)c2ccc(-c3c4nc(c(-c5c(F)cc(S(=O)(=O)[O-])cc5F)c5ccc([nH]5)c(-c5c(F)cc(S(=O)(=O)[O-])cc5F)c5nc(c(-c6c(F)cc(S(=O)(=O)[O-])cc6F)c6ccc3[nH]6)C=C5)C=C4)cc2)c(=O)oc2cc3oc4c(c3cc12)CCCC4
REMARK SMILES IDX 13 1 12 2 10 3 11 4 8 5 9 6 7 7 5 8 6 9 4 11 3 12 1 13 2 14
REMARK SMILES IDX 95 15 84 16 87 17 94 18 85 19 86 20 88 21 93 22 89 23 92 24
REMARK SMILES IDX 90 25 91 26 96 27 99 28 97 29 98 30 14 31 15 32 16 33 17 34
REMARK SMILES IDX 18 35 19 36 83 37 20 38 82 39 21 40 22 41 23 42 76 43 24 44
REMARK SMILES IDX 81 45 75 46 77 47 25 48 80 49 74 50 73 51 26 53 60 54 39 55
REMARK SMILES IDX 59 56 40 57 43 58 58 59 78 60 41 61 42 62 57 64 79 65 44 66
REMARK SMILES IDX 27 67 28 68 37 69 29 70 30 71 36 72 38 73 31 74 32 75 33 76
REMARK SMILES IDX 34 77 35 78 61 79 62 80 71 81 63 82 64 83 70 84 72 85 65 86
REMARK SMILES IDX 66 87 67 88 68 89 69 90 45 91 46 92 55 93 47 94 48 95 54 96
REMARK SMILES IDX 56 97 49 98 50 99 51 100 52 101 53 102
REMARK H PARENT 7 10 77 52 43 63
REMARK Flexibility Score: inf
ROOT
ATOM      1  C   UNL A   1      40.087  19.936  26.199  1.00  0.00     0.274 C 
ENDROOT
BRANCH   1   2
ATOM      2  O   UNL A   1      39.321  21.133  25.979  1.00  0.00    -0.461 OA
BRANCH   2   3
ATOM      3  C   UNL A   1      38.121  20.977  25.355  1.00  0.00     0.328 C 
ATOM      4  O   UNL A   1      37.798  19.994  24.701  1.00  0.00    -0.250 OA
BRANCH   3   5
ATOM      5  C   UNL A   1      37.206  22.190  25.560  1.00  0.00     0.189 C 
ATOM      6  C   UNL A   1      38.047  23.370  26.025  1.00  0.00     0.043 C 
BRANCH   5   7
ATOM      7  N   UNL A   1      36.111  21.935  26.501  1.00  0.00    -0.343 N 
ATOM      8  C   UNL A   1      34.848  21.476  26.257  1.00  0.00     0.225 C 
ATOM      9  O   UNL A   1      34.125  21.227  27.228  1.00  0.00    -0.275 OA
ATOM     10  H   UNL A   1      36.316  22.122  27.446  1.00  0.00     0.164 HD
BRANCH   8  11
ATOM     11  C   UNL A   1      34.323  21.337  24.825  1.00  0.00     0.143 C 
BRANCH  11  12
ATOM     12  C   UNL A   1      33.326  22.421  24.491  1.00  0.00     0.051 A 
ATOM     13  C   UNL A   1      35.080  24.161  24.003  1.00  0.00     0.046 C 
ATOM     14  C   UNL A   1      33.668  23.624  23.993  1.00  0.00    -0.029 A 
ATOM     15  C   UNL A   1      32.608  24.491  23.461  1.00  0.00     0.022 A 
ATOM     16  C   UNL A   1      31.902  22.045  24.703  1.00  0.00     0.340 A 
ATOM     17  C   UNL A   1      31.271  24.162  23.690  1.00  0.00     0.142 A 
ATOM     18  C   UNL A   1      32.917  25.695  22.820  1.00  0.00     0.024 A 
ATOM     19  O   UNL A   1      31.600  20.983  25.235  1.00  0.00    -0.246 OA
ATOM     20  O   UNL A   1      30.931  22.931  24.275  1.00  0.00    -0.422 OA
ATOM     21  C   UNL A   1      30.208  25.042  23.460  1.00  0.00     0.095 A 
ATOM     22  C   UNL A   1      31.911  26.667  22.764  1.00  0.00     0.025 A 
ATOM     23  C   UNL A   1      30.613  26.327  23.133  1.00  0.00     0.138 A 
ATOM     24  C   UNL A   1      31.968  28.081  22.725  1.00  0.00     0.001 A 
ATOM     25  O   UNL A   1      29.878  27.458  23.343  1.00  0.00    -0.461 OA
ATOM     26  C   UNL A   1      30.775  28.472  23.299  1.00  0.00     0.108 A 
ATOM     27  C   UNL A   1      33.160  28.961  22.836  1.00  0.00     0.040 C 
ATOM     28  C   UNL A   1      30.729  29.522  24.356  1.00  0.00     0.076 C 
ATOM     29  C   UNL A   1      33.343  29.363  24.317  1.00  0.00     0.005 C 
ATOM     30  C   UNL A   1      32.040  29.336  25.173  1.00  0.00     0.008 C 
ENDBRANCH  11  12
ENDBRANCH   8  11
ENDBRANCH   5   7
ENDBRANCH   3   5
ENDBRANCH   2   3
ENDBRANCH   1   2
BRANCH   1  31
ATOM     31  C   UNL A   1      41.544  20.186  25.805  1.00  0.00     0.275 C 
BRANCH  31  32
ATOM     32  O   UNL A   1      41.919  21.541  26.100  1.00  0.00    -0.458 OA
BRANCH  32  33
ATOM     33  C   UNL A   1      42.227  21.799  27.397  1.00  0.00     0.338 C 
ATOM     34  O   UNL A   1      42.436  21.010  28.286  1.00  0.00    -0.246 OA
BRANCH  33  35
ATOM     35  C   UNL A   1      42.425  23.249  27.507  1.00  0.00     0.060 A 
ATOM     36  C   UNL A   1      43.570  23.845  26.987  1.00  0.00     0.016 A 
ATOM     37  C   UNL A   1      41.456  24.001  28.170  1.00  0.00     0.016 A 
ATOM     38  C   UNL A   1      43.741  25.217  27.146  1.00  0.00     0.010 A 
ATOM     39  C   UNL A   1      41.628  25.368  28.332  1.00  0.00     0.010 A 
ATOM     40  C   UNL A   1      42.769  25.981  27.818  1.00  0.00    -0.014 A 
BRANCH  40  41
ATOM     41  C   UNL A   1      42.999  27.424  27.961  1.00  0.00     0.031 A 
ATOM     42  C   UNL A   1      41.789  28.306  27.876  1.00  0.00     0.074 A 
ATOM     43  C   UNL A   1      44.025  27.831  28.734  1.00  0.00     0.049 A 
ATOM     44  N   UNL A   1      40.960  28.509  28.860  1.00  0.00    -0.248 NA
ATOM     45  C   UNL A   1      41.317  28.833  26.594  1.00  0.00     0.031 C 
ATOM     46  C   UNL A   1      44.442  27.147  29.967  1.00  0.00     0.029 A 
ATOM     47  N   UNL A   1      44.734  29.006  28.737  1.00  0.00    -0.354 N 
ATOM     48  C   UNL A   1      39.855  29.166  28.342  1.00  0.00     0.074 A 
ATOM     49  C   UNL A   1      40.125  29.347  26.932  1.00  0.00     0.031 C 
ATOM     50  C   UNL A   1      45.200  27.992  30.693  1.00  0.00     0.029 A 
ATOM     51  C   UNL A   1      45.438  29.206  29.921  1.00  0.00     0.049 A 
ATOM     52  H   UNL A   1      44.743  29.639  27.983  1.00  0.00     0.167 HD
ATOM     53  C   UNL A   1      38.784  29.545  29.090  1.00  0.00     0.037 A 
ATOM     54  C   UNL A   1      45.726  30.429  30.443  1.00  0.00     0.037 A 
ATOM     55  C   UNL A   1      38.864  29.246  30.488  1.00  0.00     0.049 A 
ATOM     56  C   UNL A   1      44.367  30.803  30.995  1.00  0.00     0.074 A 
ATOM     57  C   UNL A   1      38.457  28.243  31.341  1.00  0.00     0.029 A 
ATOM     58  N   UNL A   1      39.556  30.124  31.290  1.00  0.00    -0.354 N 
ATOM     59  N   UNL A   1      43.844  30.372  32.114  1.00  0.00    -0.248 NA
ATOM     60  C   UNL A   1      43.402  31.388  30.060  1.00  0.00     0.031 C 
ATOM     61  C   UNL A   1      39.315  28.343  32.482  1.00  0.00     0.029 A 
ATOM     62  C   UNL A   1      40.223  29.369  32.221  1.00  0.00     0.049 A 
ATOM     63  H   UNL A   1      39.569  31.106  31.211  1.00  0.00     0.167 HD
ATOM     64  C   UNL A   1      42.461  30.373  31.903  1.00  0.00     0.074 A 
ATOM     65  C   UNL A   1      42.258  31.033  30.629  1.00  0.00     0.031 C 
ATOM     66  C   UNL A   1      41.564  29.680  32.666  1.00  0.00     0.037 A 
BRANCH  53  67
ATOM     67  C   UNL A   1      37.679  30.401  28.607  1.00  0.00     0.058 A 
ATOM     68  C   UNL A   1      37.758  31.780  28.860  1.00  0.00     0.135 A 
ATOM     69  C   UNL A   1      36.471  29.886  28.123  1.00  0.00     0.135 A 
ATOM     70  F   UNL A   1      38.897  32.310  29.334  1.00  0.00    -0.206 F 
ATOM     71  C   UNL A   1      36.662  32.615  28.702  1.00  0.00     0.059 A 
ATOM     72  C   UNL A   1      35.357  30.708  27.945  1.00  0.00     0.059 A 
ATOM     73  F   UNL A   1      36.344  28.573  27.874  1.00  0.00    -0.206 F 
ATOM     74  C   UNL A   1      35.456  32.065  28.267  1.00  0.00     0.060 A 
BRANCH  74  75
ATOM     75  S   UNL A   1      34.016  33.151  28.182  1.00  0.00     0.124 S 
ATOM     76  O   UNL A   1      33.763  33.426  29.592  1.00  0.00    -0.237 OA
ATOM     77  O   UNL A   1      34.528  34.272  27.398  1.00  0.00    -0.237 OA
ATOM     78  O   UNL A   1      33.010  32.332  27.512  1.00  0.00    -0.744 OA
ENDBRANCH  74  75
ENDBRANCH  53  67
BRANCH  54  79
ATOM     79  C   UNL A   1      46.546  31.290  29.528  1.00  0.00     0.058 A 
ATOM     80  C   UNL A   1      47.903  31.504  29.866  1.00  0.00     0.135 A 
ATOM     81  C   UNL A   1      46.116  31.869  28.327  1.00  0.00     0.135 A 
ATOM     82  F   UNL A   1      48.376  31.105  31.060  1.00  0.00    -0.206 F 
ATOM     83  C   UNL A   1      48.811  32.089  28.990  1.00  0.00     0.059 A 
ATOM     84  C   UNL A   1      47.010  32.442  27.419  1.00  0.00     0.059 A 
ATOM     85  F   UNL A   1      44.821  31.866  27.983  1.00  0.00    -0.206 F 
ATOM     86  C   UNL A   1      48.362  32.508  27.743  1.00  0.00     0.060 A 
BRANCH  86  87
ATOM     87  S   UNL A   1      49.585  33.068  26.539  1.00  0.00     0.124 S 
ATOM     88  O   UNL A   1      50.279  31.827  26.212  1.00  0.00    -0.237 OA
ATOM     89  O   UNL A   1      48.734  33.616  25.487  1.00  0.00    -0.237 OA
ATOM     90  O   UNL A   1      50.366  34.050  27.283  1.00  0.00    -0.744 OA
ENDBRANCH  86  87
ENDBRANCH  54  79
BRANCH  66  91
ATOM     91  C   UNL A   1      42.095  29.035  33.902  1.00  0.00     0.058 A 
ATOM     92  C   UNL A   1      42.697  27.773  33.837  1.00  0.00     0.135 A 
ATOM     93  C   UNL A   1      42.108  29.705  35.138  1.00  0.00     0.135 A 
ATOM     94  F   UNL A   1      42.724  27.093  32.679  1.00  0.00    -0.206 F 
ATOM     95  C   UNL A   1      43.329  27.212  34.943  1.00  0.00     0.059 A 
ATOM     96  C   UNL A   1      42.757  29.175  36.250  1.00  0.00     0.059 A 
ATOM     97  F   UNL A   1      41.528  30.910  35.271  1.00  0.00    -0.206 F 
ATOM     98  C   UNL A   1      43.375  27.931  36.139  1.00  0.00     0.060 A 
BRANCH  98  99
ATOM     99  S   UNL A   1      44.325  27.255  37.517  1.00  0.00     0.124 S 
ATOM    100  O   UNL A   1      44.757  28.462  38.212  1.00  0.00    -0.237 OA
ATOM    101  O   UNL A   1      43.328  26.446  38.215  1.00  0.00    -0.237 OA
ATOM    102  O   UNL A   1      45.387  26.494  36.864  1.00  0.00    -0.744 OA
ENDBRANCH  98  99
ENDBRANCH  66  91
ENDBRANCH  40  41
ENDBRANCH  33  35
ENDBRANCH  32  33
ENDBRANCH  31  32
ENDBRANCH   1  31
TORSDOF 17
ENDMDL
