MODEL 1
REMARK VINA RESULT:     -11.5      0.000      0.000
REMARK SMILES CC(C)C[C@H](NC(=O)CNC(=O)[C@@H](NC(=O)OCc1ccccc1)C(C)C)C(=O)N[C@@H](C)C(=O)OCCOC(=O)c1ccc(-c2c3nc(c(-c4c(F)cc(S(=O)(=O)[O-])cc4F)c4ccc([nH]4)c(-c4c(F)cc(S(=O)(=O)[O-])cc4F)c4nc(c(-c5c(F)cc(S(=O)(=O)[O-])cc5F)c5ccc2[nH]5)C=C4)C=C3)cc1
REMARK SMILES IDX 31 1 32 2 30 3 28 4 29 5 5 7 4 8 2 9 1 10 3 11 6 12 7 13
REMARK SMILES IDX 8 15 9 16 10 17 11 18 12 20 13 21 14 22 15 23 16 25 17 26
REMARK SMILES IDX 18 27 19 28 20 29 24 30 21 31 23 32 22 33 25 34 26 35 27 36
REMARK SMILES IDX 33 37 34 38 35 39 36 40 37 41 38 42 39 43 40 44 41 45 42 46
REMARK SMILES IDX 106 47 43 48 105 49 44 50 45 51 46 52 99 53 47 54 104 55
REMARK SMILES IDX 98 56 100 57 48 58 103 59 97 60 96 61 49 63 83 64 62 65
REMARK SMILES IDX 82 66 63 67 66 68 81 69 101 70 64 71 65 72 80 74 102 75
REMARK SMILES IDX 67 76 50 77 51 78 60 79 52 80 53 81 59 82 61 83 54 84 55 85
REMARK SMILES IDX 56 86 57 87 58 88 84 89 85 90 94 91 86 92 87 93 93 94 95 95
REMARK SMILES IDX 88 96 89 97 90 98 91 99 92 100 68 101 69 102 78 103 70 104
REMARK SMILES IDX 71 105 77 106 79 107 72 108 73 109 74 110 75 111 76 112
REMARK H PARENT 30 6 6 14 10 19 14 24 100 62 66 73
REMARK Flexibility Score: inf
ROOT
ATOM      1  C   UNL A   1      35.759  22.470  24.011  1.00  0.00     0.189 C 
ATOM      2  C   UNL A   1      36.592  22.974  22.837  1.00  0.00     0.043 C 
ENDROOT
BRANCH   1   3
ATOM      3  N   UNL A   1      34.371  22.275  23.610  1.00  0.00    -0.341 N 
ATOM      4  C   UNL A   1      33.360  21.522  24.107  1.00  0.00     0.243 C 
ATOM      5  O   UNL A   1      32.250  21.666  23.568  1.00  0.00    -0.273 OA
ATOM      6  H   UNL A   1      34.116  22.798  22.815  1.00  0.00     0.164 HD
BRANCH   4   7
ATOM      7  C   UNL A   1      33.456  20.588  25.347  1.00  0.00     0.171 C 
BRANCH   7   8
ATOM      8  C   UNL A   1      32.516  19.392  25.213  1.00  0.00     0.038 C 
BRANCH   8   9
ATOM      9  C   UNL A   1      33.150  18.182  24.481  1.00  0.00    -0.015 C 
ATOM     10  C   UNL A   1      34.674  18.247  24.555  1.00  0.00     0.007 C 
ATOM     11  C   UNL A   1      32.684  16.857  25.084  1.00  0.00     0.007 C 
ENDBRANCH   8   9
ENDBRANCH   7   8
BRANCH   7  12
ATOM     12  N   UNL A   1      33.356  21.225  26.654  1.00  0.00    -0.343 N 
ATOM     13  C   UNL A   1      32.759  22.386  27.035  1.00  0.00     0.240 C 
ATOM     14  H   UNL A   1      33.794  20.731  27.385  1.00  0.00     0.164 HD
ATOM     15  O   UNL A   1      32.706  22.589  28.255  1.00  0.00    -0.273 OA
BRANCH  13  16
ATOM     16  C   UNL A   1      32.045  23.374  26.082  1.00  0.00     0.216 C 
BRANCH  16  17
ATOM     17  N   UNL A   1      31.274  24.492  26.583  1.00  0.00    -0.345 N 
ATOM     18  C   UNL A   1      31.392  25.837  26.427  1.00  0.00     0.243 C 
ATOM     19  H   UNL A   1      30.513  24.225  27.147  1.00  0.00     0.164 HD
ATOM     20  O   UNL A   1      30.481  26.526  26.903  1.00  0.00    -0.273 OA
BRANCH  18  21
ATOM     21  C   UNL A   1      32.512  26.533  25.612  1.00  0.00     0.177 C 
BRANCH  21  22
ATOM     22  N   UNL A   1      32.529  26.134  24.203  1.00  0.00    -0.309 N 
ATOM     23  C   UNL A   1      31.571  26.047  23.243  1.00  0.00     0.408 C 
ATOM     24  H   UNL A   1      33.424  25.872  23.885  1.00  0.00     0.167 HD
ATOM     25  O   UNL A   1      31.743  25.392  22.232  1.00  0.00    -0.225 OA
BRANCH  23  26
ATOM     26  O   UNL A   1      30.492  26.825  23.485  1.00  0.00    -0.445 OA
BRANCH  26  27
ATOM     27  C   UNL A   1      30.245  27.817  22.479  1.00  0.00     0.270 C 
BRANCH  27  28
ATOM     28  C   UNL A   1      29.422  29.001  22.958  1.00  0.00    -0.011 A 
ATOM     29  C   UNL A   1      29.984  30.154  23.532  1.00  0.00     0.007 A 
ATOM     30  C   UNL A   1      28.033  28.980  22.753  1.00  0.00     0.007 A 
ATOM     31  C   UNL A   1      29.195  31.249  23.884  1.00  0.00     0.000 A 
ATOM     32  C   UNL A   1      27.241  30.073  23.115  1.00  0.00     0.000 A 
ATOM     33  C   UNL A   1      27.822  31.209  23.675  1.00  0.00     0.000 A 
ENDBRANCH  27  28
ENDBRANCH  26  27
ENDBRANCH  23  26
ENDBRANCH  21  22
BRANCH  21  34
ATOM     34  C   UNL A   1      32.628  28.037  25.936  1.00  0.00     0.015 C 
ATOM     35  C   UNL A   1      32.537  28.302  27.447  1.00  0.00     0.010 C 
ATOM     36  C   UNL A   1      33.968  28.601  25.447  1.00  0.00     0.010 C 
ENDBRANCH  21  34
ENDBRANCH  18  21
ENDBRANCH  16  17
ENDBRANCH  13  16
ENDBRANCH   7  12
ENDBRANCH   4   7
ENDBRANCH   1   3
BRANCH   1  37
ATOM     37  C   UNL A   1      35.914  23.471  25.176  1.00  0.00     0.328 C 
ATOM     38  O   UNL A   1      35.268  24.510  25.247  1.00  0.00    -0.250 OA
BRANCH  37  39
ATOM     39  O   UNL A   1      36.816  23.058  26.110  1.00  0.00    -0.461 OA
BRANCH  39  40
ATOM     40  C   UNL A   1      38.099  23.715  26.100  1.00  0.00     0.274 C 
BRANCH  40  41
ATOM     41  C   UNL A   1      39.229  22.754  26.491  1.00  0.00     0.275 C 
BRANCH  41  42
ATOM     42  O   UNL A   1      40.061  23.290  27.542  1.00  0.00    -0.458 OA
BRANCH  42  43
ATOM     43  C   UNL A   1      40.854  24.298  27.119  1.00  0.00     0.338 C 
ATOM     44  O   UNL A   1      41.670  24.231  26.213  1.00  0.00    -0.246 OA
BRANCH  43  45
ATOM     45  C   UNL A   1      40.584  25.578  27.795  1.00  0.00     0.060 A 
ATOM     46  C   UNL A   1      41.646  26.474  27.908  1.00  0.00     0.016 A 
ATOM     47  C   UNL A   1      39.456  25.727  28.603  1.00  0.00     0.016 A 
ATOM     48  C   UNL A   1      41.647  27.419  28.932  1.00  0.00     0.010 A 
ATOM     49  C   UNL A   1      39.418  26.755  29.562  1.00  0.00     0.010 A 
ATOM     50  C   UNL A   1      40.535  27.579  29.775  1.00  0.00    -0.014 A 
BRANCH  50  51
ATOM     51  C   UNL A   1      40.547  28.656  30.809  1.00  0.00     0.031 A 
ATOM     52  C   UNL A   1      41.503  28.659  31.981  1.00  0.00     0.074 A 
ATOM     53  C   UNL A   1      39.689  29.684  30.659  1.00  0.00     0.049 A 
ATOM     54  N   UNL A   1      41.666  29.568  32.913  1.00  0.00    -0.248 NA
ATOM     55  C   UNL A   1      42.416  27.517  32.114  1.00  0.00     0.031 C 
ATOM     56  C   UNL A   1      38.735  29.833  29.556  1.00  0.00     0.029 A 
ATOM     57  N   UNL A   1      39.474  30.798  31.431  1.00  0.00    -0.354 N 
ATOM     58  C   UNL A   1      42.719  29.127  33.711  1.00  0.00     0.074 A 
ATOM     59  C   UNL A   1      43.154  27.862  33.163  1.00  0.00     0.031 C 
ATOM     60  C   UNL A   1      38.058  30.976  29.708  1.00  0.00     0.029 A 
ATOM     61  C   UNL A   1      38.453  31.591  30.967  1.00  0.00     0.049 A 
ATOM     62  H   UNL A   1      40.000  31.008  32.237  1.00  0.00     0.167 HD
ATOM     63  C   UNL A   1      43.262  29.710  34.809  1.00  0.00     0.037 A 
ATOM     64  C   UNL A   1      37.850  32.660  31.516  1.00  0.00     0.037 A 
ATOM     65  C   UNL A   1      42.750  30.912  35.421  1.00  0.00     0.049 A 
ATOM     66  C   UNL A   1      38.326  33.164  32.842  1.00  0.00     0.074 A 
ATOM     67  C   UNL A   1      43.207  31.566  36.554  1.00  0.00     0.029 A 
ATOM     68  N   UNL A   1      41.631  31.606  34.986  1.00  0.00    -0.354 N 
ATOM     69  N   UNL A   1      39.345  32.755  33.559  1.00  0.00    -0.248 NA
ATOM     70  C   UNL A   1      37.560  34.260  33.445  1.00  0.00     0.031 C 
ATOM     71  C   UNL A   1      42.312  32.603  36.851  1.00  0.00     0.029 A 
ATOM     72  C   UNL A   1      41.338  32.637  35.865  1.00  0.00     0.049 A 
ATOM     73  H   UNL A   1      41.119  31.397  34.173  1.00  0.00     0.167 HD
ATOM     74  C   UNL A   1      39.356  33.556  34.692  1.00  0.00     0.074 A 
ATOM     75  C   UNL A   1      38.245  34.479  34.560  1.00  0.00     0.031 C 
ATOM     76  C   UNL A   1      40.216  33.534  35.740  1.00  0.00     0.037 A 
BRANCH  63  77
ATOM     77  C   UNL A   1      44.424  29.019  35.477  1.00  0.00     0.058 A 
ATOM     78  C   UNL A   1      45.757  29.314  35.145  1.00  0.00     0.135 A 
ATOM     79  C   UNL A   1      44.201  28.083  36.500  1.00  0.00     0.135 A 
ATOM     80  F   UNL A   1      46.031  30.197  34.172  1.00  0.00    -0.206 F 
ATOM     81  C   UNL A   1      46.824  28.692  35.793  1.00  0.00     0.059 A 
ATOM     82  C   UNL A   1      45.251  27.463  37.172  1.00  0.00     0.059 A 
ATOM     83  F   UNL A   1      42.946  27.764  36.859  1.00  0.00    -0.206 F 
ATOM     84  C   UNL A   1      46.560  27.765  36.803  1.00  0.00     0.060 A 
BRANCH  84  85
ATOM     85  S   UNL A   1      47.950  26.955  37.629  1.00  0.00     0.124 S 
ATOM     86  O   UNL A   1      49.028  27.174  36.669  1.00  0.00    -0.237 OA
ATOM     87  O   UNL A   1      48.051  27.702  38.878  1.00  0.00    -0.237 OA
ATOM     88  O   UNL A   1      47.506  25.570  37.765  1.00  0.00    -0.744 OA
ENDBRANCH  84  85
ENDBRANCH  63  77
BRANCH  64  89
ATOM     89  C   UNL A   1      36.688  33.267  30.819  1.00  0.00     0.058 A 
ATOM     90  C   UNL A   1      35.379  33.031  31.253  1.00  0.00     0.135 A 
ATOM     91  C   UNL A   1      36.878  34.162  29.750  1.00  0.00     0.135 A 
ATOM     92  F   UNL A   1      35.150  32.177  32.262  1.00  0.00    -0.206 F 
ATOM     93  C   UNL A   1      34.294  33.671  30.663  1.00  0.00     0.059 A 
ATOM     94  C   UNL A   1      35.813  34.835  29.165  1.00  0.00     0.059 A 
ATOM     95  F   UNL A   1      38.117  34.431  29.309  1.00  0.00    -0.206 F 
ATOM     96  C   UNL A   1      34.523  34.581  29.627  1.00  0.00     0.060 A 
BRANCH  96  97
ATOM     97  S   UNL A   1      33.120  35.478  28.932  1.00  0.00     0.124 S 
ATOM     98  O   UNL A   1      32.497  34.450  28.107  1.00  0.00    -0.237 OA
ATOM     99  O   UNL A   1      32.385  35.873  30.129  1.00  0.00    -0.237 OA
ATOM    100  O   UNL A   1      33.751  36.576  28.205  1.00  0.00    -0.744 OA
ENDBRANCH  96  97
ENDBRANCH  64  89
BRANCH  76 101
ATOM    101  C   UNL A   1      39.994  34.553  36.822  1.00  0.00     0.058 A 
ATOM    102  C   UNL A   1      40.649  35.793  36.813  1.00  0.00     0.135 A 
ATOM    103  C   UNL A   1      39.105  34.287  37.875  1.00  0.00     0.135 A 
ATOM    104  F   UNL A   1      41.519  36.091  35.834  1.00  0.00    -0.206 F 
ATOM    105  C   UNL A   1      40.456  36.723  37.828  1.00  0.00     0.059 A 
ATOM    106  C   UNL A   1      38.875  35.214  38.887  1.00  0.00     0.059 A 
ATOM    107  F   UNL A   1      38.448  33.117  37.928  1.00  0.00    -0.206 F 
ATOM    108  C   UNL A   1      39.568  36.423  38.863  1.00  0.00     0.060 A 
BRANCH 108 109
ATOM    109  S   UNL A   1      39.315  37.642  40.169  1.00  0.00     0.124 S 
ATOM    110  O   UNL A   1      40.606  38.324  40.188  1.00  0.00    -0.237 OA
ATOM    111  O   UNL A   1      38.193  38.422  39.657  1.00  0.00    -0.237 OA
ATOM    112  O   UNL A   1      39.019  36.826  41.342  1.00  0.00    -0.744 OA
ENDBRANCH 108 109
ENDBRANCH  76 101
ENDBRANCH  50  51
ENDBRANCH  43  45
ENDBRANCH  42  43
ENDBRANCH  41  42
ENDBRANCH  40  41
ENDBRANCH  39  40
ENDBRANCH  37  39
ENDBRANCH   1  37
TORSDOF 27
ENDMDL
MODEL 2
REMARK VINA RESULT:     -11.3      1.211      2.239
REMARK SMILES CC(C)C[C@H](NC(=O)CNC(=O)[C@@H](NC(=O)OCc1ccccc1)C(C)C)C(=O)N[C@@H](C)C(=O)OCCOC(=O)c1ccc(-c2c3nc(c(-c4c(F)cc(S(=O)(=O)[O-])cc4F)c4ccc([nH]4)c(-c4c(F)cc(S(=O)(=O)[O-])cc4F)c4nc(c(-c5c(F)cc(S(=O)(=O)[O-])cc5F)c5ccc2[nH]5)C=C4)C=C3)cc1
REMARK SMILES IDX 31 1 32 2 30 3 28 4 29 5 5 7 4 8 2 9 1 10 3 11 6 12 7 13
REMARK SMILES IDX 8 15 9 16 10 17 11 18 12 20 13 21 14 22 15 23 16 25 17 26
REMARK SMILES IDX 18 27 19 28 20 29 24 30 21 31 23 32 22 33 25 34 26 35 27 36
REMARK SMILES IDX 33 37 34 38 35 39 36 40 37 41 38 42 39 43 40 44 41 45 42 46
REMARK SMILES IDX 106 47 43 48 105 49 44 50 45 51 46 52 99 53 47 54 104 55
REMARK SMILES IDX 98 56 100 57 48 58 103 59 97 60 96 61 49 63 83 64 62 65
REMARK SMILES IDX 82 66 63 67 66 68 81 69 101 70 64 71 65 72 80 74 102 75
REMARK SMILES IDX 67 76 50 77 51 78 60 79 52 80 53 81 59 82 61 83 54 84 55 85
REMARK SMILES IDX 56 86 57 87 58 88 84 89 85 90 94 91 86 92 87 93 93 94 95 95
REMARK SMILES IDX 88 96 89 97 90 98 91 99 92 100 68 101 69 102 78 103 70 104
REMARK SMILES IDX 71 105 77 106 79 107 72 108 73 109 74 110 75 111 76 112
REMARK H PARENT 30 6 6 14 10 19 14 24 100 62 66 73
REMARK Flexibility Score: inf
ROOT
ATOM      1  C   UNL A   1      36.755  22.481  25.471  1.00  0.00     0.189 C 
ATOM      2  C   UNL A   1      37.159  23.947  25.588  1.00  0.00     0.043 C 
ENDROOT
BRANCH   1   3
ATOM      3  N   UNL A   1      35.776  22.134  26.494  1.00  0.00    -0.341 N 
ATOM      4  C   UNL A   1      34.579  21.499  26.454  1.00  0.00     0.243 C 
ATOM      5  O   UNL A   1      34.036  21.280  27.550  1.00  0.00    -0.273 OA
ATOM      6  H   UNL A   1      36.038  22.420  27.399  1.00  0.00     0.164 HD
BRANCH   4   7
ATOM      7  C   UNL A   1      33.897  20.939  25.173  1.00  0.00     0.171 C 
BRANCH   7   8
ATOM      8  C   UNL A   1      34.454  19.565  24.806  1.00  0.00     0.038 C 
BRANCH   8   9
ATOM      9  C   UNL A   1      33.362  18.533  24.426  1.00  0.00    -0.015 C 
ATOM     10  C   UNL A   1      33.961  17.395  23.602  1.00  0.00     0.007 C 
ATOM     11  C   UNL A   1      32.693  17.943  25.667  1.00  0.00     0.007 C 
ENDBRANCH   8   9
ENDBRANCH   7   8
BRANCH   7  12
ATOM     12  N   UNL A   1      33.831  21.833  24.023  1.00  0.00    -0.343 N 
ATOM     13  C   UNL A   1      32.786  22.517  23.487  1.00  0.00     0.240 C 
ATOM     14  H   UNL A   1      34.689  21.964  23.557  1.00  0.00     0.164 HD
ATOM     15  O   UNL A   1      33.072  23.326  22.595  1.00  0.00    -0.273 OA
BRANCH  13  16
ATOM     16  C   UNL A   1      31.325  22.450  23.993  1.00  0.00     0.216 C 
BRANCH  16  17
ATOM     17  N   UNL A   1      30.960  22.883  25.325  1.00  0.00    -0.345 N 
ATOM     18  C   UNL A   1      30.734  24.109  25.868  1.00  0.00     0.243 C 
ATOM     19  H   UNL A   1      30.854  22.143  25.965  1.00  0.00     0.164 HD
ATOM     20  O   UNL A   1      30.318  24.126  27.032  1.00  0.00    -0.273 OA
BRANCH  18  21
ATOM     21  C   UNL A   1      30.856  25.448  25.095  1.00  0.00     0.177 C 
BRANCH  21  22
ATOM     22  N   UNL A   1      32.243  25.883  24.916  1.00  0.00    -0.309 N 
ATOM     23  C   UNL A   1      32.816  27.066  24.570  1.00  0.00     0.408 C 
ATOM     24  H   UNL A   1      32.898  25.167  25.080  1.00  0.00     0.167 HD
ATOM     25  O   UNL A   1      33.964  27.123  24.173  1.00  0.00    -0.225 OA
BRANCH  23  26
ATOM     26  O   UNL A   1      32.028  28.138  24.810  1.00  0.00    -0.445 OA
BRANCH  26  27
ATOM     27  C   UNL A   1      32.140  29.182  23.833  1.00  0.00     0.270 C 
BRANCH  27  28
ATOM     28  C   UNL A   1      30.809  29.706  23.321  1.00  0.00    -0.011 A 
ATOM     29  C   UNL A   1      30.295  29.404  22.048  1.00  0.00     0.007 A 
ATOM     30  C   UNL A   1      30.013  30.474  24.184  1.00  0.00     0.007 A 
ATOM     31  C   UNL A   1      29.033  29.843  21.651  1.00  0.00     0.000 A 
ATOM     32  C   UNL A   1      28.751  30.922  23.783  1.00  0.00     0.000 A 
ATOM     33  C   UNL A   1      28.259  30.603  22.519  1.00  0.00     0.000 A 
ENDBRANCH  27  28
ENDBRANCH  26  27
ENDBRANCH  23  26
ENDBRANCH  21  22
BRANCH  21  34
ATOM     34  C   UNL A   1      29.918  25.509  23.872  1.00  0.00     0.015 C 
ATOM     35  C   UNL A   1      28.890  26.644  23.998  1.00  0.00     0.010 C 
ATOM     36  C   UNL A   1      30.714  25.748  22.582  1.00  0.00     0.010 C 
ENDBRANCH  21  34
ENDBRANCH  18  21
ENDBRANCH  16  17
ENDBRANCH  13  16
ENDBRANCH   7  12
ENDBRANCH   4   7
ENDBRANCH   1   3
BRANCH   1  37
ATOM     37  C   UNL A   1      38.035  21.621  25.548  1.00  0.00     0.328 C 
ATOM     38  O   UNL A   1      38.085  20.469  25.133  1.00  0.00    -0.250 OA
BRANCH  37  39
ATOM     39  O   UNL A   1      39.088  22.290  26.097  1.00  0.00    -0.461 OA
BRANCH  39  40
ATOM     40  C   UNL A   1      40.108  21.484  26.720  1.00  0.00     0.274 C 
BRANCH  40  41
ATOM     41  C   UNL A   1      41.504  22.085  26.517  1.00  0.00     0.275 C 
BRANCH  41  42
ATOM     42  O   UNL A   1      41.721  23.251  27.340  1.00  0.00    -0.458 OA
BRANCH  42  43
ATOM     43  C   UNL A   1      41.815  24.390  26.620  1.00  0.00     0.338 C 
ATOM     44  O   UNL A   1      42.123  24.465  25.441  1.00  0.00    -0.246 OA
BRANCH  43  45
ATOM     45  C   UNL A   1      41.404  25.590  27.368  1.00  0.00     0.060 A 
ATOM     46  C   UNL A   1      42.283  26.672  27.368  1.00  0.00     0.016 A 
ATOM     47  C   UNL A   1      40.389  25.515  28.323  1.00  0.00     0.016 A 
ATOM     48  C   UNL A   1      42.246  27.592  28.414  1.00  0.00     0.010 A 
ATOM     49  C   UNL A   1      40.290  26.509  29.312  1.00  0.00     0.010 A 
ATOM     50  C   UNL A   1      41.250  27.530  29.402  1.00  0.00    -0.014 A 
BRANCH  50  51
ATOM     51  C   UNL A   1      41.200  28.582  30.461  1.00  0.00     0.031 A 
ATOM     52  C   UNL A   1      42.173  28.631  31.617  1.00  0.00     0.074 A 
ATOM     53  C   UNL A   1      40.266  29.548  30.347  1.00  0.00     0.049 A 
ATOM     54  N   UNL A   1      42.284  29.529  32.567  1.00  0.00    -0.248 NA
ATOM     55  C   UNL A   1      43.170  27.557  31.710  1.00  0.00     0.031 C 
ATOM     56  C   UNL A   1      39.286  29.650  29.262  1.00  0.00     0.029 A 
ATOM     57  N   UNL A   1      39.983  30.625  31.147  1.00  0.00    -0.354 N 
ATOM     58  C   UNL A   1      43.380  29.149  33.339  1.00  0.00     0.074 A 
ATOM     59  C   UNL A   1      43.897  27.932  32.756  1.00  0.00     0.031 C 
ATOM     60  C   UNL A   1      38.529  30.736  29.451  1.00  0.00     0.029 A 
ATOM     61  C   UNL A   1      38.899  31.351  30.718  1.00  0.00     0.049 A 
ATOM     62  H   UNL A   1      40.506  30.856  31.950  1.00  0.00     0.167 HD
ATOM     63  C   UNL A   1      43.897  29.747  34.442  1.00  0.00     0.037 A 
ATOM     64  C   UNL A   1      38.228  32.360  31.300  1.00  0.00     0.037 A 
ATOM     65  C   UNL A   1      43.309  30.894  35.089  1.00  0.00     0.049 A 
ATOM     66  C   UNL A   1      38.689  32.869  32.630  1.00  0.00     0.074 A 
ATOM     67  C   UNL A   1      43.735  31.555  36.230  1.00  0.00     0.029 A 
ATOM     68  N   UNL A   1      42.135  31.513  34.688  1.00  0.00    -0.354 N 
ATOM     69  N   UNL A   1      39.747  32.520  33.321  1.00  0.00    -0.248 NA
ATOM     70  C   UNL A   1      37.854  33.892  33.270  1.00  0.00     0.031 C 
ATOM     71  C   UNL A   1      42.771  32.516  36.564  1.00  0.00     0.029 A 
ATOM     72  C   UNL A   1      41.781  32.500  35.594  1.00  0.00     0.049 A 
ATOM     73  H   UNL A   1      41.625  31.284  33.877  1.00  0.00     0.167 HD
ATOM     74  C   UNL A   1      39.718  33.296  34.472  1.00  0.00     0.074 A 
ATOM     75  C   UNL A   1      38.540  34.137  34.379  1.00  0.00     0.031 C 
ATOM     76  C   UNL A   1      40.594  33.314  35.506  1.00  0.00     0.037 A 
BRANCH  63  77
ATOM     77  C   UNL A   1      45.118  29.129  35.076  1.00  0.00     0.058 A 
ATOM     78  C   UNL A   1      45.022  28.132  36.061  1.00  0.00     0.135 A 
ATOM     79  C   UNL A   1      46.404  29.506  34.656  1.00  0.00     0.135 A 
ATOM     80  F   UNL A   1      43.819  27.735  36.505  1.00  0.00    -0.206 F 
ATOM     81  C   UNL A   1      46.158  27.545  36.617  1.00  0.00     0.059 A 
ATOM     82  C   UNL A   1      47.552  28.921  35.184  1.00  0.00     0.059 A 
ATOM     83  F   UNL A   1      46.555  30.454  33.716  1.00  0.00    -0.206 F 
ATOM     84  C   UNL A   1      47.419  27.950  36.174  1.00  0.00     0.060 A 
BRANCH  84  85
ATOM     85  S   UNL A   1      48.887  27.191  36.910  1.00  0.00     0.124 S 
ATOM     86  O   UNL A   1      48.293  26.133  37.721  1.00  0.00    -0.237 OA
ATOM     87  O   UNL A   1      49.632  26.748  35.736  1.00  0.00    -0.237 OA
ATOM     88  O   UNL A   1      49.498  28.285  37.659  1.00  0.00    -0.744 OA
ENDBRANCH  84  85
ENDBRANCH  63  77
BRANCH  64  89
ATOM     89  C   UNL A   1      37.014  32.895  30.634  1.00  0.00     0.058 A 
ATOM     90  C   UNL A   1      35.734  32.486  31.026  1.00  0.00     0.135 A 
ATOM     91  C   UNL A   1      37.114  33.889  29.645  1.00  0.00     0.135 A 
ATOM     92  F   UNL A   1      35.590  31.533  31.959  1.00  0.00    -0.206 F 
ATOM     93  C   UNL A   1      34.591  33.052  30.471  1.00  0.00     0.059 A 
ATOM     94  C   UNL A   1      35.988  34.491  29.098  1.00  0.00     0.059 A 
ATOM     95  F   UNL A   1      38.321  34.324  29.248  1.00  0.00    -0.206 F 
ATOM     96  C   UNL A   1      34.730  34.063  29.516  1.00  0.00     0.060 A 
BRANCH  96  97
ATOM     97  S   UNL A   1      33.243  34.860  28.872  1.00  0.00     0.124 S 
ATOM     98  O   UNL A   1      32.741  33.842  27.956  1.00  0.00    -0.237 OA
ATOM     99  O   UNL A   1      32.460  35.073  30.084  1.00  0.00    -0.237 OA
ATOM    100  O   UNL A   1      33.759  36.074  28.247  1.00  0.00    -0.744 OA
ENDBRANCH  96  97
ENDBRANCH  64  89
BRANCH  76 101
ATOM    101  C   UNL A   1      40.316  34.290  36.615  1.00  0.00     0.058 A 
ATOM    102  C   UNL A   1      39.481  33.962  37.694  1.00  0.00     0.135 A 
ATOM    103  C   UNL A   1      40.903  35.565  36.601  1.00  0.00     0.135 A 
ATOM    104  F   UNL A   1      38.886  32.759  37.747  1.00  0.00    -0.206 F 
ATOM    105  C   UNL A   1      39.210  34.876  38.706  1.00  0.00     0.059 A 
ATOM    106  C   UNL A   1      40.668  36.486  37.618  1.00  0.00     0.059 A 
ATOM    107  F   UNL A   1      41.714  35.927  35.595  1.00  0.00    -0.206 F 
ATOM    108  C   UNL A   1      39.807  36.138  38.657  1.00  0.00     0.060 A 
BRANCH 108 109
ATOM    109  S   UNL A   1      39.459  37.313  39.982  1.00  0.00     0.124 S 
ATOM    110  O   UNL A   1      38.362  38.085  39.407  1.00  0.00    -0.237 OA
ATOM    111  O   UNL A   1      39.103  36.436  41.093  1.00  0.00    -0.237 OA
ATOM    112  O   UNL A   1      40.719  38.032  40.137  1.00  0.00    -0.744 OA
ENDBRANCH 108 109
ENDBRANCH  76 101
ENDBRANCH  50  51
ENDBRANCH  43  45
ENDBRANCH  42  43
ENDBRANCH  41  42
ENDBRANCH  40  41
ENDBRANCH  39  40
ENDBRANCH  37  39
ENDBRANCH   1  37
TORSDOF 27
ENDMDL
MODEL 3
REMARK VINA RESULT:     -11.2      1.477      2.401
REMARK SMILES CC(C)C[C@H](NC(=O)CNC(=O)[C@@H](NC(=O)OCc1ccccc1)C(C)C)C(=O)N[C@@H](C)C(=O)OCCOC(=O)c1ccc(-c2c3nc(c(-c4c(F)cc(S(=O)(=O)[O-])cc4F)c4ccc([nH]4)c(-c4c(F)cc(S(=O)(=O)[O-])cc4F)c4nc(c(-c5c(F)cc(S(=O)(=O)[O-])cc5F)c5ccc2[nH]5)C=C4)C=C3)cc1
REMARK SMILES IDX 31 1 32 2 30 3 28 4 29 5 5 7 4 8 2 9 1 10 3 11 6 12 7 13
REMARK SMILES IDX 8 15 9 16 10 17 11 18 12 20 13 21 14 22 15 23 16 25 17 26
REMARK SMILES IDX 18 27 19 28 20 29 24 30 21 31 23 32 22 33 25 34 26 35 27 36
REMARK SMILES IDX 33 37 34 38 35 39 36 40 37 41 38 42 39 43 40 44 41 45 42 46
REMARK SMILES IDX 106 47 43 48 105 49 44 50 45 51 46 52 99 53 47 54 104 55
REMARK SMILES IDX 98 56 100 57 48 58 103 59 97 60 96 61 49 63 83 64 62 65
REMARK SMILES IDX 82 66 63 67 66 68 81 69 101 70 64 71 65 72 80 74 102 75
REMARK SMILES IDX 67 76 50 77 51 78 60 79 52 80 53 81 59 82 61 83 54 84 55 85
REMARK SMILES IDX 56 86 57 87 58 88 84 89 85 90 94 91 86 92 87 93 93 94 95 95
REMARK SMILES IDX 88 96 89 97 90 98 91 99 92 100 68 101 69 102 78 103 70 104
REMARK SMILES IDX 71 105 77 106 79 107 72 108 73 109 74 110 75 111 76 112
REMARK H PARENT 30 6 6 14 10 19 14 24 100 62 66 73
REMARK Flexibility Score: inf
ROOT
ATOM      1  C   UNL A   1      36.785  22.287  25.241  1.00  0.00     0.189 C 
ATOM      2  C   UNL A   1      36.978  23.795  25.124  1.00  0.00     0.043 C 
ENDROOT
BRANCH   1   3
ATOM      3  N   UNL A   1      35.791  21.974  26.261  1.00  0.00    -0.341 N 
ATOM      4  C   UNL A   1      34.636  21.264  26.242  1.00  0.00     0.243 C 
ATOM      5  O   UNL A   1      34.067  21.111  27.336  1.00  0.00    -0.273 OA
ATOM      6  H   UNL A   1      36.002  22.355  27.144  1.00  0.00     0.164 HD
BRANCH   4   7
ATOM      7  C   UNL A   1      34.036  20.549  24.998  1.00  0.00     0.171 C 
BRANCH   7   8
ATOM      8  C   UNL A   1      34.725  19.209  24.745  1.00  0.00     0.038 C 
BRANCH   8   9
ATOM      9  C   UNL A   1      33.738  18.035  24.525  1.00  0.00    -0.015 C 
ATOM     10  C   UNL A   1      32.813  17.878  25.730  1.00  0.00     0.007 C 
ATOM     11  C   UNL A   1      32.885  18.247  23.274  1.00  0.00     0.007 C 
ENDBRANCH   8   9
ENDBRANCH   7   8
BRANCH   7  12
ATOM     12  N   UNL A   1      33.914  21.345  23.783  1.00  0.00    -0.343 N 
ATOM     13  C   UNL A   1      33.071  22.365  23.468  1.00  0.00     0.240 C 
ATOM     14  H   UNL A   1      34.549  21.104  23.070  1.00  0.00     0.164 HD
ATOM     15  O   UNL A   1      33.312  22.954  22.406  1.00  0.00    -0.273 OA
BRANCH  13  16
ATOM     16  C   UNL A   1      31.948  22.907  24.385  1.00  0.00     0.216 C 
BRANCH  16  17
ATOM     17  N   UNL A   1      32.199  23.944  25.363  1.00  0.00    -0.345 N 
ATOM     18  C   UNL A   1      32.026  25.292  25.343  1.00  0.00     0.243 C 
ATOM     19  H   UNL A   1      32.566  23.605  26.212  1.00  0.00     0.164 HD
ATOM     20  O   UNL A   1      32.234  25.888  26.407  1.00  0.00    -0.273 OA
BRANCH  18  21
ATOM     21  C   UNL A   1      31.490  26.092  24.128  1.00  0.00     0.177 C 
BRANCH  21  22
ATOM     22  N   UNL A   1      32.258  25.859  22.903  1.00  0.00    -0.309 N 
ATOM     23  C   UNL A   1      33.350  26.455  22.356  1.00  0.00     0.408 C 
ATOM     24  H   UNL A   1      31.910  25.113  22.362  1.00  0.00     0.167 HD
ATOM     25  O   UNL A   1      33.631  26.308  21.181  1.00  0.00    -0.225 OA
BRANCH  23  26
ATOM     26  O   UNL A   1      34.112  27.116  23.255  1.00  0.00    -0.445 OA
BRANCH  26  27
ATOM     27  C   UNL A   1      33.865  28.527  23.312  1.00  0.00     0.270 C 
BRANCH  27  28
ATOM     28  C   UNL A   1      33.288  29.008  24.633  1.00  0.00    -0.011 A 
ATOM     29  C   UNL A   1      32.028  29.619  24.752  1.00  0.00     0.007 A 
ATOM     30  C   UNL A   1      34.015  28.770  25.810  1.00  0.00     0.007 A 
ATOM     31  C   UNL A   1      31.506  29.972  25.996  1.00  0.00     0.000 A 
ATOM     32  C   UNL A   1      33.497  29.134  27.056  1.00  0.00     0.000 A 
ATOM     33  C   UNL A   1      32.241  29.730  27.149  1.00  0.00     0.000 A 
ENDBRANCH  27  28
ENDBRANCH  26  27
ENDBRANCH  23  26
ENDBRANCH  21  22
BRANCH  21  34
ATOM     34  C   UNL A   1      29.951  26.052  24.031  1.00  0.00     0.015 C 
ATOM     35  C   UNL A   1      29.298  25.884  25.412  1.00  0.00     0.010 C 
ATOM     36  C   UNL A   1      29.406  27.348  23.416  1.00  0.00     0.010 C 
ENDBRANCH  21  34
ENDBRANCH  18  21
ENDBRANCH  16  17
ENDBRANCH  13  16
ENDBRANCH   7  12
ENDBRANCH   4   7
ENDBRANCH   1   3
BRANCH   1  37
ATOM     37  C   UNL A   1      38.160  21.646  25.525  1.00  0.00     0.328 C 
ATOM     38  O   UNL A   1      38.372  20.446  25.394  1.00  0.00    -0.250 OA
BRANCH  37  39
ATOM     39  O   UNL A   1      39.098  22.559  25.906  1.00  0.00    -0.461 OA
BRANCH  39  40
ATOM     40  C   UNL A   1      40.038  22.133  26.913  1.00  0.00     0.274 C 
BRANCH  40  41
ATOM     41  C   UNL A   1      41.487  22.309  26.444  1.00  0.00     0.275 C 
BRANCH  41  42
ATOM     42  O   UNL A   1      42.145  23.410  27.106  1.00  0.00    -0.458 OA
BRANCH  42  43
ATOM     43  C   UNL A   1      42.006  24.578  26.442  1.00  0.00     0.338 C 
ATOM     44  O   UNL A   1      42.149  24.737  25.240  1.00  0.00    -0.246 OA
BRANCH  43  45
ATOM     45  C   UNL A   1      41.549  25.687  27.297  1.00  0.00     0.060 A 
ATOM     46  C   UNL A   1      42.385  26.798  27.398  1.00  0.00     0.016 A 
ATOM     47  C   UNL A   1      40.542  25.484  28.241  1.00  0.00     0.016 A 
ATOM     48  C   UNL A   1      42.315  27.616  28.524  1.00  0.00     0.010 A 
ATOM     49  C   UNL A   1      40.407  26.378  29.318  1.00  0.00     0.010 A 
ATOM     50  C   UNL A   1      41.326  27.423  29.502  1.00  0.00    -0.014 A 
BRANCH  50  51
ATOM     51  C   UNL A   1      41.237  28.371  30.653  1.00  0.00     0.031 A 
ATOM     52  C   UNL A   1      42.137  28.276  31.865  1.00  0.00     0.074 A 
ATOM     53  C   UNL A   1      40.339  29.373  30.579  1.00  0.00     0.049 A 
ATOM     54  N   UNL A   1      42.212  29.075  32.903  1.00  0.00    -0.248 NA
ATOM     55  C   UNL A   1      43.097  27.166  31.912  1.00  0.00     0.031 C 
ATOM     56  C   UNL A   1      39.432  29.610  29.452  1.00  0.00     0.029 A 
ATOM     57  N   UNL A   1      40.035  30.377  31.462  1.00  0.00    -0.354 N 
ATOM     58  C   UNL A   1      43.247  28.588  33.699  1.00  0.00     0.074 A 
ATOM     59  C   UNL A   1      43.767  27.415  33.031  1.00  0.00     0.031 C 
ATOM     60  C   UNL A   1      38.694  30.698  29.700  1.00  0.00     0.029 A 
ATOM     61  C   UNL A   1      39.000  31.176  31.041  1.00  0.00     0.049 A 
ATOM     62  H   UNL A   1      40.513  30.513  32.313  1.00  0.00     0.167 HD
ATOM     63  C   UNL A   1      43.709  29.060  34.883  1.00  0.00     0.037 A 
ATOM     64  C   UNL A   1      38.321  32.146  31.677  1.00  0.00     0.037 A 
ATOM     65  C   UNL A   1      43.112  30.158  35.603  1.00  0.00     0.049 A 
ATOM     66  C   UNL A   1      38.710  32.510  33.076  1.00  0.00     0.074 A 
ATOM     67  C   UNL A   1      43.484  30.693  36.827  1.00  0.00     0.029 A 
ATOM     68  N   UNL A   1      41.983  30.851  35.194  1.00  0.00    -0.354 N 
ATOM     69  N   UNL A   1      39.713  32.062  33.792  1.00  0.00    -0.248 NA
ATOM     70  C   UNL A   1      37.865  33.494  33.761  1.00  0.00     0.031 C 
ATOM     71  C   UNL A   1      42.527  31.648  37.194  1.00  0.00     0.029 A 
ATOM     72  C   UNL A   1      41.600  31.758  36.170  1.00  0.00     0.049 A 
ATOM     73  H   UNL A   1      41.520  30.717  34.336  1.00  0.00     0.167 HD
ATOM     74  C   UNL A   1      39.633  32.724  35.009  1.00  0.00     0.074 A 
ATOM     75  C   UNL A   1      38.486  33.608  34.928  1.00  0.00     0.031 C 
ATOM     76  C   UNL A   1      40.443  32.615  36.091  1.00  0.00     0.037 A 
BRANCH  63  77
ATOM     77  C   UNL A   1      44.871  28.344  35.526  1.00  0.00     0.058 A 
ATOM     78  C   UNL A   1      46.199  28.758  35.334  1.00  0.00     0.135 A 
ATOM     79  C   UNL A   1      44.646  27.258  36.388  1.00  0.00     0.135 A 
ATOM     80  F   UNL A   1      46.475  29.787  34.517  1.00  0.00    -0.206 F 
ATOM     81  C   UNL A   1      47.263  28.108  35.960  1.00  0.00     0.059 A 
ATOM     82  C   UNL A   1      45.691  26.606  37.038  1.00  0.00     0.059 A 
ATOM     83  F   UNL A   1      43.396  26.821  36.609  1.00  0.00    -0.206 F 
ATOM     84  C   UNL A   1      46.998  27.031  36.807  1.00  0.00     0.060 A 
BRANCH  84  85
ATOM     85  S   UNL A   1      48.385  26.188  37.606  1.00  0.00     0.124 S 
ATOM     86  O   UNL A   1      49.123  25.682  36.452  1.00  0.00    -0.237 OA
ATOM     87  O   UNL A   1      49.027  27.270  38.344  1.00  0.00    -0.237 OA
ATOM     88  O   UNL A   1      47.738  25.170  38.429  1.00  0.00    -0.744 OA
ENDBRANCH  84  85
ENDBRANCH  63  77
BRANCH  64  89
ATOM     89  C   UNL A   1      37.166  32.781  30.995  1.00  0.00     0.058 A 
ATOM     90  C   UNL A   1      37.343  33.869  30.133  1.00  0.00     0.135 A 
ATOM     91  C   UNL A   1      35.869  32.256  31.135  1.00  0.00     0.135 A 
ATOM     92  F   UNL A   1      38.560  34.410  29.976  1.00  0.00    -0.206 F 
ATOM     93  C   UNL A   1      36.278  34.408  29.419  1.00  0.00     0.059 A 
ATOM     94  C   UNL A   1      34.796  32.758  30.410  1.00  0.00     0.059 A 
ATOM     95  F   UNL A   1      35.653  31.203  31.940  1.00  0.00    -0.206 F 
ATOM     96  C   UNL A   1      35.010  33.837  29.556  1.00  0.00     0.060 A 
BRANCH  96  97
ATOM     97  S   UNL A   1      33.654  34.481  28.554  1.00  0.00     0.124 S 
ATOM     98  O   UNL A   1      33.347  33.335  27.707  1.00  0.00    -0.237 OA
ATOM     99  O   UNL A   1      32.657  34.816  29.566  1.00  0.00    -0.237 OA
ATOM    100  O   UNL A   1      34.254  35.627  27.876  1.00  0.00    -0.744 OA
ENDBRANCH  96  97
ENDBRANCH  64  89
BRANCH  76 101
ATOM    101  C   UNL A   1      40.122  33.488  37.270  1.00  0.00     0.058 A 
ATOM    102  C   UNL A   1      40.837  34.667  37.532  1.00  0.00     0.135 A 
ATOM    103  C   UNL A   1      39.077  33.146  38.144  1.00  0.00     0.135 A 
ATOM    104  F   UNL A   1      41.853  35.032  36.734  1.00  0.00    -0.206 F 
ATOM    105  C   UNL A   1      40.550  35.460  38.637  1.00  0.00     0.059 A 
ATOM    106  C   UNL A   1      38.754  33.939  39.240  1.00  0.00     0.059 A 
ATOM    107  F   UNL A   1      38.358  32.032  37.936  1.00  0.00    -0.206 F 
ATOM    108  C   UNL A   1      39.507  35.087  39.487  1.00  0.00     0.060 A 
BRANCH 108 109
ATOM    109  S   UNL A   1      39.133  36.129  40.912  1.00  0.00     0.124 S 
ATOM    110  O   UNL A   1      38.392  37.221  40.289  1.00  0.00    -0.237 OA
ATOM    111  O   UNL A   1      38.351  35.234  41.759  1.00  0.00    -0.237 OA
ATOM    112  O   UNL A   1      40.451  36.481  41.431  1.00  0.00    -0.744 OA
ENDBRANCH 108 109
ENDBRANCH  76 101
ENDBRANCH  50  51
ENDBRANCH  43  45
ENDBRANCH  42  43
ENDBRANCH  41  42
ENDBRANCH  40  41
ENDBRANCH  39  40
ENDBRANCH  37  39
ENDBRANCH   1  37
TORSDOF 27
ENDMDL
