MODEL 1
REMARK VINA RESULT:     -13.0      0.000      0.000
REMARK SMILES Cc1ccc(C2=NN(C(=O)CCC(=O)OCCOC(=O)c3ccc(-c4c5nc(c(-c6c(F)cc(S(=O)(=O)[O-])cc6F)c6ccc([nH]6)c(-c6c(F)cc(S(=O)(=O)[O-])cc6F)c6nc(c(-c7c(F)cc(S(=O)(=O)[O-])cc7F)c7ccc4[nH]7)C=C6)C=C5)cc3)[C@H](C[C@@H]3C=c4cccc(C)c4=NC3=O)C2)cc1
REMARK SMILES IDX 16 1 15 2 13 3 14 4 12 5 11 6 9 7 10 8 8 9 6 10 7 11 101 12
REMARK SMILES IDX 87 13 5 14 1 15 2 16 3 17 103 18 4 19 102 20 88 21 89 22
REMARK SMILES IDX 90 23 99 24 91 25 98 26 100 27 92 28 97 29 93 30 95 31 94 32
REMARK SMILES IDX 96 33 17 34 18 35 19 36 20 37 21 38 22 39 86 40 23 41 85 42
REMARK SMILES IDX 24 43 25 44 26 45 79 46 27 47 84 48 78 49 80 50 28 51 83 52
REMARK SMILES IDX 77 53 76 54 29 56 63 57 42 58 62 59 43 60 46 61 61 62 81 63
REMARK SMILES IDX 44 64 45 65 60 67 82 68 47 69 30 70 31 71 40 72 32 73 33 74
REMARK SMILES IDX 39 75 41 76 34 77 35 78 36 79 37 80 38 81 64 82 65 83 74 84
REMARK SMILES IDX 66 85 67 86 73 87 75 88 68 89 69 90 70 91 71 92 72 93 48 94
REMARK SMILES IDX 49 95 58 96 50 97 51 98 57 99 59 100 52 101 53 102 54 103
REMARK SMILES IDX 55 104 56 105
REMARK H PARENT 80 55 46 66
REMARK Flexibility Score: inf
ROOT
ATOM      1  C   UNL A   1      31.790  30.529  26.638  1.00  0.00     0.274 C 
ENDROOT
BRANCH   1   2
ATOM      2  O   UNL A   1      31.892  29.093  26.835  1.00  0.00    -0.462 OA
BRANCH   2   3
ATOM      3  C   UNL A   1      32.877  28.361  26.298  1.00  0.00     0.306 C 
ATOM      4  O   UNL A   1      33.910  28.830  25.844  1.00  0.00    -0.252 OA
BRANCH   3   5
ATOM      5  C   UNL A   1      32.757  26.889  26.459  1.00  0.00     0.132 C 
BRANCH   5   6
ATOM      6  C   UNL A   1      33.974  26.282  25.793  1.00  0.00     0.114 C 
BRANCH   6   7
ATOM      7  C   UNL A   1      33.792  24.786  25.671  1.00  0.00     0.243 C 
ATOM      8  O   UNL A   1      32.805  24.291  26.235  1.00  0.00    -0.273 OA
BRANCH   7   9
ATOM      9  N   UNL A   1      34.728  23.993  25.005  1.00  0.00    -0.230 N 
ATOM     10  C   UNL A   1      36.694  23.124  25.152  1.00  0.00     0.070 C 
ATOM     11  N   UNL A   1      35.732  23.599  25.862  1.00  0.00    -0.174 NA
ATOM     12  C   UNL A   1      36.435  22.940  23.704  1.00  0.00     0.086 C 
ATOM     13  C   UNL A   1      35.155  23.764  23.575  1.00  0.00     0.118 C 
BRANCH  10  14
ATOM     14  C   UNL A   1      37.940  22.671  25.735  1.00  0.00    -0.002 A 
ATOM     15  C   UNL A   1      41.575  21.519  27.621  1.00  0.00     0.044 C 
ATOM     16  C   UNL A   1      40.304  21.909  26.933  1.00  0.00    -0.051 A 
ATOM     17  C   UNL A   1      39.808  23.207  27.119  1.00  0.00     0.004 A 
ATOM     18  C   UNL A   1      39.613  21.003  26.113  1.00  0.00     0.004 A 
ATOM     19  C   UNL A   1      38.623  23.593  26.516  1.00  0.00     0.010 A 
ATOM     20  C   UNL A   1      38.419  21.383  25.504  1.00  0.00     0.010 A 
ENDBRANCH  10  14
BRANCH  13  21
ATOM     21  C   UNL A   1      34.253  23.147  22.473  1.00  0.00     0.045 C 
BRANCH  21  22
ATOM     22  C   UNL A   1      32.989  23.922  22.098  1.00  0.00     0.106 C 
ATOM     23  C   UNL A   1      33.282  25.365  22.262  1.00  0.00    -0.003 C 
ATOM     24  C   UNL A   1      31.734  23.513  22.896  1.00  0.00     0.253 C 
ATOM     25  C   UNL A   1      32.372  26.279  22.543  1.00  0.00    -0.003 A 
ATOM     26  N   UNL A   1      30.828  24.493  23.270  1.00  0.00    -0.212 NA
ATOM     27  O   UNL A   1      31.567  22.339  23.225  1.00  0.00    -0.272 OA
ATOM     28  C   UNL A   1      32.628  27.681  22.371  1.00  0.00     0.010 A 
ATOM     29  C   UNL A   1      31.123  25.746  23.127  1.00  0.00     0.077 A 
ATOM     30  C   UNL A   1      31.744  28.569  22.828  1.00  0.00     0.001 A 
ATOM     31  C   UNL A   1      30.261  26.823  23.728  1.00  0.00    -0.025 A 
ATOM     32  C   UNL A   1      30.593  28.121  23.575  1.00  0.00     0.005 A 
ATOM     33  C   UNL A   1      29.172  26.355  24.633  1.00  0.00     0.047 C 
ENDBRANCH  21  22
ENDBRANCH  13  21
ENDBRANCH   7   9
ENDBRANCH   6   7
ENDBRANCH   5   6
ENDBRANCH   3   5
ENDBRANCH   2   3
ENDBRANCH   1   2
BRANCH   1  34
ATOM     34  C   UNL A   1      32.700  31.670  27.234  1.00  0.00     0.275 C 
BRANCH  34  35
ATOM     35  O   UNL A   1      34.140  31.739  27.546  1.00  0.00    -0.458 OA
BRANCH  35  36
ATOM     36  C   UNL A   1      35.026  32.636  28.089  1.00  0.00     0.338 C 
ATOM     37  O   UNL A   1      34.900  33.836  27.891  1.00  0.00    -0.246 OA
BRANCH  36  38
ATOM     38  C   UNL A   1      35.991  32.061  29.050  1.00  0.00     0.060 A 
ATOM     39  C   UNL A   1      35.672  31.009  29.943  1.00  0.00     0.016 A 
ATOM     40  C   UNL A   1      37.289  32.348  28.745  1.00  0.00     0.016 A 
ATOM     41  C   UNL A   1      36.680  30.137  30.390  1.00  0.00     0.010 A 
ATOM     42  C   UNL A   1      38.149  31.308  28.882  1.00  0.00     0.010 A 
ATOM     43  C   UNL A   1      37.928  30.265  29.799  1.00  0.00    -0.014 A 
BRANCH  43  44
ATOM     44  C   UNL A   1      39.205  29.615  30.104  1.00  0.00     0.031 A 
ATOM     45  C   UNL A   1      39.665  28.336  29.535  1.00  0.00     0.074 A 
ATOM     46  C   UNL A   1      40.065  30.530  30.625  1.00  0.00     0.049 A 
ATOM     47  N   UNL A   1      40.666  27.660  29.976  1.00  0.00    -0.248 NA
ATOM     48  C   UNL A   1      39.060  27.682  28.387  1.00  0.00     0.031 C 
ATOM     49  C   UNL A   1      41.506  30.652  30.577  1.00  0.00     0.029 A 
ATOM     50  N   UNL A   1      39.695  31.709  31.275  1.00  0.00    -0.354 N 
ATOM     51  C   UNL A   1      41.025  26.739  29.002  1.00  0.00     0.074 A 
ATOM     52  C   UNL A   1      39.898  26.675  28.114  1.00  0.00     0.031 C 
ATOM     53  C   UNL A   1      41.882  31.637  31.425  1.00  0.00     0.029 A 
ATOM     54  C   UNL A   1      40.690  32.115  32.127  1.00  0.00     0.049 A 
ATOM     55  H   UNL A   1      38.842  32.181  31.142  1.00  0.00     0.167 HD
ATOM     56  C   UNL A   1      42.316  26.299  28.950  1.00  0.00     0.037 A 
ATOM     57  C   UNL A   1      40.349  31.983  33.442  1.00  0.00     0.037 A 
ATOM     58  C   UNL A   1      43.089  27.045  29.940  1.00  0.00     0.049 A 
ATOM     59  C   UNL A   1      41.104  30.801  33.986  1.00  0.00     0.074 A 
ATOM     60  C   UNL A   1      43.894  28.165  29.827  1.00  0.00     0.029 A 
ATOM     61  N   UNL A   1      42.782  26.906  31.284  1.00  0.00    -0.354 N 
ATOM     62  N   UNL A   1      41.476  29.770  33.274  1.00  0.00    -0.248 NA
ATOM     63  C   UNL A   1      41.666  30.798  35.327  1.00  0.00     0.031 C 
ATOM     64  C   UNL A   1      44.020  28.735  31.122  1.00  0.00     0.029 A 
ATOM     65  C   UNL A   1      43.275  27.972  32.008  1.00  0.00     0.049 A 
ATOM     66  H   UNL A   1      42.282  26.150  31.669  1.00  0.00     0.167 HD
ATOM     67  C   UNL A   1      42.401  29.050  33.976  1.00  0.00     0.074 A 
ATOM     68  C   UNL A   1      42.460  29.715  35.268  1.00  0.00     0.031 C 
ATOM     69  C   UNL A   1      43.101  28.002  33.450  1.00  0.00     0.037 A 
BRANCH  56  70
ATOM     70  C   UNL A   1      42.988  25.431  27.896  1.00  0.00     0.058 A 
ATOM     71  C   UNL A   1      43.705  24.272  28.290  1.00  0.00     0.135 A 
ATOM     72  C   UNL A   1      42.931  25.626  26.500  1.00  0.00     0.135 A 
ATOM     73  F   UNL A   1      43.827  23.922  29.578  1.00  0.00    -0.206 F 
ATOM     74  C   UNL A   1      44.328  23.404  27.395  1.00  0.00     0.059 A 
ATOM     75  C   UNL A   1      43.571  24.776  25.579  1.00  0.00     0.059 A 
ATOM     76  F   UNL A   1      42.212  26.621  25.964  1.00  0.00    -0.206 F 
ATOM     77  C   UNL A   1      44.262  23.661  26.037  1.00  0.00     0.060 A 
BRANCH  77  78
ATOM     78  S   UNL A   1      45.054  22.494  24.913  1.00  0.00     0.124 S 
ATOM     79  O   UNL A   1      45.510  23.369  23.838  1.00  0.00    -0.237 OA
ATOM     80  O   UNL A   1      46.102  21.923  25.752  1.00  0.00    -0.237 OA
ATOM     81  O   UNL A   1      43.974  21.580  24.553  1.00  0.00    -0.744 OA
ENDBRANCH  77  78
ENDBRANCH  56  70
BRANCH  57  82
ATOM     82  C   UNL A   1      38.894  32.372  33.679  1.00  0.00     0.058 A 
ATOM     83  C   UNL A   1      38.585  33.752  33.583  1.00  0.00     0.135 A 
ATOM     84  C   UNL A   1      37.808  31.488  33.516  1.00  0.00     0.135 A 
ATOM     85  F   UNL A   1      39.570  34.662  33.681  1.00  0.00    -0.206 F 
ATOM     86  C   UNL A   1      37.316  34.223  33.238  1.00  0.00     0.059 A 
ATOM     87  C   UNL A   1      36.517  31.944  33.178  1.00  0.00     0.059 A 
ATOM     88  F   UNL A   1      38.007  30.162  33.550  1.00  0.00    -0.206 F 
ATOM     89  C   UNL A   1      36.292  33.310  33.006  1.00  0.00     0.060 A 
BRANCH  89  90
ATOM     90  S   UNL A   1      34.741  33.948  32.305  1.00  0.00     0.124 S 
ATOM     91  O   UNL A   1      35.206  34.579  31.074  1.00  0.00    -0.237 OA
ATOM     92  O   UNL A   1      33.978  32.713  32.131  1.00  0.00    -0.237 OA
ATOM     93  O   UNL A   1      34.258  34.859  33.336  1.00  0.00    -0.744 OA
ENDBRANCH  89  90
ENDBRANCH  57  82
BRANCH  69  94
ATOM     94  C   UNL A   1      43.756  26.912  34.259  1.00  0.00     0.058 A 
ATOM     95  C   UNL A   1      45.139  26.855  34.486  1.00  0.00     0.135 A 
ATOM     96  C   UNL A   1      42.975  25.990  35.003  1.00  0.00     0.135 A 
ATOM     97  F   UNL A   1      45.983  27.753  33.963  1.00  0.00    -0.206 F 
ATOM     98  C   UNL A   1      45.714  25.895  35.309  1.00  0.00     0.059 A 
ATOM     99  C   UNL A   1      43.522  25.089  35.904  1.00  0.00     0.059 A 
ATOM    100  F   UNL A   1      41.638  25.942  34.906  1.00  0.00    -0.206 F 
ATOM    101  C   UNL A   1      44.899  25.020  36.015  1.00  0.00     0.060 A 
BRANCH 101 102
ATOM    102  S   UNL A   1      45.656  23.805  37.095  1.00  0.00     0.124 S 
ATOM    103  O   UNL A   1      44.937  24.051  38.341  1.00  0.00    -0.237 OA
ATOM    104  O   UNL A   1      45.344  22.547  36.423  1.00  0.00    -0.237 OA
ATOM    105  O   UNL A   1      47.066  24.180  37.090  1.00  0.00    -0.744 OA
ENDBRANCH 101 102
ENDBRANCH  69  94
ENDBRANCH  43  44
ENDBRANCH  36  38
ENDBRANCH  35  36
ENDBRANCH  34  35
ENDBRANCH   1  34
TORSDOF 20
ENDMDL
MODEL 2
REMARK VINA RESULT:     -12.9      2.574      5.452
REMARK SMILES Cc1ccc(C2=NN(C(=O)CCC(=O)OCCOC(=O)c3ccc(-c4c5nc(c(-c6c(F)cc(S(=O)(=O)[O-])cc6F)c6ccc([nH]6)c(-c6c(F)cc(S(=O)(=O)[O-])cc6F)c6nc(c(-c7c(F)cc(S(=O)(=O)[O-])cc7F)c7ccc4[nH]7)C=C6)C=C5)cc3)[C@H](C[C@@H]3C=c4cccc(C)c4=NC3=O)C2)cc1
REMARK SMILES IDX 16 1 15 2 13 3 14 4 12 5 11 6 9 7 10 8 8 9 6 10 7 11 101 12
REMARK SMILES IDX 87 13 5 14 1 15 2 16 3 17 103 18 4 19 102 20 88 21 89 22
REMARK SMILES IDX 90 23 99 24 91 25 98 26 100 27 92 28 97 29 93 30 95 31 94 32
REMARK SMILES IDX 96 33 17 34 18 35 19 36 20 37 21 38 22 39 86 40 23 41 85 42
REMARK SMILES IDX 24 43 25 44 26 45 79 46 27 47 84 48 78 49 80 50 28 51 83 52
REMARK SMILES IDX 77 53 76 54 29 56 63 57 42 58 62 59 43 60 46 61 61 62 81 63
REMARK SMILES IDX 44 64 45 65 60 67 82 68 47 69 30 70 31 71 40 72 32 73 33 74
REMARK SMILES IDX 39 75 41 76 34 77 35 78 36 79 37 80 38 81 64 82 65 83 74 84
REMARK SMILES IDX 66 85 67 86 73 87 75 88 68 89 69 90 70 91 71 92 72 93 48 94
REMARK SMILES IDX 49 95 58 96 50 97 51 98 57 99 59 100 52 101 53 102 54 103
REMARK SMILES IDX 55 104 56 105
REMARK H PARENT 80 55 46 66
REMARK Flexibility Score: inf
ROOT
ATOM      1  C   UNL A   1      33.230  30.066  27.089  1.00  0.00     0.274 C 
ENDROOT
BRANCH   1   2
ATOM      2  O   UNL A   1      32.836  28.825  26.442  1.00  0.00    -0.462 OA
BRANCH   2   3
ATOM      3  C   UNL A   1      32.271  27.812  27.113  1.00  0.00     0.306 C 
ATOM      4  O   UNL A   1      31.402  27.953  27.961  1.00  0.00    -0.252 OA
BRANCH   3   5
ATOM      5  C   UNL A   1      32.603  26.447  26.633  1.00  0.00     0.132 C 
BRANCH   5   6
ATOM      6  C   UNL A   1      33.765  26.598  25.674  1.00  0.00     0.114 C 
BRANCH   6   7
ATOM      7  C   UNL A   1      33.343  26.155  24.292  1.00  0.00     0.243 C 
ATOM      8  O   UNL A   1      34.213  25.640  23.575  1.00  0.00    -0.273 OA
BRANCH   7   9
ATOM      9  N   UNL A   1      32.044  26.373  23.824  1.00  0.00    -0.230 N 
ATOM     10  C   UNL A   1      30.568  27.892  23.430  1.00  0.00     0.070 C 
ATOM     11  N   UNL A   1      31.833  27.712  23.580  1.00  0.00    -0.174 NA
ATOM     12  C   UNL A   1      29.719  26.678  23.361  1.00  0.00     0.086 C 
ATOM     13  C   UNL A   1      30.723  25.645  23.870  1.00  0.00     0.118 C 
BRANCH  10  14
ATOM     14  C   UNL A   1      29.988  29.201  23.218  1.00  0.00    -0.002 A 
ATOM     15  C   UNL A   1      28.130  32.946  22.428  1.00  0.00     0.044 C 
ATOM     16  C   UNL A   1      28.806  31.643  22.719  1.00  0.00    -0.051 A 
ATOM     17  C   UNL A   1      28.742  30.621  21.760  1.00  0.00     0.004 A 
ATOM     18  C   UNL A   1      29.498  31.434  23.923  1.00  0.00     0.004 A 
ATOM     19  C   UNL A   1      29.337  29.396  22.008  1.00  0.00     0.010 A 
ATOM     20  C   UNL A   1      30.098  30.203  24.180  1.00  0.00     0.010 A 
ENDBRANCH  10  14
BRANCH  13  21
ATOM     21  C   UNL A   1      30.445  24.276  23.193  1.00  0.00     0.045 C 
BRANCH  21  22
ATOM     22  C   UNL A   1      31.148  23.054  23.785  1.00  0.00     0.106 C 
ATOM     23  C   UNL A   1      31.296  23.284  25.242  1.00  0.00    -0.003 C 
ATOM     24  C   UNL A   1      32.504  22.723  23.131  1.00  0.00     0.253 C 
ATOM     25  C   UNL A   1      32.256  22.760  25.981  1.00  0.00    -0.003 A 
ATOM     26  N   UNL A   1      33.539  22.261  23.930  1.00  0.00    -0.212 NA
ATOM     27  O   UNL A   1      32.670  22.905  21.926  1.00  0.00    -0.272 OA
ATOM     28  C   UNL A   1      32.180  22.735  27.414  1.00  0.00     0.010 A 
ATOM     29  C   UNL A   1      33.435  22.294  25.220  1.00  0.00     0.077 A 
ATOM     30  C   UNL A   1      33.245  22.351  28.119  1.00  0.00     0.001 A 
ATOM     31  C   UNL A   1      34.619  22.013  26.105  1.00  0.00    -0.025 A 
ATOM     32  C   UNL A   1      34.490  22.063  27.447  1.00  0.00     0.005 A 
ATOM     33  C   UNL A   1      35.931  21.879  25.412  1.00  0.00     0.047 C 
ENDBRANCH  21  22
ENDBRANCH  13  21
ENDBRANCH   7   9
ENDBRANCH   6   7
ENDBRANCH   5   6
ENDBRANCH   3   5
ENDBRANCH   2   3
ENDBRANCH   1   2
BRANCH   1  34
ATOM     34  C   UNL A   1      34.661  30.506  27.581  1.00  0.00     0.275 C 
BRANCH  34  35
ATOM     35  O   UNL A   1      35.341  30.417  28.888  1.00  0.00    -0.458 OA
BRANCH  35  36
ATOM     36  C   UNL A   1      36.608  30.572  29.394  1.00  0.00     0.338 C 
ATOM     37  O   UNL A   1      36.840  31.417  30.246  1.00  0.00    -0.246 OA
BRANCH  36  38
ATOM     38  C   UNL A   1      37.581  29.542  28.974  1.00  0.00     0.060 A 
ATOM     39  C   UNL A   1      38.477  29.709  27.889  1.00  0.00     0.016 A 
ATOM     40  C   UNL A   1      37.813  28.600  29.932  1.00  0.00     0.016 A 
ATOM     41  C   UNL A   1      39.705  29.025  27.880  1.00  0.00     0.010 A 
ATOM     42  C   UNL A   1      39.117  28.253  30.085  1.00  0.00     0.010 A 
ATOM     43  C   UNL A   1      40.044  28.330  29.032  1.00  0.00    -0.014 A 
BRANCH  43  44
ATOM     44  C   UNL A   1      41.167  27.431  29.313  1.00  0.00     0.031 A 
ATOM     45  C   UNL A   1      41.317  26.066  28.777  1.00  0.00     0.074 A 
ATOM     46  C   UNL A   1      42.224  28.156  29.765  1.00  0.00     0.049 A 
ATOM     47  N   UNL A   1      42.170  25.206  29.206  1.00  0.00    -0.248 NA
ATOM     48  C   UNL A   1      40.535  25.524  27.679  1.00  0.00     0.031 C 
ATOM     49  C   UNL A   1      43.654  27.964  29.657  1.00  0.00     0.029 A 
ATOM     50  N   UNL A   1      42.144  29.405  30.382  1.00  0.00    -0.354 N 
ATOM     51  C   UNL A   1      42.280  24.200  28.255  1.00  0.00     0.074 A 
ATOM     52  C   UNL A   1      41.126  24.352  27.414  1.00  0.00     0.031 C 
ATOM     53  C   UNL A   1      44.270  28.871  30.451  1.00  0.00     0.029 A 
ATOM     54  C   UNL A   1      43.240  29.614  31.178  1.00  0.00     0.049 A 
ATOM     55  H   UNL A   1      41.405  30.044  30.264  1.00  0.00     0.167 HD
ATOM     56  C   UNL A   1      43.444  23.493  28.170  1.00  0.00     0.037 A 
ATOM     57  C   UNL A   1      42.939  29.597  32.510  1.00  0.00     0.037 A 
ATOM     58  C   UNL A   1      44.403  24.085  29.100  1.00  0.00     0.049 A 
ATOM     59  C   UNL A   1      43.450  28.297  33.070  1.00  0.00     0.074 A 
ATOM     60  C   UNL A   1      45.422  25.002  28.913  1.00  0.00     0.029 A 
ATOM     61  N   UNL A   1      44.135  24.054  30.460  1.00  0.00    -0.354 N 
ATOM     62  N   UNL A   1      43.561  27.190  32.386  1.00  0.00    -0.248 NA
ATOM     63  C   UNL A   1      44.059  28.215  34.388  1.00  0.00     0.031 C 
ATOM     64  C   UNL A   1      45.725  25.571  30.179  1.00  0.00     0.029 A 
ATOM     65  C   UNL A   1      44.876  25.012  31.122  1.00  0.00     0.049 A 
ATOM     66  H   UNL A   1      43.503  23.435  30.892  1.00  0.00     0.167 HD
ATOM     67  C   UNL A   1      44.343  26.310  33.079  1.00  0.00     0.074 A 
ATOM     68  C   UNL A   1      44.601  26.986  34.341  1.00  0.00     0.031 C 
ATOM     69  C   UNL A   1      44.778  25.121  32.567  1.00  0.00     0.037 A 
BRANCH  56  70
ATOM     70  C   UNL A   1      43.867  22.470  27.126  1.00  0.00     0.058 A 
ATOM     71  C   UNL A   1      43.072  21.316  26.907  1.00  0.00     0.135 A 
ATOM     72  C   UNL A   1      44.985  22.570  26.271  1.00  0.00     0.135 A 
ATOM     73  F   UNL A   1      41.955  21.085  27.611  1.00  0.00    -0.206 F 
ATOM     74  C   UNL A   1      43.366  20.341  25.955  1.00  0.00     0.059 A 
ATOM     75  C   UNL A   1      45.314  21.587  25.319  1.00  0.00     0.059 A 
ATOM     76  F   UNL A   1      45.781  23.646  26.288  1.00  0.00    -0.206 F 
ATOM     77  C   UNL A   1      44.492  20.478  25.163  1.00  0.00     0.060 A 
BRANCH  77  78
ATOM     78  S   UNL A   1      44.815  19.211  23.921  1.00  0.00     0.124 S 
ATOM     79  O   UNL A   1      43.878  18.160  24.307  1.00  0.00    -0.237 OA
ATOM     80  O   UNL A   1      44.503  19.911  22.679  1.00  0.00    -0.237 OA
ATOM     81  O   UNL A   1      46.225  18.889  24.121  1.00  0.00    -0.744 OA
ENDBRANCH  77  78
ENDBRANCH  56  70
BRANCH  57  82
ATOM     82  C   UNL A   1      41.613  30.296  32.787  1.00  0.00     0.058 A 
ATOM     83  C   UNL A   1      40.542  29.474  33.217  1.00  0.00     0.135 A 
ATOM     84  C   UNL A   1      41.498  31.666  33.102  1.00  0.00     0.135 A 
ATOM     85  F   UNL A   1      40.594  28.148  32.998  1.00  0.00    -0.206 F 
ATOM     86  C   UNL A   1      39.488  29.948  34.000  1.00  0.00     0.059 A 
ATOM     87  C   UNL A   1      40.435  32.167  33.882  1.00  0.00     0.059 A 
ATOM     88  F   UNL A   1      42.481  32.518  32.773  1.00  0.00    -0.206 F 
ATOM     89  C   UNL A   1      39.457  31.293  34.356  1.00  0.00     0.060 A 
BRANCH  89  90
ATOM     90  S   UNL A   1      38.222  31.808  35.586  1.00  0.00     0.124 S 
ATOM     91  O   UNL A   1      38.867  32.967  36.191  1.00  0.00    -0.237 OA
ATOM     92  O   UNL A   1      37.073  32.102  34.729  1.00  0.00    -0.237 OA
ATOM     93  O   UNL A   1      38.096  30.637  36.445  1.00  0.00    -0.744 OA
ENDBRANCH  89  90
ENDBRANCH  57  82
BRANCH  69  94
ATOM     94  C   UNL A   1      45.223  23.941  33.392  1.00  0.00     0.058 A 
ATOM     95  C   UNL A   1      46.538  23.783  33.856  1.00  0.00     0.135 A 
ATOM     96  C   UNL A   1      44.276  23.020  33.913  1.00  0.00     0.135 A 
ATOM     97  F   UNL A   1      47.505  24.661  33.561  1.00  0.00    -0.206 F 
ATOM     98  C   UNL A   1      46.908  22.736  34.690  1.00  0.00     0.059 A 
ATOM     99  C   UNL A   1      44.608  22.028  34.824  1.00  0.00     0.059 A 
ATOM    100  F   UNL A   1      42.978  23.062  33.578  1.00  0.00    -0.206 F 
ATOM    101  C   UNL A   1      45.937  21.867  35.170  1.00  0.00     0.060 A 
BRANCH 101 102
ATOM    102  S   UNL A   1      46.426  20.538  36.269  1.00  0.00     0.124 S 
ATOM    103  O   UNL A   1      47.843  20.835  36.455  1.00  0.00    -0.237 OA
ATOM    104  O   UNL A   1      45.576  20.761  37.435  1.00  0.00    -0.237 OA
ATOM    105  O   UNL A   1      46.124  19.335  35.500  1.00  0.00    -0.744 OA
ENDBRANCH 101 102
ENDBRANCH  69  94
ENDBRANCH  43  44
ENDBRANCH  36  38
ENDBRANCH  35  36
ENDBRANCH  34  35
ENDBRANCH   1  34
TORSDOF 20
ENDMDL
MODEL 3
REMARK VINA RESULT:     -12.7      3.840     10.668
REMARK SMILES Cc1ccc(C2=NN(C(=O)CCC(=O)OCCOC(=O)c3ccc(-c4c5nc(c(-c6c(F)cc(S(=O)(=O)[O-])cc6F)c6ccc([nH]6)c(-c6c(F)cc(S(=O)(=O)[O-])cc6F)c6nc(c(-c7c(F)cc(S(=O)(=O)[O-])cc7F)c7ccc4[nH]7)C=C6)C=C5)cc3)[C@H](C[C@@H]3C=c4cccc(C)c4=NC3=O)C2)cc1
REMARK SMILES IDX 16 1 15 2 13 3 14 4 12 5 11 6 9 7 10 8 8 9 6 10 7 11 101 12
REMARK SMILES IDX 87 13 5 14 1 15 2 16 3 17 103 18 4 19 102 20 88 21 89 22
REMARK SMILES IDX 90 23 99 24 91 25 98 26 100 27 92 28 97 29 93 30 95 31 94 32
REMARK SMILES IDX 96 33 17 34 18 35 19 36 20 37 21 38 22 39 86 40 23 41 85 42
REMARK SMILES IDX 24 43 25 44 26 45 79 46 27 47 84 48 78 49 80 50 28 51 83 52
REMARK SMILES IDX 77 53 76 54 29 56 63 57 42 58 62 59 43 60 46 61 61 62 81 63
REMARK SMILES IDX 44 64 45 65 60 67 82 68 47 69 30 70 31 71 40 72 32 73 33 74
REMARK SMILES IDX 39 75 41 76 34 77 35 78 36 79 37 80 38 81 64 82 65 83 74 84
REMARK SMILES IDX 66 85 67 86 73 87 75 88 68 89 69 90 70 91 71 92 72 93 48 94
REMARK SMILES IDX 49 95 58 96 50 97 51 98 57 99 59 100 52 101 53 102 54 103
REMARK SMILES IDX 55 104 56 105
REMARK H PARENT 80 55 46 66
REMARK Flexibility Score: inf
ROOT
ATOM      1  C   UNL A   1      38.084  21.373  25.378  1.00  0.00     0.274 C 
ENDROOT
BRANCH   1   2
ATOM      2  O   UNL A   1      36.728  21.877  25.233  1.00  0.00    -0.462 OA
BRANCH   2   3
ATOM      3  C   UNL A   1      36.441  22.977  24.525  1.00  0.00     0.306 C 
ATOM      4  O   UNL A   1      36.726  23.127  23.346  1.00  0.00    -0.252 OA
BRANCH   3   5
ATOM      5  C   UNL A   1      35.556  23.967  25.189  1.00  0.00     0.132 C 
BRANCH   5   6
ATOM      6  C   UNL A   1      34.649  24.526  24.114  1.00  0.00     0.114 C 
BRANCH   6   7
ATOM      7  C   UNL A   1      33.661  25.487  24.733  1.00  0.00     0.243 C 
ATOM      8  O   UNL A   1      34.045  26.134  25.717  1.00  0.00    -0.273 OA
BRANCH   7   9
ATOM      9  N   UNL A   1      32.353  25.594  24.252  1.00  0.00    -0.230 N 
ATOM     10  C   UNL A   1      30.742  26.975  23.879  1.00  0.00     0.070 C 
ATOM     11  N   UNL A   1      32.016  26.913  24.043  1.00  0.00    -0.174 NA
ATOM     12  C   UNL A   1      30.015  25.688  23.764  1.00  0.00     0.086 C 
ATOM     13  C   UNL A   1      31.108  24.742  24.258  1.00  0.00     0.118 C 
BRANCH  10  14
ATOM     14  C   UNL A   1      30.042  28.229  23.696  1.00  0.00    -0.002 A 
ATOM     15  C   UNL A   1      27.769  31.784  23.149  1.00  0.00     0.044 C 
ATOM     16  C   UNL A   1      28.594  30.548  23.334  1.00  0.00    -0.051 A 
ATOM     17  C   UNL A   1      28.064  29.317  22.921  1.00  0.00     0.004 A 
ATOM     18  C   UNL A   1      29.874  30.606  23.907  1.00  0.00     0.004 A 
ATOM     19  C   UNL A   1      28.791  28.152  23.099  1.00  0.00     0.010 A 
ATOM     20  C   UNL A   1      30.611  29.438  24.091  1.00  0.00     0.010 A 
ENDBRANCH  10  14
BRANCH  13  21
ATOM     21  C   UNL A   1      30.971  23.373  23.538  1.00  0.00     0.045 C 
BRANCH  21  22
ATOM     22  C   UNL A   1      32.106  22.369  23.737  1.00  0.00     0.106 C 
ATOM     23  C   UNL A   1      31.892  21.256  22.782  1.00  0.00    -0.003 C 
ATOM     24  C   UNL A   1      32.247  21.847  25.181  1.00  0.00     0.253 C 
ATOM     25  C   UNL A   1      32.306  20.018  22.982  1.00  0.00    -0.003 A 
ATOM     26  N   UNL A   1      32.591  20.519  25.384  1.00  0.00    -0.212 NA
ATOM     27  O   UNL A   1      32.017  22.592  26.133  1.00  0.00    -0.272 OA
ATOM     28  C   UNL A   1      32.373  19.061  21.915  1.00  0.00     0.010 A 
ATOM     29  C   UNL A   1      32.600  19.686  24.392  1.00  0.00     0.077 A 
ATOM     30  C   UNL A   1      32.633  17.784  22.197  1.00  0.00     0.001 A 
ATOM     31  C   UNL A   1      32.747  18.207  24.619  1.00  0.00    -0.025 A 
ATOM     32  C   UNL A   1      32.744  17.356  23.572  1.00  0.00     0.005 A 
ATOM     33  C   UNL A   1      32.696  17.758  26.039  1.00  0.00     0.047 C 
ENDBRANCH  21  22
ENDBRANCH  13  21
ENDBRANCH   7   9
ENDBRANCH   6   7
ENDBRANCH   5   6
ENDBRANCH   3   5
ENDBRANCH   2   3
ENDBRANCH   1   2
BRANCH   1  34
ATOM     34  C   UNL A   1      39.321  22.068  26.066  1.00  0.00     0.275 C 
BRANCH  34  35
ATOM     35  O   UNL A   1      39.463  23.311  26.848  1.00  0.00    -0.458 OA
BRANCH  35  36
ATOM     36  C   UNL A   1      40.310  24.390  26.907  1.00  0.00     0.338 C 
ATOM     37  O   UNL A   1      41.398  24.360  26.352  1.00  0.00    -0.246 OA
BRANCH  36  38
ATOM     38  C   UNL A   1      39.733  25.607  27.515  1.00  0.00     0.060 A 
ATOM     39  C   UNL A   1      39.252  25.664  28.846  1.00  0.00     0.016 A 
ATOM     40  C   UNL A   1      40.051  26.748  26.838  1.00  0.00     0.016 A 
ATOM     41  C   UNL A   1      39.262  26.884  29.545  1.00  0.00     0.010 A 
ATOM     42  C   UNL A   1      40.393  27.799  27.625  1.00  0.00     0.010 A 
ATOM     43  C   UNL A   1      39.898  27.954  28.932  1.00  0.00    -0.014 A 
BRANCH  43  44
ATOM     44  C   UNL A   1      39.987  29.365  29.317  1.00  0.00     0.031 A 
ATOM     45  C   UNL A   1      38.877  30.332  29.259  1.00  0.00     0.074 A 
ATOM     46  C   UNL A   1      41.071  29.547  30.117  1.00  0.00     0.049 A 
ATOM     47  N   UNL A   1      39.015  31.606  29.371  1.00  0.00    -0.248 NA
ATOM     48  C   UNL A   1      37.480  29.972  29.088  1.00  0.00     0.031 C 
ATOM     49  C   UNL A   1      41.341  30.474  31.194  1.00  0.00     0.029 A 
ATOM     50  N   UNL A   1      42.203  28.731  30.144  1.00  0.00    -0.354 N 
ATOM     51  C   UNL A   1      37.766  32.151  29.635  1.00  0.00     0.074 A 
ATOM     52  C   UNL A   1      36.827  31.125  29.280  1.00  0.00     0.031 C 
ATOM     53  C   UNL A   1      42.648  30.369  31.533  1.00  0.00     0.029 A 
ATOM     54  C   UNL A   1      43.286  29.435  30.605  1.00  0.00     0.049 A 
ATOM     55  H   UNL A   1      42.222  27.786  29.870  1.00  0.00     0.167 HD
ATOM     56  C   UNL A   1      37.690  33.329  30.321  1.00  0.00     0.037 A 
ATOM     57  C   UNL A   1      44.213  29.679  29.633  1.00  0.00     0.037 A 
ATOM     58  C   UNL A   1      39.040  33.701  30.735  1.00  0.00     0.049 A 
ATOM     59  C   UNL A   1      44.104  31.133  29.261  1.00  0.00     0.074 A 
ATOM     60  C   UNL A   1      39.720  33.521  31.927  1.00  0.00     0.029 A 
ATOM     61  N   UNL A   1      39.992  33.982  29.768  1.00  0.00    -0.354 N 
ATOM     62  N   UNL A   1      43.007  31.837  29.344  1.00  0.00    -0.248 NA
ATOM     63  C   UNL A   1      45.276  31.940  28.963  1.00  0.00     0.031 C 
ATOM     64  C   UNL A   1      41.109  33.641  31.650  1.00  0.00     0.029 A 
ATOM     65  C   UNL A   1      41.264  33.871  30.292  1.00  0.00     0.049 A 
ATOM     66  H   UNL A   1      39.788  34.228  28.836  1.00  0.00     0.167 HD
ATOM     67  C   UNL A   1      43.316  33.164  29.249  1.00  0.00     0.074 A 
ATOM     68  C   UNL A   1      44.745  33.174  28.977  1.00  0.00     0.031 C 
ATOM     69  C   UNL A   1      42.413  34.167  29.454  1.00  0.00     0.037 A 
BRANCH  56  70
ATOM     70  C   UNL A   1      36.459  34.037  30.869  1.00  0.00     0.058 A 
ATOM     71  C   UNL A   1      35.400  34.389  29.993  1.00  0.00     0.135 A 
ATOM     72  C   UNL A   1      36.215  34.350  32.222  1.00  0.00     0.135 A 
ATOM     73  F   UNL A   1      35.456  34.130  28.678  1.00  0.00    -0.206 F 
ATOM     74  C   UNL A   1      34.225  35.013  30.408  1.00  0.00     0.059 A 
ATOM     75  C   UNL A   1      35.047  35.001  32.662  1.00  0.00     0.059 A 
ATOM     76  F   UNL A   1      37.075  33.996  33.186  1.00  0.00    -0.206 F 
ATOM     77  C   UNL A   1      34.053  35.322  31.746  1.00  0.00     0.060 A 
BRANCH  77  78
ATOM     78  S   UNL A   1      32.504  36.100  32.244  1.00  0.00     0.124 S 
ATOM     79  O   UNL A   1      32.097  36.781  31.019  1.00  0.00    -0.237 OA
ATOM     80  O   UNL A   1      31.692  34.949  32.627  1.00  0.00    -0.237 OA
ATOM     81  O   UNL A   1      32.900  36.978  33.341  1.00  0.00    -0.744 OA
ENDBRANCH  77  78
ENDBRANCH  56  70
BRANCH  57  82
ATOM     82  C   UNL A   1      44.383  28.473  28.715  1.00  0.00     0.058 A 
ATOM     83  C   UNL A   1      43.934  28.627  27.379  1.00  0.00     0.135 A 
ATOM     84  C   UNL A   1      45.329  27.449  28.929  1.00  0.00     0.135 A 
ATOM     85  F   UNL A   1      43.067  29.609  27.079  1.00  0.00    -0.206 F 
ATOM     86  C   UNL A   1      44.465  27.899  26.312  1.00  0.00     0.059 A 
ATOM     87  C   UNL A   1      45.869  26.696  27.867  1.00  0.00     0.059 A 
ATOM     88  F   UNL A   1      45.843  27.253  30.153  1.00  0.00    -0.206 F 
ATOM     89  C   UNL A   1      45.457  26.955  26.559  1.00  0.00     0.060 A 
BRANCH  89  90
ATOM     90  S   UNL A   1      46.300  26.227  25.123  1.00  0.00     0.124 S 
ATOM     91  O   UNL A   1      45.377  25.164  24.741  1.00  0.00    -0.237 OA
ATOM     92  O   UNL A   1      46.353  27.372  24.214  1.00  0.00    -0.237 OA
ATOM     93  O   UNL A   1      47.576  25.786  25.672  1.00  0.00    -0.744 OA
ENDBRANCH  89  90
ENDBRANCH  57  82
BRANCH  69  94
ATOM     94  C   UNL A   1      42.553  35.572  28.927  1.00  0.00     0.058 A 
ATOM     95  C   UNL A   1      41.798  36.066  27.853  1.00  0.00     0.135 A 
ATOM     96  C   UNL A   1      43.325  36.537  29.628  1.00  0.00     0.135 A 
ATOM     97  F   UNL A   1      40.919  35.303  27.192  1.00  0.00    -0.206 F 
ATOM     98  C   UNL A   1      41.876  37.390  27.441  1.00  0.00     0.059 A 
ATOM     99  C   UNL A   1      43.339  37.882  29.292  1.00  0.00     0.059 A 
ATOM    100  F   UNL A   1      44.079  36.216  30.689  1.00  0.00    -0.206 F 
ATOM    101  C   UNL A   1      42.645  38.290  28.167  1.00  0.00     0.060 A 
BRANCH 101 102
ATOM    102  S   UNL A   1      42.713  40.002  27.639  1.00  0.00     0.124 S 
ATOM    103  O   UNL A   1      41.987  40.659  28.721  1.00  0.00    -0.237 OA
ATOM    104  O   UNL A   1      44.149  40.262  27.592  1.00  0.00    -0.237 OA
ATOM    105  O   UNL A   1      42.042  39.983  26.343  1.00  0.00    -0.744 OA
ENDBRANCH 101 102
ENDBRANCH  69  94
ENDBRANCH  43  44
ENDBRANCH  36  38
ENDBRANCH  35  36
ENDBRANCH  34  35
ENDBRANCH   1  34
TORSDOF 20
ENDMDL
