MODEL 1
REMARK VINA RESULT:     -13.1      0.000      0.000
REMARK SMILES [NH3+][C@@H](Cc1cn(-c2nc(Cl)nc(N3CCOCC3)n2)c2ccccc12)C(=O)OCCOC(=O)c1ccc(-c2c3nc(c(-c4c(F)cc(S(=O)(=O)[O-])cc4F)c4ccc([nH]4)c(-c4c(F)cc(S(=O)(=O)[O-])cc4F)c4nc(c(-c5c(F)cc(S(=O)(=O)[O-])cc5F)c5ccc2[nH]5)C=C4)C=C3)cc1
REMARK SMILES IDX 29 1 28 2 26 3 27 4 2 5 1 6 3 10 4 11 5 12 25 13 6 14 20 15
REMARK SMILES IDX 24 16 21 17 23 18 22 19 7 20 8 21 19 22 9 23 12 24 10 25
REMARK SMILES IDX 11 26 13 27 14 28 18 29 15 30 17 31 16 32 30 33 31 34 32 35
REMARK SMILES IDX 33 36 34 37 35 38 99 39 36 40 98 41 37 42 38 43 39 44 92 45
REMARK SMILES IDX 40 46 97 47 91 48 93 49 41 50 96 51 90 52 89 53 42 55 76 56
REMARK SMILES IDX 55 57 75 58 56 59 59 60 74 61 94 62 57 63 58 64 73 66 95 67
REMARK SMILES IDX 60 68 43 69 44 70 53 71 45 72 46 73 52 74 54 75 47 76 48 77
REMARK SMILES IDX 49 78 50 79 51 80 77 81 78 82 87 83 79 84 80 85 86 86 88 87
REMARK SMILES IDX 81 88 82 89 83 90 84 91 85 92 61 93 62 94 71 95 63 96 64 97
REMARK SMILES IDX 70 98 72 99 65 100 66 101 67 102 68 103 69 104
REMARK H PARENT 1 7 1 8 1 9 93 54 59 65
REMARK Flexibility Score: inf
ROOT
ATOM      1  C   UNL A   1      40.426  21.080  27.077  1.00  0.00     0.274 C 
ENDROOT
BRANCH   1   2
ATOM      2  O   UNL A   1      39.486  21.393  26.029  1.00  0.00    -0.458 OA
BRANCH   2   3
ATOM      3  C   UNL A   1      38.844  22.588  26.155  1.00  0.00     0.365 C 
ATOM      4  O   UNL A   1      39.270  23.523  26.825  1.00  0.00    -0.245 OA
BRANCH   3   5
ATOM      5  C   UNL A   1      37.484  22.635  25.439  1.00  0.00     0.296 C 
BRANCH   5   6
ATOM      6  N   UNL A   1      37.492  23.424  24.183  1.00  0.00    -0.346 N 
ATOM      7  H   UNL A   1      38.265  24.088  24.204  1.00  0.00     0.345 HD
ATOM      8  H   UNL A   1      36.611  23.930  24.093  1.00  0.00     0.345 HD
ATOM      9  H   UNL A   1      37.606  22.796  23.388  1.00  0.00     0.345 HD
ENDBRANCH   5   6
BRANCH   5  10
ATOM     10  C   UNL A   1      36.945  21.215  25.304  1.00  0.00     0.115 C 
BRANCH  10  11
ATOM     11  C   UNL A   1      35.476  21.154  25.327  1.00  0.00    -0.015 A 
ATOM     12  C   UNL A   1      34.675  22.220  25.620  1.00  0.00     0.099 A 
ATOM     13  C   UNL A   1      34.634  20.060  24.958  1.00  0.00     0.004 A 
ATOM     14  N   UNL A   1      33.373  21.829  25.458  1.00  0.00    -0.285 N 
ATOM     15  C   UNL A   1      33.327  20.548  24.943  1.00  0.00     0.056 A 
ATOM     16  C   UNL A   1      34.872  18.732  24.547  1.00  0.00     0.010 A 
ATOM     17  C   UNL A   1      32.272  19.804  24.391  1.00  0.00     0.027 A 
ATOM     18  C   UNL A   1      33.835  17.994  23.973  1.00  0.00     0.001 A 
ATOM     19  C   UNL A   1      32.560  18.538  23.871  1.00  0.00     0.002 A 
BRANCH  14  20
ATOM     20  C   UNL A   1      32.302  22.692  25.753  1.00  0.00     0.240 A 
ATOM     21  N   UNL A   1      31.152  22.174  26.147  1.00  0.00    -0.181 NA
ATOM     22  N   UNL A   1      32.623  23.984  25.799  1.00  0.00    -0.176 NA
ATOM     23  C   UNL A   1      30.401  23.075  26.762  1.00  0.00     0.228 A 
ATOM     24  C   UNL A   1      31.747  24.797  26.354  1.00  0.00     0.231 A 
ATOM     25  Cl  UNL A   1      28.967  22.475  27.469  1.00  0.00    -0.041 Cl
ATOM     26  N   UNL A   1      30.630  24.378  26.920  1.00  0.00    -0.182 NA
BRANCH  24  27
ATOM     27  N   UNL A   1      32.090  26.113  26.340  1.00  0.00    -0.336 N 
ATOM     28  C   UNL A   1      33.287  26.510  25.608  1.00  0.00     0.148 C 
ATOM     29  C   UNL A   1      31.135  27.152  26.667  1.00  0.00     0.148 C 
ATOM     30  C   UNL A   1      33.936  27.718  26.295  1.00  0.00     0.181 C 
ATOM     31  C   UNL A   1      31.902  28.300  27.348  1.00  0.00     0.181 C 
ATOM     32  O   UNL A   1      32.984  28.774  26.520  1.00  0.00    -0.378 OA
ENDBRANCH  24  27
ENDBRANCH  14  20
ENDBRANCH  10  11
ENDBRANCH   5  10
ENDBRANCH   3   5
ENDBRANCH   2   3
ENDBRANCH   1   2
BRANCH   1  33
ATOM     33  C   UNL A   1      41.862  21.165  26.554  1.00  0.00     0.275 C 
BRANCH  33  34
ATOM     34  O   UNL A   1      42.402  22.463  26.850  1.00  0.00    -0.458 OA
BRANCH  34  35
ATOM     35  C   UNL A   1      42.924  23.154  25.805  1.00  0.00     0.338 C 
ATOM     36  O   UNL A   1      43.094  22.737  24.668  1.00  0.00    -0.246 OA
BRANCH  35  37
ATOM     37  C   UNL A   1      42.933  24.588  26.190  1.00  0.00     0.060 A 
ATOM     38  C   UNL A   1      43.680  25.048  27.284  1.00  0.00     0.016 A 
ATOM     39  C   UNL A   1      41.939  25.395  25.635  1.00  0.00     0.016 A 
ATOM     40  C   UNL A   1      43.289  26.213  27.948  1.00  0.00     0.010 A 
ATOM     41  C   UNL A   1      41.560  26.559  26.302  1.00  0.00     0.010 A 
ATOM     42  C   UNL A   1      42.159  26.915  27.520  1.00  0.00    -0.014 A 
BRANCH  42  43
ATOM     43  C   UNL A   1      41.750  28.164  28.178  1.00  0.00     0.031 A 
ATOM     44  C   UNL A   1      42.748  29.224  27.960  1.00  0.00     0.074 A 
ATOM     45  C   UNL A   1      40.637  28.466  28.885  1.00  0.00     0.049 A 
ATOM     46  N   UNL A   1      43.584  29.625  28.857  1.00  0.00    -0.248 NA
ATOM     47  C   UNL A   1      43.000  29.733  26.610  1.00  0.00     0.031 C 
ATOM     48  C   UNL A   1      39.532  27.617  29.284  1.00  0.00     0.029 A 
ATOM     49  N   UNL A   1      40.244  29.681  29.388  1.00  0.00    -0.354 N 
ATOM     50  C   UNL A   1      44.359  30.584  28.236  1.00  0.00     0.074 A 
ATOM     51  C   UNL A   1      44.089  30.472  26.826  1.00  0.00     0.031 C 
ATOM     52  C   UNL A   1      38.470  28.359  29.690  1.00  0.00     0.029 A 
ATOM     53  C   UNL A   1      38.907  29.746  29.795  1.00  0.00     0.049 A 
ATOM     54  H   UNL A   1      40.856  30.448  29.458  1.00  0.00     0.167 HD
ATOM     55  C   UNL A   1      45.000  31.536  28.961  1.00  0.00     0.037 A 
ATOM     56  C   UNL A   1      38.257  30.735  30.472  1.00  0.00     0.037 A 
ATOM     57  C   UNL A   1      45.060  31.191  30.360  1.00  0.00     0.049 A 
ATOM     58  C   UNL A   1      39.306  31.491  31.197  1.00  0.00     0.074 A 
ATOM     59  C   UNL A   1      45.644  30.166  31.082  1.00  0.00     0.029 A 
ATOM     60  N   UNL A   1      44.129  31.751  31.201  1.00  0.00    -0.354 N 
ATOM     61  N   UNL A   1      39.950  31.012  32.224  1.00  0.00    -0.248 NA
ATOM     62  C   UNL A   1      39.963  32.582  30.494  1.00  0.00     0.031 C 
ATOM     63  C   UNL A   1      44.729  29.874  32.135  1.00  0.00     0.029 A 
ATOM     64  C   UNL A   1      43.659  30.763  32.033  1.00  0.00     0.049 A 
ATOM     65  H   UNL A   1      43.847  32.695  31.207  1.00  0.00     0.167 HD
ATOM     66  C   UNL A   1      41.261  31.418  32.034  1.00  0.00     0.074 A 
ATOM     67  C   UNL A   1      41.193  32.443  30.993  1.00  0.00     0.031 C 
ATOM     68  C   UNL A   1      42.305  30.703  32.544  1.00  0.00     0.037 A 
BRANCH  55  69
ATOM     69  C   UNL A   1      45.281  32.913  28.438  1.00  0.00     0.058 A 
ATOM     70  C   UNL A   1      46.614  33.338  28.296  1.00  0.00     0.135 A 
ATOM     71  C   UNL A   1      44.295  33.917  28.303  1.00  0.00     0.135 A 
ATOM     72  F   UNL A   1      47.628  32.467  28.426  1.00  0.00    -0.206 F 
ATOM     73  C   UNL A   1      46.946  34.675  28.089  1.00  0.00     0.059 A 
ATOM     74  C   UNL A   1      44.600  35.243  28.034  1.00  0.00     0.059 A 
ATOM     75  F   UNL A   1      42.996  33.680  28.526  1.00  0.00    -0.206 F 
ATOM     76  C   UNL A   1      45.930  35.620  27.969  1.00  0.00     0.060 A 
BRANCH  76  77
ATOM     77  S   UNL A   1      46.359  37.359  27.807  1.00  0.00     0.124 S 
ATOM     78  O   UNL A   1      46.224  37.820  29.184  1.00  0.00    -0.237 OA
ATOM     79  O   UNL A   1      47.719  37.284  27.285  1.00  0.00    -0.237 OA
ATOM     80  O   UNL A   1      45.361  37.867  26.871  1.00  0.00    -0.744 OA
ENDBRANCH  76  77
ENDBRANCH  55  69
BRANCH  56  81
ATOM     81  C   UNL A   1      36.949  31.373  30.115  1.00  0.00     0.058 A 
ATOM     82  C   UNL A   1      36.123  31.940  31.109  1.00  0.00     0.135 A 
ATOM     83  C   UNL A   1      36.605  31.679  28.785  1.00  0.00     0.135 A 
ATOM     84  F   UNL A   1      36.369  31.703  32.407  1.00  0.00    -0.206 F 
ATOM     85  C   UNL A   1      35.071  32.817  30.808  1.00  0.00     0.059 A 
ATOM     86  C   UNL A   1      35.561  32.553  28.461  1.00  0.00     0.059 A 
ATOM     87  F   UNL A   1      37.331  31.199  27.763  1.00  0.00    -0.206 F 
ATOM     88  C   UNL A   1      34.814  33.141  29.477  1.00  0.00     0.060 A 
BRANCH  88  89
ATOM     89  S   UNL A   1      33.580  34.413  29.094  1.00  0.00     0.124 S 
ATOM     90  O   UNL A   1      33.061  34.743  30.418  1.00  0.00    -0.237 OA
ATOM     91  O   UNL A   1      34.388  35.443  28.452  1.00  0.00    -0.237 OA
ATOM     92  O   UNL A   1      32.643  33.721  28.213  1.00  0.00    -0.744 OA
ENDBRANCH  88  89
ENDBRANCH  56  81
BRANCH  68  93
ATOM     93  C   UNL A   1      42.002  29.626  33.560  1.00  0.00     0.058 A 
ATOM     94  C   UNL A   1      41.707  28.287  33.244  1.00  0.00     0.135 A 
ATOM     95  C   UNL A   1      42.167  29.935  34.919  1.00  0.00     0.135 A 
ATOM     96  F   UNL A   1      41.616  27.885  31.969  1.00  0.00    -0.206 F 
ATOM     97  C   UNL A   1      41.559  27.308  34.233  1.00  0.00     0.059 A 
ATOM     98  C   UNL A   1      42.053  28.972  35.919  1.00  0.00     0.059 A 
ATOM     99  F   UNL A   1      42.496  31.184  35.288  1.00  0.00    -0.206 F 
ATOM    100  C   UNL A   1      41.741  27.660  35.569  1.00  0.00     0.060 A 
BRANCH 100 101
ATOM    101  S   UNL A   1      41.633  26.381  36.842  1.00  0.00     0.124 S 
ATOM    102  O   UNL A   1      42.878  26.571  37.578  1.00  0.00    -0.237 OA
ATOM    103  O   UNL A   1      40.414  26.748  37.557  1.00  0.00    -0.237 OA
ATOM    104  O   UNL A   1      41.544  25.141  36.076  1.00  0.00    -0.744 OA
ENDBRANCH 100 101
ENDBRANCH  68  93
ENDBRANCH  42  43
ENDBRANCH  35  37
ENDBRANCH  34  35
ENDBRANCH  33  34
ENDBRANCH   1  33
TORSDOF 19
ENDMDL
MODEL 2
REMARK VINA RESULT:     -12.7      1.680      2.316
REMARK SMILES [NH3+][C@@H](Cc1cn(-c2nc(Cl)nc(N3CCOCC3)n2)c2ccccc12)C(=O)OCCOC(=O)c1ccc(-c2c3nc(c(-c4c(F)cc(S(=O)(=O)[O-])cc4F)c4ccc([nH]4)c(-c4c(F)cc(S(=O)(=O)[O-])cc4F)c4nc(c(-c5c(F)cc(S(=O)(=O)[O-])cc5F)c5ccc2[nH]5)C=C4)C=C3)cc1
REMARK SMILES IDX 29 1 28 2 26 3 27 4 2 5 1 6 3 10 4 11 5 12 25 13 6 14 20 15
REMARK SMILES IDX 24 16 21 17 23 18 22 19 7 20 8 21 19 22 9 23 12 24 10 25
REMARK SMILES IDX 11 26 13 27 14 28 18 29 15 30 17 31 16 32 30 33 31 34 32 35
REMARK SMILES IDX 33 36 34 37 35 38 99 39 36 40 98 41 37 42 38 43 39 44 92 45
REMARK SMILES IDX 40 46 97 47 91 48 93 49 41 50 96 51 90 52 89 53 42 55 76 56
REMARK SMILES IDX 55 57 75 58 56 59 59 60 74 61 94 62 57 63 58 64 73 66 95 67
REMARK SMILES IDX 60 68 43 69 44 70 53 71 45 72 46 73 52 74 54 75 47 76 48 77
REMARK SMILES IDX 49 78 50 79 51 80 77 81 78 82 87 83 79 84 80 85 86 86 88 87
REMARK SMILES IDX 81 88 82 89 83 90 84 91 85 92 61 93 62 94 71 95 63 96 64 97
REMARK SMILES IDX 70 98 72 99 65 100 66 101 67 102 68 103 69 104
REMARK H PARENT 1 7 1 8 1 9 93 54 59 65
REMARK Flexibility Score: inf
ROOT
ATOM      1  C   UNL A   1      40.140  20.540  26.144  1.00  0.00     0.274 C 
ENDROOT
BRANCH   1   2
ATOM      2  O   UNL A   1      39.471  21.702  25.613  1.00  0.00    -0.458 OA
BRANCH   2   3
ATOM      3  C   UNL A   1      38.136  21.556  25.383  1.00  0.00     0.365 C 
ATOM      4  O   UNL A   1      37.622  20.512  24.994  1.00  0.00    -0.245 OA
BRANCH   3   5
ATOM      5  C   UNL A   1      37.332  22.851  25.581  1.00  0.00     0.296 C 
BRANCH   5   6
ATOM      6  N   UNL A   1      38.170  24.045  25.848  1.00  0.00    -0.346 N 
ATOM      7  H   UNL A   1      39.154  23.802  25.731  1.00  0.00     0.345 HD
ATOM      8  H   UNL A   1      38.012  24.366  26.804  1.00  0.00     0.345 HD
ATOM      9  H   UNL A   1      37.924  24.787  25.194  1.00  0.00     0.345 HD
ENDBRANCH   5   6
BRANCH   5  10
ATOM     10  C   UNL A   1      36.343  23.003  24.430  1.00  0.00     0.115 C 
BRANCH  10  11
ATOM     11  C   UNL A   1      35.048  23.554  24.854  1.00  0.00    -0.015 A 
ATOM     12  C   UNL A   1      34.772  24.890  24.910  1.00  0.00     0.099 A 
ATOM     13  C   UNL A   1      33.849  22.844  25.167  1.00  0.00     0.004 A 
ATOM     14  N   UNL A   1      33.455  25.037  25.255  1.00  0.00    -0.285 N 
ATOM     15  C   UNL A   1      32.841  23.800  25.304  1.00  0.00     0.056 A 
ATOM     16  C   UNL A   1      33.509  21.478  25.252  1.00  0.00     0.010 A 
ATOM     17  C   UNL A   1      31.488  23.435  25.375  1.00  0.00     0.027 A 
ATOM     18  C   UNL A   1      32.165  21.105  25.298  1.00  0.00     0.001 A 
ATOM     19  C   UNL A   1      31.169  22.074  25.328  1.00  0.00     0.002 A 
BRANCH  14  20
ATOM     20  C   UNL A   1      32.884  26.306  25.460  1.00  0.00     0.240 A 
ATOM     21  N   UNL A   1      33.399  27.097  26.386  1.00  0.00    -0.181 NA
ATOM     22  N   UNL A   1      31.989  26.671  24.544  1.00  0.00    -0.176 NA
ATOM     23  C   UNL A   1      33.046  28.358  26.194  1.00  0.00     0.228 A 
ATOM     24  C   UNL A   1      31.649  27.943  24.516  1.00  0.00     0.231 A 
ATOM     25  Cl  UNL A   1      33.796  29.495  27.227  1.00  0.00    -0.041 Cl
ATOM     26  N   UNL A   1      32.207  28.858  25.288  1.00  0.00    -0.182 NA
BRANCH  24  27
ATOM     27  N   UNL A   1      30.699  28.267  23.598  1.00  0.00    -0.336 N 
ATOM     28  C   UNL A   1      31.081  29.113  22.473  1.00  0.00     0.148 C 
ATOM     29  C   UNL A   1      29.471  27.509  23.473  1.00  0.00     0.148 C 
ATOM     30  C   UNL A   1      29.888  29.980  22.050  1.00  0.00     0.181 C 
ATOM     31  C   UNL A   1      28.357  28.482  23.047  1.00  0.00     0.181 C 
ATOM     32  O   UNL A   1      28.706  29.186  21.838  1.00  0.00    -0.378 OA
ENDBRANCH  24  27
ENDBRANCH  14  20
ENDBRANCH  10  11
ENDBRANCH   5  10
ENDBRANCH   3   5
ENDBRANCH   2   3
ENDBRANCH   1   2
BRANCH   1  33
ATOM     33  C   UNL A   1      41.536  20.909  26.651  1.00  0.00     0.275 C 
BRANCH  33  34
ATOM     34  O   UNL A   1      41.653  22.338  26.733  1.00  0.00    -0.458 OA
BRANCH  34  35
ATOM     35  C   UNL A   1      42.551  22.920  25.898  1.00  0.00     0.338 C 
ATOM     36  O   UNL A   1      43.019  22.435  24.878  1.00  0.00    -0.246 OA
BRANCH  35  37
ATOM     37  C   UNL A   1      42.604  24.362  26.251  1.00  0.00     0.060 A 
ATOM     38  C   UNL A   1      43.391  24.827  27.314  1.00  0.00     0.016 A 
ATOM     39  C   UNL A   1      41.615  25.181  25.704  1.00  0.00     0.016 A 
ATOM     40  C   UNL A   1      43.046  26.015  27.963  1.00  0.00     0.010 A 
ATOM     41  C   UNL A   1      41.282  26.368  26.355  1.00  0.00     0.010 A 
ATOM     42  C   UNL A   1      41.921  26.735  27.548  1.00  0.00    -0.014 A 
BRANCH  42  43
ATOM     43  C   UNL A   1      41.560  28.007  28.189  1.00  0.00     0.031 A 
ATOM     44  C   UNL A   1      42.577  29.038  27.922  1.00  0.00     0.074 A 
ATOM     45  C   UNL A   1      40.473  28.352  28.918  1.00  0.00     0.049 A 
ATOM     46  N   UNL A   1      43.446  29.438  28.787  1.00  0.00    -0.248 NA
ATOM     47  C   UNL A   1      42.804  29.512  26.555  1.00  0.00     0.031 C 
ATOM     48  C   UNL A   1      39.360  27.539  29.364  1.00  0.00     0.029 A 
ATOM     49  N   UNL A   1      40.123  29.586  29.404  1.00  0.00    -0.354 N 
ATOM     50  C   UNL A   1      44.226  30.365  28.125  1.00  0.00     0.074 A 
ATOM     51  C   UNL A   1      43.916  30.229  26.725  1.00  0.00     0.031 C 
ATOM     52  C   UNL A   1      38.327  28.315  29.781  1.00  0.00     0.029 A 
ATOM     53  C   UNL A   1      38.799  29.692  29.844  1.00  0.00     0.049 A 
ATOM     54  H   UNL A   1      40.755  30.340  29.441  1.00  0.00     0.167 HD
ATOM     55  C   UNL A   1      44.909  31.316  28.812  1.00  0.00     0.037 A 
ATOM     56  C   UNL A   1      38.191  30.711  30.515  1.00  0.00     0.037 A 
ATOM     57  C   UNL A   1      44.997  31.000  30.217  1.00  0.00     0.049 A 
ATOM     58  C   UNL A   1      39.277  31.457  31.196  1.00  0.00     0.074 A 
ATOM     59  C   UNL A   1      45.576  29.977  30.945  1.00  0.00     0.029 A 
ATOM     60  N   UNL A   1      44.102  31.600  31.069  1.00  0.00    -0.354 N 
ATOM     61  N   UNL A   1      39.935  30.985  32.216  1.00  0.00    -0.248 NA
ATOM     62  C   UNL A   1      39.940  32.517  30.452  1.00  0.00     0.031 C 
ATOM     63  C   UNL A   1      44.683  29.730  32.028  1.00  0.00     0.029 A 
ATOM     64  C   UNL A   1      43.632  30.642  31.935  1.00  0.00     0.049 A 
ATOM     65  H   UNL A   1      43.843  32.551  31.061  1.00  0.00     0.167 HD
ATOM     66  C   UNL A   1      41.251  31.355  31.983  1.00  0.00     0.074 A 
ATOM     67  C   UNL A   1      41.180  32.358  30.921  1.00  0.00     0.031 C 
ATOM     68  C   UNL A   1      42.291  30.626  32.482  1.00  0.00     0.037 A 
BRANCH  55  69
ATOM     69  C   UNL A   1      45.208  32.674  28.252  1.00  0.00     0.058 A 
ATOM     70  C   UNL A   1      46.544  33.042  28.012  1.00  0.00     0.135 A 
ATOM     71  C   UNL A   1      44.256  33.716  28.171  1.00  0.00     0.135 A 
ATOM     72  F   UNL A   1      47.528  32.131  28.084  1.00  0.00    -0.206 F 
ATOM     73  C   UNL A   1      46.914  34.362  27.763  1.00  0.00     0.059 A 
ATOM     74  C   UNL A   1      44.595  35.025  27.863  1.00  0.00     0.059 A 
ATOM     75  F   UNL A   1      42.967  33.536  28.485  1.00  0.00    -0.206 F 
ATOM     76  C   UNL A   1      45.931  35.346  27.700  1.00  0.00     0.060 A 
BRANCH  76  77
ATOM     77  S   UNL A   1      46.418  37.064  27.485  1.00  0.00     0.124 S 
ATOM     78  O   UNL A   1      47.553  37.160  28.397  1.00  0.00    -0.237 OA
ATOM     79  O   UNL A   1      46.733  37.109  26.061  1.00  0.00    -0.237 OA
ATOM     80  O   UNL A   1      45.225  37.805  27.882  1.00  0.00    -0.744 OA
ENDBRANCH  76  77
ENDBRANCH  55  69
BRANCH  56  81
ATOM     81  C   UNL A   1      36.889  31.373  30.178  1.00  0.00     0.058 A 
ATOM     82  C   UNL A   1      36.124  32.019  31.173  1.00  0.00     0.135 A 
ATOM     83  C   UNL A   1      36.499  31.620  28.849  1.00  0.00     0.135 A 
ATOM     84  F   UNL A   1      36.419  31.843  32.471  1.00  0.00    -0.206 F 
ATOM     85  C   UNL A   1      35.089  32.914  30.869  1.00  0.00     0.059 A 
ATOM     86  C   UNL A   1      35.469  32.510  28.521  1.00  0.00     0.059 A 
ATOM     87  F   UNL A   1      37.164  31.063  27.826  1.00  0.00    -0.206 F 
ATOM     88  C   UNL A   1      34.785  33.176  29.534  1.00  0.00     0.060 A 
BRANCH  88  89
ATOM     89  S   UNL A   1      33.577  34.466  29.134  1.00  0.00     0.124 S 
ATOM     90  O   UNL A   1      34.417  35.495  28.530  1.00  0.00    -0.237 OA
ATOM     91  O   UNL A   1      32.672  33.770  28.226  1.00  0.00    -0.237 OA
ATOM     92  O   UNL A   1      33.006  34.811  30.433  1.00  0.00    -0.744 OA
ENDBRANCH  88  89
ENDBRANCH  56  81
BRANCH  68  93
ATOM     93  C   UNL A   1      41.989  29.579  33.529  1.00  0.00     0.058 A 
ATOM     94  C   UNL A   1      41.653  28.242  33.250  1.00  0.00     0.135 A 
ATOM     95  C   UNL A   1      42.199  29.913  34.876  1.00  0.00     0.135 A 
ATOM     96  F   UNL A   1      41.517  27.815  31.987  1.00  0.00    -0.206 F 
ATOM     97  C   UNL A   1      41.508  27.288  34.264  1.00  0.00     0.059 A 
ATOM     98  C   UNL A   1      42.090  28.974  35.900  1.00  0.00     0.059 A 
ATOM     99  F   UNL A   1      42.569  31.160  35.208  1.00  0.00    -0.206 F 
ATOM    100  C   UNL A   1      41.735  27.664  35.587  1.00  0.00     0.060 A 
BRANCH 100 101
ATOM    101  S   UNL A   1      41.631  26.415  36.890  1.00  0.00     0.124 S 
ATOM    102  O   UNL A   1      40.406  26.796  37.587  1.00  0.00    -0.237 OA
ATOM    103  O   UNL A   1      41.564  25.169  36.131  1.00  0.00    -0.237 OA
ATOM    104  O   UNL A   1      42.864  26.605  37.649  1.00  0.00    -0.744 OA
ENDBRANCH 100 101
ENDBRANCH  68  93
ENDBRANCH  42  43
ENDBRANCH  35  37
ENDBRANCH  34  35
ENDBRANCH  33  34
ENDBRANCH   1  33
TORSDOF 19
ENDMDL
MODEL 3
REMARK VINA RESULT:     -12.7      2.873      9.653
REMARK SMILES [NH3+][C@@H](Cc1cn(-c2nc(Cl)nc(N3CCOCC3)n2)c2ccccc12)C(=O)OCCOC(=O)c1ccc(-c2c3nc(c(-c4c(F)cc(S(=O)(=O)[O-])cc4F)c4ccc([nH]4)c(-c4c(F)cc(S(=O)(=O)[O-])cc4F)c4nc(c(-c5c(F)cc(S(=O)(=O)[O-])cc5F)c5ccc2[nH]5)C=C4)C=C3)cc1
REMARK SMILES IDX 29 1 28 2 26 3 27 4 2 5 1 6 3 10 4 11 5 12 25 13 6 14 20 15
REMARK SMILES IDX 24 16 21 17 23 18 22 19 7 20 8 21 19 22 9 23 12 24 10 25
REMARK SMILES IDX 11 26 13 27 14 28 18 29 15 30 17 31 16 32 30 33 31 34 32 35
REMARK SMILES IDX 33 36 34 37 35 38 99 39 36 40 98 41 37 42 38 43 39 44 92 45
REMARK SMILES IDX 40 46 97 47 91 48 93 49 41 50 96 51 90 52 89 53 42 55 76 56
REMARK SMILES IDX 55 57 75 58 56 59 59 60 74 61 94 62 57 63 58 64 73 66 95 67
REMARK SMILES IDX 60 68 43 69 44 70 53 71 45 72 46 73 52 74 54 75 47 76 48 77
REMARK SMILES IDX 49 78 50 79 51 80 77 81 78 82 87 83 79 84 80 85 86 86 88 87
REMARK SMILES IDX 81 88 82 89 83 90 84 91 85 92 61 93 62 94 71 95 63 96 64 97
REMARK SMILES IDX 70 98 72 99 65 100 66 101 67 102 68 103 69 104
REMARK H PARENT 1 7 1 8 1 9 93 54 59 65
REMARK Flexibility Score: inf
ROOT
ATOM      1  C   UNL A   1      32.268  29.604  26.853  1.00  0.00     0.274 C 
ENDROOT
BRANCH   1   2
ATOM      2  O   UNL A   1      32.768  29.083  25.605  1.00  0.00    -0.458 OA
BRANCH   2   3
ATOM      3  C   UNL A   1      31.844  28.946  24.613  1.00  0.00     0.365 C 
ATOM      4  O   UNL A   1      30.876  29.686  24.479  1.00  0.00    -0.245 OA
BRANCH   3   5
ATOM      5  C   UNL A   1      32.082  27.722  23.715  1.00  0.00     0.296 C 
BRANCH   5   6
ATOM      6  N   UNL A   1      31.833  27.974  22.275  1.00  0.00    -0.346 N 
ATOM      7  H   UNL A   1      32.153  27.173  21.730  1.00  0.00     0.345 HD
ATOM      8  H   UNL A   1      32.342  28.809  21.982  1.00  0.00     0.345 HD
ATOM      9  H   UNL A   1      30.835  28.112  22.121  1.00  0.00     0.345 HD
ENDBRANCH   5   6
BRANCH   5  10
ATOM     10  C   UNL A   1      33.448  27.126  24.039  1.00  0.00     0.115 C 
BRANCH  10  11
ATOM     11  C   UNL A   1      33.387  25.696  24.372  1.00  0.00    -0.015 A 
ATOM     12  C   UNL A   1      34.431  24.831  24.210  1.00  0.00     0.099 A 
ATOM     13  C   UNL A   1      32.321  24.984  25.004  1.00  0.00     0.004 A 
ATOM     14  N   UNL A   1      34.053  23.612  24.705  1.00  0.00    -0.285 N 
ATOM     15  C   UNL A   1      32.809  23.711  25.300  1.00  0.00     0.056 A 
ATOM     16  C   UNL A   1      31.024  25.334  25.434  1.00  0.00     0.010 A 
ATOM     17  C   UNL A   1      32.106  22.831  26.136  1.00  0.00     0.027 A 
ATOM     18  C   UNL A   1      30.327  24.476  26.286  1.00  0.00     0.001 A 
ATOM     19  C   UNL A   1      30.877  23.254  26.655  1.00  0.00     0.002 A 
BRANCH  14  20
ATOM     20  C   UNL A   1      34.894  22.489  24.619  1.00  0.00     0.240 A 
ATOM     21  N   UNL A   1      36.193  22.646  24.811  1.00  0.00    -0.181 NA
ATOM     22  N   UNL A   1      34.261  21.320  24.549  1.00  0.00    -0.176 NA
ATOM     23  C   UNL A   1      36.781  21.495  25.100  1.00  0.00     0.228 A 
ATOM     24  C   UNL A   1      34.980  20.237  24.765  1.00  0.00     0.231 A 
ATOM     25  Cl  UNL A   1      38.429  21.604  25.541  1.00  0.00    -0.041 Cl
ATOM     26  N   UNL A   1      36.253  20.273  25.117  1.00  0.00    -0.182 NA
BRANCH  24  27
ATOM     27  N   UNL A   1      34.307  19.061  24.639  1.00  0.00    -0.336 N 
ATOM     28  C   UNL A   1      35.071  17.853  24.352  1.00  0.00     0.148 C 
ATOM     29  C   UNL A   1      32.966  18.892  25.158  1.00  0.00     0.148 C 
ATOM     30  C   UNL A   1      34.224  16.894  23.506  1.00  0.00     0.181 C 
ATOM     31  C   UNL A   1      32.220  17.917  24.229  1.00  0.00     0.181 C 
ATOM     32  O   UNL A   1      32.931  16.669  24.097  1.00  0.00    -0.378 OA
ENDBRANCH  24  27
ENDBRANCH  14  20
ENDBRANCH  10  11
ENDBRANCH   5  10
ENDBRANCH   3   5
ENDBRANCH   2   3
ENDBRANCH   1   2
BRANCH   1  33
ATOM     33  C   UNL A   1      32.859  30.988  27.134  1.00  0.00     0.275 C 
BRANCH  33  34
ATOM     34  O   UNL A   1      34.293  30.910  27.107  1.00  0.00    -0.458 OA
BRANCH  34  35
ATOM     35  C   UNL A   1      34.962  31.799  27.884  1.00  0.00     0.338 C 
ATOM     36  O   UNL A   1      34.566  32.902  28.235  1.00  0.00    -0.246 OA
BRANCH  35  37
ATOM     37  C   UNL A   1      36.096  31.070  28.506  1.00  0.00     0.060 A 
ATOM     38  C   UNL A   1      37.202  31.751  29.032  1.00  0.00     0.016 A 
ATOM     39  C   UNL A   1      36.171  29.698  28.263  1.00  0.00     0.016 A 
ATOM     40  C   UNL A   1      38.439  31.106  29.113  1.00  0.00     0.010 A 
ATOM     41  C   UNL A   1      37.408  29.061  28.352  1.00  0.00     0.010 A 
ATOM     42  C   UNL A   1      38.567  29.785  28.670  1.00  0.00    -0.014 A 
BRANCH  42  43
ATOM     43  C   UNL A   1      39.846  29.072  28.780  1.00  0.00     0.031 A 
ATOM     44  C   UNL A   1      40.200  28.840  30.190  1.00  0.00     0.074 A 
ATOM     45  C   UNL A   1      40.679  28.599  27.824  1.00  0.00     0.049 A 
ATOM     46  N   UNL A   1      41.101  29.505  30.829  1.00  0.00    -0.248 NA
ATOM     47  C   UNL A   1      39.366  27.971  31.025  1.00  0.00     0.031 C 
ATOM     48  C   UNL A   1      40.602  28.725  26.382  1.00  0.00     0.029 A 
ATOM     49  N   UNL A   1      41.812  27.839  27.972  1.00  0.00    -0.354 N 
ATOM     50  C   UNL A   1      41.083  29.008  32.117  1.00  0.00     0.074 A 
ATOM     51  C   UNL A   1      39.885  28.217  32.229  1.00  0.00     0.031 C 
ATOM     52  C   UNL A   1      41.435  27.844  25.772  1.00  0.00     0.029 A 
ATOM     53  C   UNL A   1      42.279  27.242  26.797  1.00  0.00     0.049 A 
ATOM     54  H   UNL A   1      42.261  27.722  28.840  1.00  0.00     0.167 HD
ATOM     55  C   UNL A   1      42.171  29.118  32.920  1.00  0.00     0.037 A 
ATOM     56  C   UNL A   1      43.444  26.571  26.574  1.00  0.00     0.037 A 
ATOM     57  C   UNL A   1      43.116  30.081  32.409  1.00  0.00     0.049 A 
ATOM     58  C   UNL A   1      44.392  27.039  27.613  1.00  0.00     0.074 A 
ATOM     59  C   UNL A   1      43.080  31.443  32.175  1.00  0.00     0.029 A 
ATOM     60  N   UNL A   1      44.191  29.612  31.695  1.00  0.00    -0.354 N 
ATOM     61  N   UNL A   1      44.913  28.234  27.616  1.00  0.00    -0.248 NA
ATOM     62  C   UNL A   1      44.391  26.348  28.892  1.00  0.00     0.031 C 
ATOM     63  C   UNL A   1      43.842  31.645  30.988  1.00  0.00     0.029 A 
ATOM     64  C   UNL A   1      44.344  30.407  30.585  1.00  0.00     0.049 A 
ATOM     65  H   UNL A   1      44.754  28.840  31.937  1.00  0.00     0.167 HD
ATOM     66  C   UNL A   1      44.893  28.619  28.948  1.00  0.00     0.074 A 
ATOM     67  C   UNL A   1      44.629  27.389  29.694  1.00  0.00     0.031 C 
ATOM     68  C   UNL A   1      44.827  29.934  29.304  1.00  0.00     0.037 A 
BRANCH  55  69
ATOM     69  C   UNL A   1      42.508  28.118  33.986  1.00  0.00     0.058 A 
ATOM     70  C   UNL A   1      42.177  28.398  35.324  1.00  0.00     0.135 A 
ATOM     71  C   UNL A   1      43.360  27.008  33.779  1.00  0.00     0.135 A 
ATOM     72  F   UNL A   1      41.390  29.442  35.630  1.00  0.00    -0.206 F 
ATOM     73  C   UNL A   1      42.699  27.660  36.384  1.00  0.00     0.059 A 
ATOM     74  C   UNL A   1      43.840  26.223  34.816  1.00  0.00     0.059 A 
ATOM     75  F   UNL A   1      43.848  26.695  32.573  1.00  0.00    -0.206 F 
ATOM     76  C   UNL A   1      43.537  26.581  36.118  1.00  0.00     0.060 A 
BRANCH  76  77
ATOM     77  S   UNL A   1      44.294  25.696  37.488  1.00  0.00     0.124 S 
ATOM     78  O   UNL A   1      45.712  25.905  37.220  1.00  0.00    -0.237 OA
ATOM     79  O   UNL A   1      43.747  26.404  38.641  1.00  0.00    -0.237 OA
ATOM     80  O   UNL A   1      43.813  24.329  37.313  1.00  0.00    -0.744 OA
ENDBRANCH  76  77
ENDBRANCH  55  69
BRANCH  56  81
ATOM     81  C   UNL A   1      43.611  25.232  25.920  1.00  0.00     0.058 A 
ATOM     82  C   UNL A   1      44.793  24.909  25.219  1.00  0.00     0.135 A 
ATOM     83  C   UNL A   1      42.745  24.156  26.188  1.00  0.00     0.135 A 
ATOM     84  F   UNL A   1      45.681  25.869  24.914  1.00  0.00    -0.206 F 
ATOM     85  C   UNL A   1      45.133  23.593  24.875  1.00  0.00     0.059 A 
ATOM     86  C   UNL A   1      43.063  22.834  25.855  1.00  0.00     0.059 A 
ATOM     87  F   UNL A   1      41.598  24.352  26.857  1.00  0.00    -0.206 F 
ATOM     88  C   UNL A   1      44.271  22.554  25.224  1.00  0.00     0.060 A 
BRANCH  88  89
ATOM     89  S   UNL A   1      44.788  20.839  24.947  1.00  0.00     0.124 S 
ATOM     90  O   UNL A   1      43.842  20.098  25.776  1.00  0.00    -0.237 OA
ATOM     91  O   UNL A   1      44.621  20.694  23.506  1.00  0.00    -0.237 OA
ATOM     92  O   UNL A   1      46.172  20.823  25.415  1.00  0.00    -0.744 OA
ENDBRANCH  88  89
ENDBRANCH  56  81
BRANCH  68  93
ATOM     93  C   UNL A   1      45.067  30.975  28.235  1.00  0.00     0.058 A 
ATOM     94  C   UNL A   1      44.089  31.443  27.339  1.00  0.00     0.135 A 
ATOM     95  C   UNL A   1      46.307  31.633  28.220  1.00  0.00     0.135 A 
ATOM     96  F   UNL A   1      42.851  30.930  27.342  1.00  0.00    -0.206 F 
ATOM     97  C   UNL A   1      44.339  32.498  26.454  1.00  0.00     0.059 A 
ATOM     98  C   UNL A   1      46.569  32.704  27.369  1.00  0.00     0.059 A 
ATOM     99  F   UNL A   1      47.270  31.268  29.082  1.00  0.00    -0.206 F 
ATOM    100  C   UNL A   1      45.582  33.127  26.482  1.00  0.00     0.060 A 
BRANCH 100 101
ATOM    101  S   UNL A   1      45.880  34.544  25.398  1.00  0.00     0.124 S 
ATOM    102  O   UNL A   1      47.330  34.513  25.240  1.00  0.00    -0.237 OA
ATOM    103  O   UNL A   1      45.107  34.200  24.208  1.00  0.00    -0.237 OA
ATOM    104  O   UNL A   1      45.360  35.675  26.162  1.00  0.00    -0.744 OA
ENDBRANCH 100 101
ENDBRANCH  68  93
ENDBRANCH  42  43
ENDBRANCH  35  37
ENDBRANCH  34  35
ENDBRANCH  33  34
ENDBRANCH   1  33
TORSDOF 19
ENDMDL
