MODEL 1
REMARK VINA RESULT:      -9.6      0.000      0.000
REMARK SMILES O=C(N[C@@H](Cc1c[nH]c2ccccc12)C(=O)N[C@@H](CS)C(=O)N[C@@H](CO)C(=O)OCCOC(=O)c1ccc(-c2c3nc(c(-c4c(F)cc(S(=O)(=O)[O-])cc4F)c4ccc([nH]4)c(-c4c(F)cc(S(=O)(=O)[O-])cc4F)c4nc(c(-c5c(F)cc(S(=O)(=O)[O-])cc5F)c5ccc2[nH]5)C=C4)C=C3)cc1)c1ccc(F)cc1
REMARK SMILES IDX 29 1 27 2 28 3 24 4 23 5 21 6 22 7 18 9 17 10 15 11 16 12
REMARK SMILES IDX 4 14 3 15 1 16 2 17 101 19 102 20 107 21 103 22 106 23
REMARK SMILES IDX 104 24 105 25 5 26 6 27 7 28 14 29 8 30 9 31 13 32 10 34
REMARK SMILES IDX 12 35 11 36 19 37 20 38 25 40 26 41 30 43 31 44 32 45 33 46
REMARK SMILES IDX 34 47 35 48 36 49 100 50 37 51 99 52 38 53 39 54 40 55 93 56
REMARK SMILES IDX 41 57 98 58 92 59 94 60 42 61 97 62 91 63 90 64 43 66 77 67
REMARK SMILES IDX 56 68 76 69 57 70 60 71 75 72 95 73 58 74 59 75 74 77 96 78
REMARK SMILES IDX 61 79 44 80 45 81 54 82 46 83 47 84 53 85 55 86 48 87 49 88
REMARK SMILES IDX 50 89 51 90 52 91 78 92 79 93 88 94 80 95 81 96 87 97 89 98
REMARK SMILES IDX 82 99 83 100 84 101 85 102 86 103 62 104 63 105 72 106
REMARK SMILES IDX 64 107 65 108 71 109 73 110 66 111 67 112 68 113 69 114
REMARK SMILES IDX 70 115
REMARK H PARENT 23 8 17 13 3 18 8 33 20 39 26 42 94 65 60 76
REMARK Flexibility Score: inf
ROOT
ATOM      1  O   UNL A   1      33.594  30.123  26.175  1.00  0.00    -0.460 OA
ENDROOT
BRANCH   1   2
ATOM      2  C   UNL A   1      33.377  28.777  26.147  1.00  0.00     0.331 C 
ATOM      3  O   UNL A   1      33.187  28.077  27.135  1.00  0.00    -0.250 OA
BRANCH   2   4
ATOM      4  C   UNL A   1      33.499  28.207  24.732  1.00  0.00     0.218 C 
BRANCH   4   5
ATOM      5  N   UNL A   1      34.153  26.881  24.674  1.00  0.00    -0.339 N 
ATOM      6  C   UNL A   1      33.379  25.758  24.553  1.00  0.00     0.244 C 
ATOM      7  O   UNL A   1      32.904  25.286  25.590  1.00  0.00    -0.273 OA
ATOM      8  H   UNL A   1      35.132  26.807  24.722  1.00  0.00     0.164 HD
BRANCH   6   9
ATOM      9  C   UNL A   1      33.201  25.090  23.147  1.00  0.00     0.181 C 
BRANCH   9  10
ATOM     10  N   UNL A   1      34.509  24.547  22.759  1.00  0.00    -0.342 N 
ATOM     11  C   UNL A   1      35.335  23.617  23.298  1.00  0.00     0.243 C 
ATOM     12  O   UNL A   1      36.219  23.190  22.541  1.00  0.00    -0.273 OA
ATOM     13  H   UNL A   1      34.861  24.944  21.930  1.00  0.00     0.164 HD
BRANCH  11  14
ATOM     14  C   UNL A   1      35.259  23.086  24.747  1.00  0.00     0.176 C 
BRANCH  14  15
ATOM     15  N   UNL A   1      35.162  21.629  24.788  1.00  0.00    -0.340 N 
ATOM     16  O   UNL A   1      34.176  19.639  25.142  1.00  0.00    -0.269 OA
ATOM     17  C   UNL A   1      34.094  20.858  25.204  1.00  0.00     0.251 C 
ATOM     18  H   UNL A   1      35.956  21.135  24.481  1.00  0.00     0.164 HD
BRANCH  17  19
ATOM     19  C   UNL A   1      32.889  21.495  25.798  1.00  0.00     0.040 A 
ATOM     20  C   UNL A   1      31.646  21.468  25.152  1.00  0.00     0.017 A 
ATOM     21  C   UNL A   1      33.022  22.152  27.030  1.00  0.00     0.017 A 
ATOM     22  C   UNL A   1      30.563  22.166  25.698  1.00  0.00     0.040 A 
ATOM     23  C   UNL A   1      31.935  22.843  27.574  1.00  0.00     0.040 A 
ATOM     24  C   UNL A   1      30.721  22.857  26.895  1.00  0.00     0.123 A 
ATOM     25  F   UNL A   1      29.690  23.552  27.396  1.00  0.00    -0.207 F 
ENDBRANCH  17  19
ENDBRANCH  14  15
BRANCH  14  26
ATOM     26  C   UNL A   1      36.177  23.726  25.805  1.00  0.00     0.072 C 
BRANCH  26  27
ATOM     27  C   UNL A   1      37.565  23.192  25.975  1.00  0.00    -0.020 A 
ATOM     28  C   UNL A   1      38.091  22.102  25.310  1.00  0.00     0.087 A 
ATOM     29  C   UNL A   1      38.648  23.756  26.730  1.00  0.00     0.003 A 
ATOM     30  N   UNL A   1      39.341  21.851  25.806  1.00  0.00    -0.361 N 
ATOM     31  C   UNL A   1      39.719  22.860  26.658  1.00  0.00     0.046 A 
ATOM     32  C   UNL A   1      38.832  24.947  27.463  1.00  0.00     0.010 A 
ATOM     33  H   UNL A   1      39.890  21.063  25.585  1.00  0.00     0.166 HD
ATOM     34  C   UNL A   1      40.926  23.052  27.339  1.00  0.00     0.026 A 
ATOM     35  C   UNL A   1      40.062  25.190  28.091  1.00  0.00     0.001 A 
ATOM     36  C   UNL A   1      41.084  24.245  28.047  1.00  0.00     0.002 A 
ENDBRANCH  26  27
ENDBRANCH  14  26
ENDBRANCH  11  14
ENDBRANCH   9  10
BRANCH   9  37
ATOM     37  C   UNL A   1      32.046  24.100  23.011  1.00  0.00     0.101 C 
BRANCH  37  38
ATOM     38  S   UNL A   1      30.424  24.881  23.270  1.00  0.00    -0.177 SA
ATOM     39  H   UNL A   1      29.703  24.818  22.119  1.00  0.00     0.102 HD
ENDBRANCH  37  38
ENDBRANCH   9  37
ENDBRANCH   6   9
ENDBRANCH   4   5
BRANCH   4  40
ATOM     40  C   UNL A   1      32.086  28.175  24.120  1.00  0.00     0.193 C 
BRANCH  40  41
ATOM     41  O   UNL A   1      31.193  29.014  24.860  1.00  0.00    -0.394 OA
ATOM     42  H   UNL A   1      31.294  28.836  25.808  1.00  0.00     0.210 HD
ENDBRANCH  40  41
ENDBRANCH   4  40
ENDBRANCH   2   4
ENDBRANCH   1   2
BRANCH   1  43
ATOM     43  C   UNL A   1      33.631  30.733  27.480  1.00  0.00     0.274 C 
BRANCH  43  44
ATOM     44  C   UNL A   1      32.842  32.037  27.444  1.00  0.00     0.275 C 
BRANCH  44  45
ATOM     45  O   UNL A   1      33.761  33.129  27.624  1.00  0.00    -0.458 OA
BRANCH  45  46
ATOM     46  C   UNL A   1      33.654  33.815  28.785  1.00  0.00     0.338 C 
ATOM     47  O   UNL A   1      32.697  34.503  29.131  1.00  0.00    -0.246 OA
BRANCH  46  48
ATOM     48  C   UNL A   1      34.843  33.581  29.639  1.00  0.00     0.060 A 
ATOM     49  C   UNL A   1      36.016  34.300  29.440  1.00  0.00     0.016 A 
ATOM     50  C   UNL A   1      34.837  32.546  30.579  1.00  0.00     0.016 A 
ATOM     51  C   UNL A   1      37.189  33.907  30.094  1.00  0.00     0.010 A 
ATOM     52  C   UNL A   1      36.003  32.228  31.301  1.00  0.00     0.010 A 
ATOM     53  C   UNL A   1      37.228  32.864  31.034  1.00  0.00    -0.014 A 
BRANCH  53  54
ATOM     54  C   UNL A   1      38.523  32.398  31.665  1.00  0.00     0.031 A 
ATOM     55  C   UNL A   1      38.891  32.821  33.080  1.00  0.00     0.074 A 
ATOM     56  C   UNL A   1      39.381  31.552  31.046  1.00  0.00     0.049 A 
ATOM     57  N   UNL A   1      40.066  32.845  33.663  1.00  0.00    -0.248 NA
ATOM     58  C   UNL A   1      37.798  33.296  33.940  1.00  0.00     0.031 C 
ATOM     59  C   UNL A   1      39.195  30.939  29.732  1.00  0.00     0.029 A 
ATOM     60  N   UNL A   1      40.594  31.041  31.463  1.00  0.00    -0.354 N 
ATOM     61  C   UNL A   1      39.867  33.431  34.914  1.00  0.00     0.074 A 
ATOM     62  C   UNL A   1      38.452  33.725  35.010  1.00  0.00     0.031 C 
ATOM     63  C   UNL A   1      40.181  30.062  29.501  1.00  0.00     0.029 A 
ATOM     64  C   UNL A   1      41.182  30.197  30.549  1.00  0.00     0.049 A 
ATOM     65  H   UNL A   1      41.000  31.259  32.334  1.00  0.00     0.167 HD
ATOM     66  C   UNL A   1      40.777  33.706  35.882  1.00  0.00     0.037 A 
ATOM     67  C   UNL A   1      42.419  29.663  30.478  1.00  0.00     0.037 A 
ATOM     68  C   UNL A   1      42.157  33.287  35.841  1.00  0.00     0.049 A 
ATOM     69  C   UNL A   1      43.442  30.030  31.510  1.00  0.00     0.074 A 
ATOM     70  C   UNL A   1      43.158  33.513  36.773  1.00  0.00     0.029 A 
ATOM     71  N   UNL A   1      42.722  32.515  34.837  1.00  0.00    -0.354 N 
ATOM     72  N   UNL A   1      43.299  30.764  32.586  1.00  0.00    -0.248 NA
ATOM     73  C   UNL A   1      44.812  29.547  31.285  1.00  0.00     0.031 C 
ATOM     74  C   UNL A   1      44.334  32.906  36.315  1.00  0.00     0.029 A 
ATOM     75  C   UNL A   1      44.056  32.267  35.119  1.00  0.00     0.049 A 
ATOM     76  H   UNL A   1      42.244  32.191  34.039  1.00  0.00     0.167 HD
ATOM     77  C   UNL A   1      44.558  30.830  33.168  1.00  0.00     0.074 A 
ATOM     78  C   UNL A   1      45.449  30.048  32.335  1.00  0.00     0.031 C 
ATOM     79  C   UNL A   1      44.940  31.490  34.288  1.00  0.00     0.037 A 
BRANCH  66  80
ATOM     80  C   UNL A   1      40.341  34.561  37.048  1.00  0.00     0.058 A 
ATOM     81  C   UNL A   1      39.710  34.045  38.188  1.00  0.00     0.135 A 
ATOM     82  C   UNL A   1      40.622  35.941  37.031  1.00  0.00     0.135 A 
ATOM     83  F   UNL A   1      39.421  32.737  38.269  1.00  0.00    -0.206 F 
ATOM     84  C   UNL A   1      39.336  34.867  39.250  1.00  0.00     0.059 A 
ATOM     85  C   UNL A   1      40.287  36.776  38.095  1.00  0.00     0.059 A 
ATOM     86  F   UNL A   1      41.239  36.493  35.975  1.00  0.00    -0.206 F 
ATOM     87  C   UNL A   1      39.625  36.232  39.193  1.00  0.00     0.060 A 
BRANCH  87  88
ATOM     88  S   UNL A   1      39.134  37.288  40.574  1.00  0.00     0.124 S 
ATOM     89  O   UNL A   1      40.409  37.899  40.942  1.00  0.00    -0.237 OA
ATOM     90  O   UNL A   1      38.160  38.184  39.957  1.00  0.00    -0.237 OA
ATOM     91  O   UNL A   1      38.586  36.348  41.546  1.00  0.00    -0.744 OA
ENDBRANCH  87  88
ENDBRANCH  66  80
BRANCH  67  92
ATOM     92  C   UNL A   1      42.786  28.818  29.307  1.00  0.00     0.058 A 
ATOM     93  C   UNL A   1      43.086  29.391  28.064  1.00  0.00     0.135 A 
ATOM     94  C   UNL A   1      42.902  27.423  29.429  1.00  0.00     0.135 A 
ATOM     95  F   UNL A   1      42.961  30.715  27.886  1.00  0.00    -0.206 F 
ATOM     96  C   UNL A   1      43.518  28.616  26.991  1.00  0.00     0.059 A 
ATOM     97  C   UNL A   1      43.365  26.632  28.385  1.00  0.00     0.059 A 
ATOM     98  F   UNL A   1      42.623  26.824  30.598  1.00  0.00    -0.206 F 
ATOM     99  C   UNL A   1      43.672  27.238  27.169  1.00  0.00     0.060 A 
BRANCH  99 100
ATOM    100  S   UNL A   1      44.350  26.253  25.816  1.00  0.00     0.124 S 
ATOM    101  O   UNL A   1      45.575  26.981  25.507  1.00  0.00    -0.237 OA
ATOM    102  O   UNL A   1      44.523  24.945  26.440  1.00  0.00    -0.237 OA
ATOM    103  O   UNL A   1      43.303  26.317  24.800  1.00  0.00    -0.744 OA
ENDBRANCH  99 100
ENDBRANCH  67  92
BRANCH  79 104
ATOM    104  C   UNL A   1      46.378  31.360  34.701  1.00  0.00     0.058 A 
ATOM    105  C   UNL A   1      47.349  32.287  34.290  1.00  0.00     0.135 A 
ATOM    106  C   UNL A   1      46.789  30.301  35.524  1.00  0.00     0.135 A 
ATOM    107  F   UNL A   1      47.010  33.311  33.490  1.00  0.00    -0.206 F 
ATOM    108  C   UNL A   1      48.683  32.153  34.661  1.00  0.00     0.059 A 
ATOM    109  C   UNL A   1      48.114  30.160  35.926  1.00  0.00     0.059 A 
ATOM    110  F   UNL A   1      45.899  29.389  35.948  1.00  0.00    -0.206 F 
ATOM    111  C   UNL A   1      49.056  31.084  35.477  1.00  0.00     0.060 A 
BRANCH 111 112
ATOM    112  S   UNL A   1      50.789  30.926  35.961  1.00  0.00     0.124 S 
ATOM    113  O   UNL A   1      51.201  32.323  36.036  1.00  0.00    -0.237 OA
ATOM    114  O   UNL A   1      50.696  30.222  37.237  1.00  0.00    -0.237 OA
ATOM    115  O   UNL A   1      51.377  30.156  34.870  1.00  0.00    -0.744 OA
ENDBRANCH 111 112
ENDBRANCH  79 104
ENDBRANCH  53  54
ENDBRANCH  46  48
ENDBRANCH  45  46
ENDBRANCH  44  45
ENDBRANCH  43  44
ENDBRANCH   1  43
TORSDOF 26
ENDMDL
MODEL 2
REMARK VINA RESULT:      -9.6      5.352     11.589
REMARK SMILES O=C(N[C@@H](Cc1c[nH]c2ccccc12)C(=O)N[C@@H](CS)C(=O)N[C@@H](CO)C(=O)OCCOC(=O)c1ccc(-c2c3nc(c(-c4c(F)cc(S(=O)(=O)[O-])cc4F)c4ccc([nH]4)c(-c4c(F)cc(S(=O)(=O)[O-])cc4F)c4nc(c(-c5c(F)cc(S(=O)(=O)[O-])cc5F)c5ccc2[nH]5)C=C4)C=C3)cc1)c1ccc(F)cc1
REMARK SMILES IDX 29 1 27 2 28 3 24 4 23 5 21 6 22 7 18 9 17 10 15 11 16 12
REMARK SMILES IDX 4 14 3 15 1 16 2 17 101 19 102 20 107 21 103 22 106 23
REMARK SMILES IDX 104 24 105 25 5 26 6 27 7 28 14 29 8 30 9 31 13 32 10 34
REMARK SMILES IDX 12 35 11 36 19 37 20 38 25 40 26 41 30 43 31 44 32 45 33 46
REMARK SMILES IDX 34 47 35 48 36 49 100 50 37 51 99 52 38 53 39 54 40 55 93 56
REMARK SMILES IDX 41 57 98 58 92 59 94 60 42 61 97 62 91 63 90 64 43 66 77 67
REMARK SMILES IDX 56 68 76 69 57 70 60 71 75 72 95 73 58 74 59 75 74 77 96 78
REMARK SMILES IDX 61 79 44 80 45 81 54 82 46 83 47 84 53 85 55 86 48 87 49 88
REMARK SMILES IDX 50 89 51 90 52 91 78 92 79 93 88 94 80 95 81 96 87 97 89 98
REMARK SMILES IDX 82 99 83 100 84 101 85 102 86 103 62 104 63 105 72 106
REMARK SMILES IDX 64 107 65 108 71 109 73 110 66 111 67 112 68 113 69 114
REMARK SMILES IDX 70 115
REMARK H PARENT 23 8 17 13 3 18 8 33 20 39 26 42 94 65 60 76
REMARK Flexibility Score: inf
ROOT
ATOM      1  O   UNL A   1      47.084  25.971  25.993  1.00  0.00    -0.460 OA
ENDROOT
BRANCH   1   2
ATOM      2  C   UNL A   1      48.033  26.733  25.379  1.00  0.00     0.331 C 
ATOM      3  O   UNL A   1      47.955  27.160  24.233  1.00  0.00    -0.250 OA
BRANCH   2   4
ATOM      4  C   UNL A   1      49.273  26.919  26.255  1.00  0.00     0.218 C 
BRANCH   4   5
ATOM      5  N   UNL A   1      49.570  28.332  26.581  1.00  0.00    -0.339 N 
ATOM      6  C   UNL A   1      48.555  29.152  26.996  1.00  0.00     0.244 C 
ATOM      7  O   UNL A   1      47.863  29.680  26.121  1.00  0.00    -0.273 OA
ATOM      8  H   UNL A   1      50.488  28.678  26.500  1.00  0.00     0.164 HD
BRANCH   6   9
ATOM      9  C   UNL A   1      48.371  29.441  28.525  1.00  0.00     0.181 C 
BRANCH   9  10
ATOM     10  N   UNL A   1      47.215  28.656  28.975  1.00  0.00    -0.342 N 
ATOM     11  C   UNL A   1      45.876  28.865  28.959  1.00  0.00     0.243 C 
ATOM     12  O   UNL A   1      45.179  27.857  29.145  1.00  0.00    -0.273 OA
ATOM     13  H   UNL A   1      47.467  27.792  29.375  1.00  0.00     0.164 HD
BRANCH  11  14
ATOM     14  C   UNL A   1      45.187  30.231  28.745  1.00  0.00     0.176 C 
BRANCH  14  15
ATOM     15  N   UNL A   1      45.226  30.648  27.346  1.00  0.00    -0.340 N 
ATOM     16  O   UNL A   1      45.457  32.082  25.629  1.00  0.00    -0.269 OA
ATOM     17  C   UNL A   1      45.425  31.918  26.841  1.00  0.00     0.251 C 
ATOM     18  H   UNL A   1      45.095  29.935  26.680  1.00  0.00     0.164 HD
BRANCH  17  19
ATOM     19  C   UNL A   1      45.515  33.088  27.754  1.00  0.00     0.040 A 
ATOM     20  C   UNL A   1      46.686  33.379  28.466  1.00  0.00     0.017 A 
ATOM     21  C   UNL A   1      44.383  33.901  27.908  1.00  0.00     0.017 A 
ATOM     22  C   UNL A   1      46.695  34.430  29.389  1.00  0.00     0.040 A 
ATOM     23  C   UNL A   1      44.399  34.954  28.829  1.00  0.00     0.040 A 
ATOM     24  C   UNL A   1      45.549  35.198  29.572  1.00  0.00     0.123 A 
ATOM     25  F   UNL A   1      45.553  36.182  30.482  1.00  0.00    -0.207 F 
ENDBRANCH  17  19
ENDBRANCH  14  15
BRANCH  14  26
ATOM     26  C   UNL A   1      43.866  30.503  29.489  1.00  0.00     0.072 C 
BRANCH  26  27
ATOM     27  C   UNL A   1      43.896  31.330  30.736  1.00  0.00    -0.020 A 
ATOM     28  C   UNL A   1      44.895  31.304  31.691  1.00  0.00     0.087 A 
ATOM     29  C   UNL A   1      43.002  32.383  31.127  1.00  0.00     0.003 A 
ATOM     30  N   UNL A   1      44.521  32.107  32.733  1.00  0.00    -0.361 N 
ATOM     31  C   UNL A   1      43.381  32.799  32.407  1.00  0.00     0.046 A 
ATOM     32  C   UNL A   1      41.910  33.035  30.517  1.00  0.00     0.010 A 
ATOM     33  H   UNL A   1      45.000  32.179  33.591  1.00  0.00     0.166 HD
ATOM     34  C   UNL A   1      42.683  33.770  33.135  1.00  0.00     0.026 A 
ATOM     35  C   UNL A   1      41.246  34.062  31.203  1.00  0.00     0.001 A 
ATOM     36  C   UNL A   1      41.614  34.406  32.501  1.00  0.00     0.002 A 
ENDBRANCH  26  27
ENDBRANCH  14  26
ENDBRANCH  11  14
ENDBRANCH   9  10
BRANCH   9  37
ATOM     37  C   UNL A   1      49.615  29.282  29.396  1.00  0.00     0.101 C 
BRANCH  37  38
ATOM     38  S   UNL A   1      49.215  29.127  31.163  1.00  0.00    -0.177 SA
ATOM     39  H   UNL A   1      48.275  30.051  31.497  1.00  0.00     0.102 HD
ENDBRANCH  37  38
ENDBRANCH   9  37
ENDBRANCH   6   9
ENDBRANCH   4   5
BRANCH   4  40
ATOM     40  C   UNL A   1      49.078  26.070  27.525  1.00  0.00     0.193 C 
BRANCH  40  41
ATOM     41  O   UNL A   1      49.424  24.702  27.280  1.00  0.00    -0.394 OA
ATOM     42  H   UNL A   1      49.490  24.229  28.124  1.00  0.00     0.210 HD
ENDBRANCH  40  41
ENDBRANCH   4  40
ENDBRANCH   2   4
ENDBRANCH   1   2
BRANCH   1  43
ATOM     43  C   UNL A   1      45.729  26.454  25.909  1.00  0.00     0.274 C 
BRANCH  43  44
ATOM     44  C   UNL A   1      44.829  25.332  25.403  1.00  0.00     0.275 C 
BRANCH  44  45
ATOM     45  O   UNL A   1      43.658  25.278  26.236  1.00  0.00    -0.458 OA
BRANCH  45  46
ATOM     46  C   UNL A   1      42.610  26.038  25.844  1.00  0.00     0.338 C 
ATOM     47  O   UNL A   1      42.147  26.097  24.707  1.00  0.00    -0.246 OA
BRANCH  46  48
ATOM     48  C   UNL A   1      42.036  26.769  26.998  1.00  0.00     0.060 A 
ATOM     49  C   UNL A   1      42.130  28.153  27.083  1.00  0.00     0.016 A 
ATOM     50  C   UNL A   1      41.498  26.061  28.077  1.00  0.00     0.016 A 
ATOM     51  C   UNL A   1      41.793  28.799  28.278  1.00  0.00     0.010 A 
ATOM     52  C   UNL A   1      41.072  26.738  29.236  1.00  0.00     0.010 A 
ATOM     53  C   UNL A   1      41.264  28.123  29.390  1.00  0.00    -0.014 A 
BRANCH  53  54
ATOM     54  C   UNL A   1      40.988  28.824  30.702  1.00  0.00     0.031 A 
ATOM     55  C   UNL A   1      39.798  29.764  30.843  1.00  0.00     0.074 A 
ATOM     56  C   UNL A   1      41.729  28.620  31.817  1.00  0.00     0.049 A 
ATOM     57  N   UNL A   1      39.588  30.716  31.720  1.00  0.00    -0.248 NA
ATOM     58  C   UNL A   1      38.717  29.624  29.858  1.00  0.00     0.031 C 
ATOM     59  C   UNL A   1      42.855  27.696  31.950  1.00  0.00     0.029 A 
ATOM     60  N   UNL A   1      41.628  29.176  33.077  1.00  0.00    -0.354 N 
ATOM     61  C   UNL A   1      38.409  31.351  31.330  1.00  0.00     0.074 A 
ATOM     62  C   UNL A   1      37.939  30.657  30.149  1.00  0.00     0.031 C 
ATOM     63  C   UNL A   1      43.261  27.663  33.226  1.00  0.00     0.029 A 
ATOM     64  C   UNL A   1      42.572  28.711  33.964  1.00  0.00     0.049 A 
ATOM     65  H   UNL A   1      40.943  29.842  33.318  1.00  0.00     0.167 HD
ATOM     66  C   UNL A   1      37.784  32.415  31.895  1.00  0.00     0.037 A 
ATOM     67  C   UNL A   1      42.938  29.129  35.193  1.00  0.00     0.037 A 
ATOM     68  C   UNL A   1      38.177  33.016  33.147  1.00  0.00     0.049 A 
ATOM     69  C   UNL A   1      42.297  30.350  35.780  1.00  0.00     0.074 A 
ATOM     70  C   UNL A   1      37.609  34.095  33.805  1.00  0.00     0.029 A 
ATOM     71  N   UNL A   1      39.209  32.561  33.955  1.00  0.00    -0.354 N 
ATOM     72  N   UNL A   1      41.316  31.075  35.302  1.00  0.00    -0.248 NA
ATOM     73  C   UNL A   1      42.855  30.846  37.047  1.00  0.00     0.031 C 
ATOM     74  C   UNL A   1      38.317  34.312  34.993  1.00  0.00     0.029 A 
ATOM     75  C   UNL A   1      39.300  33.342  35.096  1.00  0.00     0.049 A 
ATOM     76  H   UNL A   1      39.791  31.794  33.748  1.00  0.00     0.167 HD
ATOM     77  C   UNL A   1      41.137  32.113  36.208  1.00  0.00     0.074 A 
ATOM     78  C   UNL A   1      42.099  31.913  37.272  1.00  0.00     0.031 C 
ATOM     79  C   UNL A   1      40.259  33.143  36.153  1.00  0.00     0.037 A 
BRANCH  66  80
ATOM     80  C   UNL A   1      36.647  33.060  31.138  1.00  0.00     0.058 A 
ATOM     81  C   UNL A   1      35.303  32.929  31.512  1.00  0.00     0.135 A 
ATOM     82  C   UNL A   1      36.935  33.879  30.030  1.00  0.00     0.135 A 
ATOM     83  F   UNL A   1      34.963  32.168  32.564  1.00  0.00    -0.206 F 
ATOM     84  C   UNL A   1      34.282  33.553  30.796  1.00  0.00     0.059 A 
ATOM     85  C   UNL A   1      35.934  34.538  29.318  1.00  0.00     0.059 A 
ATOM     86  F   UNL A   1      38.205  34.057  29.632  1.00  0.00    -0.206 F 
ATOM     87  C   UNL A   1      34.607  34.352  29.697  1.00  0.00     0.060 A 
BRANCH  87  88
ATOM     88  S   UNL A   1      33.277  35.152  28.774  1.00  0.00     0.124 S 
ATOM     89  O   UNL A   1      32.456  35.693  29.854  1.00  0.00    -0.237 OA
ATOM     90  O   UNL A   1      33.995  36.138  27.972  1.00  0.00    -0.237 OA
ATOM     91  O   UNL A   1      32.676  34.056  28.020  1.00  0.00    -0.744 OA
ENDBRANCH  87  88
ENDBRANCH  66  80
BRANCH  67  92
ATOM     92  C   UNL A   1      44.062  28.446  35.894  1.00  0.00     0.058 A 
ATOM     93  C   UNL A   1      43.829  27.381  36.774  1.00  0.00     0.135 A 
ATOM     94  C   UNL A   1      45.397  28.809  35.646  1.00  0.00     0.135 A 
ATOM     95  F   UNL A   1      42.571  27.016  37.068  1.00  0.00    -0.206 F 
ATOM     96  C   UNL A   1      44.879  26.680  37.361  1.00  0.00     0.059 A 
ATOM     97  C   UNL A   1      46.462  28.102  36.191  1.00  0.00     0.059 A 
ATOM     98  F   UNL A   1      45.675  29.824  34.812  1.00  0.00    -0.206 F 
ATOM     99  C   UNL A   1      46.193  27.037  37.048  1.00  0.00     0.060 A 
BRANCH  99 100
ATOM    100  S   UNL A   1      47.550  26.048  37.712  1.00  0.00     0.124 S 
ATOM    101  O   UNL A   1      48.698  26.905  37.440  1.00  0.00    -0.237 OA
ATOM    102  O   UNL A   1      47.174  25.909  39.115  1.00  0.00    -0.237 OA
ATOM    103  O   UNL A   1      47.478  24.818  36.930  1.00  0.00    -0.744 OA
ENDBRANCH  99 100
ENDBRANCH  67  92
BRANCH  79 104
ATOM    104  C   UNL A   1      40.270  34.112  37.300  1.00  0.00     0.058 A 
ATOM    105  C   UNL A   1      41.068  35.266  37.280  1.00  0.00     0.135 A 
ATOM    106  C   UNL A   1      39.467  33.887  38.429  1.00  0.00     0.135 A 
ATOM    107  F   UNL A   1      41.864  35.520  36.230  1.00  0.00    -0.206 F 
ATOM    108  C   UNL A   1      41.088  36.153  38.352  1.00  0.00     0.059 A 
ATOM    109  C   UNL A   1      39.455  34.772  39.503  1.00  0.00     0.059 A 
ATOM    110  F   UNL A   1      38.683  32.800  38.496  1.00  0.00    -0.206 F 
ATOM    111  C   UNL A   1      40.279  35.895  39.461  1.00  0.00     0.060 A 
BRANCH 111 112
ATOM    112  S   UNL A   1      40.305  37.058  40.842  1.00  0.00     0.124 S 
ATOM    113  O   UNL A   1      38.943  37.579  40.813  1.00  0.00    -0.237 OA
ATOM    114  O   UNL A   1      40.631  36.196  41.974  1.00  0.00    -0.237 OA
ATOM    115  O   UNL A   1      41.348  38.008  40.466  1.00  0.00    -0.744 OA
ENDBRANCH 111 112
ENDBRANCH  79 104
ENDBRANCH  53  54
ENDBRANCH  46  48
ENDBRANCH  45  46
ENDBRANCH  44  45
ENDBRANCH  43  44
ENDBRANCH   1  43
TORSDOF 26
ENDMDL
MODEL 3
REMARK VINA RESULT:      -9.6     10.434     16.476
REMARK SMILES O=C(N[C@@H](Cc1c[nH]c2ccccc12)C(=O)N[C@@H](CS)C(=O)N[C@@H](CO)C(=O)OCCOC(=O)c1ccc(-c2c3nc(c(-c4c(F)cc(S(=O)(=O)[O-])cc4F)c4ccc([nH]4)c(-c4c(F)cc(S(=O)(=O)[O-])cc4F)c4nc(c(-c5c(F)cc(S(=O)(=O)[O-])cc5F)c5ccc2[nH]5)C=C4)C=C3)cc1)c1ccc(F)cc1
REMARK SMILES IDX 29 1 27 2 28 3 24 4 23 5 21 6 22 7 18 9 17 10 15 11 16 12
REMARK SMILES IDX 4 14 3 15 1 16 2 17 101 19 102 20 107 21 103 22 106 23
REMARK SMILES IDX 104 24 105 25 5 26 6 27 7 28 14 29 8 30 9 31 13 32 10 34
REMARK SMILES IDX 12 35 11 36 19 37 20 38 25 40 26 41 30 43 31 44 32 45 33 46
REMARK SMILES IDX 34 47 35 48 36 49 100 50 37 51 99 52 38 53 39 54 40 55 93 56
REMARK SMILES IDX 41 57 98 58 92 59 94 60 42 61 97 62 91 63 90 64 43 66 77 67
REMARK SMILES IDX 56 68 76 69 57 70 60 71 75 72 95 73 58 74 59 75 74 77 96 78
REMARK SMILES IDX 61 79 44 80 45 81 54 82 46 83 47 84 53 85 55 86 48 87 49 88
REMARK SMILES IDX 50 89 51 90 52 91 78 92 79 93 88 94 80 95 81 96 87 97 89 98
REMARK SMILES IDX 82 99 83 100 84 101 85 102 86 103 62 104 63 105 72 106
REMARK SMILES IDX 64 107 65 108 71 109 73 110 66 111 67 112 68 113 69 114
REMARK SMILES IDX 70 115
REMARK H PARENT 23 8 17 13 3 18 8 33 20 39 26 42 94 65 60 76
REMARK Flexibility Score: inf
ROOT
ATOM      1  O   UNL A   1      48.288  20.738  37.606  1.00  0.00    -0.460 OA
ENDROOT
BRANCH   1   2
ATOM      2  C   UNL A   1      47.131  20.706  38.327  1.00  0.00     0.331 C 
ATOM      3  O   UNL A   1      46.205  21.499  38.202  1.00  0.00    -0.250 OA
BRANCH   2   4
ATOM      4  C   UNL A   1      47.153  19.613  39.397  1.00  0.00     0.218 C 
BRANCH   4   5
ATOM      5  N   UNL A   1      47.089  20.129  40.782  1.00  0.00    -0.339 N 
ATOM      6  C   UNL A   1      45.939  19.961  41.507  1.00  0.00     0.244 C 
ATOM      7  O   UNL A   1      45.041  20.791  41.341  1.00  0.00    -0.273 OA
ATOM      8  H   UNL A   1      47.864  20.588  41.178  1.00  0.00     0.164 HD
BRANCH   6   9
ATOM      9  C   UNL A   1      45.847  18.796  42.552  1.00  0.00     0.181 C 
BRANCH   9  10
ATOM     10  N   UNL A   1      46.668  17.692  42.039  1.00  0.00    -0.342 N 
ATOM     11  C   UNL A   1      46.677  16.354  42.250  1.00  0.00     0.243 C 
ATOM     12  O   UNL A   1      47.310  15.689  41.417  1.00  0.00    -0.273 OA
ATOM     13  H   UNL A   1      47.361  17.989  41.405  1.00  0.00     0.164 HD
BRANCH  11  14
ATOM     14  C   UNL A   1      45.986  15.630  43.428  1.00  0.00     0.176 C 
BRANCH  14  15
ATOM     15  N   UNL A   1      46.818  15.628  44.628  1.00  0.00    -0.340 N 
ATOM     16  O   UNL A   1      47.764  14.765  46.477  1.00  0.00    -0.269 OA
ATOM     17  C   UNL A   1      47.000  14.602  45.536  1.00  0.00     0.251 C 
ATOM     18  H   UNL A   1      47.310  16.459  44.814  1.00  0.00     0.164 HD
BRANCH  17  19
ATOM     19  C   UNL A   1      46.216  13.344  45.421  1.00  0.00     0.040 A 
ATOM     20  C   UNL A   1      46.588  12.322  44.539  1.00  0.00     0.017 A 
ATOM     21  C   UNL A   1      45.066  13.202  46.211  1.00  0.00     0.017 A 
ATOM     22  C   UNL A   1      45.767  11.198  44.390  1.00  0.00     0.040 A 
ATOM     23  C   UNL A   1      44.252  12.075  46.062  1.00  0.00     0.040 A 
ATOM     24  C   UNL A   1      44.601  11.092  45.141  1.00  0.00     0.123 A 
ATOM     25  F   UNL A   1      43.800  10.031  44.970  1.00  0.00    -0.207 F 
ENDBRANCH  17  19
ENDBRANCH  14  15
BRANCH  14  26
ATOM     26  C   UNL A   1      44.484  15.882  43.655  1.00  0.00     0.072 C 
BRANCH  26  27
ATOM     27  C   UNL A   1      43.528  15.605  42.536  1.00  0.00    -0.020 A 
ATOM     28  C   UNL A   1      43.296  16.434  41.456  1.00  0.00     0.087 A 
ATOM     29  C   UNL A   1      42.780  14.405  42.283  1.00  0.00     0.003 A 
ATOM     30  N   UNL A   1      42.282  15.900  40.708  1.00  0.00    -0.361 N 
ATOM     31  C   UNL A   1      41.964  14.648  41.175  1.00  0.00     0.046 A 
ATOM     32  C   UNL A   1      42.720  13.128  42.880  1.00  0.00     0.010 A 
ATOM     33  H   UNL A   1      41.846  16.347  39.946  1.00  0.00     0.166 HD
ATOM     34  C   UNL A   1      41.042  13.717  40.683  1.00  0.00     0.026 A 
ATOM     35  C   UNL A   1      41.856  12.158  42.354  1.00  0.00     0.001 A 
ATOM     36  C   UNL A   1      41.013  12.458  41.286  1.00  0.00     0.002 A 
ENDBRANCH  26  27
ENDBRANCH  14  26
ENDBRANCH  11  14
ENDBRANCH   9  10
BRANCH   9  37
ATOM     37  C   UNL A   1      46.134  19.169  44.005  1.00  0.00     0.101 C 
BRANCH  37  38
ATOM     38  S   UNL A   1      44.720  19.982  44.808  1.00  0.00    -0.177 SA
ATOM     39  H   UNL A   1      44.802  19.805  46.154  1.00  0.00     0.102 HD
ENDBRANCH  37  38
ENDBRANCH   9  37
ENDBRANCH   6   9
ENDBRANCH   4   5
BRANCH   4  40
ATOM     40  C   UNL A   1      45.996  18.642  39.096  1.00  0.00     0.193 C 
BRANCH  40  41
ATOM     41  O   UNL A   1      45.571  18.765  37.734  1.00  0.00    -0.394 OA
ATOM     42  H   UNL A   1      45.201  17.921  37.433  1.00  0.00     0.210 HD
ENDBRANCH  40  41
ENDBRANCH   4  40
ENDBRANCH   2   4
ENDBRANCH   1   2
BRANCH   1  43
ATOM     43  C   UNL A   1      48.164  20.479  36.194  1.00  0.00     0.274 C 
BRANCH  43  44
ATOM     44  C   UNL A   1      47.967  21.802  35.460  1.00  0.00     0.275 C 
BRANCH  44  45
ATOM     45  O   UNL A   1      47.072  21.579  34.356  1.00  0.00    -0.458 OA
BRANCH  45  46
ATOM     46  C   UNL A   1      45.751  21.619  34.640  1.00  0.00     0.338 C 
ATOM     47  O   UNL A   1      45.095  20.717  35.156  1.00  0.00    -0.246 OA
BRANCH  46  48
ATOM     48  C   UNL A   1      45.185  22.946  34.298  1.00  0.00     0.060 A 
ATOM     49  C   UNL A   1      43.937  23.054  33.694  1.00  0.00     0.016 A 
ATOM     50  C   UNL A   1      45.955  24.100  34.470  1.00  0.00     0.016 A 
ATOM     51  C   UNL A   1      43.525  24.285  33.170  1.00  0.00     0.010 A 
ATOM     52  C   UNL A   1      45.480  25.349  34.024  1.00  0.00     0.010 A 
ATOM     53  C   UNL A   1      44.276  25.464  33.308  1.00  0.00    -0.014 A 
BRANCH  53  54
ATOM     54  C   UNL A   1      43.855  26.766  32.660  1.00  0.00     0.031 A 
ATOM     55  C   UNL A   1      44.239  27.074  31.220  1.00  0.00     0.074 A 
ATOM     56  C   UNL A   1      43.083  27.685  33.288  1.00  0.00     0.049 A 
ATOM     57  N   UNL A   1      44.302  28.230  30.604  1.00  0.00    -0.248 NA
ATOM     58  C   UNL A   1      44.617  25.934  30.372  1.00  0.00     0.031 C 
ATOM     59  C   UNL A   1      42.516  27.567  34.630  1.00  0.00     0.029 A 
ATOM     60  N   UNL A   1      42.622  28.914  32.858  1.00  0.00    -0.354 N 
ATOM     61  C   UNL A   1      44.824  27.967  29.337  1.00  0.00     0.074 A 
ATOM     62  C   UNL A   1      45.037  26.537  29.268  1.00  0.00     0.031 C 
ATOM     63  C   UNL A   1      41.704  28.606  34.868  1.00  0.00     0.029 A 
ATOM     64  C   UNL A   1      41.849  29.570  33.788  1.00  0.00     0.049 A 
ATOM     65  H   UNL A   1      42.825  29.284  31.968  1.00  0.00     0.167 HD
ATOM     66  C   UNL A   1      45.108  28.835  28.333  1.00  0.00     0.037 A 
ATOM     67  C   UNL A   1      41.387  30.836  33.846  1.00  0.00     0.037 A 
ATOM     68  C   UNL A   1      44.766  30.237  28.352  1.00  0.00     0.049 A 
ATOM     69  C   UNL A   1      41.766  31.811  32.772  1.00  0.00     0.074 A 
ATOM     70  C   UNL A   1      45.007  31.200  27.385  1.00  0.00     0.029 A 
ATOM     71  N   UNL A   1      44.069  30.869  29.370  1.00  0.00    -0.354 N 
ATOM     72  N   UNL A   1      42.446  31.599  31.672  1.00  0.00    -0.248 NA
ATOM     73  C   UNL A   1      41.367  33.211  32.978  1.00  0.00     0.031 C 
ATOM     74  C   UNL A   1      44.485  32.419  27.833  1.00  0.00     0.029 A 
ATOM     75  C   UNL A   1      43.882  32.207  29.061  1.00  0.00     0.049 A 
ATOM     76  H   UNL A   1      43.752  30.431  30.193  1.00  0.00     0.167 HD
ATOM     77  C   UNL A   1      42.556  32.838  31.053  1.00  0.00     0.074 A 
ATOM     78  C   UNL A   1      41.858  33.792  31.891  1.00  0.00     0.031 C 
ATOM     79  C   UNL A   1      43.188  33.155  29.897  1.00  0.00     0.037 A 
BRANCH  66  80
ATOM     80  C   UNL A   1      45.890  28.324  27.147  1.00  0.00     0.058 A 
ATOM     81  C   UNL A   1      45.290  27.926  25.944  1.00  0.00     0.135 A 
ATOM     82  C   UNL A   1      47.295  28.285  27.214  1.00  0.00     0.135 A 
ATOM     83  F   UNL A   1      43.954  27.946  25.813  1.00  0.00    -0.206 F 
ATOM     84  C   UNL A   1      46.049  27.473  24.865  1.00  0.00     0.059 A 
ATOM     85  C   UNL A   1      48.076  27.867  26.138  1.00  0.00     0.059 A 
ATOM     86  F   UNL A   1      47.930  28.669  28.334  1.00  0.00    -0.206 F 
ATOM     87  C   UNL A   1      47.442  27.443  24.973  1.00  0.00     0.060 A 
BRANCH  87  88
ATOM     88  S   UNL A   1      48.415  26.851  23.572  1.00  0.00     0.124 S 
ATOM     89  O   UNL A   1      47.848  27.629  22.473  1.00  0.00    -0.237 OA
ATOM     90  O   UNL A   1      49.777  27.204  23.959  1.00  0.00    -0.237 OA
ATOM     91  O   UNL A   1      48.129  25.419  23.537  1.00  0.00    -0.744 OA
ENDBRANCH  87  88
ENDBRANCH  66  80
BRANCH  67  92
ATOM     92  C   UNL A   1      40.612  31.279  35.039  1.00  0.00     0.058 A 
ATOM     93  C   UNL A   1      41.244  31.891  36.130  1.00  0.00     0.135 A 
ATOM     94  C   UNL A   1      39.213  31.153  35.081  1.00  0.00     0.135 A 
ATOM     95  F   UNL A   1      42.581  32.008  36.152  1.00  0.00    -0.206 F 
ATOM     96  C   UNL A   1      40.516  32.390  37.207  1.00  0.00     0.059 A 
ATOM     97  C   UNL A   1      38.461  31.674  36.127  1.00  0.00     0.059 A 
ATOM     98  F   UNL A   1      38.558  30.572  34.063  1.00  0.00    -0.206 F 
ATOM     99  C   UNL A   1      39.122  32.292  37.186  1.00  0.00     0.060 A 
BRANCH  99 100
ATOM    100  S   UNL A   1      38.174  33.049  38.524  1.00  0.00     0.124 S 
ATOM    101  O   UNL A   1      38.704  32.353  39.690  1.00  0.00    -0.237 OA
ATOM    102  O   UNL A   1      38.535  34.458  38.401  1.00  0.00    -0.237 OA
ATOM    103  O   UNL A   1      36.792  32.734  38.171  1.00  0.00    -0.744 OA
ENDBRANCH  99 100
ENDBRANCH  67  92
BRANCH  79 104
ATOM    104  C   UNL A   1      43.120  34.586  29.450  1.00  0.00     0.058 A 
ATOM    105  C   UNL A   1      44.222  35.447  29.565  1.00  0.00     0.135 A 
ATOM    106  C   UNL A   1      41.940  35.101  28.893  1.00  0.00     0.135 A 
ATOM    107  F   UNL A   1      45.370  35.007  30.104  1.00  0.00    -0.206 F 
ATOM    108  C   UNL A   1      44.149  36.777  29.165  1.00  0.00     0.059 A 
ATOM    109  C   UNL A   1      41.850  36.423  28.465  1.00  0.00     0.059 A 
ATOM    110  F   UNL A   1      40.857  34.318  28.757  1.00  0.00    -0.206 F 
ATOM    111  C   UNL A   1      42.957  37.257  28.619  1.00  0.00     0.060 A 
BRANCH 111 112
ATOM    112  S   UNL A   1      42.876  38.983  28.093  1.00  0.00     0.124 S 
ATOM    113  O   UNL A   1      41.591  39.021  27.405  1.00  0.00    -0.237 OA
ATOM    114  O   UNL A   1      42.938  39.701  29.362  1.00  0.00    -0.237 OA
ATOM    115  O   UNL A   1      44.050  39.132  27.238  1.00  0.00    -0.744 OA
ENDBRANCH 111 112
ENDBRANCH  79 104
ENDBRANCH  53  54
ENDBRANCH  46  48
ENDBRANCH  45  46
ENDBRANCH  44  45
ENDBRANCH  43  44
ENDBRANCH   1  43
TORSDOF 26
ENDMDL
