MODEL 1
REMARK VINA RESULT:     -13.8      0.000      0.000
REMARK SMILES Cc1ccc(-c2cc([C@@H](C)C(=O)OCCOC(=O)c3ccc(-c4c5nc(c(-c6c(F)cc(S(=O)(=O)[O-])cc6F)c6ccc([nH]6)c(-c6c(F)cc(S(=O)(=O)[O-])cc6F)c6nc(c(-c7c(F)cc(S(=O)(=O)[O-])cc7F)c7ccc4[nH]7)C=C6)C=C5)cc3)ccc2C[C@H]2CCCC2=O)cc1
REMARK SMILES IDX 14 1 13 2 11 3 12 4 9 5 10 6 8 7 6 8 7 9 87 10 86 11 85 12
REMARK SMILES IDX 5 13 1 14 2 15 3 16 96 17 4 18 95 19 88 20 89 21 90 22 93 23
REMARK SMILES IDX 91 24 92 25 94 26 15 27 16 28 17 29 18 30 19 31 20 32 84 33
REMARK SMILES IDX 21 34 83 35 22 36 23 37 24 38 77 39 25 40 82 41 76 42 78 43
REMARK SMILES IDX 26 44 81 45 75 46 74 47 27 49 61 50 40 51 60 52 41 53 44 54
REMARK SMILES IDX 59 55 79 56 42 57 43 58 58 60 80 61 45 62 28 63 29 64 38 65
REMARK SMILES IDX 30 66 31 67 37 68 39 69 32 70 33 71 34 72 35 73 36 74 62 75
REMARK SMILES IDX 63 76 72 77 64 78 65 79 71 80 73 81 66 82 67 83 68 84 69 85
REMARK SMILES IDX 70 86 46 87 47 88 56 89 48 90 49 91 55 92 57 93 50 94 51 95
REMARK SMILES IDX 52 96 53 97 54 98
REMARK H PARENT 78 48 44 59
REMARK Flexibility Score: inf
ROOT
ATOM      1  C   UNL A   1      33.255  29.305  25.770  1.00  0.00     0.274 C 
ENDROOT
BRANCH   1   2
ATOM      2  O   UNL A   1      31.882  28.933  25.870  1.00  0.00    -0.462 OA
BRANCH   2   3
ATOM      3  C   UNL A   1      31.515  27.780  25.234  1.00  0.00     0.313 C 
ATOM      4  O   UNL A   1      30.909  26.870  25.782  1.00  0.00    -0.252 OA
BRANCH   3   5
ATOM      5  C   UNL A   1      32.088  27.766  23.803  1.00  0.00     0.126 C 
ATOM      6  C   UNL A   1      31.178  28.323  22.714  1.00  0.00     0.025 C 
BRANCH   5   7
ATOM      7  C   UNL A   1      32.482  26.345  23.500  1.00  0.00    -0.033 A 
ATOM      8  C   UNL A   1      33.810  24.399  24.073  1.00  0.00    -0.015 A 
ATOM      9  C   UNL A   1      33.607  25.781  24.113  1.00  0.00     0.013 A 
ATOM     10  C   UNL A   1      32.797  23.593  23.497  1.00  0.00    -0.039 A 
ATOM     11  C   UNL A   1      31.765  24.189  22.756  1.00  0.00     0.004 A 
ATOM     12  C   UNL A   1      31.617  25.559  22.739  1.00  0.00     0.005 A 
BRANCH   8  13
ATOM     13  C   UNL A   1      35.091  23.842  24.530  1.00  0.00    -0.018 A 
ATOM     14  C   UNL A   1      38.764  21.922  25.751  1.00  0.00     0.044 C 
ATOM     15  C   UNL A   1      37.514  22.628  25.325  1.00  0.00    -0.051 A 
ATOM     16  C   UNL A   1      36.931  22.301  24.099  1.00  0.00     0.004 A 
ATOM     17  C   UNL A   1      36.908  23.605  26.126  1.00  0.00     0.004 A 
ATOM     18  C   UNL A   1      35.742  22.909  23.706  1.00  0.00     0.009 A 
ATOM     19  C   UNL A   1      35.710  24.214  25.729  1.00  0.00     0.009 A 
ENDBRANCH   8  13
BRANCH  10  20
ATOM     20  C   UNL A   1      32.708  22.100  23.723  1.00  0.00     0.047 C 
BRANCH  20  21
ATOM     21  C   UNL A   1      32.139  21.679  25.089  1.00  0.00     0.060 C 
ATOM     22  C   UNL A   1      33.108  20.987  26.051  1.00  0.00     0.012 C 
ATOM     23  C   UNL A   1      31.626  22.828  25.929  1.00  0.00     0.136 C 
ATOM     24  C   UNL A   1      33.539  22.022  27.077  1.00  0.00     0.009 C 
ATOM     25  C   UNL A   1      32.392  23.011  27.211  1.00  0.00     0.076 C 
ATOM     26  O   UNL A   1      30.663  23.520  25.616  1.00  0.00    -0.299 OA
ENDBRANCH  20  21
ENDBRANCH  10  20
ENDBRANCH   5   7
ENDBRANCH   3   5
ENDBRANCH   2   3
ENDBRANCH   1   2
BRANCH   1  27
ATOM     27  C   UNL A   1      33.957  29.167  27.137  1.00  0.00     0.275 C 
BRANCH  27  28
ATOM     28  O   UNL A   1      35.409  29.124  27.241  1.00  0.00    -0.458 OA
BRANCH  28  29
ATOM     29  C   UNL A   1      36.108  30.197  27.703  1.00  0.00     0.338 C 
ATOM     30  O   UNL A   1      35.657  31.343  27.701  1.00  0.00    -0.246 OA
BRANCH  29  31
ATOM     31  C   UNL A   1      37.353  29.759  28.388  1.00  0.00     0.060 A 
ATOM     32  C   UNL A   1      37.306  28.991  29.564  1.00  0.00     0.016 A 
ATOM     33  C   UNL A   1      38.527  29.839  27.651  1.00  0.00     0.016 A 
ATOM     34  C   UNL A   1      38.384  28.167  29.905  1.00  0.00     0.010 A 
ATOM     35  C   UNL A   1      39.477  28.880  27.857  1.00  0.00     0.010 A 
ATOM     36  C   UNL A   1      39.441  28.072  29.005  1.00  0.00    -0.014 A 
BRANCH  36  37
ATOM     37  C   UNL A   1      40.707  27.380  29.211  1.00  0.00     0.031 A 
ATOM     38  C   UNL A   1      40.991  26.013  28.745  1.00  0.00     0.074 A 
ATOM     39  C   UNL A   1      41.666  28.252  29.593  1.00  0.00     0.049 A 
ATOM     40  N   UNL A   1      42.093  25.395  28.977  1.00  0.00    -0.248 NA
ATOM     41  C   UNL A   1      40.075  25.200  27.969  1.00  0.00     0.031 C 
ATOM     42  C   UNL A   1      43.111  28.190  29.539  1.00  0.00     0.029 A 
ATOM     43  N   UNL A   1      41.415  29.458  30.261  1.00  0.00    -0.354 N 
ATOM     44  C   UNL A   1      42.148  24.268  28.174  1.00  0.00     0.074 A 
ATOM     45  C   UNL A   1      40.825  24.147  27.625  1.00  0.00     0.031 C 
ATOM     46  C   UNL A   1      43.600  29.088  30.420  1.00  0.00     0.029 A 
ATOM     47  C   UNL A   1      42.467  29.648  31.154  1.00  0.00     0.049 A 
ATOM     48  H   UNL A   1      40.644  30.055  30.125  1.00  0.00     0.167 HD
ATOM     49  C   UNL A   1      43.361  23.668  28.003  1.00  0.00     0.037 A 
ATOM     50  C   UNL A   1      42.148  29.437  32.470  1.00  0.00     0.037 A 
ATOM     51  C   UNL A   1      44.329  24.307  28.896  1.00  0.00     0.049 A 
ATOM     52  C   UNL A   1      42.749  28.135  32.977  1.00  0.00     0.074 A 
ATOM     53  C   UNL A   1      45.234  25.343  28.753  1.00  0.00     0.029 A 
ATOM     54  N   UNL A   1      44.144  24.143  30.251  1.00  0.00    -0.354 N 
ATOM     55  N   UNL A   1      43.281  27.226  32.203  1.00  0.00    -0.248 NA
ATOM     56  C   UNL A   1      42.824  27.759  34.386  1.00  0.00     0.031 C 
ATOM     57  C   UNL A   1      45.498  25.866  30.059  1.00  0.00     0.029 A 
ATOM     58  C   UNL A   1      44.758  25.140  30.978  1.00  0.00     0.049 A 
ATOM     59  H   UNL A   1      43.633  23.403  30.653  1.00  0.00     0.167 HD
ATOM     60  C   UNL A   1      43.814  26.218  32.950  1.00  0.00     0.074 A 
ATOM     61  C   UNL A   1      43.462  26.575  34.315  1.00  0.00     0.031 C 
ATOM     62  C   UNL A   1      44.524  25.182  32.414  1.00  0.00     0.037 A 
BRANCH  49  63
ATOM     63  C   UNL A   1      43.770  22.646  26.960  1.00  0.00     0.058 A 
ATOM     64  C   UNL A   1      43.036  21.439  26.859  1.00  0.00     0.135 A 
ATOM     65  C   UNL A   1      44.855  22.741  26.062  1.00  0.00     0.135 A 
ATOM     66  F   UNL A   1      41.954  21.209  27.615  1.00  0.00    -0.206 F 
ATOM     67  C   UNL A   1      43.375  20.401  25.994  1.00  0.00     0.059 A 
ATOM     68  C   UNL A   1      45.226  21.701  25.193  1.00  0.00     0.059 A 
ATOM     69  F   UNL A   1      45.589  23.855  25.959  1.00  0.00    -0.206 F 
ATOM     70  C   UNL A   1      44.482  20.530  25.172  1.00  0.00     0.060 A 
BRANCH  70  71
ATOM     71  S   UNL A   1      44.901  19.152  24.087  1.00  0.00     0.124 S 
ATOM     72  O   UNL A   1      44.059  18.083  24.615  1.00  0.00    -0.237 OA
ATOM     73  O   UNL A   1      44.521  19.668  22.776  1.00  0.00    -0.237 OA
ATOM     74  O   UNL A   1      46.335  18.975  24.297  1.00  0.00    -0.744 OA
ENDBRANCH  70  71
ENDBRANCH  49  63
BRANCH  50  75
ATOM     75  C   UNL A   1      40.791  30.025  32.803  1.00  0.00     0.058 A 
ATOM     76  C   UNL A   1      40.652  31.435  32.706  1.00  0.00     0.135 A 
ATOM     77  C   UNL A   1      39.598  29.285  32.791  1.00  0.00     0.135 A 
ATOM     78  F   UNL A   1      41.746  32.216  32.706  1.00  0.00    -0.206 F 
ATOM     79  C   UNL A   1      39.430  32.057  32.454  1.00  0.00     0.059 A 
ATOM     80  C   UNL A   1      38.349  29.897  32.576  1.00  0.00     0.059 A 
ATOM     81  F   UNL A   1      39.631  27.947  32.883  1.00  0.00    -0.206 F 
ATOM     82  C   UNL A   1      38.284  31.275  32.351  1.00  0.00     0.060 A 
BRANCH  82  83
ATOM     83  S   UNL A   1      36.763  32.076  31.772  1.00  0.00     0.124 S 
ATOM     84  O   UNL A   1      37.181  32.629  30.489  1.00  0.00    -0.237 OA
ATOM     85  O   UNL A   1      35.836  30.949  31.699  1.00  0.00    -0.237 OA
ATOM     86  O   UNL A   1      36.477  33.054  32.816  1.00  0.00    -0.744 OA
ENDBRANCH  82  83
ENDBRANCH  50  75
BRANCH  62  87
ATOM     87  C   UNL A   1      45.093  24.085  33.254  1.00  0.00     0.058 A 
ATOM     88  C   UNL A   1      44.321  22.987  33.649  1.00  0.00     0.135 A 
ATOM     89  C   UNL A   1      46.397  24.174  33.789  1.00  0.00     0.135 A 
ATOM     90  F   UNL A   1      43.052  22.856  33.231  1.00  0.00    -0.206 F 
ATOM     91  C   UNL A   1      44.834  21.997  34.479  1.00  0.00     0.059 A 
ATOM     92  C   UNL A   1      46.901  23.242  34.680  1.00  0.00     0.059 A 
ATOM     93  F   UNL A   1      47.241  25.154  33.428  1.00  0.00    -0.206 F 
ATOM     94  C   UNL A   1      46.126  22.134  34.987  1.00  0.00     0.060 A 
BRANCH  94  95
ATOM     95  S   UNL A   1      46.807  20.840  36.033  1.00  0.00     0.124 S 
ATOM     96  O   UNL A   1      47.812  20.230  35.169  1.00  0.00    -0.237 OA
ATOM     97  O   UNL A   1      47.324  21.625  37.151  1.00  0.00    -0.237 OA
ATOM     98  O   UNL A   1      45.651  20.002  36.332  1.00  0.00    -0.744 OA
ENDBRANCH  94  95
ENDBRANCH  62  87
ENDBRANCH  36  37
ENDBRANCH  29  31
ENDBRANCH  28  29
ENDBRANCH  27  28
ENDBRANCH   1  27
TORSDOF 18
ENDMDL
MODEL 2
REMARK VINA RESULT:     -13.7      4.301     10.931
REMARK SMILES Cc1ccc(-c2cc([C@@H](C)C(=O)OCCOC(=O)c3ccc(-c4c5nc(c(-c6c(F)cc(S(=O)(=O)[O-])cc6F)c6ccc([nH]6)c(-c6c(F)cc(S(=O)(=O)[O-])cc6F)c6nc(c(-c7c(F)cc(S(=O)(=O)[O-])cc7F)c7ccc4[nH]7)C=C6)C=C5)cc3)ccc2C[C@H]2CCCC2=O)cc1
REMARK SMILES IDX 14 1 13 2 11 3 12 4 9 5 10 6 8 7 6 8 7 9 87 10 86 11 85 12
REMARK SMILES IDX 5 13 1 14 2 15 3 16 96 17 4 18 95 19 88 20 89 21 90 22 93 23
REMARK SMILES IDX 91 24 92 25 94 26 15 27 16 28 17 29 18 30 19 31 20 32 84 33
REMARK SMILES IDX 21 34 83 35 22 36 23 37 24 38 77 39 25 40 82 41 76 42 78 43
REMARK SMILES IDX 26 44 81 45 75 46 74 47 27 49 61 50 40 51 60 52 41 53 44 54
REMARK SMILES IDX 59 55 79 56 42 57 43 58 58 60 80 61 45 62 28 63 29 64 38 65
REMARK SMILES IDX 30 66 31 67 37 68 39 69 32 70 33 71 34 72 35 73 36 74 62 75
REMARK SMILES IDX 63 76 72 77 64 78 65 79 71 80 73 81 66 82 67 83 68 84 69 85
REMARK SMILES IDX 70 86 46 87 47 88 56 89 48 90 49 91 55 92 57 93 50 94 51 95
REMARK SMILES IDX 52 96 53 97 54 98
REMARK H PARENT 78 48 44 59
REMARK Flexibility Score: inf
ROOT
ATOM      1  C   UNL A   1      36.054  22.791  25.684  1.00  0.00     0.274 C 
ENDROOT
BRANCH   1   2
ATOM      2  O   UNL A   1      35.608  22.316  24.416  1.00  0.00    -0.462 OA
BRANCH   2   3
ATOM      3  C   UNL A   1      34.318  22.606  24.075  1.00  0.00     0.313 C 
ATOM      4  O   UNL A   1      33.988  23.031  22.976  1.00  0.00    -0.252 OA
BRANCH   3   5
ATOM      5  C   UNL A   1      33.402  22.441  25.304  1.00  0.00     0.126 C 
ATOM      6  C   UNL A   1      32.607  21.142  25.375  1.00  0.00     0.025 C 
BRANCH   5   7
ATOM      7  C   UNL A   1      32.485  23.635  25.334  1.00  0.00    -0.033 A 
ATOM      8  C   UNL A   1      32.225  26.042  25.464  1.00  0.00    -0.015 A 
ATOM      9  C   UNL A   1      32.975  24.890  25.712  1.00  0.00     0.013 A 
ATOM     10  C   UNL A   1      31.022  25.907  24.728  1.00  0.00    -0.039 A 
ATOM     11  C   UNL A   1      30.479  24.634  24.501  1.00  0.00     0.004 A 
ATOM     12  C   UNL A   1      31.195  23.501  24.819  1.00  0.00     0.005 A 
BRANCH   8  13
ATOM     13  C   UNL A   1      32.647  27.322  26.050  1.00  0.00    -0.018 A 
ATOM     14  C   UNL A   1      33.618  31.212  27.659  1.00  0.00     0.044 C 
ATOM     15  C   UNL A   1      33.306  29.844  27.136  1.00  0.00    -0.051 A 
ATOM     16  C   UNL A   1      31.986  29.390  27.160  1.00  0.00     0.004 A 
ATOM     17  C   UNL A   1      34.303  29.008  26.616  1.00  0.00     0.004 A 
ATOM     18  C   UNL A   1      31.667  28.142  26.633  1.00  0.00     0.009 A 
ATOM     19  C   UNL A   1      33.979  27.753  26.084  1.00  0.00     0.009 A 
ENDBRANCH   8  13
BRANCH  10  20
ATOM     20  C   UNL A   1      30.325  27.079  24.072  1.00  0.00     0.047 C 
BRANCH  20  21
ATOM     21  C   UNL A   1      30.953  27.557  22.751  1.00  0.00     0.060 C 
ATOM     22  C   UNL A   1      31.623  28.933  22.769  1.00  0.00     0.012 C 
ATOM     23  C   UNL A   1      32.064  26.670  22.235  1.00  0.00     0.136 C 
ATOM     24  C   UNL A   1      33.124  28.700  22.853  1.00  0.00     0.009 C 
ATOM     25  C   UNL A   1      33.398  27.364  22.182  1.00  0.00     0.076 C 
ATOM     26  O   UNL A   1      31.891  25.514  21.865  1.00  0.00    -0.299 OA
ENDBRANCH  20  21
ENDBRANCH  10  20
ENDBRANCH   5   7
ENDBRANCH   3   5
ENDBRANCH   2   3
ENDBRANCH   1   2
BRANCH   1  27
ATOM     27  C   UNL A   1      37.469  23.395  25.573  1.00  0.00     0.275 C 
BRANCH  27  28
ATOM     28  O   UNL A   1      37.999  24.277  26.603  1.00  0.00    -0.458 OA
BRANCH  28  29
ATOM     29  C   UNL A   1      39.230  24.062  27.142  1.00  0.00     0.338 C 
ATOM     30  O   UNL A   1      39.806  22.974  27.086  1.00  0.00    -0.246 OA
BRANCH  29  31
ATOM     31  C   UNL A   1      39.842  25.341  27.588  1.00  0.00     0.060 A 
ATOM     32  C   UNL A   1      40.231  26.325  26.662  1.00  0.00     0.016 A 
ATOM     33  C   UNL A   1      39.696  25.664  28.930  1.00  0.00     0.016 A 
ATOM     34  C   UNL A   1      40.305  27.666  27.055  1.00  0.00     0.010 A 
ATOM     35  C   UNL A   1      39.551  26.981  29.258  1.00  0.00     0.010 A 
ATOM     36  C   UNL A   1      39.898  27.989  28.345  1.00  0.00    -0.014 A 
BRANCH  36  37
ATOM     37  C   UNL A   1      40.009  29.287  28.998  1.00  0.00     0.031 A 
ATOM     38  C   UNL A   1      38.949  30.309  28.999  1.00  0.00     0.074 A 
ATOM     39  C   UNL A   1      41.058  29.300  29.850  1.00  0.00     0.049 A 
ATOM     40  N   UNL A   1      39.078  31.469  29.535  1.00  0.00    -0.248 NA
ATOM     41  C   UNL A   1      37.638  30.136  28.405  1.00  0.00     0.031 C 
ATOM     42  C   UNL A   1      41.370  30.133  30.991  1.00  0.00     0.029 A 
ATOM     43  N   UNL A   1      42.193  28.490  29.716  1.00  0.00    -0.354 N 
ATOM     44  C   UNL A   1      37.829  32.064  29.611  1.00  0.00     0.074 A 
ATOM     45  C   UNL A   1      36.976  31.225  28.815  1.00  0.00     0.031 C 
ATOM     46  C   UNL A   1      42.697  30.042  31.225  1.00  0.00     0.029 A 
ATOM     47  C   UNL A   1      43.280  29.248  30.145  1.00  0.00     0.049 A 
ATOM     48  H   UNL A   1      42.217  27.564  29.383  1.00  0.00     0.167 HD
ATOM     49  C   UNL A   1      37.683  33.130  30.449  1.00  0.00     0.037 A 
ATOM     50  C   UNL A   1      44.101  29.694  29.141  1.00  0.00     0.037 A 
ATOM     51  C   UNL A   1      39.002  33.504  30.964  1.00  0.00     0.049 A 
ATOM     52  C   UNL A   1      43.922  31.186  28.910  1.00  0.00     0.074 A 
ATOM     53  C   UNL A   1      39.720  33.179  32.101  1.00  0.00     0.029 A 
ATOM     54  N   UNL A   1      39.916  34.002  30.062  1.00  0.00    -0.354 N 
ATOM     55  N   UNL A   1      42.947  31.893  29.420  1.00  0.00    -0.248 NA
ATOM     56  C   UNL A   1      44.828  32.007  28.111  1.00  0.00     0.031 C 
ATOM     57  C   UNL A   1      41.105  33.393  31.809  1.00  0.00     0.029 A 
ATOM     58  C   UNL A   1      41.212  33.851  30.506  1.00  0.00     0.049 A 
ATOM     59  H   UNL A   1      39.673  34.416  29.202  1.00  0.00     0.167 HD
ATOM     60  C   UNL A   1      43.104  33.211  29.110  1.00  0.00     0.074 A 
ATOM     61  C   UNL A   1      44.275  33.228  28.248  1.00  0.00     0.031 C 
ATOM     62  C   UNL A   1      42.292  34.196  29.594  1.00  0.00     0.037 A 
BRANCH  49  63
ATOM     63  C   UNL A   1      36.403  33.759  30.964  1.00  0.00     0.058 A 
ATOM     64  C   UNL A   1      35.468  34.270  30.030  1.00  0.00     0.135 A 
ATOM     65  C   UNL A   1      36.027  33.931  32.313  1.00  0.00     0.135 A 
ATOM     66  F   UNL A   1      35.658  34.153  28.710  1.00  0.00    -0.206 F 
ATOM     67  C   UNL A   1      34.301  34.939  30.395  1.00  0.00     0.059 A 
ATOM     68  C   UNL A   1      34.865  34.616  32.705  1.00  0.00     0.059 A 
ATOM     69  F   UNL A   1      36.749  33.418  33.316  1.00  0.00    -0.206 F 
ATOM     70  C   UNL A   1      34.010  35.123  31.736  1.00  0.00     0.060 A 
BRANCH  70  71
ATOM     71  S   UNL A   1      32.504  36.017  32.165  1.00  0.00     0.124 S 
ATOM     72  O   UNL A   1      32.971  36.907  33.224  1.00  0.00    -0.237 OA
ATOM     73  O   UNL A   1      32.160  36.661  30.902  1.00  0.00    -0.237 OA
ATOM     74  O   UNL A   1      31.592  34.962  32.598  1.00  0.00    -0.744 OA
ENDBRANCH  70  71
ENDBRANCH  49  63
BRANCH  50  75
ATOM     75  C   UNL A   1      44.327  28.613  28.103  1.00  0.00     0.058 A 
ATOM     76  C   UNL A   1      45.000  27.436  28.525  1.00  0.00     0.135 A 
ATOM     77  C   UNL A   1      43.586  28.507  26.915  1.00  0.00     0.135 A 
ATOM     78  F   UNL A   1      45.729  27.452  29.655  1.00  0.00    -0.206 F 
ATOM     79  C   UNL A   1      44.822  26.200  27.903  1.00  0.00     0.059 A 
ATOM     80  C   UNL A   1      43.424  27.277  26.250  1.00  0.00     0.059 A 
ATOM     81  F   UNL A   1      42.920  29.568  26.436  1.00  0.00    -0.206 F 
ATOM     82  C   UNL A   1      43.999  26.121  26.785  1.00  0.00     0.060 A 
BRANCH  82  83
ATOM     83  S   UNL A   1      43.583  24.471  26.157  1.00  0.00     0.124 S 
ATOM     84  O   UNL A   1      42.651  24.782  25.079  1.00  0.00    -0.237 OA
ATOM     85  O   UNL A   1      44.888  23.969  25.735  1.00  0.00    -0.237 OA
ATOM     86  O   UNL A   1      43.002  23.804  27.318  1.00  0.00    -0.744 OA
ENDBRANCH  82  83
ENDBRANCH  50  75
BRANCH  62  87
ATOM     87  C   UNL A   1      42.480  35.634  29.234  1.00  0.00     0.058 A 
ATOM     88  C   UNL A   1      41.860  36.197  28.112  1.00  0.00     0.135 A 
ATOM     89  C   UNL A   1      43.391  36.451  29.938  1.00  0.00     0.135 A 
ATOM     90  F   UNL A   1      41.024  35.471  27.355  1.00  0.00    -0.206 F 
ATOM     91  C   UNL A   1      42.083  37.519  27.746  1.00  0.00     0.059 A 
ATOM     92  C   UNL A   1      43.687  37.745  29.544  1.00  0.00     0.059 A 
ATOM     93  F   UNL A   1      43.992  36.029  31.061  1.00  0.00    -0.206 F 
ATOM     94  C   UNL A   1      42.997  38.284  28.469  1.00  0.00     0.060 A 
BRANCH  94  95
ATOM     95  S   UNL A   1      43.263  40.005  28.020  1.00  0.00     0.124 S 
ATOM     96  O   UNL A   1      44.515  40.321  28.701  1.00  0.00    -0.237 OA
ATOM     97  O   UNL A   1      43.341  39.907  26.565  1.00  0.00    -0.237 OA
ATOM     98  O   UNL A   1      42.080  40.679  28.545  1.00  0.00    -0.744 OA
ENDBRANCH  94  95
ENDBRANCH  62  87
ENDBRANCH  36  37
ENDBRANCH  29  31
ENDBRANCH  28  29
ENDBRANCH  27  28
ENDBRANCH   1  27
TORSDOF 18
ENDMDL
MODEL 3
REMARK VINA RESULT:     -13.5      1.162      1.906
REMARK SMILES Cc1ccc(-c2cc([C@@H](C)C(=O)OCCOC(=O)c3ccc(-c4c5nc(c(-c6c(F)cc(S(=O)(=O)[O-])cc6F)c6ccc([nH]6)c(-c6c(F)cc(S(=O)(=O)[O-])cc6F)c6nc(c(-c7c(F)cc(S(=O)(=O)[O-])cc7F)c7ccc4[nH]7)C=C6)C=C5)cc3)ccc2C[C@H]2CCCC2=O)cc1
REMARK SMILES IDX 14 1 13 2 11 3 12 4 9 5 10 6 8 7 6 8 7 9 87 10 86 11 85 12
REMARK SMILES IDX 5 13 1 14 2 15 3 16 96 17 4 18 95 19 88 20 89 21 90 22 93 23
REMARK SMILES IDX 91 24 92 25 94 26 15 27 16 28 17 29 18 30 19 31 20 32 84 33
REMARK SMILES IDX 21 34 83 35 22 36 23 37 24 38 77 39 25 40 82 41 76 42 78 43
REMARK SMILES IDX 26 44 81 45 75 46 74 47 27 49 61 50 40 51 60 52 41 53 44 54
REMARK SMILES IDX 59 55 79 56 42 57 43 58 58 60 80 61 45 62 28 63 29 64 38 65
REMARK SMILES IDX 30 66 31 67 37 68 39 69 32 70 33 71 34 72 35 73 36 74 62 75
REMARK SMILES IDX 63 76 72 77 64 78 65 79 71 80 73 81 66 82 67 83 68 84 69 85
REMARK SMILES IDX 70 86 46 87 47 88 56 89 48 90 49 91 55 92 57 93 50 94 51 95
REMARK SMILES IDX 52 96 53 97 54 98
REMARK H PARENT 78 48 44 59
REMARK Flexibility Score: inf
ROOT
ATOM      1  C   UNL A   1      32.630  29.360  26.829  1.00  0.00     0.274 C 
ENDROOT
BRANCH   1   2
ATOM      2  O   UNL A   1      32.145  28.289  26.021  1.00  0.00    -0.462 OA
BRANCH   2   3
ATOM      3  C   UNL A   1      31.756  28.611  24.751  1.00  0.00     0.313 C 
ATOM      4  O   UNL A   1      30.637  29.015  24.470  1.00  0.00    -0.252 OA
BRANCH   3   5
ATOM      5  C   UNL A   1      32.881  28.265  23.756  1.00  0.00     0.126 C 
ATOM      6  C   UNL A   1      32.750  28.871  22.363  1.00  0.00     0.025 C 
BRANCH   5   7
ATOM      7  C   UNL A   1      32.959  26.763  23.684  1.00  0.00    -0.033 A 
ATOM      8  C   UNL A   1      34.002  24.707  24.433  1.00  0.00    -0.015 A 
ATOM      9  C   UNL A   1      34.056  26.088  24.231  1.00  0.00     0.013 A 
ATOM     10  C   UNL A   1      32.778  24.043  24.172  1.00  0.00    -0.039 A 
ATOM     11  C   UNL A   1      31.754  24.708  23.481  1.00  0.00     0.004 A 
ATOM     12  C   UNL A   1      31.850  26.057  23.218  1.00  0.00     0.005 A 
BRANCH   8  13
ATOM     13  C   UNL A   1      35.224  23.981  24.807  1.00  0.00    -0.018 A 
ATOM     14  C   UNL A   1      38.741  21.630  25.685  1.00  0.00     0.044 C 
ATOM     15  C   UNL A   1      37.545  22.483  25.394  1.00  0.00    -0.051 A 
ATOM     16  C   UNL A   1      37.109  22.619  24.075  1.00  0.00     0.004 A 
ATOM     17  C   UNL A   1      36.846  23.146  26.412  1.00  0.00     0.004 A 
ATOM     18  C   UNL A   1      35.971  23.366  23.788  1.00  0.00     0.009 A 
ATOM     19  C   UNL A   1      35.699  23.896  26.121  1.00  0.00     0.009 A 
ENDBRANCH   8  13
BRANCH  10  20
ATOM     20  C   UNL A   1      32.467  22.658  24.695  1.00  0.00     0.047 C 
BRANCH  20  21
ATOM     21  C   UNL A   1      33.236  21.514  24.011  1.00  0.00     0.060 C 
ATOM     22  C   UNL A   1      33.919  20.500  24.931  1.00  0.00     0.012 C 
ATOM     23  C   UNL A   1      32.377  20.623  23.140  1.00  0.00     0.136 C 
ATOM     24  C   UNL A   1      33.040  19.260  24.965  1.00  0.00     0.009 C 
ATOM     25  C   UNL A   1      32.312  19.202  23.631  1.00  0.00     0.076 C 
ATOM     26  O   UNL A   1      31.817  21.009  22.119  1.00  0.00    -0.299 OA
ENDBRANCH  20  21
ENDBRANCH  10  20
ENDBRANCH   5   7
ENDBRANCH   3   5
ENDBRANCH   2   3
ENDBRANCH   1   2
BRANCH   1  27
ATOM     27  C   UNL A   1      33.913  28.940  27.575  1.00  0.00     0.275 C 
BRANCH  27  28
ATOM     28  O   UNL A   1      35.232  29.319  27.086  1.00  0.00    -0.458 OA
BRANCH  28  29
ATOM     29  C   UNL A   1      35.869  30.418  27.575  1.00  0.00     0.338 C 
ATOM     30  O   UNL A   1      35.339  31.529  27.638  1.00  0.00    -0.246 OA
BRANCH  29  31
ATOM     31  C   UNL A   1      37.162  30.041  28.204  1.00  0.00     0.060 A 
ATOM     32  C   UNL A   1      37.208  29.449  29.478  1.00  0.00     0.016 A 
ATOM     33  C   UNL A   1      38.265  29.976  27.363  1.00  0.00     0.016 A 
ATOM     34  C   UNL A   1      38.296  28.647  29.838  1.00  0.00     0.010 A 
ATOM     35  C   UNL A   1      39.210  29.025  27.621  1.00  0.00     0.010 A 
ATOM     36  C   UNL A   1      39.264  28.390  28.872  1.00  0.00    -0.014 A 
BRANCH  36  37
ATOM     37  C   UNL A   1      40.529  27.693  29.063  1.00  0.00     0.031 A 
ATOM     38  C   UNL A   1      40.758  26.280  28.721  1.00  0.00     0.074 A 
ATOM     39  C   UNL A   1      41.526  28.576  29.290  1.00  0.00     0.049 A 
ATOM     40  N   UNL A   1      41.862  25.662  28.942  1.00  0.00    -0.248 NA
ATOM     41  C   UNL A   1      39.777  25.414  28.095  1.00  0.00     0.031 C 
ATOM     42  C   UNL A   1      42.963  28.475  29.147  1.00  0.00     0.029 A 
ATOM     43  N   UNL A   1      41.342  29.849  29.846  1.00  0.00    -0.354 N 
ATOM     44  C   UNL A   1      41.843  24.459  28.257  1.00  0.00     0.074 A 
ATOM     45  C   UNL A   1      40.485  24.314  27.811  1.00  0.00     0.031 C 
ATOM     46  C   UNL A   1      43.526  29.445  29.897  1.00  0.00     0.029 A 
ATOM     47  C   UNL A   1      42.456  30.103  30.644  1.00  0.00     0.049 A 
ATOM     48  H   UNL A   1      40.574  30.447  29.701  1.00  0.00     0.167 HD
ATOM     49  C   UNL A   1      43.032  23.816  28.067  1.00  0.00     0.037 A 
ATOM     50  C   UNL A   1      42.224  30.033  31.993  1.00  0.00     0.037 A 
ATOM     51  C   UNL A   1      44.069  24.519  28.825  1.00  0.00     0.049 A 
ATOM     52  C   UNL A   1      42.836  28.775  32.589  1.00  0.00     0.074 A 
ATOM     53  C   UNL A   1      44.980  25.514  28.517  1.00  0.00     0.029 A 
ATOM     54  N   UNL A   1      43.974  24.497  30.199  1.00  0.00    -0.354 N 
ATOM     55  N   UNL A   1      43.299  27.780  31.878  1.00  0.00    -0.248 NA
ATOM     56  C   UNL A   1      43.000  28.541  34.021  1.00  0.00     0.031 C 
ATOM     57  C   UNL A   1      45.341  26.160  29.742  1.00  0.00     0.029 A 
ATOM     58  C   UNL A   1      44.653  25.548  30.778  1.00  0.00     0.049 A 
ATOM     59  H   UNL A   1      43.480  23.813  30.707  1.00  0.00     0.167 HD
ATOM     60  C   UNL A   1      43.865  26.841  32.687  1.00  0.00     0.074 A 
ATOM     61  C   UNL A   1      43.612  27.341  34.029  1.00  0.00     0.031 C 
ATOM     62  C   UNL A   1      44.519  25.739  32.214  1.00  0.00     0.037 A 
BRANCH  49  63
ATOM     63  C   UNL A   1      43.351  22.685  27.110  1.00  0.00     0.058 A 
ATOM     64  C   UNL A   1      42.635  21.469  27.224  1.00  0.00     0.135 A 
ATOM     65  C   UNL A   1      44.336  22.685  26.099  1.00  0.00     0.135 A 
ATOM     66  F   UNL A   1      41.642  21.318  28.110  1.00  0.00    -0.206 F 
ATOM     67  C   UNL A   1      42.904  20.340  26.451  1.00  0.00     0.059 A 
ATOM     68  C   UNL A   1      44.636  21.555  25.319  1.00  0.00     0.059 A 
ATOM     69  F   UNL A   1      45.033  23.786  25.794  1.00  0.00    -0.206 F 
ATOM     70  C   UNL A   1      43.917  20.383  25.508  1.00  0.00     0.060 A 
BRANCH  70  71
ATOM     71  S   UNL A   1      44.250  18.894  24.548  1.00  0.00     0.124 S 
ATOM     72  O   UNL A   1      45.564  18.499  25.047  1.00  0.00    -0.237 OA
ATOM     73  O   UNL A   1      43.140  18.028  24.933  1.00  0.00    -0.237 OA
ATOM     74  O   UNL A   1      44.225  19.364  23.166  1.00  0.00    -0.744 OA
ENDBRANCH  70  71
ENDBRANCH  49  63
BRANCH  50  75
ATOM     75  C   UNL A   1      40.902  30.683  32.352  1.00  0.00     0.058 A 
ATOM     76  C   UNL A   1      39.898  29.850  32.911  1.00  0.00     0.135 A 
ATOM     77  C   UNL A   1      40.744  32.063  32.559  1.00  0.00     0.135 A 
ATOM     78  F   UNL A   1      39.976  28.516  32.762  1.00  0.00    -0.206 F 
ATOM     79  C   UNL A   1      38.896  30.335  33.752  1.00  0.00     0.059 A 
ATOM     80  C   UNL A   1      39.719  32.577  33.372  1.00  0.00     0.059 A 
ATOM     81  F   UNL A   1      41.642  32.928  32.063  1.00  0.00    -0.206 F 
ATOM     82  C   UNL A   1      38.836  31.701  34.010  1.00  0.00     0.060 A 
BRANCH  82  83
ATOM     83  S   UNL A   1      37.693  32.268  35.300  1.00  0.00     0.124 S 
ATOM     84  O   UNL A   1      38.320  33.510  35.737  1.00  0.00    -0.237 OA
ATOM     85  O   UNL A   1      36.446  32.421  34.554  1.00  0.00    -0.237 OA
ATOM     86  O   UNL A   1      37.712  31.177  36.270  1.00  0.00    -0.744 OA
ENDBRANCH  82  83
ENDBRANCH  50  75
BRANCH  62  87
ATOM     87  C   UNL A   1      45.125  24.720  33.122  1.00  0.00     0.058 A 
ATOM     88  C   UNL A   1      46.466  24.794  33.518  1.00  0.00     0.135 A 
ATOM     89  C   UNL A   1      44.407  23.571  33.517  1.00  0.00     0.135 A 
ATOM     90  F   UNL A   1      47.236  25.826  33.138  1.00  0.00    -0.206 F 
ATOM     91  C   UNL A   1      47.044  23.814  34.316  1.00  0.00     0.059 A 
ATOM     92  C   UNL A   1      44.985  22.545  34.245  1.00  0.00     0.059 A 
ATOM     93  F   UNL A   1      43.100  23.429  33.242  1.00  0.00    -0.206 F 
ATOM     94  C   UNL A   1      46.294  22.694  34.674  1.00  0.00     0.060 A 
BRANCH  94  95
ATOM     95  S   UNL A   1      47.027  21.440  35.734  1.00  0.00     0.124 S 
ATOM     96  O   UNL A   1      47.650  20.537  34.771  1.00  0.00    -0.237 OA
ATOM     97  O   UNL A   1      47.946  22.248  36.531  1.00  0.00    -0.237 OA
ATOM     98  O   UNL A   1      45.882  20.892  36.452  1.00  0.00    -0.744 OA
ENDBRANCH  94  95
ENDBRANCH  62  87
ENDBRANCH  36  37
ENDBRANCH  29  31
ENDBRANCH  28  29
ENDBRANCH  27  28
ENDBRANCH   1  27
TORSDOF 18
ENDMDL
