MODEL 1
REMARK VINA RESULT:     -10.1      0.000      0.000
REMARK SMILES C[C@H](Nc1ccc(N(C)C)cc1)[C@@H](C)C(=O)OCCOC(=O)c1ccc(-c2c3nc(c(-c4c(F)cc(S(=O)(=O)[O-])cc4F)c4ccc([nH]4)c(-c4c(F)cc(S(=O)(=O)[O-])cc4F)c4nc(c(-c5c(F)cc(S(=O)(=O)[O-])cc5F)c5ccc2[nH]5)C=C4)C=C3)cc1
REMARK SMILES IDX 18 1 17 2 15 3 16 4 13 5 14 6 2 7 1 8 3 9 4 11 5 12 12 13
REMARK SMILES IDX 6 14 11 15 7 16 8 17 9 18 10 19 19 20 20 21 21 22 22 23
REMARK SMILES IDX 23 24 24 25 88 26 25 27 87 28 26 29 27 30 28 31 81 32 29 33
REMARK SMILES IDX 86 34 80 35 82 36 30 37 85 38 79 39 78 40 31 42 65 43 44 44
REMARK SMILES IDX 64 45 45 46 48 47 63 48 83 49 46 50 47 51 62 53 84 54 49 55
REMARK SMILES IDX 32 56 33 57 42 58 34 59 35 60 41 61 43 62 36 63 37 64 38 65
REMARK SMILES IDX 39 66 40 67 66 68 67 69 76 70 68 71 69 72 75 73 77 74 70 75
REMARK SMILES IDX 71 76 72 77 73 78 74 79 50 80 51 81 60 82 52 83 53 84 59 85
REMARK SMILES IDX 61 86 54 87 55 88 56 89 57 90 58 91
REMARK H PARENT 3 10 82 41 48 52
REMARK Flexibility Score: inf
ROOT
ATOM      1  C   UNL A   1      33.504  33.834  28.020  1.00  0.00     0.274 C 
ENDROOT
BRANCH   1   2
ATOM      2  O   UNL A   1      32.769  34.347  29.150  1.00  0.00    -0.462 OA
BRANCH   2   3
ATOM      3  C   UNL A   1      33.114  35.601  29.549  1.00  0.00     0.310 C 
ATOM      4  O   UNL A   1      33.545  36.473  28.802  1.00  0.00    -0.252 OA
BRANCH   3   5
ATOM      5  C   UNL A   1      32.996  35.816  31.048  1.00  0.00     0.118 C 
ATOM      6  C   UNL A   1      33.231  37.307  31.298  1.00  0.00     0.022 C 
BRANCH   5   7
ATOM      7  C   UNL A   1      33.912  34.903  31.890  1.00  0.00     0.090 C 
ATOM      8  C   UNL A   1      34.348  35.601  33.188  1.00  0.00     0.031 C 
BRANCH   7   9
ATOM      9  N   UNL A   1      35.122  34.559  31.126  1.00  0.00    -0.382 N 
ATOM     10  H   UNL A   1      35.317  35.003  30.269  1.00  0.00     0.160 HD
BRANCH   9  11
ATOM     11  C   UNL A   1      35.989  33.595  31.635  1.00  0.00     0.034 A 
ATOM     12  C   UNL A   1      37.318  33.925  31.884  1.00  0.00     0.028 A 
ATOM     13  C   UNL A   1      35.558  32.334  32.031  1.00  0.00     0.028 A 
ATOM     14  C   UNL A   1      38.168  33.045  32.575  1.00  0.00     0.028 A 
ATOM     15  C   UNL A   1      36.415  31.457  32.712  1.00  0.00     0.028 A 
ATOM     16  C   UNL A   1      37.738  31.795  33.044  1.00  0.00     0.036 A 
BRANCH  16  17
ATOM     17  N   UNL A   1      38.549  30.937  33.779  1.00  0.00    -0.378 N 
ATOM     18  C   UNL A   1      38.725  31.038  35.224  1.00  0.00     0.143 C 
ATOM     19  C   UNL A   1      39.007  29.684  33.187  1.00  0.00     0.143 C 
ENDBRANCH  16  17
ENDBRANCH   9  11
ENDBRANCH   7   9
ENDBRANCH   5   7
ENDBRANCH   3   5
ENDBRANCH   2   3
ENDBRANCH   1   2
BRANCH   1  20
ATOM     20  C   UNL A   1      33.248  32.341  27.828  1.00  0.00     0.275 C 
BRANCH  20  21
ATOM     21  O   UNL A   1      34.261  31.583  28.510  1.00  0.00    -0.458 OA
BRANCH  21  22
ATOM     22  C   UNL A   1      34.506  30.351  28.010  1.00  0.00     0.338 C 
ATOM     23  O   UNL A   1      33.727  29.634  27.405  1.00  0.00    -0.246 OA
BRANCH  22  24
ATOM     24  C   UNL A   1      35.892  29.956  28.324  1.00  0.00     0.060 A 
ATOM     25  C   UNL A   1      36.260  29.538  29.607  1.00  0.00     0.016 A 
ATOM     26  C   UNL A   1      36.852  30.074  27.321  1.00  0.00     0.016 A 
ATOM     27  C   UNL A   1      37.597  29.266  29.897  1.00  0.00     0.010 A 
ATOM     28  C   UNL A   1      38.177  29.739  27.594  1.00  0.00     0.010 A 
ATOM     29  C   UNL A   1      38.565  29.345  28.887  1.00  0.00    -0.014 A 
BRANCH  29  30
ATOM     30  C   UNL A   1      39.987  29.010  29.145  1.00  0.00     0.031 A 
ATOM     31  C   UNL A   1      40.934  30.079  29.613  1.00  0.00     0.074 A 
ATOM     32  C   UNL A   1      40.441  27.770  28.879  1.00  0.00     0.049 A 
ATOM     33  N   UNL A   1      42.240  30.062  29.662  1.00  0.00    -0.248 NA
ATOM     34  C   UNL A   1      40.329  31.337  30.077  1.00  0.00     0.031 C 
ATOM     35  C   UNL A   1      39.615  26.640  28.448  1.00  0.00     0.029 A 
ATOM     36  N   UNL A   1      41.715  27.260  28.904  1.00  0.00    -0.354 N 
ATOM     37  C   UNL A   1      42.618  31.319  30.121  1.00  0.00     0.074 A 
ATOM     38  C   UNL A   1      41.400  32.074  30.334  1.00  0.00     0.031 C 
ATOM     39  C   UNL A   1      40.405  25.575  28.238  1.00  0.00     0.029 A 
ATOM     40  C   UNL A   1      41.794  25.964  28.454  1.00  0.00     0.049 A 
ATOM     41  H   UNL A   1      42.496  27.774  29.214  1.00  0.00     0.167 HD
ATOM     42  C   UNL A   1      43.867  31.796  30.337  1.00  0.00     0.037 A 
ATOM     43  C   UNL A   1      42.866  25.191  28.194  1.00  0.00     0.037 A 
ATOM     44  C   UNL A   1      45.068  31.026  30.142  1.00  0.00     0.049 A 
ATOM     45  C   UNL A   1      44.243  25.755  28.401  1.00  0.00     0.074 A 
ATOM     46  C   UNL A   1      46.381  31.410  30.353  1.00  0.00     0.029 A 
ATOM     47  N   UNL A   1      45.103  29.713  29.694  1.00  0.00    -0.354 N 
ATOM     48  N   UNL A   1      44.589  26.951  28.814  1.00  0.00    -0.248 NA
ATOM     49  C   UNL A   1      45.376  24.872  28.093  1.00  0.00     0.031 C 
ATOM     50  C   UNL A   1      47.212  30.339  30.001  1.00  0.00     0.029 A 
ATOM     51  C   UNL A   1      46.414  29.276  29.608  1.00  0.00     0.049 A 
ATOM     52  H   UNL A   1      44.311  29.173  29.469  1.00  0.00     0.167 HD
ATOM     53  C   UNL A   1      45.978  26.958  28.833  1.00  0.00     0.074 A 
ATOM     54  C   UNL A   1      46.409  25.644  28.399  1.00  0.00     0.031 C 
ATOM     55  C   UNL A   1      46.822  27.961  29.180  1.00  0.00     0.037 A 
BRANCH  42  56
ATOM     56  C   UNL A   1      44.000  33.225  30.784  1.00  0.00     0.058 A 
ATOM     57  C   UNL A   1      44.079  33.573  32.141  1.00  0.00     0.135 A 
ATOM     58  C   UNL A   1      44.084  34.259  29.836  1.00  0.00     0.135 A 
ATOM     59  F   UNL A   1      43.987  32.625  33.087  1.00  0.00    -0.206 F 
ATOM     60  C   UNL A   1      44.214  34.897  32.545  1.00  0.00     0.059 A 
ATOM     61  C   UNL A   1      44.241  35.588  30.217  1.00  0.00     0.059 A 
ATOM     62  F   UNL A   1      44.013  33.981  28.525  1.00  0.00    -0.206 F 
ATOM     63  C   UNL A   1      44.292  35.899  31.576  1.00  0.00     0.060 A 
BRANCH  63  64
ATOM     64  S   UNL A   1      44.469  37.614  32.114  1.00  0.00     0.124 S 
ATOM     65  O   UNL A   1      44.096  38.338  30.903  1.00  0.00    -0.237 OA
ATOM     66  O   UNL A   1      43.518  37.697  33.218  1.00  0.00    -0.237 OA
ATOM     67  O   UNL A   1      45.875  37.708  32.493  1.00  0.00    -0.744 OA
ENDBRANCH  63  64
ENDBRANCH  42  56
BRANCH  43  68
ATOM     68  C   UNL A   1      42.671  23.812  27.676  1.00  0.00     0.058 A 
ATOM     69  C   UNL A   1      42.588  22.720  28.551  1.00  0.00     0.135 A 
ATOM     70  C   UNL A   1      42.535  23.563  26.301  1.00  0.00     0.135 A 
ATOM     71  F   UNL A   1      42.722  22.909  29.873  1.00  0.00    -0.206 F 
ATOM     72  C   UNL A   1      42.381  21.427  28.082  1.00  0.00     0.059 A 
ATOM     73  C   UNL A   1      42.303  22.282  25.810  1.00  0.00     0.059 A 
ATOM     74  F   UNL A   1      42.594  24.578  25.424  1.00  0.00    -0.206 F 
ATOM     75  C   UNL A   1      42.236  21.219  26.710  1.00  0.00     0.060 A 
BRANCH  75  76
ATOM     76  S   UNL A   1      41.905  19.546  26.115  1.00  0.00     0.124 S 
ATOM     77  O   UNL A   1      42.735  19.491  24.917  1.00  0.00    -0.237 OA
ATOM     78  O   UNL A   1      42.348  18.725  27.237  1.00  0.00    -0.237 OA
ATOM     79  O   UNL A   1      40.463  19.553  25.884  1.00  0.00    -0.744 OA
ENDBRANCH  75  76
ENDBRANCH  43  68
BRANCH  55  80
ATOM     80  C   UNL A   1      48.294  27.669  29.136  1.00  0.00     0.058 A 
ATOM     81  C   UNL A   1      49.073  27.986  28.014  1.00  0.00     0.135 A 
ATOM     82  C   UNL A   1      48.938  27.112  30.252  1.00  0.00     0.135 A 
ATOM     83  F   UNL A   1      48.499  28.511  26.919  1.00  0.00    -0.206 F 
ATOM     84  C   UNL A   1      50.443  27.748  27.993  1.00  0.00     0.059 A 
ATOM     85  C   UNL A   1      50.311  26.886  30.261  1.00  0.00     0.059 A 
ATOM     86  F   UNL A   1      48.237  26.797  31.352  1.00  0.00    -0.206 F 
ATOM     87  C   UNL A   1      51.054  27.199  29.123  1.00  0.00     0.060 A 
BRANCH  87  88
ATOM     88  S   UNL A   1      52.840  26.934  29.103  1.00  0.00     0.124 S 
ATOM     89  O   UNL A   1      53.056  26.301  30.400  1.00  0.00    -0.237 OA
ATOM     90  O   UNL A   1      53.016  26.071  27.938  1.00  0.00    -0.237 OA
ATOM     91  O   UNL A   1      53.381  28.282  28.962  1.00  0.00    -0.744 OA
ENDBRANCH  87  88
ENDBRANCH  55  80
ENDBRANCH  29  30
ENDBRANCH  22  24
ENDBRANCH  21  22
ENDBRANCH  20  21
ENDBRANCH   1  20
TORSDOF 18
ENDMDL
MODEL 2
REMARK VINA RESULT:      -9.6      2.832      5.251
REMARK SMILES C[C@H](Nc1ccc(N(C)C)cc1)[C@@H](C)C(=O)OCCOC(=O)c1ccc(-c2c3nc(c(-c4c(F)cc(S(=O)(=O)[O-])cc4F)c4ccc([nH]4)c(-c4c(F)cc(S(=O)(=O)[O-])cc4F)c4nc(c(-c5c(F)cc(S(=O)(=O)[O-])cc5F)c5ccc2[nH]5)C=C4)C=C3)cc1
REMARK SMILES IDX 18 1 17 2 15 3 16 4 13 5 14 6 2 7 1 8 3 9 4 11 5 12 12 13
REMARK SMILES IDX 6 14 11 15 7 16 8 17 9 18 10 19 19 20 20 21 21 22 22 23
REMARK SMILES IDX 23 24 24 25 88 26 25 27 87 28 26 29 27 30 28 31 81 32 29 33
REMARK SMILES IDX 86 34 80 35 82 36 30 37 85 38 79 39 78 40 31 42 65 43 44 44
REMARK SMILES IDX 64 45 45 46 48 47 63 48 83 49 46 50 47 51 62 53 84 54 49 55
REMARK SMILES IDX 32 56 33 57 42 58 34 59 35 60 41 61 43 62 36 63 37 64 38 65
REMARK SMILES IDX 39 66 40 67 66 68 67 69 76 70 68 71 69 72 75 73 77 74 70 75
REMARK SMILES IDX 71 76 72 77 73 78 74 79 50 80 51 81 60 82 52 83 53 84 59 85
REMARK SMILES IDX 61 86 54 87 55 88 56 89 57 90 58 91
REMARK H PARENT 3 10 82 41 48 52
REMARK Flexibility Score: inf
ROOT
ATOM      1  C   UNL A   1      31.885  28.254  26.882  1.00  0.00     0.274 C 
ENDROOT
BRANCH   1   2
ATOM      2  O   UNL A   1      31.407  28.217  25.522  1.00  0.00    -0.462 OA
BRANCH   2   3
ATOM      3  C   UNL A   1      32.110  27.416  24.677  1.00  0.00     0.310 C 
ATOM      4  O   UNL A   1      33.238  27.665  24.263  1.00  0.00    -0.252 OA
BRANCH   3   5
ATOM      5  C   UNL A   1      31.338  26.195  24.212  1.00  0.00     0.118 C 
ATOM      6  C   UNL A   1      29.883  26.635  24.037  1.00  0.00     0.022 C 
BRANCH   5   7
ATOM      7  C   UNL A   1      31.498  24.961  25.125  1.00  0.00     0.090 C 
ATOM      8  C   UNL A   1      30.288  24.803  26.060  1.00  0.00     0.031 C 
BRANCH   7   9
ATOM      9  N   UNL A   1      32.704  25.101  25.957  1.00  0.00    -0.382 N 
ATOM     10  H   UNL A   1      32.759  25.804  26.645  1.00  0.00     0.160 HD
BRANCH   9  11
ATOM     11  C   UNL A   1      33.767  24.225  25.757  1.00  0.00     0.034 A 
ATOM     12  C   UNL A   1      34.894  24.653  25.064  1.00  0.00     0.028 A 
ATOM     13  C   UNL A   1      33.812  22.960  26.333  1.00  0.00     0.028 A 
ATOM     14  C   UNL A   1      36.058  23.867  25.012  1.00  0.00     0.028 A 
ATOM     15  C   UNL A   1      34.974  22.177  26.270  1.00  0.00     0.028 A 
ATOM     16  C   UNL A   1      36.152  22.618  25.642  1.00  0.00     0.036 A 
BRANCH  16  17
ATOM     17  N   UNL A   1      37.314  21.854  25.650  1.00  0.00    -0.378 N 
ATOM     18  C   UNL A   1      37.412  20.535  25.035  1.00  0.00     0.143 C 
ATOM     19  C   UNL A   1      38.592  22.476  25.985  1.00  0.00     0.143 C 
ENDBRANCH  16  17
ENDBRANCH   9  11
ENDBRANCH   7   9
ENDBRANCH   5   7
ENDBRANCH   3   5
ENDBRANCH   2   3
ENDBRANCH   1   2
BRANCH   1  20
ATOM     20  C   UNL A   1      32.628  29.557  27.170  1.00  0.00     0.275 C 
BRANCH  20  21
ATOM     21  O   UNL A   1      33.943  29.267  27.668  1.00  0.00    -0.458 OA
BRANCH  21  22
ATOM     22  C   UNL A   1      34.612  30.314  28.200  1.00  0.00     0.338 C 
ATOM     23  O   UNL A   1      34.172  31.427  28.431  1.00  0.00    -0.246 OA
BRANCH  22  24
ATOM     24  C   UNL A   1      36.013  29.930  28.457  1.00  0.00     0.060 A 
ATOM     25  C   UNL A   1      36.436  29.513  29.723  1.00  0.00     0.016 A 
ATOM     26  C   UNL A   1      36.931  30.058  27.416  1.00  0.00     0.016 A 
ATOM     27  C   UNL A   1      37.786  29.251  29.958  1.00  0.00     0.010 A 
ATOM     28  C   UNL A   1      38.269  29.733  27.635  1.00  0.00     0.010 A 
ATOM     29  C   UNL A   1      38.711  29.340  28.911  1.00  0.00    -0.014 A 
BRANCH  29  30
ATOM     30  C   UNL A   1      40.145  29.016  29.110  1.00  0.00     0.031 A 
ATOM     31  C   UNL A   1      41.104  30.094  29.531  1.00  0.00     0.074 A 
ATOM     32  C   UNL A   1      40.596  27.777  28.834  1.00  0.00     0.049 A 
ATOM     33  N   UNL A   1      42.411  30.087  29.523  1.00  0.00    -0.248 NA
ATOM     34  C   UNL A   1      40.510  31.352  30.011  1.00  0.00     0.031 C 
ATOM     35  C   UNL A   1      39.760  26.638  28.446  1.00  0.00     0.029 A 
ATOM     36  N   UNL A   1      41.874  27.276  28.808  1.00  0.00    -0.354 N 
ATOM     37  C   UNL A   1      42.799  31.349  29.957  1.00  0.00     0.074 A 
ATOM     38  C   UNL A   1      41.587  32.097  30.217  1.00  0.00     0.031 C 
ATOM     39  C   UNL A   1      40.547  25.577  28.209  1.00  0.00     0.029 A 
ATOM     40  C   UNL A   1      41.942  25.977  28.364  1.00  0.00     0.049 A 
ATOM     41  H   UNL A   1      42.663  27.797  29.080  1.00  0.00     0.167 HD
ATOM     42  C   UNL A   1      44.053  31.835  30.117  1.00  0.00     0.037 A 
ATOM     43  C   UNL A   1      43.007  25.209  28.063  1.00  0.00     0.037 A 
ATOM     44  C   UNL A   1      45.250  31.072  29.876  1.00  0.00     0.049 A 
ATOM     45  C   UNL A   1      44.388  25.784  28.208  1.00  0.00     0.074 A 
ATOM     46  C   UNL A   1      46.568  31.466  30.029  1.00  0.00     0.029 A 
ATOM     47  N   UNL A   1      45.275  29.757  29.436  1.00  0.00    -0.354 N 
ATOM     48  N   UNL A   1      44.743  26.985  28.598  1.00  0.00    -0.248 NA
ATOM     49  C   UNL A   1      45.513  24.906  27.859  1.00  0.00     0.031 C 
ATOM     50  C   UNL A   1      47.390  30.398  29.649  1.00  0.00     0.029 A 
ATOM     51  C   UNL A   1      46.585  29.328  29.297  1.00  0.00     0.049 A 
ATOM     52  H   UNL A   1      44.478  29.210  29.249  1.00  0.00     0.167 HD
ATOM     53  C   UNL A   1      46.132  27.001  28.558  1.00  0.00     0.074 A 
ATOM     54  C   UNL A   1      46.553  25.687  28.114  1.00  0.00     0.031 C 
ATOM     55  C   UNL A   1      46.982  28.013  28.861  1.00  0.00     0.037 A 
BRANCH  42  56
ATOM     56  C   UNL A   1      44.195  33.269  30.548  1.00  0.00     0.058 A 
ATOM     57  C   UNL A   1      44.271  33.631  31.902  1.00  0.00     0.135 A 
ATOM     58  C   UNL A   1      44.292  34.291  29.589  1.00  0.00     0.135 A 
ATOM     59  F   UNL A   1      44.168  32.695  32.858  1.00  0.00    -0.206 F 
ATOM     60  C   UNL A   1      44.414  34.959  32.291  1.00  0.00     0.059 A 
ATOM     61  C   UNL A   1      44.458  35.623  29.956  1.00  0.00     0.059 A 
ATOM     62  F   UNL A   1      44.225  33.999  28.281  1.00  0.00    -0.206 F 
ATOM     63  C   UNL A   1      44.505  35.949  31.311  1.00  0.00     0.060 A 
BRANCH  63  64
ATOM     64  S   UNL A   1      44.692  37.669  31.830  1.00  0.00     0.124 S 
ATOM     65  O   UNL A   1      44.080  38.378  30.711  1.00  0.00    -0.237 OA
ATOM     66  O   UNL A   1      43.946  37.702  33.084  1.00  0.00    -0.237 OA
ATOM     67  O   UNL A   1      46.137  37.829  31.959  1.00  0.00    -0.744 OA
ENDBRANCH  63  64
ENDBRANCH  42  56
BRANCH  43  68
ATOM     68  C   UNL A   1      42.800  23.825  27.563  1.00  0.00     0.058 A 
ATOM     69  C   UNL A   1      42.666  22.751  28.454  1.00  0.00     0.135 A 
ATOM     70  C   UNL A   1      42.702  23.555  26.189  1.00  0.00     0.135 A 
ATOM     71  F   UNL A   1      42.762  22.961  29.776  1.00  0.00    -0.206 F 
ATOM     72  C   UNL A   1      42.447  21.455  28.002  1.00  0.00     0.059 A 
ATOM     73  C   UNL A   1      42.460  22.269  25.714  1.00  0.00     0.059 A 
ATOM     74  F   UNL A   1      42.811  24.551  25.298  1.00  0.00    -0.206 F 
ATOM     75  C   UNL A   1      42.342  21.225  26.629  1.00  0.00     0.060 A 
BRANCH  75  76
ATOM     76  S   UNL A   1      41.994  19.549  26.053  1.00  0.00     0.124 S 
ATOM     77  O   UNL A   1      42.892  19.440  24.909  1.00  0.00    -0.237 OA
ATOM     78  O   UNL A   1      42.345  18.742  27.218  1.00  0.00    -0.237 OA
ATOM     79  O   UNL A   1      40.570  19.592  25.737  1.00  0.00    -0.744 OA
ENDBRANCH  75  76
ENDBRANCH  43  68
BRANCH  55  80
ATOM     80  C   UNL A   1      48.453  27.729  28.757  1.00  0.00     0.058 A 
ATOM     81  C   UNL A   1      49.171  27.168  29.823  1.00  0.00     0.135 A 
ATOM     82  C   UNL A   1      49.138  27.974  27.557  1.00  0.00     0.135 A 
ATOM     83  F   UNL A   1      48.560  26.924  30.995  1.00  0.00    -0.206 F 
ATOM     84  C   UNL A   1      50.524  26.871  29.708  1.00  0.00     0.059 A 
ATOM     85  C   UNL A   1      50.487  27.665  27.413  1.00  0.00     0.059 A 
ATOM     86  F   UNL A   1      48.494  28.504  26.505  1.00  0.00    -0.206 F 
ATOM     87  C   UNL A   1      51.174  27.122  28.498  1.00  0.00     0.060 A 
BRANCH  87  88
ATOM     88  S   UNL A   1      52.921  26.693  28.344  1.00  0.00     0.124 S 
ATOM     89  O   UNL A   1      53.249  26.302  29.711  1.00  0.00    -0.237 OA
ATOM     90  O   UNL A   1      52.894  25.612  27.364  1.00  0.00    -0.237 OA
ATOM     91  O   UNL A   1      53.534  27.934  27.880  1.00  0.00    -0.744 OA
ENDBRANCH  87  88
ENDBRANCH  55  80
ENDBRANCH  29  30
ENDBRANCH  22  24
ENDBRANCH  21  22
ENDBRANCH  20  21
ENDBRANCH   1  20
TORSDOF 18
ENDMDL
MODEL 3
REMARK VINA RESULT:      -9.4      3.369      5.625
REMARK SMILES C[C@H](Nc1ccc(N(C)C)cc1)[C@@H](C)C(=O)OCCOC(=O)c1ccc(-c2c3nc(c(-c4c(F)cc(S(=O)(=O)[O-])cc4F)c4ccc([nH]4)c(-c4c(F)cc(S(=O)(=O)[O-])cc4F)c4nc(c(-c5c(F)cc(S(=O)(=O)[O-])cc5F)c5ccc2[nH]5)C=C4)C=C3)cc1
REMARK SMILES IDX 18 1 17 2 15 3 16 4 13 5 14 6 2 7 1 8 3 9 4 11 5 12 12 13
REMARK SMILES IDX 6 14 11 15 7 16 8 17 9 18 10 19 19 20 20 21 21 22 22 23
REMARK SMILES IDX 23 24 24 25 88 26 25 27 87 28 26 29 27 30 28 31 81 32 29 33
REMARK SMILES IDX 86 34 80 35 82 36 30 37 85 38 79 39 78 40 31 42 65 43 44 44
REMARK SMILES IDX 64 45 45 46 48 47 63 48 83 49 46 50 47 51 62 53 84 54 49 55
REMARK SMILES IDX 32 56 33 57 42 58 34 59 35 60 41 61 43 62 36 63 37 64 38 65
REMARK SMILES IDX 39 66 40 67 66 68 67 69 76 70 68 71 69 72 75 73 77 74 70 75
REMARK SMILES IDX 71 76 72 77 73 78 74 79 50 80 51 81 60 82 52 83 53 84 59 85
REMARK SMILES IDX 61 86 54 87 55 88 56 89 57 90 58 91
REMARK H PARENT 3 10 82 41 48 52
REMARK Flexibility Score: inf
ROOT
ATOM      1  C   UNL A   1      33.373  30.100  26.796  1.00  0.00     0.274 C 
ENDROOT
BRANCH   1   2
ATOM      2  O   UNL A   1      33.267  28.717  27.196  1.00  0.00    -0.462 OA
BRANCH   2   3
ATOM      3  C   UNL A   1      32.111  28.094  26.843  1.00  0.00     0.310 C 
ATOM      4  O   UNL A   1      31.212  27.804  27.625  1.00  0.00    -0.252 OA
BRANCH   3   5
ATOM      5  C   UNL A   1      32.054  27.703  25.377  1.00  0.00     0.118 C 
ATOM      6  C   UNL A   1      31.010  28.607  24.720  1.00  0.00     0.022 C 
BRANCH   5   7
ATOM      7  C   UNL A   1      31.801  26.199  25.135  1.00  0.00     0.090 C 
ATOM      8  C   UNL A   1      30.313  25.927  24.859  1.00  0.00     0.031 C 
BRANCH   7   9
ATOM      9  N   UNL A   1      32.197  25.423  26.321  1.00  0.00    -0.382 N 
ATOM     10  H   UNL A   1      31.680  25.487  27.157  1.00  0.00     0.160 HD
BRANCH   9  11
ATOM     11  C   UNL A   1      33.312  24.594  26.243  1.00  0.00     0.034 A 
ATOM     12  C   UNL A   1      33.288  23.344  26.852  1.00  0.00     0.028 A 
ATOM     13  C   UNL A   1      34.424  24.907  25.468  1.00  0.00     0.028 A 
ATOM     14  C   UNL A   1      34.312  22.407  26.631  1.00  0.00     0.028 A 
ATOM     15  C   UNL A   1      35.448  23.970  25.259  1.00  0.00     0.028 A 
ATOM     16  C   UNL A   1      35.409  22.674  25.799  1.00  0.00     0.036 A 
BRANCH  16  17
ATOM     17  N   UNL A   1      36.401  21.739  25.525  1.00  0.00    -0.378 N 
ATOM     18  C   UNL A   1      36.124  20.392  25.038  1.00  0.00     0.143 C 
ATOM     19  C   UNL A   1      37.791  22.168  25.394  1.00  0.00     0.143 C 
ENDBRANCH  16  17
ENDBRANCH   9  11
ENDBRANCH   7   9
ENDBRANCH   5   7
ENDBRANCH   3   5
ENDBRANCH   2   3
ENDBRANCH   1   2
BRANCH   1  20
ATOM     20  C   UNL A   1      34.415  30.837  27.633  1.00  0.00     0.275 C 
BRANCH  20  21
ATOM     21  O   UNL A   1      35.382  29.903  28.138  1.00  0.00    -0.458 OA
BRANCH  21  22
ATOM     22  C   UNL A   1      36.081  30.311  29.221  1.00  0.00     0.338 C 
ATOM     23  O   UNL A   1      35.666  30.970  30.159  1.00  0.00    -0.246 OA
BRANCH  22  24
ATOM     24  C   UNL A   1      37.480  29.857  29.109  1.00  0.00     0.060 A 
ATOM     25  C   UNL A   1      38.253  29.582  30.242  1.00  0.00     0.016 A 
ATOM     26  C   UNL A   1      38.044  29.773  27.837  1.00  0.00     0.016 A 
ATOM     27  C   UNL A   1      39.600  29.250  30.106  1.00  0.00     0.010 A 
ATOM     28  C   UNL A   1      39.373  29.378  27.698  1.00  0.00     0.010 A 
ATOM     29  C   UNL A   1      40.167  29.126  28.831  1.00  0.00    -0.014 A 
BRANCH  29  30
ATOM     30  C   UNL A   1      41.583  28.721  28.645  1.00  0.00     0.031 A 
ATOM     31  C   UNL A   1      42.666  29.764  28.650  1.00  0.00     0.074 A 
ATOM     32  C   UNL A   1      41.883  27.433  28.391  1.00  0.00     0.049 A 
ATOM     33  N   UNL A   1      43.912  29.663  28.269  1.00  0.00    -0.248 NA
ATOM     34  C   UNL A   1      42.289  31.101  29.137  1.00  0.00     0.031 C 
ATOM     35  C   UNL A   1      40.925  26.325  28.388  1.00  0.00     0.029 A 
ATOM     36  N   UNL A   1      43.076  26.843  28.056  1.00  0.00    -0.354 N 
ATOM     37  C   UNL A   1      44.461  30.931  28.430  1.00  0.00     0.074 A 
ATOM     38  C   UNL A   1      43.408  31.784  28.942  1.00  0.00     0.031 C 
ATOM     39  C   UNL A   1      41.565  25.193  28.056  1.00  0.00     0.029 A 
ATOM     40  C   UNL A   1      42.959  25.505  27.759  1.00  0.00     0.049 A 
ATOM     41  H   UNL A   1      43.931  27.330  28.031  1.00  0.00     0.167 HD
ATOM     42  C   UNL A   1      45.725  31.340  28.169  1.00  0.00     0.037 A 
ATOM     43  C   UNL A   1      43.858  24.639  27.253  1.00  0.00     0.037 A 
ATOM     44  C   UNL A   1      46.767  30.474  27.681  1.00  0.00     0.049 A 
ATOM     45  C   UNL A   1      45.243  25.126  26.930  1.00  0.00     0.074 A 
ATOM     46  C   UNL A   1      48.087  30.786  27.405  1.00  0.00     0.029 A 
ATOM     47  N   UNL A   1      46.609  29.124  27.402  1.00  0.00    -0.354 N 
ATOM     48  N   UNL A   1      45.744  26.330  27.066  1.00  0.00    -0.248 NA
ATOM     49  C   UNL A   1      46.180  24.141  26.373  1.00  0.00     0.031 C 
ATOM     50  C   UNL A   1      48.718  29.632  26.927  1.00  0.00     0.029 A 
ATOM     51  C   UNL A   1      47.802  28.592  26.942  1.00  0.00     0.049 A 
ATOM     52  H   UNL A   1      45.771  28.620  27.514  1.00  0.00     0.167 HD
ATOM     53  C   UNL A   1      47.060  26.244  26.628  1.00  0.00     0.074 A 
ATOM     54  C   UNL A   1      47.280  24.867  26.231  1.00  0.00     0.031 C 
ATOM     55  C   UNL A   1      48.002  27.217  26.560  1.00  0.00     0.037 A 
BRANCH  42  56
ATOM     56  C   UNL A   1      46.044  32.794  28.378  1.00  0.00     0.058 A 
ATOM     57  C   UNL A   1      45.947  33.731  27.338  1.00  0.00     0.135 A 
ATOM     58  C   UNL A   1      46.419  33.262  29.649  1.00  0.00     0.135 A 
ATOM     59  F   UNL A   1      45.608  33.333  26.101  1.00  0.00    -0.206 F 
ATOM     60  C   UNL A   1      46.232  35.076  27.544  1.00  0.00     0.059 A 
ATOM     61  C   UNL A   1      46.688  34.607  29.882  1.00  0.00     0.059 A 
ATOM     62  F   UNL A   1      46.527  32.408  30.679  1.00  0.00    -0.206 F 
ATOM     63  C   UNL A   1      46.605  35.506  28.819  1.00  0.00     0.060 A 
BRANCH  63  64
ATOM     64  S   UNL A   1      46.972  37.256  29.072  1.00  0.00     0.124 S 
ATOM     65  O   UNL A   1      45.879  37.890  28.341  1.00  0.00    -0.237 OA
ATOM     66  O   UNL A   1      46.918  37.381  30.525  1.00  0.00    -0.237 OA
ATOM     67  O   UNL A   1      48.297  37.414  28.481  1.00  0.00    -0.744 OA
ENDBRANCH  63  64
ENDBRANCH  42  56
BRANCH  43  68
ATOM     68  C   UNL A   1      43.458  23.232  26.991  1.00  0.00     0.058 A 
ATOM     69  C   UNL A   1      43.271  22.329  28.047  1.00  0.00     0.135 A 
ATOM     70  C   UNL A   1      43.226  22.773  25.685  1.00  0.00     0.135 A 
ATOM     71  F   UNL A   1      43.490  22.722  29.311  1.00  0.00    -0.206 F 
ATOM     72  C   UNL A   1      42.872  21.017  27.818  1.00  0.00     0.059 A 
ATOM     73  C   UNL A   1      42.804  21.471  25.434  1.00  0.00     0.059 A 
ATOM     74  F   UNL A   1      43.379  23.603  24.642  1.00  0.00    -0.206 F 
ATOM     75  C   UNL A   1      42.638  20.598  26.508  1.00  0.00     0.060 A 
BRANCH  75  76
ATOM     76  S   UNL A   1      42.061  18.910  26.225  1.00  0.00     0.124 S 
ATOM     77  O   UNL A   1      42.250  18.311  27.541  1.00  0.00    -0.237 OA
ATOM     78  O   UNL A   1      40.676  19.121  25.813  1.00  0.00    -0.237 OA
ATOM     79  O   UNL A   1      42.951  18.424  25.175  1.00  0.00    -0.744 OA
ENDBRANCH  75  76
ENDBRANCH  43  68
BRANCH  55  80
ATOM     80  C   UNL A   1      49.365  26.821  26.070  1.00  0.00     0.058 A 
ATOM     81  C   UNL A   1      49.737  26.975  24.727  1.00  0.00     0.135 A 
ATOM     82  C   UNL A   1      50.325  26.331  26.969  1.00  0.00     0.135 A 
ATOM     83  F   UNL A   1      48.849  27.431  23.828  1.00  0.00    -0.206 F 
ATOM     84  C   UNL A   1      51.013  26.644  24.286  1.00  0.00     0.059 A 
ATOM     85  C   UNL A   1      51.615  26.013  26.554  1.00  0.00     0.059 A 
ATOM     86  F   UNL A   1      50.020  26.172  28.267  1.00  0.00    -0.206 F 
ATOM     87  C   UNL A   1      51.947  26.165  25.208  1.00  0.00     0.060 A 
BRANCH  87  88
ATOM     88  S   UNL A   1      53.615  25.778  24.636  1.00  0.00     0.124 S 
ATOM     89  O   UNL A   1      53.576  26.272  23.263  1.00  0.00    -0.237 OA
ATOM     90  O   UNL A   1      54.449  26.538  25.561  1.00  0.00    -0.237 OA
ATOM     91  O   UNL A   1      53.694  24.327  24.780  1.00  0.00    -0.744 OA
ENDBRANCH  87  88
ENDBRANCH  55  80
ENDBRANCH  29  30
ENDBRANCH  22  24
ENDBRANCH  21  22
ENDBRANCH  20  21
ENDBRANCH   1  20
TORSDOF 18
ENDMDL
