MODEL 1
REMARK VINA RESULT:     -11.2      0.000      0.000
REMARK SMILES C[C@H]1[C@@H](C(=O)OCCOC(=O)c2ccc(-c3c4nc(c(-c5c(F)cc(S(=O)(=O)[O-])cc5F)c5ccc([nH]5)c(-c5c(F)cc(S(=O)(=O)[O-])cc5F)c5nc(c(-c6c(F)cc(S(=O)(=O)[O-])cc6F)c6ccc3[nH]6)C=C5)C=C4)cc2)CCN1C(=O)c1cncc(O)c1
REMARK SMILES IDX 7 1 6 2 4 3 5 4 3 5 1 6 2 7 80 8 78 9 79 10 81 11 82 12
REMARK SMILES IDX 83 13 84 14 89 15 85 16 87 17 86 18 88 19 8 21 9 22 10 23
REMARK SMILES IDX 11 24 12 25 13 26 77 27 14 28 76 29 15 30 16 31 17 32 70 33
REMARK SMILES IDX 18 34 75 35 69 36 71 37 19 38 74 39 68 40 67 41 20 43 54 44
REMARK SMILES IDX 33 45 53 46 34 47 37 48 52 49 72 50 35 51 36 52 51 54 73 55
REMARK SMILES IDX 38 56 21 57 22 58 31 59 23 60 24 61 30 62 32 63 25 64 26 65
REMARK SMILES IDX 27 66 28 67 29 68 55 69 56 70 65 71 57 72 58 73 64 74 66 75
REMARK SMILES IDX 59 76 60 77 61 78 62 79 63 80 39 81 40 82 49 83 41 84 42 85
REMARK SMILES IDX 48 86 50 87 43 88 44 89 45 90 46 91 47 92
REMARK H PARENT 88 20 71 42 37 53
REMARK Flexibility Score: inf
ROOT
ATOM      1  C   UNL A   1      31.875  29.142  25.885  1.00  0.00     0.274 C 
ENDROOT
BRANCH   1   2
ATOM      2  O   UNL A   1      31.409  27.935  25.247  1.00  0.00    -0.462 OA
BRANCH   2   3
ATOM      3  C   UNL A   1      31.126  26.878  26.037  1.00  0.00     0.311 C 
ATOM      4  O   UNL A   1      30.882  26.965  27.238  1.00  0.00    -0.252 OA
BRANCH   3   5
ATOM      5  C   UNL A   1      31.109  25.536  25.329  1.00  0.00     0.123 C 
ATOM      6  C   UNL A   1      33.696  25.210  25.698  1.00  0.00     0.032 C 
ATOM      7  C   UNL A   1      32.376  24.674  25.151  1.00  0.00     0.096 C 
ATOM      8  N   UNL A   1      32.454  24.416  23.703  1.00  0.00    -0.335 N 
ATOM      9  C   UNL A   1      30.488  25.622  23.928  1.00  0.00     0.039 C 
ATOM     10  C   UNL A   1      31.633  25.357  22.975  1.00  0.00     0.121 C 
BRANCH   8  11
ATOM     11  C   UNL A   1      33.197  23.470  23.022  1.00  0.00     0.255 C 
ATOM     12  O   UNL A   1      33.701  23.650  21.918  1.00  0.00    -0.269 OA
BRANCH  11  13
ATOM     13  C   UNL A   1      33.402  22.162  23.654  1.00  0.00     0.062 A 
ATOM     14  C   UNL A   1      32.392  21.214  23.582  1.00  0.00     0.125 A 
ATOM     15  C   UNL A   1      34.591  21.846  24.312  1.00  0.00     0.063 A 
ATOM     16  N   UNL A   1      32.523  19.952  24.059  1.00  0.00    -0.260 NA
ATOM     17  C   UNL A   1      34.748  20.559  24.801  1.00  0.00     0.134 A 
ATOM     18  C   UNL A   1      33.706  19.653  24.649  1.00  0.00     0.157 A 
BRANCH  17  19
ATOM     19  O   UNL A   1      35.901  20.160  25.406  1.00  0.00    -0.506 OA
ATOM     20  H   UNL A   1      35.953  19.312  25.802  1.00  0.00     0.293 HD
ENDBRANCH  17  19
ENDBRANCH  11  13
ENDBRANCH   8  11
ENDBRANCH   3   5
ENDBRANCH   2   3
ENDBRANCH   1   2
BRANCH   1  21
ATOM     21  C   UNL A   1      33.397  29.214  25.846  1.00  0.00     0.275 C 
BRANCH  21  22
ATOM     22  O   UNL A   1      33.924  29.026  27.168  1.00  0.00    -0.458 OA
BRANCH  22  23
ATOM     23  C   UNL A   1      34.380  30.151  27.761  1.00  0.00     0.338 C 
ATOM     24  O   UNL A   1      33.756  31.160  28.035  1.00  0.00    -0.246 OA
BRANCH  23  25
ATOM     25  C   UNL A   1      35.788  29.959  28.115  1.00  0.00     0.060 A 
ATOM     26  C   UNL A   1      36.756  30.083  27.119  1.00  0.00     0.016 A 
ATOM     27  C   UNL A   1      36.130  29.537  29.397  1.00  0.00     0.016 A 
ATOM     28  C   UNL A   1      38.066  29.689  27.376  1.00  0.00     0.010 A 
ATOM     29  C   UNL A   1      37.465  29.245  29.679  1.00  0.00     0.010 A 
ATOM     30  C   UNL A   1      38.440  29.290  28.665  1.00  0.00    -0.014 A 
BRANCH  30  31
ATOM     31  C   UNL A   1      39.845  28.920  28.977  1.00  0.00     0.031 A 
ATOM     32  C   UNL A   1      40.787  29.958  29.523  1.00  0.00     0.074 A 
ATOM     33  C   UNL A   1      40.289  27.673  28.722  1.00  0.00     0.049 A 
ATOM     34  N   UNL A   1      42.092  29.943  29.575  1.00  0.00    -0.248 NA
ATOM     35  C   UNL A   1      40.176  31.184  30.063  1.00  0.00     0.031 C 
ATOM     36  C   UNL A   1      39.468  26.558  28.245  1.00  0.00     0.029 A 
ATOM     37  N   UNL A   1      41.551  27.139  28.810  1.00  0.00    -0.354 N 
ATOM     38  C   UNL A   1      42.464  31.180  30.089  1.00  0.00     0.074 A 
ATOM     39  C   UNL A   1      41.245  31.914  30.351  1.00  0.00     0.031 C 
ATOM     40  C   UNL A   1      40.241  25.474  28.092  1.00  0.00     0.029 A 
ATOM     41  C   UNL A   1      41.626  25.841  28.365  1.00  0.00     0.049 A 
ATOM     42  H   UNL A   1      42.326  27.638  29.157  1.00  0.00     0.167 HD
ATOM     43  C   UNL A   1      43.713  31.656  30.305  1.00  0.00     0.037 A 
ATOM     44  C   UNL A   1      42.692  25.050  28.134  1.00  0.00     0.037 A 
ATOM     45  C   UNL A   1      44.911  30.889  30.086  1.00  0.00     0.049 A 
ATOM     46  C   UNL A   1      44.068  25.603  28.362  1.00  0.00     0.074 A 
ATOM     47  C   UNL A   1      46.228  31.273  30.273  1.00  0.00     0.029 A 
ATOM     48  N   UNL A   1      44.936  29.573  29.647  1.00  0.00    -0.354 N 
ATOM     49  N   UNL A   1      44.414  26.800  28.771  1.00  0.00    -0.248 NA
ATOM     50  C   UNL A   1      45.200  24.712  28.072  1.00  0.00     0.031 C 
ATOM     51  C   UNL A   1      47.050  30.194  29.928  1.00  0.00     0.029 A 
ATOM     52  C   UNL A   1      46.243  29.129  29.556  1.00  0.00     0.049 A 
ATOM     53  H   UNL A   1      44.141  29.035  29.432  1.00  0.00     0.167 HD
ATOM     54  C   UNL A   1      45.802  26.803  28.801  1.00  0.00     0.074 A 
ATOM     55  C   UNL A   1      46.233  25.488  28.375  1.00  0.00     0.031 C 
ATOM     56  C   UNL A   1      46.644  27.807  29.146  1.00  0.00     0.037 A 
BRANCH  43  57
ATOM     57  C   UNL A   1      43.851  33.081  30.762  1.00  0.00     0.058 A 
ATOM     58  C   UNL A   1      43.977  33.420  32.117  1.00  0.00     0.135 A 
ATOM     59  C   UNL A   1      43.892  34.122  29.820  1.00  0.00     0.135 A 
ATOM     60  F   UNL A   1      43.926  32.465  33.060  1.00  0.00    -0.206 F 
ATOM     61  C   UNL A   1      44.119  34.744  32.525  1.00  0.00     0.059 A 
ATOM     62  C   UNL A   1      44.055  35.450  30.203  1.00  0.00     0.059 A 
ATOM     63  F   UNL A   1      43.774  33.852  28.510  1.00  0.00    -0.206 F 
ATOM     64  C   UNL A   1      44.154  35.752  31.560  1.00  0.00     0.060 A 
BRANCH  64  65
ATOM     65  S   UNL A   1      44.345  37.466  32.097  1.00  0.00     0.124 S 
ATOM     66  O   UNL A   1      43.989  38.192  30.882  1.00  0.00    -0.237 OA
ATOM     67  O   UNL A   1      43.389  37.562  33.195  1.00  0.00    -0.237 OA
ATOM     68  O   UNL A   1      45.749  37.544  32.486  1.00  0.00    -0.744 OA
ENDBRANCH  64  65
ENDBRANCH  43  57
BRANCH  44  69
ATOM     69  C   UNL A   1      42.484  23.677  27.610  1.00  0.00     0.058 A 
ATOM     70  C   UNL A   1      42.448  23.431  26.230  1.00  0.00     0.135 A 
ATOM     71  C   UNL A   1      42.377  22.577  28.475  1.00  0.00     0.135 A 
ATOM     72  F   UNL A   1      42.539  24.451  25.364  1.00  0.00    -0.206 F 
ATOM     73  C   UNL A   1      42.319  22.140  25.726  1.00  0.00     0.059 A 
ATOM     74  C   UNL A   1      42.272  21.275  27.995  1.00  0.00     0.059 A 
ATOM     75  F   UNL A   1      42.422  22.761  29.805  1.00  0.00    -0.206 F 
ATOM     76  C   UNL A   1      42.240  21.069  26.617  1.00  0.00     0.060 A 
BRANCH  76  77
ATOM     77  S   UNL A   1      42.161  19.388  25.957  1.00  0.00     0.124 S 
ATOM     78  O   UNL A   1      42.653  18.609  27.086  1.00  0.00    -0.237 OA
ATOM     79  O   UNL A   1      40.743  19.241  25.647  1.00  0.00    -0.237 OA
ATOM     80  O   UNL A   1      43.044  19.446  24.794  1.00  0.00    -0.744 OA
ENDBRANCH  76  77
ENDBRANCH  44  69
BRANCH  56  81
ATOM     81  C   UNL A   1      48.114  27.514  29.119  1.00  0.00     0.058 A 
ATOM     82  C   UNL A   1      48.870  27.673  27.950  1.00  0.00     0.135 A 
ATOM     83  C   UNL A   1      48.782  27.148  30.298  1.00  0.00     0.135 A 
ATOM     84  F   UNL A   1      48.270  28.013  26.798  1.00  0.00    -0.206 F 
ATOM     85  C   UNL A   1      50.247  27.480  27.949  1.00  0.00     0.059 A 
ATOM     86  C   UNL A   1      50.160  26.965  30.323  1.00  0.00     0.059 A 
ATOM     87  F   UNL A   1      48.097  26.987  31.441  1.00  0.00    -0.206 F 
ATOM     88  C   UNL A   1      50.883  27.132  29.143  1.00  0.00     0.060 A 
BRANCH  88  89
ATOM     89  S   UNL A   1      52.680  26.949  29.147  1.00  0.00     0.124 S 
ATOM     90  O   UNL A   1      53.114  28.330  29.328  1.00  0.00    -0.237 OA
ATOM     91  O   UNL A   1      52.904  26.059  30.282  1.00  0.00    -0.237 OA
ATOM     92  O   UNL A   1      52.962  26.367  27.838  1.00  0.00    -0.744 OA
ENDBRANCH  88  89
ENDBRANCH  56  81
ENDBRANCH  30  31
ENDBRANCH  23  25
ENDBRANCH  22  23
ENDBRANCH  21  22
ENDBRANCH   1  21
TORSDOF 17
ENDMDL
MODEL 2
REMARK VINA RESULT:     -11.1      1.116      1.784
REMARK SMILES C[C@H]1[C@@H](C(=O)OCCOC(=O)c2ccc(-c3c4nc(c(-c5c(F)cc(S(=O)(=O)[O-])cc5F)c5ccc([nH]5)c(-c5c(F)cc(S(=O)(=O)[O-])cc5F)c5nc(c(-c6c(F)cc(S(=O)(=O)[O-])cc6F)c6ccc3[nH]6)C=C5)C=C4)cc2)CCN1C(=O)c1cncc(O)c1
REMARK SMILES IDX 7 1 6 2 4 3 5 4 3 5 1 6 2 7 80 8 78 9 79 10 81 11 82 12
REMARK SMILES IDX 83 13 84 14 89 15 85 16 87 17 86 18 88 19 8 21 9 22 10 23
REMARK SMILES IDX 11 24 12 25 13 26 77 27 14 28 76 29 15 30 16 31 17 32 70 33
REMARK SMILES IDX 18 34 75 35 69 36 71 37 19 38 74 39 68 40 67 41 20 43 54 44
REMARK SMILES IDX 33 45 53 46 34 47 37 48 52 49 72 50 35 51 36 52 51 54 73 55
REMARK SMILES IDX 38 56 21 57 22 58 31 59 23 60 24 61 30 62 32 63 25 64 26 65
REMARK SMILES IDX 27 66 28 67 29 68 55 69 56 70 65 71 57 72 58 73 64 74 66 75
REMARK SMILES IDX 59 76 60 77 61 78 62 79 63 80 39 81 40 82 49 83 41 84 42 85
REMARK SMILES IDX 48 86 50 87 43 88 44 89 45 90 46 91 47 92
REMARK H PARENT 88 20 71 42 37 53
REMARK Flexibility Score: inf
ROOT
ATOM      1  C   UNL A   1      31.775  29.916  26.982  1.00  0.00     0.274 C 
ENDROOT
BRANCH   1   2
ATOM      2  O   UNL A   1      31.657  28.512  26.672  1.00  0.00    -0.462 OA
BRANCH   2   3
ATOM      3  C   UNL A   1      31.341  28.177  25.403  1.00  0.00     0.311 C 
ATOM      4  O   UNL A   1      31.050  28.990  24.530  1.00  0.00    -0.252 OA
BRANCH   3   5
ATOM      5  C   UNL A   1      31.385  26.690  25.104  1.00  0.00     0.123 C 
ATOM      6  C   UNL A   1      33.971  26.776  24.614  1.00  0.00     0.032 C 
ATOM      7  C   UNL A   1      32.687  25.958  24.716  1.00  0.00     0.096 C 
ATOM      8  N   UNL A   1      32.374  25.283  23.445  1.00  0.00    -0.335 N 
ATOM      9  C   UNL A   1      30.365  26.278  24.035  1.00  0.00     0.039 C 
ATOM     10  C   UNL A   1      31.196  25.863  22.840  1.00  0.00     0.121 C 
BRANCH   8  11
ATOM     11  C   UNL A   1      33.053  24.262  22.806  1.00  0.00     0.255 C 
ATOM     12  O   UNL A   1      33.427  24.305  21.639  1.00  0.00    -0.269 OA
BRANCH  11  13
ATOM     13  C   UNL A   1      33.347  23.042  23.567  1.00  0.00     0.062 A 
ATOM     14  C   UNL A   1      34.669  22.719  23.835  1.00  0.00     0.125 A 
ATOM     15  C   UNL A   1      32.330  22.212  24.038  1.00  0.00     0.063 A 
ATOM     16  N   UNL A   1      35.033  21.664  24.603  1.00  0.00    -0.260 NA
ATOM     17  C   UNL A   1      32.681  21.130  24.831  1.00  0.00     0.134 A 
ATOM     18  C   UNL A   1      34.026  20.899  25.091  1.00  0.00     0.157 A 
BRANCH  17  19
ATOM     19  O   UNL A   1      31.741  20.306  25.370  1.00  0.00    -0.506 OA
ATOM     20  H   UNL A   1      30.983  20.069  24.871  1.00  0.00     0.293 HD
ENDBRANCH  17  19
ENDBRANCH  11  13
ENDBRANCH   8  11
ENDBRANCH   3   5
ENDBRANCH   2   3
ENDBRANCH   1   2
BRANCH   1  21
ATOM     21  C   UNL A   1      33.209  30.390  26.778  1.00  0.00     0.275 C 
BRANCH  21  22
ATOM     22  O   UNL A   1      34.067  29.762  27.743  1.00  0.00    -0.458 OA
BRANCH  22  23
ATOM     23  C   UNL A   1      34.825  30.614  28.467  1.00  0.00     0.338 C 
ATOM     24  O   UNL A   1      34.475  31.636  29.027  1.00  0.00    -0.246 OA
BRANCH  23  25
ATOM     25  C   UNL A   1      36.186  30.077  28.553  1.00  0.00     0.060 A 
ATOM     26  C   UNL A   1      36.665  29.653  29.792  1.00  0.00     0.016 A 
ATOM     27  C   UNL A   1      37.017  30.111  27.438  1.00  0.00     0.016 A 
ATOM     28  C   UNL A   1      38.014  29.352  29.944  1.00  0.00     0.010 A 
ATOM     29  C   UNL A   1      38.345  29.706  27.571  1.00  0.00     0.010 A 
ATOM     30  C   UNL A   1      38.865  29.350  28.830  1.00  0.00    -0.014 A 
BRANCH  30  31
ATOM     31  C   UNL A   1      40.296  28.975  28.958  1.00  0.00     0.031 A 
ATOM     32  C   UNL A   1      41.311  30.020  29.331  1.00  0.00     0.074 A 
ATOM     33  C   UNL A   1      40.692  27.715  28.689  1.00  0.00     0.049 A 
ATOM     34  N   UNL A   1      42.612  29.991  29.203  1.00  0.00    -0.248 NA
ATOM     35  C   UNL A   1      40.790  31.271  29.907  1.00  0.00     0.031 C 
ATOM     36  C   UNL A   1      39.805  26.594  28.371  1.00  0.00     0.029 A 
ATOM     37  N   UNL A   1      41.950  27.168  28.621  1.00  0.00    -0.354 N 
ATOM     38  C   UNL A   1      43.060  31.240  29.617  1.00  0.00     0.074 A 
ATOM     39  C   UNL A   1      41.894  31.998  30.017  1.00  0.00     0.031 C 
ATOM     40  C   UNL A   1      40.542  25.495  28.151  1.00  0.00     0.029 A 
ATOM     41  C   UNL A   1      41.954  25.855  28.217  1.00  0.00     0.049 A 
ATOM     42  H   UNL A   1      42.770  27.670  28.840  1.00  0.00     0.167 HD
ATOM     43  C   UNL A   1      44.330  31.709  29.641  1.00  0.00     0.037 A 
ATOM     44  C   UNL A   1      42.972  25.045  27.870  1.00  0.00     0.037 A 
ATOM     45  C   UNL A   1      45.481  30.921  29.286  1.00  0.00     0.049 A 
ATOM     46  C   UNL A   1      44.370  25.588  27.886  1.00  0.00     0.074 A 
ATOM     47  C   UNL A   1      46.813  31.295  29.277  1.00  0.00     0.029 A 
ATOM     48  N   UNL A   1      45.436  29.590  28.896  1.00  0.00    -0.354 N 
ATOM     49  N   UNL A   1      44.778  26.795  28.200  1.00  0.00    -0.248 NA
ATOM     50  C   UNL A   1      45.445  24.675  27.475  1.00  0.00     0.031 C 
ATOM     51  C   UNL A   1      47.572  30.195  28.860  1.00  0.00     0.029 A 
ATOM     52  C   UNL A   1      46.714  29.128  28.642  1.00  0.00     0.049 A 
ATOM     53  H   UNL A   1      44.614  29.054  28.812  1.00  0.00     0.167 HD
ATOM     54  C   UNL A   1      46.157  26.782  28.038  1.00  0.00     0.074 A 
ATOM     55  C   UNL A   1      46.516  25.448  27.604  1.00  0.00     0.031 C 
ATOM     56  C   UNL A   1      47.045  27.788  28.228  1.00  0.00     0.037 A 
BRANCH  43  57
ATOM     57  C   UNL A   1      44.540  33.146  30.024  1.00  0.00     0.058 A 
ATOM     58  C   UNL A   1      44.818  33.534  31.342  1.00  0.00     0.135 A 
ATOM     59  C   UNL A   1      44.493  34.150  29.041  1.00  0.00     0.135 A 
ATOM     60  F   UNL A   1      44.856  32.617  32.322  1.00  0.00    -0.206 F 
ATOM     61  C   UNL A   1      45.025  34.870  31.679  1.00  0.00     0.059 A 
ATOM     62  C   UNL A   1      44.719  35.488  29.352  1.00  0.00     0.059 A 
ATOM     63  F   UNL A   1      44.229  33.834  27.764  1.00  0.00    -0.206 F 
ATOM     64  C   UNL A   1      44.970  35.840  30.676  1.00  0.00     0.060 A 
BRANCH  64  65
ATOM     65  S   UNL A   1      45.246  37.568  31.121  1.00  0.00     0.124 S 
ATOM     66  O   UNL A   1      46.014  38.044  29.974  1.00  0.00    -0.237 OA
ATOM     67  O   UNL A   1      43.887  38.088  31.233  1.00  0.00    -0.237 OA
ATOM     68  O   UNL A   1      45.984  37.481  32.377  1.00  0.00    -0.744 OA
ENDBRANCH  64  65
ENDBRANCH  43  57
BRANCH  44  69
ATOM     69  C   UNL A   1      42.684  23.656  27.429  1.00  0.00     0.058 A 
ATOM     70  C   UNL A   1      42.559  23.345  26.068  1.00  0.00     0.135 A 
ATOM     71  C   UNL A   1      42.587  22.605  28.354  1.00  0.00     0.135 A 
ATOM     72  F   UNL A   1      42.637  24.317  25.147  1.00  0.00    -0.206 F 
ATOM     73  C   UNL A   1      42.354  22.037  25.638  1.00  0.00     0.059 A 
ATOM     74  C   UNL A   1      42.407  21.287  27.948  1.00  0.00     0.059 A 
ATOM     75  F   UNL A   1      42.716  22.852  29.668  1.00  0.00    -0.206 F 
ATOM     76  C   UNL A   1      42.287  21.015  26.585  1.00  0.00     0.060 A 
BRANCH  76  77
ATOM     77  S   UNL A   1      42.110  19.308  26.018  1.00  0.00     0.124 S 
ATOM     78  O   UNL A   1      43.051  19.271  24.906  1.00  0.00    -0.237 OA
ATOM     79  O   UNL A   1      42.489  18.545  27.203  1.00  0.00    -0.237 OA
ATOM     80  O   UNL A   1      40.697  19.224  25.656  1.00  0.00    -0.744 OA
ENDBRANCH  76  77
ENDBRANCH  44  69
BRANCH  56  81
ATOM     81  C   UNL A   1      48.495  27.476  28.009  1.00  0.00     0.058 A 
ATOM     82  C   UNL A   1      49.289  26.934  29.028  1.00  0.00     0.135 A 
ATOM     83  C   UNL A   1      49.069  27.647  26.739  1.00  0.00     0.135 A 
ATOM     84  F   UNL A   1      48.783  26.761  30.260  1.00  0.00    -0.206 F 
ATOM     85  C   UNL A   1      50.610  26.568  28.797  1.00  0.00     0.059 A 
ATOM     86  C   UNL A   1      50.384  27.273  26.482  1.00  0.00     0.059 A 
ATOM     87  F   UNL A   1      48.344  28.159  25.733  1.00  0.00    -0.206 F 
ATOM     88  C   UNL A   1      51.146  26.737  27.518  1.00  0.00     0.060 A 
BRANCH  88  89
ATOM     89  S   UNL A   1      52.842  26.197  27.209  1.00  0.00     0.124 S 
ATOM     90  O   UNL A   1      52.627  24.887  26.605  1.00  0.00    -0.237 OA
ATOM     91  O   UNL A   1      53.346  27.234  26.315  1.00  0.00    -0.237 OA
ATOM     92  O   UNL A   1      53.439  26.185  28.542  1.00  0.00    -0.744 OA
ENDBRANCH  88  89
ENDBRANCH  56  81
ENDBRANCH  30  31
ENDBRANCH  23  25
ENDBRANCH  22  23
ENDBRANCH  21  22
ENDBRANCH   1  21
TORSDOF 17
ENDMDL
MODEL 3
REMARK VINA RESULT:     -10.9      3.570      6.008
REMARK SMILES C[C@H]1[C@@H](C(=O)OCCOC(=O)c2ccc(-c3c4nc(c(-c5c(F)cc(S(=O)(=O)[O-])cc5F)c5ccc([nH]5)c(-c5c(F)cc(S(=O)(=O)[O-])cc5F)c5nc(c(-c6c(F)cc(S(=O)(=O)[O-])cc6F)c6ccc3[nH]6)C=C5)C=C4)cc2)CCN1C(=O)c1cncc(O)c1
REMARK SMILES IDX 7 1 6 2 4 3 5 4 3 5 1 6 2 7 80 8 78 9 79 10 81 11 82 12
REMARK SMILES IDX 83 13 84 14 89 15 85 16 87 17 86 18 88 19 8 21 9 22 10 23
REMARK SMILES IDX 11 24 12 25 13 26 77 27 14 28 76 29 15 30 16 31 17 32 70 33
REMARK SMILES IDX 18 34 75 35 69 36 71 37 19 38 74 39 68 40 67 41 20 43 54 44
REMARK SMILES IDX 33 45 53 46 34 47 37 48 52 49 72 50 35 51 36 52 51 54 73 55
REMARK SMILES IDX 38 56 21 57 22 58 31 59 23 60 24 61 30 62 32 63 25 64 26 65
REMARK SMILES IDX 27 66 28 67 29 68 55 69 56 70 65 71 57 72 58 73 64 74 66 75
REMARK SMILES IDX 59 76 60 77 61 78 62 79 63 80 39 81 40 82 49 83 41 84 42 85
REMARK SMILES IDX 48 86 50 87 43 88 44 89 45 90 46 91 47 92
REMARK H PARENT 88 20 71 42 37 53
REMARK Flexibility Score: inf
ROOT
ATOM      1  C   UNL A   1      33.371  33.995  28.757  1.00  0.00     0.274 C 
ENDROOT
BRANCH   1   2
ATOM      2  O   UNL A   1      34.509  34.572  29.429  1.00  0.00    -0.462 OA
BRANCH   2   3
ATOM      3  C   UNL A   1      34.614  34.377  30.760  1.00  0.00     0.311 C 
ATOM      4  O   UNL A   1      34.067  35.083  31.603  1.00  0.00    -0.252 OA
BRANCH   3   5
ATOM      5  C   UNL A   1      35.458  33.183  31.167  1.00  0.00     0.123 C 
ATOM      6  C   UNL A   1      34.644  33.347  33.666  1.00  0.00     0.032 C 
ATOM      7  C   UNL A   1      35.488  32.639  32.611  1.00  0.00     0.096 C 
ATOM      8  N   UNL A   1      36.914  32.626  32.978  1.00  0.00    -0.335 N 
ATOM      9  C   UNL A   1      36.933  33.351  30.776  1.00  0.00     0.039 C 
ATOM     10  C   UNL A   1      37.674  33.476  32.089  1.00  0.00     0.121 C 
BRANCH   8  11
ATOM     11  C   UNL A   1      37.544  31.968  34.019  1.00  0.00     0.255 C 
ATOM     12  O   UNL A   1      37.247  32.102  35.201  1.00  0.00    -0.269 OA
BRANCH  11  13
ATOM     13  C   UNL A   1      38.641  31.049  33.695  1.00  0.00     0.062 A 
ATOM     14  C   UNL A   1      39.940  31.413  34.015  1.00  0.00     0.125 A 
ATOM     15  C   UNL A   1      38.404  29.815  33.088  1.00  0.00     0.063 A 
ATOM     16  N   UNL A   1      41.005  30.594  33.835  1.00  0.00    -0.260 NA
ATOM     17  C   UNL A   1      39.480  28.960  32.901  1.00  0.00     0.134 A 
ATOM     18  C   UNL A   1      40.745  29.381  33.290  1.00  0.00     0.157 A 
BRANCH  17  19
ATOM     19  O   UNL A   1      39.320  27.719  32.364  1.00  0.00    -0.506 OA
ATOM     20  H   UNL A   1      39.272  26.969  32.925  1.00  0.00     0.293 HD
ENDBRANCH  17  19
ENDBRANCH  11  13
ENDBRANCH   8  11
ENDBRANCH   3   5
ENDBRANCH   2   3
ENDBRANCH   1   2
BRANCH   1  21
ATOM     21  C   UNL A   1      33.809  32.849  27.852  1.00  0.00     0.275 C 
BRANCH  21  22
ATOM     22  O   UNL A   1      34.247  31.741  28.654  1.00  0.00    -0.458 OA
BRANCH  22  23
ATOM     23  C   UNL A   1      34.379  30.574  27.986  1.00  0.00     0.338 C 
ATOM     24  O   UNL A   1      33.569  30.035  27.254  1.00  0.00    -0.246 OA
BRANCH  23  25
ATOM     25  C   UNL A   1      35.727  30.051  28.213  1.00  0.00     0.060 A 
ATOM     26  C   UNL A   1      36.080  29.632  29.496  1.00  0.00     0.016 A 
ATOM     27  C   UNL A   1      36.670  30.092  27.190  1.00  0.00     0.016 A 
ATOM     28  C   UNL A   1      37.409  29.344  29.787  1.00  0.00     0.010 A 
ATOM     29  C   UNL A   1      37.981  29.699  27.461  1.00  0.00     0.010 A 
ATOM     30  C   UNL A   1      38.370  29.350  28.767  1.00  0.00    -0.014 A 
BRANCH  30  31
ATOM     31  C   UNL A   1      39.784  28.989  29.043  1.00  0.00     0.031 A 
ATOM     32  C   UNL A   1      40.736  30.035  29.557  1.00  0.00     0.074 A 
ATOM     33  C   UNL A   1      40.227  27.742  28.785  1.00  0.00     0.049 A 
ATOM     34  N   UNL A   1      42.042  30.025  29.573  1.00  0.00    -0.248 NA
ATOM     35  C   UNL A   1      40.134  31.261  30.105  1.00  0.00     0.031 C 
ATOM     36  C   UNL A   1      39.399  26.620  28.339  1.00  0.00     0.029 A 
ATOM     37  N   UNL A   1      41.493  27.213  28.843  1.00  0.00    -0.354 N 
ATOM     38  C   UNL A   1      42.422  31.267  30.069  1.00  0.00     0.074 A 
ATOM     39  C   UNL A   1      41.208  31.998  30.358  1.00  0.00     0.031 C 
ATOM     40  C   UNL A   1      40.172  25.537  28.172  1.00  0.00     0.029 A 
ATOM     41  C   UNL A   1      41.562  25.912  28.405  1.00  0.00     0.049 A 
ATOM     42  H   UNL A   1      42.275  27.718  29.165  1.00  0.00     0.167 HD
ATOM     43  C   UNL A   1      43.674  31.750  30.248  1.00  0.00     0.037 A 
ATOM     44  C   UNL A   1      42.625  25.125  28.151  1.00  0.00     0.037 A 
ATOM     45  C   UNL A   1      44.870  30.987  30.002  1.00  0.00     0.049 A 
ATOM     46  C   UNL A   1      44.004  25.685  28.337  1.00  0.00     0.074 A 
ATOM     47  C   UNL A   1      46.189  31.378  30.151  1.00  0.00     0.029 A 
ATOM     48  N   UNL A   1      44.889  29.668  29.572  1.00  0.00    -0.354 N 
ATOM     49  N   UNL A   1      44.356  26.887  28.729  1.00  0.00    -0.248 NA
ATOM     50  C   UNL A   1      45.132  24.797  28.024  1.00  0.00     0.031 C 
ATOM     51  C   UNL A   1      47.007  30.300  29.791  1.00  0.00     0.029 A 
ATOM     52  C   UNL A   1      46.195  29.229  29.449  1.00  0.00     0.049 A 
ATOM     53  H   UNL A   1      44.090  29.125  29.382  1.00  0.00     0.167 HD
ATOM     54  C   UNL A   1      45.744  26.896  28.721  1.00  0.00     0.074 A 
ATOM     55  C   UNL A   1      46.169  25.579  28.293  1.00  0.00     0.031 C 
ATOM     56  C   UNL A   1      46.590  27.906  29.037  1.00  0.00     0.037 A 
BRANCH  43  57
ATOM     57  C   UNL A   1      43.818  33.178  30.692  1.00  0.00     0.058 A 
ATOM     58  C   UNL A   1      43.784  34.248  29.784  1.00  0.00     0.135 A 
ATOM     59  C   UNL A   1      43.959  33.481  32.056  1.00  0.00     0.135 A 
ATOM     60  F   UNL A   1      43.669  34.012  28.468  1.00  0.00    -0.206 F 
ATOM     61  C   UNL A   1      43.905  35.568  30.212  1.00  0.00     0.059 A 
ATOM     62  C   UNL A   1      44.059  34.794  32.508  1.00  0.00     0.059 A 
ATOM     63  F   UNL A   1      44.000  32.496  32.967  1.00  0.00    -0.206 F 
ATOM     64  C   UNL A   1      44.045  35.830  31.576  1.00  0.00     0.060 A 
BRANCH  64  65
ATOM     65  S   UNL A   1      44.194  37.545  32.122  1.00  0.00     0.124 S 
ATOM     66  O   UNL A   1      43.800  38.268  30.916  1.00  0.00    -0.237 OA
ATOM     67  O   UNL A   1      43.251  37.607  33.234  1.00  0.00    -0.237 OA
ATOM     68  O   UNL A   1      45.601  37.662  32.491  1.00  0.00    -0.744 OA
ENDBRANCH  64  65
ENDBRANCH  43  57
BRANCH  44  69
ATOM     69  C   UNL A   1      42.409  23.747  27.641  1.00  0.00     0.058 A 
ATOM     70  C   UNL A   1      42.326  23.493  26.265  1.00  0.00     0.135 A 
ATOM     71  C   UNL A   1      42.341  22.651  28.517  1.00  0.00     0.135 A 
ATOM     72  F   UNL A   1      42.378  24.509  25.392  1.00  0.00    -0.206 F 
ATOM     73  C   UNL A   1      42.189  22.198  25.773  1.00  0.00     0.059 A 
ATOM     74  C   UNL A   1      42.230  21.346  28.048  1.00  0.00     0.059 A 
ATOM     75  F   UNL A   1      42.432  22.843  29.842  1.00  0.00    -0.206 F 
ATOM     76  C   UNL A   1      42.150  21.132  26.672  1.00  0.00     0.060 A 
BRANCH  76  77
ATOM     77  S   UNL A   1      42.061  19.447  26.025  1.00  0.00     0.124 S 
ATOM     78  O   UNL A   1      42.918  19.541  24.849  1.00  0.00    -0.237 OA
ATOM     79  O   UNL A   1      42.585  18.659  27.136  1.00  0.00    -0.237 OA
ATOM     80  O   UNL A   1      40.636  19.268  25.759  1.00  0.00    -0.744 OA
ENDBRANCH  76  77
ENDBRANCH  44  69
BRANCH  56  81
ATOM     81  C   UNL A   1      48.060  27.618  28.972  1.00  0.00     0.058 A 
ATOM     82  C   UNL A   1      48.818  27.935  27.837  1.00  0.00     0.135 A 
ATOM     83  C   UNL A   1      48.727  27.096  30.091  1.00  0.00     0.135 A 
ATOM     84  F   UNL A   1      48.220  28.429  26.740  1.00  0.00    -0.206 F 
ATOM     85  C   UNL A   1      50.195  27.744  27.812  1.00  0.00     0.059 A 
ATOM     86  C   UNL A   1      50.105  26.911  30.093  1.00  0.00     0.059 A 
ATOM     87  F   UNL A   1      48.041  26.781  31.201  1.00  0.00    -0.206 F 
ATOM     88  C   UNL A   1      50.830  27.236  28.948  1.00  0.00     0.060 A 
BRANCH  88  89
ATOM     89  S   UNL A   1      52.626  27.054  28.930  1.00  0.00     0.124 S 
ATOM     90  O   UNL A   1      52.808  26.036  27.901  1.00  0.00    -0.237 OA
ATOM     91  O   UNL A   1      53.076  28.398  28.579  1.00  0.00    -0.237 OA
ATOM     92  O   UNL A   1      52.936  26.633  30.293  1.00  0.00    -0.744 OA
ENDBRANCH  88  89
ENDBRANCH  56  81
ENDBRANCH  30  31
ENDBRANCH  23  25
ENDBRANCH  22  23
ENDBRANCH  21  22
ENDBRANCH   1  21
TORSDOF 17
ENDMDL
