MODEL 1
REMARK VINA RESULT:     -10.8      0.000      0.000
REMARK SMILES C[NH+]1CCC(C[N@H+](C)[C@H]2CC[C@]([NH3+])(C(=O)OCCOC(=O)c3ccc(-c4c5nc(c(-c6c(F)cc(S(=O)(=O)[O-])cc6F)c6ccc([nH]6)c(-c6c(F)cc(S(=O)(=O)[O-])cc6F)c6nc(c(-c7c(F)cc(S(=O)(=O)[O-])cc7F)c7ccc4[nH]7)C=C6)C=C5)cc3)C2)CC1
REMARK SMILES IDX 17 1 16 2 14 3 15 4 12 5 9 6 10 7 88 8 11 9 7 10 8 11 6 13
REMARK SMILES IDX 5 14 1 15 2 16 3 17 90 18 4 20 89 21 13 22 18 26 19 27 20 28
REMARK SMILES IDX 21 29 22 30 23 31 87 32 24 33 86 34 25 35 26 36 27 37 80 38
REMARK SMILES IDX 28 39 85 40 79 41 81 42 29 43 84 44 78 45 77 46 30 48 64 49
REMARK SMILES IDX 43 50 63 51 44 52 47 53 62 54 82 55 45 56 46 57 61 59 83 60
REMARK SMILES IDX 48 61 31 62 32 63 41 64 33 65 34 66 40 67 42 68 35 69 36 70
REMARK SMILES IDX 37 71 38 72 39 73 65 74 66 75 75 76 67 77 68 78 74 79 76 80
REMARK SMILES IDX 69 81 70 82 71 83 72 84 73 85 49 86 50 87 59 88 51 89 52 90
REMARK SMILES IDX 58 91 60 92 53 93 54 94 55 95 56 96 57 97
REMARK H PARENT 7 12 2 19 13 23 13 24 13 25 81 47 47 58
REMARK Flexibility Score: inf
ROOT
ATOM      1  C   UNL A   1      31.985  29.939  25.801  1.00  0.00     0.274 C 
ENDROOT
BRANCH   1   2
ATOM      2  O   UNL A   1      31.335  28.816  25.185  1.00  0.00    -0.457 OA
BRANCH   2   3
ATOM      3  C   UNL A   1      31.956  28.286  24.079  1.00  0.00     0.368 C 
ATOM      4  O   UNL A   1      32.183  28.893  23.048  1.00  0.00    -0.245 OA
BRANCH   3   5
ATOM      5  C   UNL A   1      32.436  26.849  24.426  1.00  0.00     0.198 C 
ATOM      6  C   UNL A   1      31.977  24.507  23.682  1.00  0.00     0.191 C 
ATOM      7  C   UNL A   1      31.319  24.728  25.049  1.00  0.00     0.072 C 
ATOM      8  C   UNL A   1      32.487  25.890  23.217  1.00  0.00     0.145 C 
ATOM      9  C   UNL A   1      31.449  26.201  25.407  1.00  0.00     0.087 C 
BRANCH   6  10
ATOM     10  N   UNL A   1      32.821  23.283  23.687  1.00  0.00    -0.334 N 
ATOM     11  C   UNL A   1      32.061  22.143  23.150  1.00  0.00     0.332 C 
ATOM     12  H   UNL A   1      33.054  23.203  24.678  1.00  0.00     0.348 HD
BRANCH  10  13
ATOM     13  C   UNL A   1      34.136  23.311  23.014  1.00  0.00     0.266 C 
BRANCH  13  14
ATOM     14  C   UNL A   1      35.374  23.117  23.894  1.00  0.00     0.055 C 
ATOM     15  C   UNL A   1      38.697  22.218  26.285  1.00  0.00     0.332 C 
ATOM     16  N   UNL A   1      37.273  22.449  26.007  1.00  0.00    -0.337 N 
ATOM     17  C   UNL A   1      36.799  21.421  25.072  1.00  0.00     0.262 C 
ATOM     18  C   UNL A   1      37.057  23.834  25.557  1.00  0.00     0.262 C 
ATOM     19  H   UNL A   1      36.712  22.356  26.853  1.00  0.00     0.347 HD
ATOM     20  C   UNL A   1      35.413  21.708  24.497  1.00  0.00     0.071 C 
ATOM     21  C   UNL A   1      35.631  24.101  25.031  1.00  0.00     0.071 C 
ENDBRANCH  13  14
ENDBRANCH  10  13
ENDBRANCH   6  10
BRANCH   5  22
ATOM     22  N   UNL A   1      33.772  27.030  25.006  1.00  0.00    -0.343 N 
ATOM     23  H   UNL A   1      34.478  26.758  24.322  1.00  0.00     0.345 HD
ATOM     24  H   UNL A   1      33.863  26.449  25.838  1.00  0.00     0.345 HD
ATOM     25  H   UNL A   1      33.903  28.010  25.258  1.00  0.00     0.345 HD
ENDBRANCH   5  22
ENDBRANCH   3   5
ENDBRANCH   2   3
ENDBRANCH   1   2
BRANCH   1  26
ATOM     26  C   UNL A   1      32.369  29.546  27.232  1.00  0.00     0.275 C 
BRANCH  26  27
ATOM     27  O   UNL A   1      33.793  29.345  27.327  1.00  0.00    -0.458 OA
BRANCH  27  28
ATOM     28  C   UNL A   1      34.467  30.334  27.968  1.00  0.00     0.338 C 
ATOM     29  O   UNL A   1      34.021  31.437  28.256  1.00  0.00    -0.246 OA
BRANCH  28  30
ATOM     30  C   UNL A   1      35.865  29.937  28.276  1.00  0.00     0.060 A 
ATOM     31  C   UNL A   1      36.265  29.538  29.554  1.00  0.00     0.016 A 
ATOM     32  C   UNL A   1      36.826  30.043  27.267  1.00  0.00     0.016 A 
ATOM     33  C   UNL A   1      37.619  29.331  29.838  1.00  0.00     0.010 A 
ATOM     34  C   UNL A   1      38.163  29.716  27.528  1.00  0.00     0.010 A 
ATOM     35  C   UNL A   1      38.586  29.367  28.821  1.00  0.00    -0.014 A 
BRANCH  35  36
ATOM     36  C   UNL A   1      40.016  28.991  29.058  1.00  0.00     0.031 A 
ATOM     37  C   UNL A   1      41.030  30.033  29.463  1.00  0.00     0.074 A 
ATOM     38  C   UNL A   1      40.441  27.732  28.819  1.00  0.00     0.049 A 
ATOM     39  N   UNL A   1      42.336  29.997  29.380  1.00  0.00    -0.248 NA
ATOM     40  C   UNL A   1      40.500  31.289  30.016  1.00  0.00     0.031 C 
ATOM     41  C   UNL A   1      39.590  26.597  28.455  1.00  0.00     0.029 A 
ATOM     42  N   UNL A   1      41.711  27.202  28.811  1.00  0.00    -0.354 N 
ATOM     43  C   UNL A   1      42.784  31.242  29.811  1.00  0.00     0.074 A 
ATOM     44  C   UNL A   1      41.605  32.010  30.161  1.00  0.00     0.031 C 
ATOM     45  C   UNL A   1      40.353  25.513  28.266  1.00  0.00     0.029 A 
ATOM     46  C   UNL A   1      41.754  25.895  28.386  1.00  0.00     0.049 A 
ATOM     47  H   UNL A   1      42.510  27.708  29.084  1.00  0.00     0.167 HD
ATOM     48  C   UNL A   1      44.057  31.705  29.895  1.00  0.00     0.037 A 
ATOM     49  C   UNL A   1      42.789  25.101  28.047  1.00  0.00     0.037 A 
ATOM     50  C   UNL A   1      45.228  30.922  29.588  1.00  0.00     0.049 A 
ATOM     51  C   UNL A   1      44.187  25.635  28.109  1.00  0.00     0.074 A 
ATOM     52  C   UNL A   1      46.560  31.299  29.653  1.00  0.00     0.029 A 
ATOM     53  N   UNL A   1      45.212  29.598  29.172  1.00  0.00    -0.354 N 
ATOM     54  N   UNL A   1      44.592  26.836  28.444  1.00  0.00    -0.248 NA
ATOM     55  C   UNL A   1      45.269  24.715  27.733  1.00  0.00     0.031 C 
ATOM     56  C   UNL A   1      47.347  30.214  29.250  1.00  0.00     0.029 A 
ATOM     57  C   UNL A   1      46.508  29.147  28.973  1.00  0.00     0.049 A 
ATOM     58  H   UNL A   1      44.400  29.059  29.038  1.00  0.00     0.167 HD
ATOM     59  C   UNL A   1      45.977  26.815  28.329  1.00  0.00     0.074 A 
ATOM     60  C   UNL A   1      46.342  25.478  27.904  1.00  0.00     0.031 C 
ATOM     61  C   UNL A   1      46.863  27.814  28.555  1.00  0.00     0.037 A 
BRANCH  48  62
ATOM     62  C   UNL A   1      44.256  33.140  30.305  1.00  0.00     0.058 A 
ATOM     63  C   UNL A   1      44.233  34.192  29.378  1.00  0.00     0.135 A 
ATOM     64  C   UNL A   1      44.431  33.469  31.661  1.00  0.00     0.135 A 
ATOM     65  F   UNL A   1      44.079  33.935  28.069  1.00  0.00    -0.206 F 
ATOM     66  C   UNL A   1      44.406  35.516  29.774  1.00  0.00     0.059 A 
ATOM     67  C   UNL A   1      44.580  34.787  32.082  1.00  0.00     0.059 A 
ATOM     68  F   UNL A   1      44.455  32.503  32.593  1.00  0.00    -0.206 F 
ATOM     69  C   UNL A   1      44.583  35.803  31.128  1.00  0.00     0.060 A 
BRANCH  69  70
ATOM     70  S   UNL A   1      44.810  37.524  31.631  1.00  0.00     0.124 S 
ATOM     71  O   UNL A   1      44.132  38.233  30.550  1.00  0.00    -0.237 OA
ATOM     72  O   UNL A   1      44.144  37.563  32.929  1.00  0.00    -0.237 OA
ATOM     73  O   UNL A   1      46.261  37.678  31.669  1.00  0.00    -0.744 OA
ENDBRANCH  69  70
ENDBRANCH  48  62
BRANCH  49  74
ATOM     74  C   UNL A   1      42.512  23.726  27.554  1.00  0.00     0.058 A 
ATOM     75  C   UNL A   1      42.467  23.447  26.183  1.00  0.00     0.135 A 
ATOM     76  C   UNL A   1      42.366  22.652  28.449  1.00  0.00     0.135 A 
ATOM     77  F   UNL A   1      42.589  24.442  25.292  1.00  0.00    -0.206 F 
ATOM     78  C   UNL A   1      42.300  22.149  25.711  1.00  0.00     0.059 A 
ATOM     79  C   UNL A   1      42.225  21.343  28.002  1.00  0.00     0.059 A 
ATOM     80  F   UNL A   1      42.419  22.868  29.773  1.00  0.00    -0.206 F 
ATOM     81  C   UNL A   1      42.193  21.102  26.630  1.00  0.00     0.060 A 
BRANCH  81  82
ATOM     82  S   UNL A   1      42.087  19.409  26.011  1.00  0.00     0.124 S 
ATOM     83  O   UNL A   1      42.939  19.475  24.829  1.00  0.00    -0.237 OA
ATOM     84  O   UNL A   1      42.612  18.636  27.133  1.00  0.00    -0.237 OA
ATOM     85  O   UNL A   1      40.660  19.235  25.755  1.00  0.00    -0.744 OA
ENDBRANCH  81  82
ENDBRANCH  49  74
BRANCH  61  86
ATOM     86  C   UNL A   1      48.320  27.493  28.391  1.00  0.00     0.058 A 
ATOM     87  C   UNL A   1      49.014  27.797  27.209  1.00  0.00     0.135 A 
ATOM     88  C   UNL A   1      49.042  26.913  29.446  1.00  0.00     0.135 A 
ATOM     89  F   UNL A   1      48.367  28.342  26.167  1.00  0.00    -0.206 F 
ATOM     90  C   UNL A   1      50.372  27.524  27.075  1.00  0.00     0.059 A 
ATOM     91  C   UNL A   1      50.404  26.649  29.341  1.00  0.00     0.059 A 
ATOM     92  F   UNL A   1      48.425  26.607  30.599  1.00  0.00    -0.206 F 
ATOM     93  C   UNL A   1      51.058  26.951  28.147  1.00  0.00     0.060 A 
BRANCH  93  94
ATOM     94  S   UNL A   1      52.828  26.634  27.976  1.00  0.00     0.124 S 
ATOM     95  O   UNL A   1      52.836  25.500  27.058  1.00  0.00    -0.237 OA
ATOM     96  O   UNL A   1      53.322  27.895  27.432  1.00  0.00    -0.237 OA
ATOM     97  O   UNL A   1      53.253  26.339  29.341  1.00  0.00    -0.744 OA
ENDBRANCH  93  94
ENDBRANCH  61  86
ENDBRANCH  35  36
ENDBRANCH  28  30
ENDBRANCH  27  28
ENDBRANCH  26  27
ENDBRANCH   1  26
TORSDOF 18
ENDMDL
MODEL 2
REMARK VINA RESULT:     -10.6      1.036      1.792
REMARK SMILES C[NH+]1CCC(C[N@H+](C)[C@H]2CC[C@]([NH3+])(C(=O)OCCOC(=O)c3ccc(-c4c5nc(c(-c6c(F)cc(S(=O)(=O)[O-])cc6F)c6ccc([nH]6)c(-c6c(F)cc(S(=O)(=O)[O-])cc6F)c6nc(c(-c7c(F)cc(S(=O)(=O)[O-])cc7F)c7ccc4[nH]7)C=C6)C=C5)cc3)C2)CC1
REMARK SMILES IDX 17 1 16 2 14 3 15 4 12 5 9 6 10 7 88 8 11 9 7 10 8 11 6 13
REMARK SMILES IDX 5 14 1 15 2 16 3 17 90 18 4 20 89 21 13 22 18 26 19 27 20 28
REMARK SMILES IDX 21 29 22 30 23 31 87 32 24 33 86 34 25 35 26 36 27 37 80 38
REMARK SMILES IDX 28 39 85 40 79 41 81 42 29 43 84 44 78 45 77 46 30 48 64 49
REMARK SMILES IDX 43 50 63 51 44 52 47 53 62 54 82 55 45 56 46 57 61 59 83 60
REMARK SMILES IDX 48 61 31 62 32 63 41 64 33 65 34 66 40 67 42 68 35 69 36 70
REMARK SMILES IDX 37 71 38 72 39 73 65 74 66 75 75 76 67 77 68 78 74 79 76 80
REMARK SMILES IDX 69 81 70 82 71 83 72 84 73 85 49 86 50 87 59 88 51 89 52 90
REMARK SMILES IDX 58 91 60 92 53 93 54 94 55 95 56 96 57 97
REMARK H PARENT 7 12 2 19 13 23 13 24 13 25 81 47 47 58
REMARK Flexibility Score: inf
ROOT
ATOM      1  C   UNL A   1      31.999  29.913  25.804  1.00  0.00     0.274 C 
ENDROOT
BRANCH   1   2
ATOM      2  O   UNL A   1      31.661  28.659  25.191  1.00  0.00    -0.457 OA
BRANCH   2   3
ATOM      3  C   UNL A   1      32.379  28.318  24.070  1.00  0.00     0.368 C 
ATOM      4  O   UNL A   1      32.922  29.110  23.321  1.00  0.00    -0.245 OA
BRANCH   3   5
ATOM      5  C   UNL A   1      32.495  26.769  24.012  1.00  0.00     0.198 C 
ATOM      6  C   UNL A   1      32.583  24.851  25.613  1.00  0.00     0.191 C 
ATOM      7  C   UNL A   1      33.986  25.080  25.042  1.00  0.00     0.072 C 
ATOM      8  C   UNL A   1      31.716  26.034  25.123  1.00  0.00     0.145 C 
ATOM      9  C   UNL A   1      33.960  26.356  24.212  1.00  0.00     0.087 C 
BRANCH   6  10
ATOM     10  N   UNL A   1      32.176  23.428  25.475  1.00  0.00    -0.334 N 
ATOM     11  C   UNL A   1      30.747  23.277  25.798  1.00  0.00     0.332 C 
ATOM     12  H   UNL A   1      32.805  22.972  26.137  1.00  0.00     0.348 HD
BRANCH  10  13
ATOM     13  C   UNL A   1      32.430  22.724  24.200  1.00  0.00     0.266 C 
BRANCH  13  14
ATOM     14  C   UNL A   1      33.205  21.406  24.275  1.00  0.00     0.055 C 
ATOM     15  C   UNL A   1      34.993  17.621  24.474  1.00  0.00     0.332 C 
ATOM     16  N   UNL A   1      34.318  18.809  25.010  1.00  0.00    -0.337 N 
ATOM     17  C   UNL A   1      32.983  18.909  24.404  1.00  0.00     0.262 C 
ATOM     18  C   UNL A   1      35.162  20.002  24.833  1.00  0.00     0.262 C 
ATOM     19  H   UNL A   1      34.177  18.732  26.017  1.00  0.00     0.347 HD
ATOM     20  C   UNL A   1      32.288  20.242  24.673  1.00  0.00     0.071 C 
ATOM     21  C   UNL A   1      34.443  21.327  25.163  1.00  0.00     0.071 C 
ENDBRANCH  13  14
ENDBRANCH  10  13
ENDBRANCH   6  10
BRANCH   5  22
ATOM     22  N   UNL A   1      31.982  26.405  22.686  1.00  0.00    -0.343 N 
ATOM     23  H   UNL A   1      32.484  25.586  22.341  1.00  0.00     0.345 HD
ATOM     24  H   UNL A   1      32.118  27.184  22.043  1.00  0.00     0.345 HD
ATOM     25  H   UNL A   1      30.987  26.189  22.754  1.00  0.00     0.345 HD
ENDBRANCH   5  22
ENDBRANCH   3   5
ENDBRANCH   2   3
ENDBRANCH   1   2
BRANCH   1  26
ATOM     26  C   UNL A   1      32.397  29.645  27.260  1.00  0.00     0.275 C 
BRANCH  26  27
ATOM     27  O   UNL A   1      33.823  29.450  27.356  1.00  0.00    -0.458 OA
BRANCH  27  28
ATOM     28  C   UNL A   1      34.478  30.390  28.084  1.00  0.00     0.338 C 
ATOM     29  O   UNL A   1      34.013  31.456  28.466  1.00  0.00    -0.246 OA
BRANCH  28  30
ATOM     30  C   UNL A   1      35.882  29.990  28.363  1.00  0.00     0.060 A 
ATOM     31  C   UNL A   1      36.306  29.586  29.630  1.00  0.00     0.016 A 
ATOM     32  C   UNL A   1      36.823  30.100  27.335  1.00  0.00     0.016 A 
ATOM     33  C   UNL A   1      37.667  29.376  29.887  1.00  0.00     0.010 A 
ATOM     34  C   UNL A   1      38.164  29.771  27.567  1.00  0.00     0.010 A 
ATOM     35  C   UNL A   1      38.612  29.415  28.850  1.00  0.00    -0.014 A 
BRANCH  35  36
ATOM     36  C   UNL A   1      40.046  29.037  29.057  1.00  0.00     0.031 A 
ATOM     37  C   UNL A   1      41.073  30.080  29.426  1.00  0.00     0.074 A 
ATOM     38  C   UNL A   1      40.462  27.774  28.820  1.00  0.00     0.049 A 
ATOM     39  N   UNL A   1      42.377  30.038  29.313  1.00  0.00    -0.248 NA
ATOM     40  C   UNL A   1      40.561  31.343  29.979  1.00  0.00     0.031 C 
ATOM     41  C   UNL A   1      39.599  26.638  28.489  1.00  0.00     0.029 A 
ATOM     42  N   UNL A   1      41.730  27.240  28.788  1.00  0.00    -0.354 N 
ATOM     43  C   UNL A   1      42.839  31.286  29.720  1.00  0.00     0.074 A 
ATOM     44  C   UNL A   1      41.671  32.061  30.090  1.00  0.00     0.031 C 
ATOM     45  C   UNL A   1      40.353  25.549  28.293  1.00  0.00     0.029 A 
ATOM     46  C   UNL A   1      41.758  25.928  28.375  1.00  0.00     0.049 A 
ATOM     47  H   UNL A   1      42.537  27.746  29.037  1.00  0.00     0.167 HD
ATOM     48  C   UNL A   1      44.115  31.746  29.768  1.00  0.00     0.037 A 
ATOM     49  C   UNL A   1      42.782  25.127  28.021  1.00  0.00     0.037 A 
ATOM     50  C   UNL A   1      45.276  30.955  29.442  1.00  0.00     0.049 A 
ATOM     51  C   UNL A   1      44.183  25.658  28.043  1.00  0.00     0.074 A 
ATOM     52  C   UNL A   1      46.610  31.329  29.471  1.00  0.00     0.029 A 
ATOM     53  N   UNL A   1      45.246  29.628  29.040  1.00  0.00    -0.354 N 
ATOM     54  N   UNL A   1      44.599  26.861  28.355  1.00  0.00    -0.248 NA
ATOM     55  C   UNL A   1      45.253  24.730  27.651  1.00  0.00     0.031 C 
ATOM     56  C   UNL A   1      47.384  30.238  29.060  1.00  0.00     0.029 A 
ATOM     57  C   UNL A   1      46.535  29.170  28.814  1.00  0.00     0.049 A 
ATOM     58  H   UNL A   1      44.430  29.090  28.931  1.00  0.00     0.167 HD
ATOM     59  C   UNL A   1      45.981  26.833  28.208  1.00  0.00     0.074 A 
ATOM     60  C   UNL A   1      46.332  25.490  27.789  1.00  0.00     0.031 C 
ATOM     61  C   UNL A   1      46.876  27.832  28.402  1.00  0.00     0.037 A 
BRANCH  48  62
ATOM     62  C   UNL A   1      44.329  33.184  30.159  1.00  0.00     0.058 A 
ATOM     63  C   UNL A   1      44.265  34.229  29.225  1.00  0.00     0.135 A 
ATOM     64  C   UNL A   1      44.559  33.524  31.503  1.00  0.00     0.135 A 
ATOM     65  F   UNL A   1      44.057  33.961  27.925  1.00  0.00    -0.206 F 
ATOM     66  C   UNL A   1      44.451  35.556  29.603  1.00  0.00     0.059 A 
ATOM     67  C   UNL A   1      44.724  34.846  31.908  1.00  0.00     0.059 A 
ATOM     68  F   UNL A   1      44.624  32.566  32.442  1.00  0.00    -0.206 F 
ATOM     69  C   UNL A   1      44.685  35.854  30.946  1.00  0.00     0.060 A 
BRANCH  69  70
ATOM     70  S   UNL A   1      44.929  37.579  31.426  1.00  0.00     0.124 S 
ATOM     71  O   UNL A   1      46.365  37.736  31.221  1.00  0.00    -0.237 OA
ATOM     72  O   UNL A   1      44.073  38.293  30.483  1.00  0.00    -0.237 OA
ATOM     73  O   UNL A   1      44.486  37.611  32.817  1.00  0.00    -0.744 OA
ENDBRANCH  69  70
ENDBRANCH  48  62
BRANCH  49  74
ATOM     74  C   UNL A   1      42.489  23.748  27.549  1.00  0.00     0.058 A 
ATOM     75  C   UNL A   1      42.338  23.470  26.185  1.00  0.00     0.135 A 
ATOM     76  C   UNL A   1      42.434  22.671  28.450  1.00  0.00     0.135 A 
ATOM     77  F   UNL A   1      42.371  24.467  25.289  1.00  0.00    -0.206 F 
ATOM     78  C   UNL A   1      42.155  22.169  25.725  1.00  0.00     0.059 A 
ATOM     79  C   UNL A   1      42.279  21.361  28.013  1.00  0.00     0.059 A 
ATOM     80  F   UNL A   1      42.590  22.887  29.766  1.00  0.00    -0.206 F 
ATOM     81  C   UNL A   1      42.140  21.120  26.647  1.00  0.00     0.060 A 
BRANCH  81  82
ATOM     82  S   UNL A   1      42.013  19.425  26.036  1.00  0.00     0.124 S 
ATOM     83  O   UNL A   1      42.503  18.664  27.179  1.00  0.00    -0.237 OA
ATOM     84  O   UNL A   1      40.586  19.305  25.752  1.00  0.00    -0.237 OA
ATOM     85  O   UNL A   1      42.878  19.429  24.860  1.00  0.00    -0.744 OA
ENDBRANCH  81  82
ENDBRANCH  49  74
BRANCH  61  86
ATOM     86  C   UNL A   1      48.328  27.504  28.206  1.00  0.00     0.058 A 
ATOM     87  C   UNL A   1      49.096  26.919  29.225  1.00  0.00     0.135 A 
ATOM     88  C   UNL A   1      48.947  27.737  26.967  1.00  0.00     0.135 A 
ATOM     89  F   UNL A   1      48.555  26.686  30.431  1.00  0.00    -0.206 F 
ATOM     90  C   UNL A   1      50.433  26.590  29.026  1.00  0.00     0.059 A 
ATOM     91  C   UNL A   1      50.277  27.398  26.741  1.00  0.00     0.059 A 
ATOM     92  F   UNL A   1      48.253  28.291  25.960  1.00  0.00    -0.206 F 
ATOM     93  C   UNL A   1      51.014  26.833  27.780  1.00  0.00     0.060 A 
BRANCH  93  94
ATOM     94  S   UNL A   1      52.740  26.369  27.520  1.00  0.00     0.124 S 
ATOM     95  O   UNL A   1      52.600  25.092  26.828  1.00  0.00    -0.237 OA
ATOM     96  O   UNL A   1      53.245  27.475  26.712  1.00  0.00    -0.237 OA
ATOM     97  O   UNL A   1      53.279  26.294  28.874  1.00  0.00    -0.744 OA
ENDBRANCH  93  94
ENDBRANCH  61  86
ENDBRANCH  35  36
ENDBRANCH  28  30
ENDBRANCH  27  28
ENDBRANCH  26  27
ENDBRANCH   1  26
TORSDOF 18
ENDMDL
MODEL 3
REMARK VINA RESULT:     -10.5      3.134      5.683
REMARK SMILES C[NH+]1CCC(C[N@H+](C)[C@H]2CC[C@]([NH3+])(C(=O)OCCOC(=O)c3ccc(-c4c5nc(c(-c6c(F)cc(S(=O)(=O)[O-])cc6F)c6ccc([nH]6)c(-c6c(F)cc(S(=O)(=O)[O-])cc6F)c6nc(c(-c7c(F)cc(S(=O)(=O)[O-])cc7F)c7ccc4[nH]7)C=C6)C=C5)cc3)C2)CC1
REMARK SMILES IDX 17 1 16 2 14 3 15 4 12 5 9 6 10 7 88 8 11 9 7 10 8 11 6 13
REMARK SMILES IDX 5 14 1 15 2 16 3 17 90 18 4 20 89 21 13 22 18 26 19 27 20 28
REMARK SMILES IDX 21 29 22 30 23 31 87 32 24 33 86 34 25 35 26 36 27 37 80 38
REMARK SMILES IDX 28 39 85 40 79 41 81 42 29 43 84 44 78 45 77 46 30 48 64 49
REMARK SMILES IDX 43 50 63 51 44 52 47 53 62 54 82 55 45 56 46 57 61 59 83 60
REMARK SMILES IDX 48 61 31 62 32 63 41 64 33 65 34 66 40 67 42 68 35 69 36 70
REMARK SMILES IDX 37 71 38 72 39 73 65 74 66 75 75 76 67 77 68 78 74 79 76 80
REMARK SMILES IDX 69 81 70 82 71 83 72 84 73 85 49 86 50 87 59 88 51 89 52 90
REMARK SMILES IDX 58 91 60 92 53 93 54 94 55 95 56 96 57 97
REMARK H PARENT 7 12 2 19 13 23 13 24 13 25 81 47 47 58
REMARK Flexibility Score: inf
ROOT
ATOM      1  C   UNL A   1      33.051  33.657  28.079  1.00  0.00     0.274 C 
ENDROOT
BRANCH   1   2
ATOM      2  O   UNL A   1      34.227  34.005  28.828  1.00  0.00    -0.457 OA
BRANCH   2   3
ATOM      3  C   UNL A   1      34.026  34.369  30.138  1.00  0.00     0.368 C 
ATOM      4  O   UNL A   1      33.110  35.066  30.537  1.00  0.00    -0.245 OA
BRANCH   3   5
ATOM      5  C   UNL A   1      35.070  33.629  31.020  1.00  0.00     0.198 C 
ATOM      6  C   UNL A   1      36.987  34.213  32.515  1.00  0.00     0.191 C 
ATOM      7  C   UNL A   1      37.540  33.646  31.203  1.00  0.00     0.072 C 
ATOM      8  C   UNL A   1      35.465  34.389  32.304  1.00  0.00     0.145 C 
ATOM      9  C   UNL A   1      36.379  33.464  30.236  1.00  0.00     0.087 C 
BRANCH   6  10
ATOM     10  N   UNL A   1      37.575  33.516  33.688  1.00  0.00    -0.334 N 
ATOM     11  C   UNL A   1      37.106  34.143  34.936  1.00  0.00     0.332 C 
ATOM     12  H   UNL A   1      38.573  33.629  33.512  1.00  0.00     0.348 HD
BRANCH  10  13
ATOM     13  C   UNL A   1      37.401  32.054  33.821  1.00  0.00     0.266 C 
BRANCH  13  14
ATOM     14  C   UNL A   1      38.668  31.196  33.790  1.00  0.00     0.055 C 
ATOM     15  C   UNL A   1      42.332  29.161  33.772  1.00  0.00     0.332 C 
ATOM     16  N   UNL A   1      41.260  29.988  33.204  1.00  0.00    -0.337 N 
ATOM     17  C   UNL A   1      41.171  31.239  33.968  1.00  0.00     0.262 C 
ATOM     18  C   UNL A   1      40.004  29.223  33.132  1.00  0.00     0.262 C 
ATOM     19  H   UNL A   1      41.466  30.249  32.240  1.00  0.00     0.347 HD
ATOM     20  C   UNL A   1      39.925  32.064  33.650  1.00  0.00     0.071 C 
ATOM     21  C   UNL A   1      38.775  30.078  32.757  1.00  0.00     0.071 C 
ENDBRANCH  13  14
ENDBRANCH  10  13
ENDBRANCH   6  10
BRANCH   5  22
ATOM     22  N   UNL A   1      34.442  32.344  31.346  1.00  0.00    -0.343 N 
ATOM     23  H   UNL A   1      35.162  31.668  31.600  1.00  0.00     0.345 HD
ATOM     24  H   UNL A   1      33.925  32.002  30.536  1.00  0.00     0.345 HD
ATOM     25  H   UNL A   1      33.801  32.468  32.130  1.00  0.00     0.345 HD
ENDBRANCH   5  22
ENDBRANCH   3   5
ENDBRANCH   2   3
ENDBRANCH   1   2
BRANCH   1  26
ATOM     26  C   UNL A   1      33.251  32.254  27.495  1.00  0.00     0.275 C 
BRANCH  26  27
ATOM     27  O   UNL A   1      33.969  31.425  28.430  1.00  0.00    -0.458 OA
BRANCH  27  28
ATOM     28  C   UNL A   1      34.289  30.190  27.967  1.00  0.00     0.338 C 
ATOM     29  O   UNL A   1      33.532  29.420  27.390  1.00  0.00    -0.246 OA
BRANCH  28  30
ATOM     30  C   UNL A   1      35.702  29.838  28.266  1.00  0.00     0.060 A 
ATOM     31  C   UNL A   1      36.115  29.413  29.530  1.00  0.00     0.016 A 
ATOM     32  C   UNL A   1      36.659  30.017  27.263  1.00  0.00     0.016 A 
ATOM     33  C   UNL A   1      37.477  29.250  29.811  1.00  0.00     0.010 A 
ATOM     34  C   UNL A   1      38.007  29.735  27.516  1.00  0.00     0.010 A 
ATOM     35  C   UNL A   1      38.442  29.359  28.798  1.00  0.00    -0.014 A 
BRANCH  35  36
ATOM     36  C   UNL A   1      39.885  29.032  29.026  1.00  0.00     0.031 A 
ATOM     37  C   UNL A   1      40.867  30.110  29.417  1.00  0.00     0.074 A 
ATOM     38  C   UNL A   1      40.351  27.787  28.790  1.00  0.00     0.049 A 
ATOM     39  N   UNL A   1      42.174  30.116  29.324  1.00  0.00    -0.248 NA
ATOM     40  C   UNL A   1      40.300  31.350  29.967  1.00  0.00     0.031 C 
ATOM     41  C   UNL A   1      39.536  26.622  28.439  1.00  0.00     0.029 A 
ATOM     42  N   UNL A   1      41.638  27.299  28.775  1.00  0.00    -0.354 N 
ATOM     43  C   UNL A   1      42.583  31.378  29.744  1.00  0.00     0.074 A 
ATOM     44  C   UNL A   1      41.382  32.108  30.100  1.00  0.00     0.031 C 
ATOM     45  C   UNL A   1      40.332  25.562  28.250  1.00  0.00     0.029 A 
ATOM     46  C   UNL A   1      41.721  25.992  28.356  1.00  0.00     0.049 A 
ATOM     47  H   UNL A   1      42.422  27.833  29.039  1.00  0.00     0.167 HD
ATOM     48  C   UNL A   1      43.840  31.884  29.815  1.00  0.00     0.037 A 
ATOM     49  C   UNL A   1      42.779  25.231  28.014  1.00  0.00     0.037 A 
ATOM     50  C   UNL A   1      45.034  31.138  29.504  1.00  0.00     0.049 A 
ATOM     51  C   UNL A   1      44.159  25.812  28.062  1.00  0.00     0.074 A 
ATOM     52  C   UNL A   1      46.353  31.560  29.557  1.00  0.00     0.029 A 
ATOM     53  N   UNL A   1      45.060  29.813  29.095  1.00  0.00    -0.354 N 
ATOM     54  N   UNL A   1      44.526  27.028  28.387  1.00  0.00    -0.248 NA
ATOM     55  C   UNL A   1      45.268  24.926  27.682  1.00  0.00     0.031 C 
ATOM     56  C   UNL A   1      47.173  30.500  29.153  1.00  0.00     0.029 A 
ATOM     57  C   UNL A   1      46.368  29.404  28.888  1.00  0.00     0.049 A 
ATOM     58  H   UNL A   1      44.265  29.246  28.971  1.00  0.00     0.167 HD
ATOM     59  C   UNL A   1      45.910  27.051  28.262  1.00  0.00     0.074 A 
ATOM     60  C   UNL A   1      46.316  25.725  27.841  1.00  0.00     0.031 C 
ATOM     61  C   UNL A   1      46.764  28.081  28.475  1.00  0.00     0.037 A 
BRANCH  48  62
ATOM     62  C   UNL A   1      43.995  33.327  30.217  1.00  0.00     0.058 A 
ATOM     63  C   UNL A   1      44.176  33.715  31.552  1.00  0.00     0.135 A 
ATOM     64  C   UNL A   1      44.005  34.335  29.237  1.00  0.00     0.135 A 
ATOM     65  F   UNL A   1      44.165  32.795  32.531  1.00  0.00    -0.206 F 
ATOM     66  C   UNL A   1      44.331  35.053  31.907  1.00  0.00     0.059 A 
ATOM     67  C   UNL A   1      44.183  35.676  29.566  1.00  0.00     0.059 A 
ATOM     68  F   UNL A   1      43.842  34.021  27.942  1.00  0.00    -0.206 F 
ATOM     69  C   UNL A   1      44.329  36.026  30.907  1.00  0.00     0.060 A 
BRANCH  69  70
ATOM     70  S   UNL A   1      44.527  37.760  31.379  1.00  0.00     0.124 S 
ATOM     71  O   UNL A   1      43.820  38.437  30.297  1.00  0.00    -0.237 OA
ATOM     72  O   UNL A   1      43.878  37.807  32.686  1.00  0.00    -0.237 OA
ATOM     73  O   UNL A   1      45.975  37.944  31.395  1.00  0.00    -0.744 OA
ENDBRANCH  69  70
ENDBRANCH  48  62
BRANCH  49  74
ATOM     74  C   UNL A   1      42.544  23.844  27.531  1.00  0.00     0.058 A 
ATOM     75  C   UNL A   1      42.441  23.566  26.162  1.00  0.00     0.135 A 
ATOM     76  C   UNL A   1      42.498  22.764  28.428  1.00  0.00     0.135 A 
ATOM     77  F   UNL A   1      42.468  24.566  25.270  1.00  0.00    -0.206 F 
ATOM     78  C   UNL A   1      42.314  22.262  25.694  1.00  0.00     0.059 A 
ATOM     79  C   UNL A   1      42.398  21.450  27.984  1.00  0.00     0.059 A 
ATOM     80  F   UNL A   1      42.608  22.980  29.748  1.00  0.00    -0.206 F 
ATOM     81  C   UNL A   1      42.306  21.210  26.614  1.00  0.00     0.060 A 
BRANCH  81  82
ATOM     82  S   UNL A   1      42.251  19.514  25.995  1.00  0.00     0.124 S 
ATOM     83  O   UNL A   1      40.845  19.381  25.629  1.00  0.00    -0.237 OA
ATOM     84  O   UNL A   1      43.198  19.558  24.885  1.00  0.00    -0.237 OA
ATOM     85  O   UNL A   1      42.683  18.724  27.145  1.00  0.00    -0.744 OA
ENDBRANCH  81  82
ENDBRANCH  49  74
BRANCH  61  86
ATOM     86  C   UNL A   1      48.230  27.807  28.301  1.00  0.00     0.058 A 
ATOM     87  C   UNL A   1      48.885  28.047  27.083  1.00  0.00     0.135 A 
ATOM     88  C   UNL A   1      48.998  27.342  29.380  1.00  0.00     0.135 A 
ATOM     89  F   UNL A   1      48.194  28.482  26.018  1.00  0.00    -0.206 F 
ATOM     90  C   UNL A   1      50.250  27.820  26.938  1.00  0.00     0.059 A 
ATOM     91  C   UNL A   1      50.367  27.126  29.263  1.00  0.00     0.059 A 
ATOM     92  F   UNL A   1      48.418  27.102  30.567  1.00  0.00    -0.206 F 
ATOM     93  C   UNL A   1      50.983  27.360  28.034  1.00  0.00     0.060 A 
BRANCH  93  94
ATOM     94  S   UNL A   1      52.761  27.103  27.846  1.00  0.00     0.124 S 
ATOM     95  O   UNL A   1      52.994  27.630  26.506  1.00  0.00    -0.237 OA
ATOM     96  O   UNL A   1      53.310  27.895  28.943  1.00  0.00    -0.237 OA
ATOM     97  O   UNL A   1      52.911  25.658  27.988  1.00  0.00    -0.744 OA
ENDBRANCH  93  94
ENDBRANCH  61  86
ENDBRANCH  35  36
ENDBRANCH  28  30
ENDBRANCH  27  28
ENDBRANCH  26  27
ENDBRANCH   1  26
TORSDOF 18
ENDMDL
