MODEL 1
REMARK VINA RESULT:     -10.7      0.000      0.000
REMARK SMILES CC[C@H](C)[C@@H](NC(=O)c1csc(NC(C)=O)n1)C(=O)OCCOC(=O)c1ccc(-c2c3nc(c(-c4c(F)cc(S(=O)(=O)[O-])cc4F)c4ccc([nH]4)c(-c4c(F)cc(S(=O)(=O)[O-])cc4F)c4nc(c(-c5c(F)cc(S(=O)(=O)[O-])cc5F)c5ccc2[nH]5)C=C4)C=C3)cc1
REMARK SMILES IDX 21 1 20 2 18 3 19 4 5 5 3 6 4 7 2 8 1 9 6 10 7 11 8 13 9 14
REMARK SMILES IDX 10 15 17 16 11 17 12 18 13 19 14 20 15 22 16 23 22 24 23 25
REMARK SMILES IDX 24 26 25 27 26 28 27 29 91 30 28 31 90 32 29 33 30 34 31 35
REMARK SMILES IDX 84 36 32 37 89 38 83 39 85 40 33 41 88 42 82 43 81 44 34 46
REMARK SMILES IDX 68 47 47 48 67 49 48 50 51 51 66 52 86 53 49 54 50 55 65 57
REMARK SMILES IDX 87 58 52 59 35 60 36 61 45 62 37 63 38 64 44 65 46 66 39 67
REMARK SMILES IDX 40 68 41 69 42 70 43 71 69 72 70 73 79 74 71 75 72 76 78 77
REMARK SMILES IDX 80 78 73 79 74 80 75 81 76 82 77 83 53 84 54 85 63 86 55 87
REMARK SMILES IDX 56 88 62 89 64 90 57 91 58 92 59 93 60 94 61 95
REMARK H PARENT 6 12 13 21 85 45 51 56
REMARK Flexibility Score: inf
ROOT
ATOM      1  C   UNL A   1      32.084  28.701  27.325  1.00  0.00     0.274 C 
ENDROOT
BRANCH   1   2
ATOM      2  O   UNL A   1      31.690  28.542  25.945  1.00  0.00    -0.461 OA
BRANCH   2   3
ATOM      3  C   UNL A   1      31.912  27.312  25.407  1.00  0.00     0.329 C 
ATOM      4  O   UNL A   1      32.493  26.401  25.986  1.00  0.00    -0.250 OA
BRANCH   3   5
ATOM      5  C   UNL A   1      31.358  27.147  23.981  1.00  0.00     0.195 C 
BRANCH   5   6
ATOM      6  C   UNL A   1      30.354  28.306  23.633  1.00  0.00     0.019 C 
ATOM      7  C   UNL A   1      30.893  29.206  22.503  1.00  0.00     0.010 C 
BRANCH   6   8
ATOM      8  C   UNL A   1      28.947  27.812  23.217  1.00  0.00     0.002 C 
ATOM      9  C   UNL A   1      28.508  26.560  23.967  1.00  0.00     0.004 C 
ENDBRANCH   6   8
ENDBRANCH   5   6
BRANCH   5  10
ATOM     10  N   UNL A   1      32.369  27.029  22.900  1.00  0.00    -0.337 N 
ATOM     11  C   UNL A   1      32.942  25.968  22.240  1.00  0.00     0.271 C 
ATOM     12  H   UNL A   1      32.702  27.901  22.588  1.00  0.00     0.164 HD
ATOM     13  O   UNL A   1      33.475  26.201  21.154  1.00  0.00    -0.267 OA
BRANCH  11  14
ATOM     14  C   UNL A   1      33.104  24.682  22.904  1.00  0.00     0.141 A 
ATOM     15  C   UNL A   1      32.219  23.634  22.711  1.00  0.00     0.102 A 
ATOM     16  N   UNL A   1      34.136  24.390  23.775  1.00  0.00    -0.215 NA
ATOM     17  S   UNL A   1      32.813  22.219  23.470  1.00  0.00    -0.104 S 
ATOM     18  C   UNL A   1      34.178  23.094  23.988  1.00  0.00     0.190 A 
BRANCH  18  19
ATOM     19  N   UNL A   1      35.305  22.505  24.506  1.00  0.00    -0.302 N 
ATOM     20  C   UNL A   1      36.532  22.416  23.891  1.00  0.00     0.223 C 
ATOM     21  H   UNL A   1      35.227  22.108  25.404  1.00  0.00     0.172 HD
ATOM     22  C   UNL A   1      37.618  21.903  24.805  1.00  0.00     0.114 C 
ATOM     23  O   UNL A   1      36.815  22.763  22.747  1.00  0.00    -0.275 OA
ENDBRANCH  18  19
ENDBRANCH  11  14
ENDBRANCH   5  10
ENDBRANCH   3   5
ENDBRANCH   2   3
ENDBRANCH   1   2
BRANCH   1  24
ATOM     24  C   UNL A   1      33.560  29.048  27.575  1.00  0.00     0.275 C 
BRANCH  24  25
ATOM     25  O   UNL A   1      33.827  30.461  27.480  1.00  0.00    -0.458 OA
BRANCH  25  26
ATOM     26  C   UNL A   1      34.637  30.965  28.442  1.00  0.00     0.338 C 
ATOM     27  O   UNL A   1      34.363  31.840  29.245  1.00  0.00    -0.246 OA
BRANCH  26  28
ATOM     28  C   UNL A   1      35.918  30.235  28.489  1.00  0.00     0.060 A 
ATOM     29  C   UNL A   1      36.385  29.772  29.725  1.00  0.00     0.016 A 
ATOM     30  C   UNL A   1      36.733  30.162  27.360  1.00  0.00     0.016 A 
ATOM     31  C   UNL A   1      37.672  29.256  29.850  1.00  0.00     0.010 A 
ATOM     32  C   UNL A   1      38.029  29.652  27.487  1.00  0.00     0.010 A 
ATOM     33  C   UNL A   1      38.514  29.227  28.738  1.00  0.00    -0.014 A 
BRANCH  33  34
ATOM     34  C   UNL A   1      39.948  28.900  28.914  1.00  0.00     0.031 A 
ATOM     35  C   UNL A   1      40.879  29.972  29.408  1.00  0.00     0.074 A 
ATOM     36  C   UNL A   1      40.410  27.663  28.660  1.00  0.00     0.049 A 
ATOM     37  N   UNL A   1      42.183  29.964  29.488  1.00  0.00    -0.248 NA
ATOM     38  C   UNL A   1      40.252  31.220  29.874  1.00  0.00     0.031 C 
ATOM     39  C   UNL A   1      39.591  26.518  28.267  1.00  0.00     0.029 A 
ATOM     40  N   UNL A   1      41.690  27.168  28.690  1.00  0.00    -0.354 N 
ATOM     41  C   UNL A   1      42.537  31.215  29.981  1.00  0.00     0.074 A 
ATOM     42  C   UNL A   1      41.310  31.954  30.185  1.00  0.00     0.031 C 
ATOM     43  C   UNL A   1      40.392  25.456  28.067  1.00  0.00     0.029 A 
ATOM     44  C   UNL A   1      41.780  25.861  28.273  1.00  0.00     0.049 A 
ATOM     45  H   UNL A   1      42.467  27.698  28.979  1.00  0.00     0.167 HD
ATOM     46  C   UNL A   1      43.775  31.702  30.232  1.00  0.00     0.037 A 
ATOM     47  C   UNL A   1      42.865  25.096  28.043  1.00  0.00     0.037 A 
ATOM     48  C   UNL A   1      44.988  30.951  30.042  1.00  0.00     0.049 A 
ATOM     49  C   UNL A   1      44.237  25.681  28.258  1.00  0.00     0.074 A 
ATOM     50  C   UNL A   1      46.294  31.352  30.260  1.00  0.00     0.029 A 
ATOM     51  N   UNL A   1      45.042  29.642  29.587  1.00  0.00    -0.354 N 
ATOM     52  N   UNL A   1      44.564  26.880  28.682  1.00  0.00    -0.248 NA
ATOM     53  C   UNL A   1      45.384  24.817  27.951  1.00  0.00     0.031 C 
ATOM     54  C   UNL A   1      47.140  30.295  29.907  1.00  0.00     0.029 A 
ATOM     55  C   UNL A   1      46.359  29.224  29.504  1.00  0.00     0.049 A 
ATOM     56  H   UNL A   1      44.259  29.091  29.358  1.00  0.00     0.167 HD
ATOM     57  C   UNL A   1      45.954  26.906  28.710  1.00  0.00     0.074 A 
ATOM     58  C   UNL A   1      46.406  25.602  28.269  1.00  0.00     0.031 C 
ATOM     59  C   UNL A   1      46.784  27.917  29.070  1.00  0.00     0.037 A 
BRANCH  46  60
ATOM     60  C   UNL A   1      43.878  33.127  30.694  1.00  0.00     0.058 A 
ATOM     61  C   UNL A   1      43.931  34.199  29.790  1.00  0.00     0.135 A 
ATOM     62  C   UNL A   1      43.906  33.423  32.067  1.00  0.00     0.135 A 
ATOM     63  F   UNL A   1      43.929  33.968  28.468  1.00  0.00    -0.206 F 
ATOM     64  C   UNL A   1      44.034  35.514  30.231  1.00  0.00     0.059 A 
ATOM     65  C   UNL A   1      43.988  34.732  32.530  1.00  0.00     0.059 A 
ATOM     66  F   UNL A   1      43.865  32.433  32.971  1.00  0.00    -0.206 F 
ATOM     67  C   UNL A   1      44.065  35.770  31.603  1.00  0.00     0.060 A 
BRANCH  67  68
ATOM     68  S   UNL A   1      44.202  37.482  32.163  1.00  0.00     0.124 S 
ATOM     69  O   UNL A   1      43.257  37.498  33.275  1.00  0.00    -0.237 OA
ATOM     70  O   UNL A   1      45.612  37.582  32.528  1.00  0.00    -0.237 OA
ATOM     71  O   UNL A   1      43.806  38.255  30.990  1.00  0.00    -0.744 OA
ENDBRANCH  67  68
ENDBRANCH  46  60
BRANCH  47  72
ATOM     72  C   UNL A   1      42.702  23.708  27.540  1.00  0.00     0.058 A 
ATOM     73  C   UNL A   1      42.513  22.635  28.423  1.00  0.00     0.135 A 
ATOM     74  C   UNL A   1      42.732  23.427  26.164  1.00  0.00     0.135 A 
ATOM     75  F   UNL A   1      42.491  22.853  29.747  1.00  0.00    -0.206 F 
ATOM     76  C   UNL A   1      42.367  21.331  27.963  1.00  0.00     0.059 A 
ATOM     77  C   UNL A   1      42.566  22.134  25.679  1.00  0.00     0.059 A 
ATOM     78  F   UNL A   1      42.903  24.420  25.278  1.00  0.00    -0.206 F 
ATOM     79  C   UNL A   1      42.393  21.090  26.587  1.00  0.00     0.060 A 
BRANCH  79  80
ATOM     80  S   UNL A   1      42.151  19.402  25.993  1.00  0.00     0.124 S 
ATOM     81  O   UNL A   1      42.955  19.401  24.777  1.00  0.00    -0.237 OA
ATOM     82  O   UNL A   1      42.668  18.607  27.103  1.00  0.00    -0.237 OA
ATOM     83  O   UNL A   1      40.706  19.322  25.797  1.00  0.00    -0.744 OA
ENDBRANCH  79  80
ENDBRANCH  47  72
BRANCH  59  84
ATOM     84  C   UNL A   1      48.260  27.643  29.033  1.00  0.00     0.058 A 
ATOM     85  C   UNL A   1      48.917  27.016  30.102  1.00  0.00     0.135 A 
ATOM     86  C   UNL A   1      49.013  27.962  27.892  1.00  0.00     0.135 A 
ATOM     87  F   UNL A   1      48.242  26.696  31.217  1.00  0.00    -0.206 F 
ATOM     88  C   UNL A   1      50.277  26.730  30.049  1.00  0.00     0.059 A 
ATOM     89  C   UNL A   1      50.369  27.666  27.809  1.00  0.00     0.059 A 
ATOM     90  F   UNL A   1      48.427  28.552  26.839  1.00  0.00    -0.206 F 
ATOM     91  C   UNL A   1      50.996  27.060  28.897  1.00  0.00     0.060 A 
BRANCH  91  92
ATOM     92  S   UNL A   1      52.753  26.653  28.821  1.00  0.00     0.124 S 
ATOM     93  O   UNL A   1      52.783  25.691  27.725  1.00  0.00    -0.237 OA
ATOM     94  O   UNL A   1      53.365  27.949  28.544  1.00  0.00    -0.237 OA
ATOM     95  O   UNL A   1      53.032  26.107  30.146  1.00  0.00    -0.744 OA
ENDBRANCH  91  92
ENDBRANCH  59  84
ENDBRANCH  33  34
ENDBRANCH  26  28
ENDBRANCH  25  26
ENDBRANCH  24  25
ENDBRANCH   1  24
TORSDOF 19
ENDMDL
MODEL 2
REMARK VINA RESULT:     -10.5      1.036      2.307
REMARK SMILES CC[C@H](C)[C@@H](NC(=O)c1csc(NC(C)=O)n1)C(=O)OCCOC(=O)c1ccc(-c2c3nc(c(-c4c(F)cc(S(=O)(=O)[O-])cc4F)c4ccc([nH]4)c(-c4c(F)cc(S(=O)(=O)[O-])cc4F)c4nc(c(-c5c(F)cc(S(=O)(=O)[O-])cc5F)c5ccc2[nH]5)C=C4)C=C3)cc1
REMARK SMILES IDX 21 1 20 2 18 3 19 4 5 5 3 6 4 7 2 8 1 9 6 10 7 11 8 13 9 14
REMARK SMILES IDX 10 15 17 16 11 17 12 18 13 19 14 20 15 22 16 23 22 24 23 25
REMARK SMILES IDX 24 26 25 27 26 28 27 29 91 30 28 31 90 32 29 33 30 34 31 35
REMARK SMILES IDX 84 36 32 37 89 38 83 39 85 40 33 41 88 42 82 43 81 44 34 46
REMARK SMILES IDX 68 47 47 48 67 49 48 50 51 51 66 52 86 53 49 54 50 55 65 57
REMARK SMILES IDX 87 58 52 59 35 60 36 61 45 62 37 63 38 64 44 65 46 66 39 67
REMARK SMILES IDX 40 68 41 69 42 70 43 71 69 72 70 73 79 74 71 75 72 76 78 77
REMARK SMILES IDX 80 78 73 79 74 80 75 81 76 82 77 83 53 84 54 85 63 86 55 87
REMARK SMILES IDX 56 88 62 89 64 90 57 91 58 92 59 93 60 94 61 95
REMARK H PARENT 6 12 13 21 85 45 51 56
REMARK Flexibility Score: inf
ROOT
ATOM      1  C   UNL A   1      32.439  28.701  26.768  1.00  0.00     0.274 C 
ENDROOT
BRANCH   1   2
ATOM      2  O   UNL A   1      32.358  29.347  25.479  1.00  0.00    -0.461 OA
BRANCH   2   3
ATOM      3  C   UNL A   1      33.019  28.726  24.466  1.00  0.00     0.329 C 
ATOM      4  O   UNL A   1      34.162  29.002  24.117  1.00  0.00    -0.250 OA
BRANCH   3   5
ATOM      5  C   UNL A   1      32.204  27.618  23.777  1.00  0.00     0.195 C 
BRANCH   5   6
ATOM      6  C   UNL A   1      30.750  28.117  23.443  1.00  0.00     0.019 C 
ATOM      7  C   UNL A   1      30.747  29.111  22.265  1.00  0.00     0.010 C 
BRANCH   6   8
ATOM      8  C   UNL A   1      29.758  26.977  23.107  1.00  0.00     0.002 C 
ATOM      9  C   UNL A   1      29.112  26.364  24.343  1.00  0.00     0.004 C 
ENDBRANCH   6   8
ENDBRANCH   5   6
BRANCH   5  10
ATOM     10  N   UNL A   1      32.813  27.023  22.560  1.00  0.00    -0.337 N 
ATOM     11  C   UNL A   1      32.891  25.747  22.058  1.00  0.00     0.271 C 
ATOM     12  H   UNL A   1      33.258  27.689  21.989  1.00  0.00     0.164 HD
ATOM     13  O   UNL A   1      33.146  25.627  20.858  1.00  0.00    -0.267 OA
BRANCH  11  14
ATOM     14  C   UNL A   1      32.897  24.597  22.952  1.00  0.00     0.141 A 
ATOM     15  C   UNL A   1      34.071  23.991  23.369  1.00  0.00     0.102 A 
ATOM     16  N   UNL A   1      31.753  24.010  23.460  1.00  0.00    -0.215 NA
ATOM     17  S   UNL A   1      33.729  22.814  24.565  1.00  0.00    -0.104 S 
ATOM     18  C   UNL A   1      32.075  23.194  24.438  1.00  0.00     0.190 A 
BRANCH  18  19
ATOM     19  N   UNL A   1      31.129  22.773  25.339  1.00  0.00    -0.302 N 
ATOM     20  C   UNL A   1      30.754  23.428  26.489  1.00  0.00     0.223 C 
ATOM     21  H   UNL A   1      30.676  21.920  25.144  1.00  0.00     0.172 HD
ATOM     22  C   UNL A   1      29.541  22.818  27.150  1.00  0.00     0.114 C 
ATOM     23  O   UNL A   1      31.251  24.448  26.957  1.00  0.00    -0.275 OA
ENDBRANCH  18  19
ENDBRANCH  11  14
ENDBRANCH   5  10
ENDBRANCH   3   5
ENDBRANCH   2   3
ENDBRANCH   1   2
BRANCH   1  24
ATOM     24  C   UNL A   1      33.628  29.102  27.656  1.00  0.00     0.275 C 
BRANCH  24  25
ATOM     25  O   UNL A   1      33.969  30.497  27.535  1.00  0.00    -0.458 OA
BRANCH  25  26
ATOM     26  C   UNL A   1      34.788  30.981  28.500  1.00  0.00     0.338 C 
ATOM     27  O   UNL A   1      34.526  31.849  29.315  1.00  0.00    -0.246 OA
BRANCH  26  28
ATOM     28  C   UNL A   1      36.061  30.237  28.533  1.00  0.00     0.060 A 
ATOM     29  C   UNL A   1      36.526  29.751  29.761  1.00  0.00     0.016 A 
ATOM     30  C   UNL A   1      36.873  30.173  27.402  1.00  0.00     0.016 A 
ATOM     31  C   UNL A   1      37.807  29.221  29.877  1.00  0.00     0.010 A 
ATOM     32  C   UNL A   1      38.165  29.648  27.519  1.00  0.00     0.010 A 
ATOM     33  C   UNL A   1      38.647  29.199  28.763  1.00  0.00    -0.014 A 
BRANCH  33  34
ATOM     34  C   UNL A   1      40.078  28.855  28.931  1.00  0.00     0.031 A 
ATOM     35  C   UNL A   1      41.025  29.916  29.420  1.00  0.00     0.074 A 
ATOM     36  C   UNL A   1      40.523  27.612  28.675  1.00  0.00     0.049 A 
ATOM     37  N   UNL A   1      42.329  29.892  29.494  1.00  0.00    -0.248 NA
ATOM     38  C   UNL A   1      40.415  31.171  29.889  1.00  0.00     0.031 C 
ATOM     39  C   UNL A   1      39.688  26.477  28.286  1.00  0.00     0.029 A 
ATOM     40  N   UNL A   1      41.797  27.101  28.698  1.00  0.00    -0.354 N 
ATOM     41  C   UNL A   1      42.701  31.138  29.984  1.00  0.00     0.074 A 
ATOM     42  C   UNL A   1      41.483  31.892  30.195  1.00  0.00     0.031 C 
ATOM     43  C   UNL A   1      40.476  25.406  28.083  1.00  0.00     0.029 A 
ATOM     44  C   UNL A   1      41.870  25.794  28.281  1.00  0.00     0.049 A 
ATOM     45  H   UNL A   1      42.582  27.622  28.983  1.00  0.00     0.167 HD
ATOM     46  C   UNL A   1      43.945  31.610  30.229  1.00  0.00     0.037 A 
ATOM     47  C   UNL A   1      42.944  25.016  28.045  1.00  0.00     0.037 A 
ATOM     48  C   UNL A   1      45.149  30.845  30.032  1.00  0.00     0.049 A 
ATOM     49  C   UNL A   1      44.324  25.584  28.253  1.00  0.00     0.074 A 
ATOM     50  C   UNL A   1      46.460  31.230  30.244  1.00  0.00     0.029 A 
ATOM     51  N   UNL A   1      45.184  29.535  29.578  1.00  0.00    -0.354 N 
ATOM     52  N   UNL A   1      44.668  26.779  28.675  1.00  0.00    -0.248 NA
ATOM     53  C   UNL A   1      45.459  24.707  27.940  1.00  0.00     0.031 C 
ATOM     54  C   UNL A   1      47.292  30.162  29.886  1.00  0.00     0.029 A 
ATOM     55  C   UNL A   1      46.495  29.101  29.487  1.00  0.00     0.049 A 
ATOM     56  H   UNL A   1      44.393  28.993  29.353  1.00  0.00     0.167 HD
ATOM     57  C   UNL A   1      46.059  26.788  28.696  1.00  0.00     0.074 A 
ATOM     58  C   UNL A   1      46.492  25.479  28.253  1.00  0.00     0.031 C 
ATOM     59  C   UNL A   1      46.902  27.789  29.051  1.00  0.00     0.037 A 
BRANCH  46  60
ATOM     60  C   UNL A   1      44.068  33.034  30.690  1.00  0.00     0.058 A 
ATOM     61  C   UNL A   1      44.097  33.374  32.051  1.00  0.00     0.135 A 
ATOM     62  C   UNL A   1      44.175  34.073  29.751  1.00  0.00     0.135 A 
ATOM     63  F   UNL A   1      43.976  32.420  32.988  1.00  0.00    -0.206 F 
ATOM     64  C   UNL A   1      44.203  34.697  32.466  1.00  0.00     0.059 A 
ATOM     65  C   UNL A   1      44.302  35.401  30.143  1.00  0.00     0.059 A 
ATOM     66  F   UNL A   1      44.145  33.801  28.438  1.00  0.00    -0.206 F 
ATOM     67  C   UNL A   1      44.302  35.704  31.504  1.00  0.00     0.060 A 
BRANCH  67  68
ATOM     68  S   UNL A   1      44.436  37.419  32.054  1.00  0.00     0.124 S 
ATOM     69  O   UNL A   1      43.838  38.131  30.930  1.00  0.00    -0.237 OA
ATOM     70  O   UNL A   1      43.658  37.416  33.289  1.00  0.00    -0.237 OA
ATOM     71  O   UNL A   1      45.874  37.609  32.224  1.00  0.00    -0.744 OA
ENDBRANCH  67  68
ENDBRANCH  46  60
BRANCH  47  72
ATOM     72  C   UNL A   1      42.762  23.630  27.543  1.00  0.00     0.058 A 
ATOM     73  C   UNL A   1      42.825  23.342  26.172  1.00  0.00     0.135 A 
ATOM     74  C   UNL A   1      42.521  22.565  28.425  1.00  0.00     0.135 A 
ATOM     75  F   UNL A   1      43.039  24.330  25.289  1.00  0.00    -0.206 F 
ATOM     76  C   UNL A   1      42.647  22.049  25.691  1.00  0.00     0.059 A 
ATOM     77  C   UNL A   1      42.363  21.260  27.970  1.00  0.00     0.059 A 
ATOM     78  F   UNL A   1      42.459  22.787  29.748  1.00  0.00    -0.206 F 
ATOM     79  C   UNL A   1      42.419  21.013  26.599  1.00  0.00     0.060 A 
BRANCH  79  80
ATOM     80  S   UNL A   1      42.241  19.328  25.973  1.00  0.00     0.124 S 
ATOM     81  O   UNL A   1      42.807  18.548  27.067  1.00  0.00    -0.237 OA
ATOM     82  O   UNL A   1      40.797  19.218  25.789  1.00  0.00    -0.237 OA
ATOM     83  O   UNL A   1      43.022  19.348  24.739  1.00  0.00    -0.744 OA
ENDBRANCH  79  80
ENDBRANCH  47  72
BRANCH  59  84
ATOM     84  C   UNL A   1      48.375  27.497  29.007  1.00  0.00     0.058 A 
ATOM     85  C   UNL A   1      49.146  27.781  27.871  1.00  0.00     0.135 A 
ATOM     86  C   UNL A   1      49.029  26.977  30.136  1.00  0.00     0.135 A 
ATOM     87  F   UNL A   1      48.566  28.274  26.765  1.00  0.00    -0.206 F 
ATOM     88  C   UNL A   1      50.516  27.543  27.848  1.00  0.00     0.059 A 
ATOM     89  C   UNL A   1      50.401  26.752  30.141  1.00  0.00     0.059 A 
ATOM     90  F   UNL A   1      48.335  26.699  31.250  1.00  0.00    -0.206 F 
ATOM     91  C   UNL A   1      51.135  27.027  28.988  1.00  0.00     0.060 A 
BRANCH  91  92
ATOM     92  S   UNL A   1      52.920  26.755  28.963  1.00  0.00     0.124 S 
ATOM     93  O   UNL A   1      53.422  28.119  28.845  1.00  0.00    -0.237 OA
ATOM     94  O   UNL A   1      53.157  26.100  30.247  1.00  0.00    -0.237 OA
ATOM     95  O   UNL A   1      53.116  25.908  27.791  1.00  0.00    -0.744 OA
ENDBRANCH  91  92
ENDBRANCH  59  84
ENDBRANCH  33  34
ENDBRANCH  26  28
ENDBRANCH  25  26
ENDBRANCH  24  25
ENDBRANCH   1  24
TORSDOF 19
ENDMDL
MODEL 3
REMARK VINA RESULT:     -10.4      3.747      9.949
REMARK SMILES CC[C@H](C)[C@@H](NC(=O)c1csc(NC(C)=O)n1)C(=O)OCCOC(=O)c1ccc(-c2c3nc(c(-c4c(F)cc(S(=O)(=O)[O-])cc4F)c4ccc([nH]4)c(-c4c(F)cc(S(=O)(=O)[O-])cc4F)c4nc(c(-c5c(F)cc(S(=O)(=O)[O-])cc5F)c5ccc2[nH]5)C=C4)C=C3)cc1
REMARK SMILES IDX 21 1 20 2 18 3 19 4 5 5 3 6 4 7 2 8 1 9 6 10 7 11 8 13 9 14
REMARK SMILES IDX 10 15 17 16 11 17 12 18 13 19 14 20 15 22 16 23 22 24 23 25
REMARK SMILES IDX 24 26 25 27 26 28 27 29 91 30 28 31 90 32 29 33 30 34 31 35
REMARK SMILES IDX 84 36 32 37 89 38 83 39 85 40 33 41 88 42 82 43 81 44 34 46
REMARK SMILES IDX 68 47 47 48 67 49 48 50 51 51 66 52 86 53 49 54 50 55 65 57
REMARK SMILES IDX 87 58 52 59 35 60 36 61 45 62 37 63 38 64 44 65 46 66 39 67
REMARK SMILES IDX 40 68 41 69 42 70 43 71 69 72 70 73 79 74 71 75 72 76 78 77
REMARK SMILES IDX 80 78 73 79 74 80 75 81 76 82 77 83 53 84 54 85 63 86 55 87
REMARK SMILES IDX 56 88 62 89 64 90 57 91 58 92 59 93 60 94 61 95
REMARK H PARENT 6 12 13 21 85 45 51 56
REMARK Flexibility Score: inf
ROOT
ATOM      1  C   UNL A   1      36.972  21.110  24.869  1.00  0.00     0.274 C 
ENDROOT
BRANCH   1   2
ATOM      2  O   UNL A   1      35.999  22.174  24.781  1.00  0.00    -0.461 OA
BRANCH   2   3
ATOM      3  C   UNL A   1      34.933  22.069  25.619  1.00  0.00     0.329 C 
ATOM      4  O   UNL A   1      34.941  21.436  26.669  1.00  0.00    -0.250 OA
BRANCH   3   5
ATOM      5  C   UNL A   1      33.685  22.831  25.138  1.00  0.00     0.195 C 
BRANCH   5   6
ATOM      6  C   UNL A   1      32.845  21.954  24.137  1.00  0.00     0.019 C 
ATOM      7  C   UNL A   1      32.794  22.586  22.733  1.00  0.00     0.010 C 
BRANCH   6   8
ATOM      8  C   UNL A   1      33.364  20.504  23.988  1.00  0.00     0.002 C 
ATOM      9  C   UNL A   1      32.423  19.468  24.591  1.00  0.00     0.004 C 
ENDBRANCH   6   8
ENDBRANCH   5   6
BRANCH   5  10
ATOM     10  N   UNL A   1      32.794  23.356  26.202  1.00  0.00    -0.337 N 
ATOM     11  C   UNL A   1      32.044  24.499  26.342  1.00  0.00     0.271 C 
ATOM     12  H   UNL A   1      32.725  22.754  26.977  1.00  0.00     0.164 HD
ATOM     13  O   UNL A   1      31.135  24.479  27.174  1.00  0.00    -0.267 OA
BRANCH  11  14
ATOM     14  C   UNL A   1      32.455  25.739  25.698  1.00  0.00     0.141 A 
ATOM     15  C   UNL A   1      31.879  26.186  24.520  1.00  0.00     0.102 A 
ATOM     16  N   UNL A   1      33.443  26.571  26.189  1.00  0.00    -0.215 NA
ATOM     17  S   UNL A   1      32.445  27.760  24.153  1.00  0.00    -0.104 S 
ATOM     18  C   UNL A   1      33.396  27.726  25.564  1.00  0.00     0.190 A 
BRANCH  18  19
ATOM     19  N   UNL A   1      34.005  28.836  26.095  1.00  0.00    -0.302 N 
ATOM     20  C   UNL A   1      33.422  29.763  26.928  1.00  0.00     0.223 C 
ATOM     21  H   UNL A   1      34.950  28.983  25.856  1.00  0.00     0.172 HD
ATOM     22  C   UNL A   1      34.413  30.743  27.508  1.00  0.00     0.114 C 
ATOM     23  O   UNL A   1      32.245  29.814  27.272  1.00  0.00    -0.275 OA
ENDBRANCH  18  19
ENDBRANCH  11  14
ENDBRANCH   5  10
ENDBRANCH   3   5
ENDBRANCH   2   3
ENDBRANCH   1   2
BRANCH   1  24
ATOM     24  C   UNL A   1      38.230  21.407  25.702  1.00  0.00     0.275 C 
BRANCH  24  25
ATOM     25  O   UNL A   1      38.785  22.709  25.430  1.00  0.00    -0.458 OA
BRANCH  25  26
ATOM     26  C   UNL A   1      39.961  22.979  26.046  1.00  0.00     0.338 C 
ATOM     27  O   UNL A   1      40.984  22.317  25.994  1.00  0.00    -0.246 OA
BRANCH  26  28
ATOM     28  C   UNL A   1      39.907  24.280  26.739  1.00  0.00     0.060 A 
ATOM     29  C   UNL A   1      40.761  25.306  26.314  1.00  0.00     0.016 A 
ATOM     30  C   UNL A   1      39.155  24.432  27.903  1.00  0.00     0.016 A 
ATOM     31  C   UNL A   1      40.889  26.477  27.055  1.00  0.00     0.010 A 
ATOM     32  C   UNL A   1      39.290  25.605  28.653  1.00  0.00     0.010 A 
ATOM     33  C   UNL A   1      40.180  26.618  28.249  1.00  0.00    -0.014 A 
BRANCH  33  34
ATOM     34  C   UNL A   1      40.487  27.751  29.153  1.00  0.00     0.031 A 
ATOM     35  C   UNL A   1      41.729  27.687  29.997  1.00  0.00     0.074 A 
ATOM     36  C   UNL A   1      39.684  28.828  29.205  1.00  0.00     0.049 A 
ATOM     37  N   UNL A   1      42.116  28.477  30.963  1.00  0.00    -0.248 NA
ATOM     38  C   UNL A   1      42.660  26.583  29.709  1.00  0.00     0.031 C 
ATOM     39  C   UNL A   1      38.504  29.046  28.370  1.00  0.00     0.029 A 
ATOM     40  N   UNL A   1      39.740  29.941  30.006  1.00  0.00    -0.354 N 
ATOM     41  C   UNL A   1      43.316  27.949  31.423  1.00  0.00     0.074 A 
ATOM     42  C   UNL A   1      43.596  26.773  30.627  1.00  0.00     0.031 C 
ATOM     43  C   UNL A   1      37.932  30.212  28.719  1.00  0.00     0.029 A 
ATOM     44  C   UNL A   1      38.678  30.795  29.831  1.00  0.00     0.049 A 
ATOM     45  H   UNL A   1      40.470  30.110  30.645  1.00  0.00     0.167 HD
ATOM     46  C   UNL A   1      44.107  28.401  32.424  1.00  0.00     0.037 A 
ATOM     47  C   UNL A   1      38.327  31.898  30.521  1.00  0.00     0.037 A 
ATOM     48  C   UNL A   1      43.828  29.582  33.198  1.00  0.00     0.049 A 
ATOM     49  C   UNL A   1      39.181  32.343  31.680  1.00  0.00     0.074 A 
ATOM     50  C   UNL A   1      44.560  30.125  34.238  1.00  0.00     0.029 A 
ATOM     51  N   UNL A   1      42.726  30.403  33.014  1.00  0.00    -0.354 N 
ATOM     52  N   UNL A   1      40.292  31.812  32.137  1.00  0.00    -0.248 NA
ATOM     53  C   UNL A   1      38.729  33.526  32.424  1.00  0.00     0.031 C 
ATOM     54  C   UNL A   1      43.883  31.258  34.704  1.00  0.00     0.029 A 
ATOM     55  C   UNL A   1      42.749  31.440  33.929  1.00  0.00     0.049 A 
ATOM     56  H   UNL A   1      42.029  30.269  32.330  1.00  0.00     0.167 HD
ATOM     57  C   UNL A   1      40.679  32.609  33.209  1.00  0.00     0.074 A 
ATOM     58  C   UNL A   1      39.691  33.661  33.328  1.00  0.00     0.031 C 
ATOM     59  C   UNL A   1      41.757  32.482  34.023  1.00  0.00     0.037 A 
BRANCH  46  60
ATOM     60  C   UNL A   1      45.322  27.589  32.768  1.00  0.00     0.058 A 
ATOM     61  C   UNL A   1      46.573  27.839  32.182  1.00  0.00     0.135 A 
ATOM     62  C   UNL A   1      45.235  26.553  33.712  1.00  0.00     0.135 A 
ATOM     63  F   UNL A   1      46.704  28.803  31.257  1.00  0.00    -0.206 F 
ATOM     64  C   UNL A   1      47.689  27.074  32.503  1.00  0.00     0.059 A 
ATOM     65  C   UNL A   1      46.343  25.790  34.063  1.00  0.00     0.059 A 
ATOM     66  F   UNL A   1      44.060  26.270  34.296  1.00  0.00    -0.206 F 
ATOM     67  C   UNL A   1      47.564  26.049  33.442  1.00  0.00     0.060 A 
BRANCH  67  68
ATOM     68  S   UNL A   1      49.020  25.062  33.849  1.00  0.00     0.124 S 
ATOM     69  O   UNL A   1      49.474  25.707  35.076  1.00  0.00    -0.237 OA
ATOM     70  O   UNL A   1      48.459  23.724  34.007  1.00  0.00    -0.237 OA
ATOM     71  O   UNL A   1      49.886  25.240  32.687  1.00  0.00    -0.744 OA
ENDBRANCH  67  68
ENDBRANCH  46  60
BRANCH  47  72
ATOM     72  C   UNL A   1      37.086  32.634  30.166  1.00  0.00     0.058 A 
ATOM     73  C   UNL A   1      35.869  32.352  30.803  1.00  0.00     0.135 A 
ATOM     74  C   UNL A   1      37.094  33.634  29.181  1.00  0.00     0.135 A 
ATOM     75  F   UNL A   1      35.811  31.394  31.742  1.00  0.00    -0.206 F 
ATOM     76  C   UNL A   1      34.701  33.029  30.472  1.00  0.00     0.059 A 
ATOM     77  C   UNL A   1      35.942  34.340  28.849  1.00  0.00     0.059 A 
ATOM     78  F   UNL A   1      38.235  33.946  28.547  1.00  0.00    -0.206 F 
ATOM     79  C   UNL A   1      34.748  34.024  29.494  1.00  0.00     0.060 A 
BRANCH  79  80
ATOM     80  S   UNL A   1      33.238  34.937  29.105  1.00  0.00     0.124 S 
ATOM     81  O   UNL A   1      32.574  34.972  30.403  1.00  0.00    -0.237 OA
ATOM     82  O   UNL A   1      33.763  36.210  28.620  1.00  0.00    -0.237 OA
ATOM     83  O   UNL A   1      32.599  34.105  28.090  1.00  0.00    -0.744 OA
ENDBRANCH  79  80
ENDBRANCH  47  72
BRANCH  59  84
ATOM     84  C   UNL A   1      41.941  33.524  35.089  1.00  0.00     0.058 A 
ATOM     85  C   UNL A   1      42.749  34.651  34.883  1.00  0.00     0.135 A 
ATOM     86  C   UNL A   1      41.257  33.417  36.310  1.00  0.00     0.135 A 
ATOM     87  F   UNL A   1      43.428  34.795  33.733  1.00  0.00    -0.206 F 
ATOM     88  C   UNL A   1      42.887  35.632  35.859  1.00  0.00     0.059 A 
ATOM     89  C   UNL A   1      41.364  34.397  37.292  1.00  0.00     0.059 A 
ATOM     90  F   UNL A   1      40.464  32.362  36.551  1.00  0.00    -0.206 F 
ATOM     91  C   UNL A   1      42.191  35.496  37.062  1.00  0.00     0.060 A 
BRANCH  91  92
ATOM     92  S   UNL A   1      42.346  36.791  38.310  1.00  0.00     0.124 S 
ATOM     93  O   UNL A   1      43.156  37.780  37.606  1.00  0.00    -0.237 OA
ATOM     94  O   UNL A   1      40.956  37.165  38.551  1.00  0.00    -0.237 OA
ATOM     95  O   UNL A   1      43.006  36.112  39.421  1.00  0.00    -0.744 OA
ENDBRANCH  91  92
ENDBRANCH  59  84
ENDBRANCH  33  34
ENDBRANCH  26  28
ENDBRANCH  25  26
ENDBRANCH  24  25
ENDBRANCH   1  24
TORSDOF 19
ENDMDL
