MODEL 1
REMARK VINA RESULT:     -11.1      0.000      0.000
REMARK SMILES C[N@@H+]1CC[N@H+](Cc2ccc(C#CC(C)(C)O)s2)C[C@H]1C(=O)OCCOC(=O)c1ccc(-c2c3nc(c(-c4c(F)cc(S(=O)(=O)[O-])cc4F)c4ccc([nH]4)c(-c4c(F)cc(S(=O)(=O)[O-])cc4F)c4nc(c(-c5c(F)cc(S(=O)(=O)[O-])cc5F)c5ccc2[nH]5)C=C4)C=C3)cc1
REMARK SMILES IDX 23 1 22 2 20 3 21 4 19 5 1 6 2 7 3 8 4 10 18 11 5 12 6 14
REMARK SMILES IDX 7 15 8 16 17 17 9 18 10 19 11 20 12 21 13 22 14 23 15 24
REMARK SMILES IDX 16 25 24 27 25 28 26 29 27 30 28 31 29 32 93 33 30 34 92 35
REMARK SMILES IDX 31 36 32 37 33 38 86 39 34 40 91 41 85 42 87 43 35 44 90 45
REMARK SMILES IDX 84 46 83 47 36 49 70 50 49 51 69 52 50 53 53 54 68 55 88 56
REMARK SMILES IDX 51 57 52 58 67 60 89 61 54 62 37 63 38 64 47 65 39 66 40 67
REMARK SMILES IDX 46 68 48 69 41 70 42 71 43 72 44 73 45 74 71 75 72 76 81 77
REMARK SMILES IDX 73 78 74 79 80 80 82 81 75 82 76 83 77 84 78 85 79 86 55 87
REMARK SMILES IDX 56 88 65 89 57 90 58 91 64 92 66 93 59 94 60 95 61 96 62 97
REMARK SMILES IDX 63 98
REMARK H PARENT 2 9 5 13 16 26 87 48 53 59
REMARK Flexibility Score: inf
ROOT
ATOM      1  C   UNL A   1      33.139  29.919  27.081  1.00  0.00     0.274 C 
ENDROOT
BRANCH   1   2
ATOM      2  O   UNL A   1      33.189  29.721  25.650  1.00  0.00    -0.457 OA
BRANCH   2   3
ATOM      3  C   UNL A   1      31.983  29.632  25.032  1.00  0.00     0.371 C 
ATOM      4  O   UNL A   1      31.079  30.454  25.199  1.00  0.00    -0.245 OA
BRANCH   3   5
ATOM      5  C   UNL A   1      31.752  28.382  24.180  1.00  0.00     0.350 C 
ATOM      6  C   UNL A   1      30.195  29.225  22.476  1.00  0.00     0.333 C 
ATOM      7  N   UNL A   1      31.484  28.557  22.715  1.00  0.00    -0.316 N 
ATOM      8  C   UNL A   1      31.409  27.220  22.084  1.00  0.00     0.325 C 
ATOM      9  H   UNL A   1      32.235  29.127  22.326  1.00  0.00     0.348 HD
ATOM     10  C   UNL A   1      32.633  26.322  22.356  1.00  0.00     0.324 C 
ATOM     11  C   UNL A   1      33.013  27.508  24.429  1.00  0.00     0.341 C 
ATOM     12  N   UNL A   1      33.055  26.200  23.755  1.00  0.00    -0.320 N 
ATOM     13  H   UNL A   1      34.033  25.911  23.725  1.00  0.00     0.348 HD
BRANCH  12  14
ATOM     14  C   UNL A   1      32.475  25.085  24.512  1.00  0.00     0.310 C 
BRANCH  14  15
ATOM     15  C   UNL A   1      33.298  23.834  24.614  1.00  0.00     0.060 A 
ATOM     16  C   UNL A   1      34.667  23.682  24.495  1.00  0.00     0.022 A 
ATOM     17  S   UNL A   1      32.549  22.334  24.994  1.00  0.00    -0.126 S 
ATOM     18  C   UNL A   1      35.065  22.314  24.523  1.00  0.00     0.029 A 
ATOM     19  C   UNL A   1      33.998  21.472  24.741  1.00  0.00     0.077 A 
BRANCH  19  20
ATOM     20  C   UNL A   1      34.084  20.058  24.855  1.00  0.00    -0.053 C 
ATOM     21  C   UNL A   1      34.141  18.761  24.733  1.00  0.00    -0.063 C 
BRANCH  21  22
ATOM     22  C   UNL A   1      34.208  17.249  24.591  1.00  0.00     0.120 C 
ATOM     23  C   UNL A   1      33.113  16.596  25.429  1.00  0.00     0.056 C 
ATOM     24  C   UNL A   1      34.091  16.852  23.123  1.00  0.00     0.056 C 
BRANCH  22  25
ATOM     25  O   UNL A   1      35.452  16.811  25.089  1.00  0.00    -0.378 OA
ATOM     26  H   UNL A   1      36.162  17.339  24.693  1.00  0.00     0.212 HD
ENDBRANCH  22  25
ENDBRANCH  21  22
ENDBRANCH  19  20
ENDBRANCH  14  15
ENDBRANCH  12  14
ENDBRANCH   3   5
ENDBRANCH   2   3
ENDBRANCH   1   2
BRANCH   1  27
ATOM     27  C   UNL A   1      33.516  31.332  27.543  1.00  0.00     0.275 C 
BRANCH  27  28
ATOM     28  O   UNL A   1      34.814  31.399  28.150  1.00  0.00    -0.458 OA
BRANCH  28  29
ATOM     29  C   UNL A   1      34.776  32.049  29.330  1.00  0.00     0.338 C 
ATOM     30  O   UNL A   1      34.118  33.044  29.583  1.00  0.00    -0.246 OA
BRANCH  29  31
ATOM     31  C   UNL A   1      35.759  31.586  30.302  1.00  0.00     0.060 A 
ATOM     32  C   UNL A   1      36.793  32.493  30.580  1.00  0.00     0.016 A 
ATOM     33  C   UNL A   1      35.924  30.205  30.408  1.00  0.00     0.016 A 
ATOM     34  C   UNL A   1      38.075  32.007  30.727  1.00  0.00     0.010 A 
ATOM     35  C   UNL A   1      37.207  29.724  30.560  1.00  0.00     0.010 A 
ATOM     36  C   UNL A   1      38.275  30.632  30.621  1.00  0.00    -0.014 A 
BRANCH  36  37
ATOM     37  C   UNL A   1      39.642  30.151  30.496  1.00  0.00     0.031 A 
ATOM     38  C   UNL A   1      40.382  29.932  31.766  1.00  0.00     0.074 A 
ATOM     39  C   UNL A   1      40.095  29.704  29.310  1.00  0.00     0.049 A 
ATOM     40  N   UNL A   1      41.569  30.320  32.106  1.00  0.00    -0.248 NA
ATOM     41  C   UNL A   1      39.642  29.243  32.835  1.00  0.00     0.031 C 
ATOM     42  C   UNL A   1      39.328  29.485  28.077  1.00  0.00     0.029 A 
ATOM     43  N   UNL A   1      41.297  29.144  29.028  1.00  0.00    -0.354 N 
ATOM     44  C   UNL A   1      41.772  29.838  33.400  1.00  0.00     0.074 A 
ATOM     45  C   UNL A   1      40.509  29.310  33.841  1.00  0.00     0.031 C 
ATOM     46  C   UNL A   1      39.985  28.576  27.323  1.00  0.00     0.029 A 
ATOM     47  C   UNL A   1      41.243  28.248  27.976  1.00  0.00     0.049 A 
ATOM     48  H   UNL A   1      42.123  29.354  29.520  1.00  0.00     0.167 HD
ATOM     49  C   UNL A   1      42.990  29.762  34.003  1.00  0.00     0.037 A 
ATOM     50  C   UNL A   1      42.074  27.189  27.807  1.00  0.00     0.037 A 
ATOM     51  C   UNL A   1      43.981  30.551  33.325  1.00  0.00     0.049 A 
ATOM     52  C   UNL A   1      43.283  27.424  28.650  1.00  0.00     0.074 A 
ATOM     53  C   UNL A   1      44.124  31.900  33.057  1.00  0.00     0.029 A 
ATOM     54  N   UNL A   1      44.878  29.917  32.501  1.00  0.00    -0.354 N 
ATOM     55  N   UNL A   1      44.141  28.394  28.467  1.00  0.00    -0.248 NA
ATOM     56  C   UNL A   1      43.297  26.832  29.982  1.00  0.00     0.031 C 
ATOM     57  C   UNL A   1      44.715  31.960  31.760  1.00  0.00     0.029 A 
ATOM     58  C   UNL A   1      44.899  30.644  31.335  1.00  0.00     0.049 A 
ATOM     59  H   UNL A   1      45.401  29.108  32.704  1.00  0.00     0.167 HD
ATOM     60  C   UNL A   1      44.529  28.787  29.743  1.00  0.00     0.074 A 
ATOM     61  C   UNL A   1      44.035  27.736  30.630  1.00  0.00     0.031 C 
ATOM     62  C   UNL A   1      44.969  30.054  30.017  1.00  0.00     0.037 A 
BRANCH  49  63
ATOM     63  C   UNL A   1      43.335  28.767  35.086  1.00  0.00     0.058 A 
ATOM     64  C   UNL A   1      43.815  29.217  36.332  1.00  0.00     0.135 A 
ATOM     65  C   UNL A   1      43.437  27.373  34.865  1.00  0.00     0.135 A 
ATOM     66  F   UNL A   1      43.785  30.522  36.648  1.00  0.00    -0.206 F 
ATOM     67  C   UNL A   1      44.405  28.357  37.261  1.00  0.00     0.059 A 
ATOM     68  C   UNL A   1      43.954  26.491  35.804  1.00  0.00     0.059 A 
ATOM     69  F   UNL A   1      43.140  26.812  33.686  1.00  0.00    -0.206 F 
ATOM     70  C   UNL A   1      44.486  26.997  36.976  1.00  0.00     0.060 A 
BRANCH  70  71
ATOM     71  S   UNL A   1      45.380  25.900  38.089  1.00  0.00     0.124 S 
ATOM     72  O   UNL A   1      44.780  26.243  39.373  1.00  0.00    -0.237 OA
ATOM     73  O   UNL A   1      45.047  24.581  37.560  1.00  0.00    -0.237 OA
ATOM     74  O   UNL A   1      46.772  26.305  37.912  1.00  0.00    -0.744 OA
ENDBRANCH  70  71
ENDBRANCH  49  63
BRANCH  50  75
ATOM     75  C   UNL A   1      41.640  25.838  27.353  1.00  0.00     0.058 A 
ATOM     76  C   UNL A   1      42.409  25.083  26.455  1.00  0.00     0.135 A 
ATOM     77  C   UNL A   1      40.554  25.165  27.957  1.00  0.00     0.135 A 
ATOM     78  F   UNL A   1      43.495  25.623  25.883  1.00  0.00    -0.206 F 
ATOM     79  C   UNL A   1      42.111  23.747  26.162  1.00  0.00     0.059 A 
ATOM     80  C   UNL A   1      40.221  23.847  27.662  1.00  0.00     0.059 A 
ATOM     81  F   UNL A   1      39.824  25.743  28.923  1.00  0.00    -0.206 F 
ATOM     82  C   UNL A   1      41.012  23.137  26.772  1.00  0.00     0.060 A 
BRANCH  82  83
ATOM     83  S   UNL A   1      40.671  21.390  26.468  1.00  0.00     0.124 S 
ATOM     84  O   UNL A   1      41.794  21.007  25.620  1.00  0.00    -0.237 OA
ATOM     85  O   UNL A   1      40.671  20.838  27.818  1.00  0.00    -0.237 OA
ATOM     86  O   UNL A   1      39.369  21.407  25.805  1.00  0.00    -0.744 OA
ENDBRANCH  82  83
ENDBRANCH  50  75
BRANCH  62  87
ATOM     87  C   UNL A   1      45.244  30.995  28.874  1.00  0.00     0.058 A 
ATOM     88  C   UNL A   1      44.280  31.875  28.355  1.00  0.00     0.135 A 
ATOM     89  C   UNL A   1      46.564  31.164  28.431  1.00  0.00     0.135 A 
ATOM     90  F   UNL A   1      43.023  31.866  28.815  1.00  0.00    -0.206 F 
ATOM     91  C   UNL A   1      44.599  32.850  27.410  1.00  0.00     0.059 A 
ATOM     92  C   UNL A   1      46.914  32.152  27.511  1.00  0.00     0.059 A 
ATOM     93  F   UNL A   1      47.548  30.405  28.942  1.00  0.00    -0.206 F 
ATOM     94  C   UNL A   1      45.923  32.987  26.998  1.00  0.00     0.060 A 
BRANCH  94  95
ATOM     95  S   UNL A   1      46.347  34.329  25.866  1.00  0.00     0.124 S 
ATOM     96  O   UNL A   1      45.467  34.064  24.733  1.00  0.00    -0.237 OA
ATOM     97  O   UNL A   1      46.030  35.520  26.649  1.00  0.00    -0.237 OA
ATOM     98  O   UNL A   1      47.771  34.124  25.613  1.00  0.00    -0.744 OA
ENDBRANCH  94  95
ENDBRANCH  62  87
ENDBRANCH  36  37
ENDBRANCH  29  31
ENDBRANCH  28  29
ENDBRANCH  27  28
ENDBRANCH   1  27
TORSDOF 19
ENDMDL
MODEL 2
REMARK VINA RESULT:     -10.8      2.602      9.561
REMARK SMILES C[N@@H+]1CC[N@H+](Cc2ccc(C#CC(C)(C)O)s2)C[C@H]1C(=O)OCCOC(=O)c1ccc(-c2c3nc(c(-c4c(F)cc(S(=O)(=O)[O-])cc4F)c4ccc([nH]4)c(-c4c(F)cc(S(=O)(=O)[O-])cc4F)c4nc(c(-c5c(F)cc(S(=O)(=O)[O-])cc5F)c5ccc2[nH]5)C=C4)C=C3)cc1
REMARK SMILES IDX 23 1 22 2 20 3 21 4 19 5 1 6 2 7 3 8 4 10 18 11 5 12 6 14
REMARK SMILES IDX 7 15 8 16 17 17 9 18 10 19 11 20 12 21 13 22 14 23 15 24
REMARK SMILES IDX 16 25 24 27 25 28 26 29 27 30 28 31 29 32 93 33 30 34 92 35
REMARK SMILES IDX 31 36 32 37 33 38 86 39 34 40 91 41 85 42 87 43 35 44 90 45
REMARK SMILES IDX 84 46 83 47 36 49 70 50 49 51 69 52 50 53 53 54 68 55 88 56
REMARK SMILES IDX 51 57 52 58 67 60 89 61 54 62 37 63 38 64 47 65 39 66 40 67
REMARK SMILES IDX 46 68 48 69 41 70 42 71 43 72 44 73 45 74 71 75 72 76 81 77
REMARK SMILES IDX 73 78 74 79 80 80 82 81 75 82 76 83 77 84 78 85 79 86 55 87
REMARK SMILES IDX 56 88 65 89 57 90 58 91 64 92 66 93 59 94 60 95 61 96 62 97
REMARK SMILES IDX 63 98
REMARK H PARENT 2 9 5 13 16 26 87 48 53 59
REMARK Flexibility Score: inf
ROOT
ATOM      1  C   UNL A   1      36.639  21.267  24.979  1.00  0.00     0.274 C 
ENDROOT
BRANCH   1   2
ATOM      2  O   UNL A   1      35.649  22.313  25.108  1.00  0.00    -0.457 OA
BRANCH   2   3
ATOM      3  C   UNL A   1      34.697  22.100  26.054  1.00  0.00     0.371 C 
ATOM      4  O   UNL A   1      34.929  21.541  27.128  1.00  0.00    -0.245 OA
BRANCH   3   5
ATOM      5  C   UNL A   1      33.269  22.500  25.675  1.00  0.00     0.350 C 
ATOM      6  C   UNL A   1      32.297  20.330  25.054  1.00  0.00     0.333 C 
ATOM      7  N   UNL A   1      32.166  21.514  25.917  1.00  0.00    -0.316 N 
ATOM      8  C   UNL A   1      30.875  22.157  25.585  1.00  0.00     0.325 C 
ATOM      9  H   UNL A   1      32.213  21.225  26.894  1.00  0.00     0.348 HD
ATOM     10  C   UNL A   1      30.633  23.501  26.303  1.00  0.00     0.324 C 
ATOM     11  C   UNL A   1      33.025  23.830  26.441  1.00  0.00     0.341 C 
ATOM     12  N   UNL A   1      31.721  24.481  26.237  1.00  0.00    -0.320 N 
ATOM     13  H   UNL A   1      31.576  25.111  27.025  1.00  0.00     0.348 HD
BRANCH  12  14
ATOM     14  C   UNL A   1      31.665  25.436  25.124  1.00  0.00     0.310 C 
BRANCH  14  15
ATOM     15  C   UNL A   1      32.374  26.745  25.317  1.00  0.00     0.060 A 
ATOM     16  C   UNL A   1      33.295  27.364  24.492  1.00  0.00     0.022 A 
ATOM     17  S   UNL A   1      32.023  27.726  26.684  1.00  0.00    -0.126 S 
ATOM     18  C   UNL A   1      33.846  28.539  25.082  1.00  0.00     0.029 A 
ATOM     19  C   UNL A   1      33.273  28.821  26.300  1.00  0.00     0.077 A 
BRANCH  19  20
ATOM     20  C   UNL A   1      33.588  29.945  27.111  1.00  0.00    -0.053 C 
ATOM     21  C   UNL A   1      33.872  31.093  27.660  1.00  0.00    -0.063 C 
BRANCH  21  22
ATOM     22  C   UNL A   1      34.204  32.431  28.301  1.00  0.00     0.120 C 
ATOM     23  C   UNL A   1      35.635  32.835  27.958  1.00  0.00     0.056 C 
ATOM     24  C   UNL A   1      33.207  33.493  27.847  1.00  0.00     0.056 C 
BRANCH  22  25
ATOM     25  O   UNL A   1      34.118  32.287  29.700  1.00  0.00    -0.378 OA
ATOM     26  H   UNL A   1      33.796  31.397  29.914  1.00  0.00     0.212 HD
ENDBRANCH  22  25
ENDBRANCH  21  22
ENDBRANCH  19  20
ENDBRANCH  14  15
ENDBRANCH  12  14
ENDBRANCH   3   5
ENDBRANCH   2   3
ENDBRANCH   1   2
BRANCH   1  27
ATOM     27  C   UNL A   1      38.033  21.641  25.494  1.00  0.00     0.275 C 
BRANCH  27  28
ATOM     28  O   UNL A   1      38.068  22.916  26.151  1.00  0.00    -0.458 OA
BRANCH  28  29
ATOM     29  C   UNL A   1      39.288  23.178  26.662  1.00  0.00     0.338 C 
ATOM     30  O   UNL A   1      39.993  22.397  27.277  1.00  0.00    -0.246 OA
BRANCH  29  31
ATOM     31  C   UNL A   1      39.677  24.581  26.597  1.00  0.00     0.060 A 
ATOM     32  C   UNL A   1      41.061  24.814  26.593  1.00  0.00     0.016 A 
ATOM     33  C   UNL A   1      38.763  25.504  27.107  1.00  0.00     0.016 A 
ATOM     34  C   UNL A   1      41.554  25.872  27.327  1.00  0.00     0.010 A 
ATOM     35  C   UNL A   1      39.261  26.561  27.836  1.00  0.00     0.010 A 
ATOM     36  C   UNL A   1      40.647  26.675  28.017  1.00  0.00    -0.014 A 
BRANCH  36  37
ATOM     37  C   UNL A   1      41.176  27.603  29.004  1.00  0.00     0.031 A 
ATOM     38  C   UNL A   1      42.268  28.501  28.546  1.00  0.00     0.074 A 
ATOM     39  C   UNL A   1      40.530  27.789  30.170  1.00  0.00     0.049 A 
ATOM     40  N   UNL A   1      43.407  28.764  29.101  1.00  0.00    -0.248 NA
ATOM     41  C   UNL A   1      42.078  29.132  27.230  1.00  0.00     0.031 C 
ATOM     42  C   UNL A   1      39.217  27.266  30.566  1.00  0.00     0.029 A 
ATOM     43  N   UNL A   1      40.823  28.668  31.161  1.00  0.00    -0.354 N 
ATOM     44  C   UNL A   1      44.043  29.675  28.255  1.00  0.00     0.074 A 
ATOM     45  C   UNL A   1      43.241  29.752  27.064  1.00  0.00     0.031 C 
ATOM     46  C   UNL A   1      38.712  28.068  31.530  1.00  0.00     0.029 A 
ATOM     47  C   UNL A   1      39.708  29.073  31.871  1.00  0.00     0.049 A 
ATOM     48  H   UNL A   1      41.735  28.983  31.355  1.00  0.00     0.167 HD
ATOM     49  C   UNL A   1      45.116  30.431  28.618  1.00  0.00     0.037 A 
ATOM     50  C   UNL A   1      39.577  30.262  32.510  1.00  0.00     0.037 A 
ATOM     51  C   UNL A   1      45.743  29.943  29.814  1.00  0.00     0.049 A 
ATOM     52  C   UNL A   1      40.946  30.826  32.701  1.00  0.00     0.074 A 
ATOM     53  C   UNL A   1      46.374  28.763  30.162  1.00  0.00     0.029 A 
ATOM     54  N   UNL A   1      45.490  30.586  31.002  1.00  0.00    -0.354 N 
ATOM     55  N   UNL A   1      41.876  30.289  33.448  1.00  0.00    -0.248 NA
ATOM     56  C   UNL A   1      41.429  31.766  31.697  1.00  0.00     0.031 C 
ATOM     57  C   UNL A   1      46.012  28.535  31.523  1.00  0.00     0.029 A 
ATOM     58  C   UNL A   1      45.195  29.598  31.910  1.00  0.00     0.049 A 
ATOM     59  H   UNL A   1      45.515  31.556  31.169  1.00  0.00     0.167 HD
ATOM     60  C   UNL A   1      43.069  30.522  32.774  1.00  0.00     0.074 A 
ATOM     61  C   UNL A   1      42.737  31.503  31.744  1.00  0.00     0.031 C 
ATOM     62  C   UNL A   1      44.159  29.707  32.914  1.00  0.00     0.037 A 
BRANCH  49  63
ATOM     63  C   UNL A   1      45.450  31.770  28.005  1.00  0.00     0.058 A 
ATOM     64  C   UNL A   1      46.698  31.970  27.382  1.00  0.00     0.135 A 
ATOM     65  C   UNL A   1      44.683  32.940  28.213  1.00  0.00     0.135 A 
ATOM     66  F   UNL A   1      47.521  30.935  27.147  1.00  0.00    -0.206 F 
ATOM     67  C   UNL A   1      47.172  33.241  27.047  1.00  0.00     0.059 A 
ATOM     68  C   UNL A   1      45.103  34.204  27.823  1.00  0.00     0.059 A 
ATOM     69  F   UNL A   1      43.534  32.930  28.903  1.00  0.00    -0.206 F 
ATOM     70  C   UNL A   1      46.372  34.353  27.291  1.00  0.00     0.060 A 
BRANCH  70  71
ATOM     71  S   UNL A   1      47.025  36.007  27.011  1.00  0.00     0.124 S 
ATOM     72  O   UNL A   1      48.241  35.974  27.817  1.00  0.00    -0.237 OA
ATOM     73  O   UNL A   1      47.216  36.026  25.565  1.00  0.00    -0.237 OA
ATOM     74  O   UNL A   1      45.961  36.876  27.507  1.00  0.00    -0.744 OA
ENDBRANCH  70  71
ENDBRANCH  49  63
BRANCH  50  75
ATOM     75  C   UNL A   1      38.341  31.093  32.505  1.00  0.00     0.058 A 
ATOM     76  C   UNL A   1      37.662  31.407  33.691  1.00  0.00     0.135 A 
ATOM     77  C   UNL A   1      37.911  31.776  31.345  1.00  0.00     0.135 A 
ATOM     78  F   UNL A   1      38.045  30.852  34.851  1.00  0.00    -0.206 F 
ATOM     79  C   UNL A   1      36.611  32.332  33.724  1.00  0.00     0.059 A 
ATOM     80  C   UNL A   1      36.852  32.678  31.346  1.00  0.00     0.059 A 
ATOM     81  F   UNL A   1      38.563  31.652  30.179  1.00  0.00    -0.206 F 
ATOM     82  C   UNL A   1      36.212  32.962  32.543  1.00  0.00     0.060 A 
BRANCH  82  83
ATOM     83  S   UNL A   1      34.917  34.220  32.590  1.00  0.00     0.124 S 
ATOM     84  O   UNL A   1      34.829  34.614  31.189  1.00  0.00    -0.237 OA
ATOM     85  O   UNL A   1      33.782  33.471  33.116  1.00  0.00    -0.237 OA
ATOM     86  O   UNL A   1      35.461  35.236  33.488  1.00  0.00    -0.744 OA
ENDBRANCH  82  83
ENDBRANCH  50  75
BRANCH  62  87
ATOM     87  C   UNL A   1      44.148  28.648  33.983  1.00  0.00     0.058 A 
ATOM     88  C   UNL A   1      44.554  28.888  35.307  1.00  0.00     0.135 A 
ATOM     89  C   UNL A   1      43.519  27.421  33.724  1.00  0.00     0.135 A 
ATOM     90  F   UNL A   1      45.048  30.078  35.668  1.00  0.00    -0.206 F 
ATOM     91  C   UNL A   1      44.383  27.943  36.318  1.00  0.00     0.059 A 
ATOM     92  C   UNL A   1      43.308  26.472  34.725  1.00  0.00     0.059 A 
ATOM     93  F   UNL A   1      43.040  27.156  32.497  1.00  0.00    -0.206 F 
ATOM     94  C   UNL A   1      43.751  26.737  36.019  1.00  0.00     0.060 A 
BRANCH  94  95
ATOM     95  S   UNL A   1      43.427  25.571  37.359  1.00  0.00     0.124 S 
ATOM     96  O   UNL A   1      42.135  25.013  36.974  1.00  0.00    -0.237 OA
ATOM     97  O   UNL A   1      44.563  24.658  37.271  1.00  0.00    -0.237 OA
ATOM     98  O   UNL A   1      43.413  26.416  38.551  1.00  0.00    -0.744 OA
ENDBRANCH  94  95
ENDBRANCH  62  87
ENDBRANCH  36  37
ENDBRANCH  29  31
ENDBRANCH  28  29
ENDBRANCH  27  28
ENDBRANCH   1  27
TORSDOF 19
ENDMDL
MODEL 3
REMARK VINA RESULT:     -10.8      2.390      7.945
REMARK SMILES C[N@@H+]1CC[N@H+](Cc2ccc(C#CC(C)(C)O)s2)C[C@H]1C(=O)OCCOC(=O)c1ccc(-c2c3nc(c(-c4c(F)cc(S(=O)(=O)[O-])cc4F)c4ccc([nH]4)c(-c4c(F)cc(S(=O)(=O)[O-])cc4F)c4nc(c(-c5c(F)cc(S(=O)(=O)[O-])cc5F)c5ccc2[nH]5)C=C4)C=C3)cc1
REMARK SMILES IDX 23 1 22 2 20 3 21 4 19 5 1 6 2 7 3 8 4 10 18 11 5 12 6 14
REMARK SMILES IDX 7 15 8 16 17 17 9 18 10 19 11 20 12 21 13 22 14 23 15 24
REMARK SMILES IDX 16 25 24 27 25 28 26 29 27 30 28 31 29 32 93 33 30 34 92 35
REMARK SMILES IDX 31 36 32 37 33 38 86 39 34 40 91 41 85 42 87 43 35 44 90 45
REMARK SMILES IDX 84 46 83 47 36 49 70 50 49 51 69 52 50 53 53 54 68 55 88 56
REMARK SMILES IDX 51 57 52 58 67 60 89 61 54 62 37 63 38 64 47 65 39 66 40 67
REMARK SMILES IDX 46 68 48 69 41 70 42 71 43 72 44 73 45 74 71 75 72 76 81 77
REMARK SMILES IDX 73 78 74 79 80 80 82 81 75 82 76 83 77 84 78 85 79 86 55 87
REMARK SMILES IDX 56 88 65 89 57 90 58 91 64 92 66 93 59 94 60 95 61 96 62 97
REMARK SMILES IDX 63 98
REMARK H PARENT 2 9 5 13 16 26 87 48 53 59
REMARK Flexibility Score: inf
ROOT
ATOM      1  C   UNL A   1      33.812  32.031  27.603  1.00  0.00     0.274 C 
ENDROOT
BRANCH   1   2
ATOM      2  O   UNL A   1      33.584  30.760  26.954  1.00  0.00    -0.457 OA
BRANCH   2   3
ATOM      3  C   UNL A   1      32.350  30.598  26.409  1.00  0.00     0.371 C 
ATOM      4  O   UNL A   1      31.436  31.411  26.560  1.00  0.00    -0.245 OA
BRANCH   3   5
ATOM      5  C   UNL A   1      32.108  29.279  25.670  1.00  0.00     0.350 C 
ATOM      6  C   UNL A   1      30.460  29.957  23.977  1.00  0.00     0.333 C 
ATOM      7  N   UNL A   1      31.772  29.333  24.210  1.00  0.00    -0.316 N 
ATOM      8  C   UNL A   1      31.697  27.948  23.690  1.00  0.00     0.325 C 
ATOM      9  H   UNL A   1      32.493  29.882  23.742  1.00  0.00     0.348 HD
ATOM     10  C   UNL A   1      32.950  27.096  23.976  1.00  0.00     0.324 C 
ATOM     11  C   UNL A   1      33.397  28.449  25.930  1.00  0.00     0.341 C 
ATOM     12  N   UNL A   1      33.436  27.093  25.359  1.00  0.00    -0.320 N 
ATOM     13  H   UNL A   1      34.417  26.820  25.308  1.00  0.00     0.348 HD
BRANCH  12  14
ATOM     14  C   UNL A   1      32.913  26.033  26.228  1.00  0.00     0.310 C 
BRANCH  14  15
ATOM     15  C   UNL A   1      32.399  24.795  25.552  1.00  0.00     0.060 A 
ATOM     16  C   UNL A   1      31.128  24.526  25.079  1.00  0.00     0.022 A 
ATOM     17  S   UNL A   1      33.466  23.491  25.207  1.00  0.00    -0.126 S 
ATOM     18  C   UNL A   1      30.994  23.185  24.616  1.00  0.00     0.029 A 
ATOM     19  C   UNL A   1      32.184  22.498  24.677  1.00  0.00     0.077 A 
BRANCH  19  20
ATOM     20  C   UNL A   1      32.375  21.155  24.254  1.00  0.00    -0.053 C 
ATOM     21  C   UNL A   1      32.545  19.873  24.087  1.00  0.00    -0.063 C 
BRANCH  21  22
ATOM     22  C   UNL A   1      32.744  18.379  23.891  1.00  0.00     0.120 C 
ATOM     23  C   UNL A   1      32.378  17.985  22.463  1.00  0.00     0.056 C 
ATOM     24  C   UNL A   1      34.182  17.992  24.220  1.00  0.00     0.056 C 
BRANCH  22  25
ATOM     25  O   UNL A   1      31.873  17.697  24.764  1.00  0.00    -0.378 OA
ATOM     26  H   UNL A   1      32.028  16.742  24.696  1.00  0.00     0.212 HD
ENDBRANCH  22  25
ENDBRANCH  21  22
ENDBRANCH  19  20
ENDBRANCH  14  15
ENDBRANCH  12  14
ENDBRANCH   3   5
ENDBRANCH   2   3
ENDBRANCH   1   2
BRANCH   1  27
ATOM     27  C   UNL A   1      35.105  32.105  28.424  1.00  0.00     0.275 C 
BRANCH  27  28
ATOM     28  O   UNL A   1      35.453  30.857  29.040  1.00  0.00    -0.458 OA
BRANCH  28  29
ATOM     29  C   UNL A   1      36.742  30.841  29.435  1.00  0.00     0.338 C 
ATOM     30  O   UNL A   1      37.362  31.779  29.905  1.00  0.00    -0.246 OA
BRANCH  29  31
ATOM     31  C   UNL A   1      37.461  29.622  29.088  1.00  0.00     0.060 A 
ATOM     32  C   UNL A   1      37.722  28.759  30.163  1.00  0.00     0.016 A 
ATOM     33  C   UNL A   1      38.280  29.683  27.960  1.00  0.00     0.016 A 
ATOM     34  C   UNL A   1      38.947  28.129  30.222  1.00  0.00     0.010 A 
ATOM     35  C   UNL A   1      39.502  29.049  28.022  1.00  0.00     0.010 A 
ATOM     36  C   UNL A   1      39.857  28.361  29.192  1.00  0.00    -0.014 A 
BRANCH  36  37
ATOM     37  C   UNL A   1      41.232  27.931  29.390  1.00  0.00     0.031 A 
ATOM     38  C   UNL A   1      41.596  26.606  28.822  1.00  0.00     0.074 A 
ATOM     39  C   UNL A   1      42.154  28.802  29.840  1.00  0.00     0.049 A 
ATOM     40  N   UNL A   1      42.221  25.616  29.374  1.00  0.00    -0.248 NA
ATOM     41  C   UNL A   1      41.116  26.333  27.458  1.00  0.00     0.031 C 
ATOM     42  C   UNL A   1      42.003  30.247  30.044  1.00  0.00     0.029 A 
ATOM     43  N   UNL A   1      43.486  28.605  30.000  1.00  0.00    -0.354 N 
ATOM     44  C   UNL A   1      42.303  24.624  28.394  1.00  0.00     0.074 A 
ATOM     45  C   UNL A   1      41.490  25.068  27.294  1.00  0.00     0.031 C 
ATOM     46  C   UNL A   1      43.228  30.815  29.987  1.00  0.00     0.029 A 
ATOM     47  C   UNL A   1      44.225  29.764  29.850  1.00  0.00     0.049 A 
ATOM     48  H   UNL A   1      43.885  27.729  30.203  1.00  0.00     0.167 HD
ATOM     49  C   UNL A   1      43.142  23.553  28.463  1.00  0.00     0.037 A 
ATOM     50  C   UNL A   1      45.514  29.821  29.432  1.00  0.00     0.037 A 
ATOM     51  C   UNL A   1      43.658  23.354  29.788  1.00  0.00     0.049 A 
ATOM     52  C   UNL A   1      46.108  28.462  29.610  1.00  0.00     0.074 A 
ATOM     53  C   UNL A   1      43.088  23.070  31.016  1.00  0.00     0.029 A 
ATOM     54  N   UNL A   1      44.938  23.771  30.067  1.00  0.00    -0.354 N 
ATOM     55  N   UNL A   1      46.288  27.873  30.763  1.00  0.00    -0.248 NA
ATOM     56  C   UNL A   1      46.094  27.570  28.457  1.00  0.00     0.031 C 
ATOM     57  C   UNL A   1      43.865  23.801  31.964  1.00  0.00     0.029 A 
ATOM     58  C   UNL A   1      44.859  24.469  31.247  1.00  0.00     0.049 A 
ATOM     59  H   UNL A   1      45.747  23.603  29.531  1.00  0.00     0.167 HD
ATOM     60  C   UNL A   1      46.032  26.526  30.532  1.00  0.00     0.074 A 
ATOM     61  C   UNL A   1      45.995  26.392  29.077  1.00  0.00     0.031 C 
ATOM     62  C   UNL A   1      45.595  25.684  31.518  1.00  0.00     0.037 A 
BRANCH  49  63
ATOM     63  C   UNL A   1      43.680  22.824  27.255  1.00  0.00     0.058 A 
ATOM     64  C   UNL A   1      42.921  21.802  26.651  1.00  0.00     0.135 A 
ATOM     65  C   UNL A   1      45.018  22.929  26.809  1.00  0.00     0.135 A 
ATOM     66  F   UNL A   1      41.643  21.595  27.005  1.00  0.00    -0.206 F 
ATOM     67  C   UNL A   1      43.468  20.915  25.720  1.00  0.00     0.059 A 
ATOM     68  C   UNL A   1      45.561  22.105  25.833  1.00  0.00     0.059 A 
ATOM     69  F   UNL A   1      45.898  23.766  27.374  1.00  0.00    -0.206 F 
ATOM     70  C   UNL A   1      44.797  21.066  25.334  1.00  0.00     0.060 A 
BRANCH  70  71
ATOM     71  S   UNL A   1      45.561  19.843  24.256  1.00  0.00     0.124 S 
ATOM     72  O   UNL A   1      46.977  20.129  24.457  1.00  0.00    -0.237 OA
ATOM     73  O   UNL A   1      45.077  18.586  24.818  1.00  0.00    -0.237 OA
ATOM     74  O   UNL A   1      45.028  20.178  22.938  1.00  0.00    -0.744 OA
ENDBRANCH  70  71
ENDBRANCH  49  63
BRANCH  50  75
ATOM     75  C   UNL A   1      46.050  30.832  28.479  1.00  0.00     0.058 A 
ATOM     76  C   UNL A   1      45.466  31.036  27.220  1.00  0.00     0.135 A 
ATOM     77  C   UNL A   1      47.030  31.774  28.868  1.00  0.00     0.135 A 
ATOM     78  F   UNL A   1      44.484  30.227  26.797  1.00  0.00    -0.206 F 
ATOM     79  C   UNL A   1      45.840  32.100  26.390  1.00  0.00     0.059 A 
ATOM     80  C   UNL A   1      47.438  32.823  28.050  1.00  0.00     0.059 A 
ATOM     81  F   UNL A   1      47.567  31.755  30.096  1.00  0.00    -0.206 F 
ATOM     82  C   UNL A   1      46.830  32.989  26.816  1.00  0.00     0.060 A 
BRANCH  82  83
ATOM     83  S   UNL A   1      47.257  34.415  25.792  1.00  0.00     0.124 S 
ATOM     84  O   UNL A   1      46.217  34.374  24.770  1.00  0.00    -0.237 OA
ATOM     85  O   UNL A   1      47.173  35.514  26.747  1.00  0.00    -0.237 OA
ATOM     86  O   UNL A   1      48.604  34.103  25.320  1.00  0.00    -0.744 OA
ENDBRANCH  82  83
ENDBRANCH  50  75
BRANCH  62  87
ATOM     87  C   UNL A   1      45.590  26.168  32.943  1.00  0.00     0.058 A 
ATOM     88  C   UNL A   1      44.497  26.833  33.525  1.00  0.00     0.135 A 
ATOM     89  C   UNL A   1      46.624  25.770  33.804  1.00  0.00     0.135 A 
ATOM     90  F   UNL A   1      43.413  27.136  32.801  1.00  0.00    -0.206 F 
ATOM     91  C   UNL A   1      44.448  27.126  34.887  1.00  0.00     0.059 A 
ATOM     92  C   UNL A   1      46.583  26.025  35.175  1.00  0.00     0.059 A 
ATOM     93  F   UNL A   1      47.664  25.066  33.327  1.00  0.00    -0.206 F 
ATOM     94  C   UNL A   1      45.494  26.712  35.708  1.00  0.00     0.060 A 
BRANCH  94  95
ATOM     95  S   UNL A   1      45.366  26.991  37.488  1.00  0.00     0.124 S 
ATOM     96  O   UNL A   1      44.889  25.699  37.968  1.00  0.00    -0.237 OA
ATOM     97  O   UNL A   1      46.735  27.339  37.857  1.00  0.00    -0.237 OA
ATOM     98  O   UNL A   1      44.407  28.089  37.592  1.00  0.00    -0.744 OA
ENDBRANCH  94  95
ENDBRANCH  62  87
ENDBRANCH  36  37
ENDBRANCH  29  31
ENDBRANCH  28  29
ENDBRANCH  27  28
ENDBRANCH   1  27
TORSDOF 19
ENDMDL
