MODEL 1
REMARK VINA RESULT:     -12.6      0.000      0.000
REMARK SMILES Cc1cc2n(n1)[C@H](C(F)(F)F)CCN2C(=O)c1cnn([C@@H](C)C(=O)OCCOC(=O)c2ccc(-c3c4nc(c(-c5c(F)cc(S(=O)(=O)[O-])cc5F)c5ccc([nH]5)c(-c5c(F)cc(S(=O)(=O)[O-])cc5F)c5nc(c(-c6c(F)cc(S(=O)(=O)[O-])cc6F)c6ccc3[nH]6)C=C5)C=C4)cc2)c1
REMARK SMILES IDX 26 1 25 2 23 3 24 4 21 5 22 6 20 7 17 8 18 9 97 10 19 11
REMARK SMILES IDX 15 12 16 13 14 14 1 15 2 16 3 17 6 18 4 19 5 20 7 21 13 22
REMARK SMILES IDX 12 23 8 24 9 25 10 26 11 27 27 28 28 29 29 30 30 31 31 32
REMARK SMILES IDX 32 33 96 34 33 35 95 36 34 37 35 38 36 39 89 40 37 41 94 42
REMARK SMILES IDX 88 43 90 44 38 45 93 46 87 47 86 48 39 50 73 51 52 52 72 53
REMARK SMILES IDX 53 54 56 55 71 56 91 57 54 58 55 59 70 61 92 62 57 63 40 64
REMARK SMILES IDX 41 65 50 66 42 67 43 68 49 69 51 70 44 71 45 72 46 73 47 74
REMARK SMILES IDX 48 75 74 76 75 77 84 78 76 79 77 80 83 81 85 82 78 83 79 84
REMARK SMILES IDX 80 85 81 86 82 87 58 88 59 89 68 90 60 91 61 92 67 93 69 94
REMARK SMILES IDX 62 95 63 96 64 97 65 98 66 99
REMARK H PARENT 90 49 56 60
REMARK Flexibility Score: inf
ROOT
ATOM      1  C   UNL A   1      36.717  20.664  25.199  1.00  0.00     0.274 C 
ENDROOT
BRANCH   1   2
ATOM      2  O   UNL A   1      35.458  21.134  24.676  1.00  0.00    -0.460 OA
BRANCH   2   3
ATOM      3  C   UNL A   1      34.392  21.069  25.514  1.00  0.00     0.330 C 
ATOM      4  O   UNL A   1      33.628  20.106  25.575  1.00  0.00    -0.250 OA
BRANCH   3   5
ATOM      5  C   UNL A   1      34.147  22.318  26.332  1.00  0.00     0.213 C 
ATOM      6  C   UNL A   1      33.698  21.927  27.732  1.00  0.00     0.046 C 
BRANCH   5   7
ATOM      7  N   UNL A   1      33.281  23.330  25.725  1.00  0.00    -0.258 N 
ATOM      8  C   UNL A   1      31.655  24.808  25.409  1.00  0.00     0.078 A 
ATOM      9  C   UNL A   1      32.501  24.667  24.288  1.00  0.00     0.149 A 
ATOM     10  C   UNL A   1      32.204  23.936  26.334  1.00  0.00     0.123 A 
ATOM     11  N   UNL A   1      33.360  23.652  24.414  1.00  0.00    -0.180 NA
BRANCH   8  12
ATOM     12  C   UNL A   1      30.542  25.701  25.640  1.00  0.00     0.262 C 
ATOM     13  O   UNL A   1      29.624  25.447  26.402  1.00  0.00    -0.269 OA
BRANCH  12  14
ATOM     14  N   UNL A   1      30.525  26.879  24.768  1.00  0.00    -0.293 N 
ATOM     15  C   UNL A   1      32.813  30.648  27.215  1.00  0.00     0.069 C 
ATOM     16  C   UNL A   1      32.115  29.782  26.230  1.00  0.00     0.062 A 
ATOM     17  C   UNL A   1      31.819  28.395  26.341  1.00  0.00     0.072 A 
ATOM     18  N   UNL A   1      31.661  30.286  25.075  1.00  0.00    -0.176 NA
ATOM     19  C   UNL A   1      31.108  28.079  25.205  1.00  0.00     0.134 A 
ATOM     20  N   UNL A   1      31.045  29.251  24.498  1.00  0.00    -0.237 N 
ATOM     21  C   UNL A   1      30.426  29.400  23.204  1.00  0.00     0.216 C 
ATOM     22  C   UNL A   1      29.688  26.940  23.545  1.00  0.00     0.130 C 
ATOM     23  C   UNL A   1      30.138  28.031  22.571  1.00  0.00     0.059 C 
BRANCH  21  24
ATOM     24  C   UNL A   1      29.182  30.257  23.293  1.00  0.00     0.410 C 
ATOM     25  F   UNL A   1      28.170  29.528  23.835  1.00  0.00    -0.169 F 
ATOM     26  F   UNL A   1      29.369  31.320  24.105  1.00  0.00    -0.169 F 
ATOM     27  F   UNL A   1      28.736  30.700  22.103  1.00  0.00    -0.169 F 
ENDBRANCH  21  24
ENDBRANCH  12  14
ENDBRANCH   8  12
ENDBRANCH   5   7
ENDBRANCH   3   5
ENDBRANCH   2   3
ENDBRANCH   1   2
BRANCH   1  28
ATOM     28  C   UNL A   1      37.830  21.686  24.997  1.00  0.00     0.275 C 
BRANCH  28  29
ATOM     29  O   UNL A   1      38.066  22.442  26.183  1.00  0.00    -0.458 OA
BRANCH  29  30
ATOM     30  C   UNL A   1      39.329  22.324  26.664  1.00  0.00     0.338 C 
ATOM     31  O   UNL A   1      39.844  21.338  27.127  1.00  0.00    -0.246 OA
BRANCH  30  32
ATOM     32  C   UNL A   1      39.962  23.637  26.760  1.00  0.00     0.060 A 
ATOM     33  C   UNL A   1      41.238  23.671  27.336  1.00  0.00     0.016 A 
ATOM     34  C   UNL A   1      39.156  24.771  26.638  1.00  0.00     0.016 A 
ATOM     35  C   UNL A   1      41.633  24.821  27.976  1.00  0.00     0.010 A 
ATOM     36  C   UNL A   1      39.540  25.907  27.298  1.00  0.00     0.010 A 
ATOM     37  C   UNL A   1      40.736  25.888  28.017  1.00  0.00    -0.014 A 
BRANCH  37  38
ATOM     38  C   UNL A   1      41.089  27.056  28.786  1.00  0.00     0.031 A 
ATOM     39  C   UNL A   1      42.222  27.806  28.207  1.00  0.00     0.074 A 
ATOM     40  C   UNL A   1      40.314  27.466  29.806  1.00  0.00     0.049 A 
ATOM     41  N   UNL A   1      43.386  27.995  28.729  1.00  0.00    -0.248 NA
ATOM     42  C   UNL A   1      42.118  28.231  26.800  1.00  0.00     0.031 C 
ATOM     43  C   UNL A   1      39.035  26.907  30.252  1.00  0.00     0.029 A 
ATOM     44  N   UNL A   1      40.449  28.570  30.582  1.00  0.00    -0.354 N 
ATOM     45  C   UNL A   1      44.080  28.769  27.806  1.00  0.00     0.074 A 
ATOM     46  C   UNL A   1      43.347  28.689  26.571  1.00  0.00     0.031 C 
ATOM     47  C   UNL A   1      38.411  27.811  31.040  1.00  0.00     0.029 A 
ATOM     48  C   UNL A   1      39.283  28.958  31.226  1.00  0.00     0.049 A 
ATOM     49  H   UNL A   1      41.300  29.054  30.678  1.00  0.00     0.167 HD
ATOM     50  C   UNL A   1      45.058  29.628  28.195  1.00  0.00     0.037 A 
ATOM     51  C   UNL A   1      39.041  30.183  31.761  1.00  0.00     0.037 A 
ATOM     52  C   UNL A   1      45.484  29.364  29.544  1.00  0.00     0.049 A 
ATOM     53  C   UNL A   1      40.372  30.828  31.972  1.00  0.00     0.074 A 
ATOM     54  C   UNL A   1      46.039  28.269  30.177  1.00  0.00     0.029 A 
ATOM     55  N   UNL A   1      44.988  30.171  30.540  1.00  0.00    -0.354 N 
ATOM     56  N   UNL A   1      41.253  30.392  32.836  1.00  0.00    -0.248 NA
ATOM     57  C   UNL A   1      40.922  31.640  30.893  1.00  0.00     0.031 C 
ATOM     58  C   UNL A   1      45.440  28.245  31.468  1.00  0.00     0.029 A 
ATOM     59  C   UNL A   1      44.605  29.359  31.578  1.00  0.00     0.049 A 
ATOM     60  H   UNL A   1      44.920  31.153  30.514  1.00  0.00     0.167 HD
ATOM     61  C   UNL A   1      42.478  30.502  32.190  1.00  0.00     0.074 A 
ATOM     62  C   UNL A   1      42.222  31.358  31.034  1.00  0.00     0.031 C 
ATOM     63  C   UNL A   1      43.509  29.650  32.476  1.00  0.00     0.037 A 
BRANCH  50  64
ATOM     64  C   UNL A   1      45.362  30.921  27.489  1.00  0.00     0.058 A 
ATOM     65  C   UNL A   1      46.624  31.100  26.893  1.00  0.00     0.135 A 
ATOM     66  C   UNL A   1      44.566  32.083  27.607  1.00  0.00     0.135 A 
ATOM     67  F   UNL A   1      47.462  30.062  26.748  1.00  0.00    -0.206 F 
ATOM     68  C   UNL A   1      47.087  32.354  26.501  1.00  0.00     0.059 A 
ATOM     69  C   UNL A   1      44.982  33.331  27.167  1.00  0.00     0.059 A 
ATOM     70  F   UNL A   1      43.391  32.084  28.250  1.00  0.00    -0.206 F 
ATOM     71  C   UNL A   1      46.261  33.466  26.657  1.00  0.00     0.060 A 
BRANCH  71  72
ATOM     72  S   UNL A   1      46.897  35.101  26.260  1.00  0.00     0.124 S 
ATOM     73  O   UNL A   1      47.568  35.458  27.504  1.00  0.00    -0.237 OA
ATOM     74  O   UNL A   1      47.762  34.820  25.120  1.00  0.00    -0.237 OA
ATOM     75  O   UNL A   1      45.689  35.863  25.952  1.00  0.00    -0.744 OA
ENDBRANCH  71  72
ENDBRANCH  50  64
BRANCH  51  76
ATOM     76  C   UNL A   1      37.752  30.932  31.740  1.00  0.00     0.058 A 
ATOM     77  C   UNL A   1      37.059  31.231  32.927  1.00  0.00     0.135 A 
ATOM     78  C   UNL A   1      37.291  31.594  30.581  1.00  0.00     0.135 A 
ATOM     79  F   UNL A   1      37.435  30.670  34.087  1.00  0.00    -0.206 F 
ATOM     80  C   UNL A   1      36.008  32.158  32.969  1.00  0.00     0.059 A 
ATOM     81  C   UNL A   1      36.237  32.504  30.594  1.00  0.00     0.059 A 
ATOM     82  F   UNL A   1      37.910  31.453  29.400  1.00  0.00    -0.206 F 
ATOM     83  C   UNL A   1      35.618  32.805  31.797  1.00  0.00     0.060 A 
BRANCH  83  84
ATOM     84  S   UNL A   1      34.399  34.140  31.864  1.00  0.00     0.124 S 
ATOM     85  O   UNL A   1      33.457  33.637  32.857  1.00  0.00    -0.237 OA
ATOM     86  O   UNL A   1      35.214  35.279  32.273  1.00  0.00    -0.237 OA
ATOM     87  O   UNL A   1      33.892  34.202  30.495  1.00  0.00    -0.744 OA
ENDBRANCH  83  84
ENDBRANCH  51  76
BRANCH  63  88
ATOM     88  C   UNL A   1      43.382  28.758  33.687  1.00  0.00     0.058 A 
ATOM     89  C   UNL A   1      43.668  29.169  35.000  1.00  0.00     0.135 A 
ATOM     90  C   UNL A   1      42.777  27.502  33.531  1.00  0.00     0.135 A 
ATOM     91  F   UNL A   1      44.136  30.397  35.253  1.00  0.00    -0.206 F 
ATOM     92  C   UNL A   1      43.403  28.358  36.104  1.00  0.00     0.059 A 
ATOM     93  C   UNL A   1      42.471  26.689  34.620  1.00  0.00     0.059 A 
ATOM     94  F   UNL A   1      42.413  27.078  32.310  1.00  0.00    -0.206 F 
ATOM     95  C   UNL A   1      42.797  27.120  35.905  1.00  0.00     0.060 A 
BRANCH  95  96
ATOM     96  S   UNL A   1      42.356  26.124  37.345  1.00  0.00     0.124 S 
ATOM     97  O   UNL A   1      43.258  26.644  38.365  1.00  0.00    -0.237 OA
ATOM     98  O   UNL A   1      40.941  26.438  37.531  1.00  0.00    -0.237 OA
ATOM     99  O   UNL A   1      42.625  24.756  36.909  1.00  0.00    -0.744 OA
ENDBRANCH  95  96
ENDBRANCH  63  88
ENDBRANCH  37  38
ENDBRANCH  30  32
ENDBRANCH  29  30
ENDBRANCH  28  29
ENDBRANCH   1  28
TORSDOF 18
ENDMDL
MODEL 2
REMARK VINA RESULT:     -12.5      3.594      9.594
REMARK SMILES Cc1cc2n(n1)[C@H](C(F)(F)F)CCN2C(=O)c1cnn([C@@H](C)C(=O)OCCOC(=O)c2ccc(-c3c4nc(c(-c5c(F)cc(S(=O)(=O)[O-])cc5F)c5ccc([nH]5)c(-c5c(F)cc(S(=O)(=O)[O-])cc5F)c5nc(c(-c6c(F)cc(S(=O)(=O)[O-])cc6F)c6ccc3[nH]6)C=C5)C=C4)cc2)c1
REMARK SMILES IDX 26 1 25 2 23 3 24 4 21 5 22 6 20 7 17 8 18 9 97 10 19 11
REMARK SMILES IDX 15 12 16 13 14 14 1 15 2 16 3 17 6 18 4 19 5 20 7 21 13 22
REMARK SMILES IDX 12 23 8 24 9 25 10 26 11 27 27 28 28 29 29 30 30 31 31 32
REMARK SMILES IDX 32 33 96 34 33 35 95 36 34 37 35 38 36 39 89 40 37 41 94 42
REMARK SMILES IDX 88 43 90 44 38 45 93 46 87 47 86 48 39 50 73 51 52 52 72 53
REMARK SMILES IDX 53 54 56 55 71 56 91 57 54 58 55 59 70 61 92 62 57 63 40 64
REMARK SMILES IDX 41 65 50 66 42 67 43 68 49 69 51 70 44 71 45 72 46 73 47 74
REMARK SMILES IDX 48 75 74 76 75 77 84 78 76 79 77 80 83 81 85 82 78 83 79 84
REMARK SMILES IDX 80 85 81 86 82 87 58 88 59 89 68 90 60 91 61 92 67 93 69 94
REMARK SMILES IDX 62 95 63 96 64 97 65 98 66 99
REMARK H PARENT 90 49 56 60
REMARK Flexibility Score: inf
ROOT
ATOM      1  C   UNL A   1      32.405  29.155  26.462  1.00  0.00     0.274 C 
ENDROOT
BRANCH   1   2
ATOM      2  O   UNL A   1      31.330  29.372  25.527  1.00  0.00    -0.460 OA
BRANCH   2   3
ATOM      3  C   UNL A   1      31.581  29.055  24.230  1.00  0.00     0.330 C 
ATOM      4  O   UNL A   1      30.851  29.379  23.293  1.00  0.00    -0.250 OA
BRANCH   3   5
ATOM      5  C   UNL A   1      32.801  28.188  24.010  1.00  0.00     0.213 C 
ATOM      6  C   UNL A   1      33.707  28.839  22.976  1.00  0.00     0.046 C 
BRANCH   5   7
ATOM      7  N   UNL A   1      32.549  26.774  23.728  1.00  0.00    -0.258 N 
ATOM      8  C   UNL A   1      32.778  24.690  23.002  1.00  0.00     0.078 A 
ATOM      9  C   UNL A   1      31.554  24.912  23.668  1.00  0.00     0.149 A 
ATOM     10  C   UNL A   1      33.410  25.919  23.077  1.00  0.00     0.123 A 
ATOM     11  N   UNL A   1      31.342  26.203  23.939  1.00  0.00    -0.180 NA
BRANCH   8  12
ATOM     12  C   UNL A   1      33.341  23.477  22.452  1.00  0.00     0.262 C 
ATOM     13  O   UNL A   1      33.669  23.358  21.283  1.00  0.00    -0.269 OA
BRANCH  12  14
ATOM     14  N   UNL A   1      33.350  22.342  23.381  1.00  0.00    -0.293 N 
ATOM     15  C   UNL A   1      37.968  22.016  25.381  1.00  0.00     0.069 C 
ATOM     16  C   UNL A   1      36.539  21.835  25.012  1.00  0.00     0.062 A 
ATOM     17  C   UNL A   1      35.748  22.651  24.159  1.00  0.00     0.072 A 
ATOM     18  N   UNL A   1      35.838  20.796  25.482  1.00  0.00    -0.176 NA
ATOM     19  C   UNL A   1      34.523  22.028  24.087  1.00  0.00     0.134 A 
ATOM     20  N   UNL A   1      34.646  20.926  24.892  1.00  0.00    -0.237 N 
ATOM     21  C   UNL A   1      33.590  19.982  25.164  1.00  0.00     0.216 C 
ATOM     22  C   UNL A   1      32.252  21.347  23.416  1.00  0.00     0.130 C 
ATOM     23  C   UNL A   1      32.231  20.531  24.711  1.00  0.00     0.059 C 
BRANCH  21  24
ATOM     24  C   UNL A   1      33.895  18.636  24.544  1.00  0.00     0.410 C 
ATOM     25  F   UNL A   1      35.239  18.510  24.378  1.00  0.00    -0.169 F 
ATOM     26  F   UNL A   1      33.509  17.620  25.347  1.00  0.00    -0.169 F 
ATOM     27  F   UNL A   1      33.343  18.455  23.329  1.00  0.00    -0.169 F 
ENDBRANCH  21  24
ENDBRANCH  12  14
ENDBRANCH   8  12
ENDBRANCH   5   7
ENDBRANCH   3   5
ENDBRANCH   2   3
ENDBRANCH   1   2
BRANCH   1  28
ATOM     28  C   UNL A   1      33.102  30.459  26.835  1.00  0.00     0.275 C 
BRANCH  28  29
ATOM     29  O   UNL A   1      34.499  30.262  27.045  1.00  0.00    -0.458 OA
BRANCH  29  30
ATOM     30  C   UNL A   1      35.102  31.285  27.701  1.00  0.00     0.338 C 
ATOM     31  O   UNL A   1      34.950  32.465  27.510  1.00  0.00    -0.246 OA
BRANCH  30  32
ATOM     32  C   UNL A   1      36.167  30.778  28.564  1.00  0.00     0.060 A 
ATOM     33  C   UNL A   1      37.054  31.732  29.081  1.00  0.00     0.016 A 
ATOM     34  C   UNL A   1      36.463  29.414  28.519  1.00  0.00     0.016 A 
ATOM     35  C   UNL A   1      38.335  31.335  29.379  1.00  0.00     0.010 A 
ATOM     36  C   UNL A   1      37.747  29.026  28.791  1.00  0.00     0.010 A 
ATOM     37  C   UNL A   1      38.679  30.004  29.143  1.00  0.00    -0.014 A 
BRANCH  37  38
ATOM     38  C   UNL A   1      40.051  29.602  29.338  1.00  0.00     0.031 A 
ATOM     39  C   UNL A   1      40.438  29.546  30.762  1.00  0.00     0.074 A 
ATOM     40  C   UNL A   1      40.789  29.161  28.304  1.00  0.00     0.049 A 
ATOM     41  N   UNL A   1      41.318  30.271  31.365  1.00  0.00    -0.248 NA
ATOM     42  C   UNL A   1      39.615  28.724  31.667  1.00  0.00     0.031 C 
ATOM     43  C   UNL A   1      40.368  28.947  26.916  1.00  0.00     0.029 A 
ATOM     44  N   UNL A   1      42.056  28.678  28.313  1.00  0.00    -0.354 N 
ATOM     45  C   UNL A   1      41.321  29.825  32.681  1.00  0.00     0.074 A 
ATOM     46  C   UNL A   1      40.121  29.051  32.854  1.00  0.00     0.031 C 
ATOM     47  C   UNL A   1      41.275  28.160  26.298  1.00  0.00     0.029 A 
ATOM     48  C   UNL A   1      42.375  27.899  27.210  1.00  0.00     0.049 A 
ATOM     49  H   UNL A   1      42.693  28.863  29.040  1.00  0.00     0.167 HD
ATOM     50  C   UNL A   1      42.437  29.903  33.453  1.00  0.00     0.037 A 
ATOM     51  C   UNL A   1      43.411  27.024  27.130  1.00  0.00     0.037 A 
ATOM     52  C   UNL A   1      43.417  30.782  32.872  1.00  0.00     0.049 A 
ATOM     53  C   UNL A   1      44.386  27.415  28.192  1.00  0.00     0.074 A 
ATOM     54  C   UNL A   1      43.423  32.120  32.531  1.00  0.00     0.029 A 
ATOM     55  N   UNL A   1      44.464  30.208  32.190  1.00  0.00    -0.354 N 
ATOM     56  N   UNL A   1      45.057  28.538  28.174  1.00  0.00    -0.248 NA
ATOM     57  C   UNL A   1      44.249  26.805  29.510  1.00  0.00     0.031 C 
ATOM     58  C   UNL A   1      44.164  32.189  31.318  1.00  0.00     0.029 A 
ATOM     59  C   UNL A   1      44.626  30.906  31.019  1.00  0.00     0.049 A 
ATOM     60  H   UNL A   1      45.000  29.437  32.487  1.00  0.00     0.167 HD
ATOM     61  C   UNL A   1      45.049  28.986  29.489  1.00  0.00     0.074 A 
ATOM     62  C   UNL A   1      44.616  27.836  30.279  1.00  0.00     0.031 C 
ATOM     63  C   UNL A   1      45.099  30.320  29.783  1.00  0.00     0.037 A 
BRANCH  50  64
ATOM     64  C   UNL A   1      42.777  28.911  34.530  1.00  0.00     0.058 A 
ATOM     65  C   UNL A   1      43.053  29.374  35.830  1.00  0.00     0.135 A 
ATOM     66  C   UNL A   1      43.102  27.559  34.276  1.00  0.00     0.135 A 
ATOM     67  F   UNL A   1      42.795  30.646  36.170  1.00  0.00    -0.206 F 
ATOM     68  C   UNL A   1      43.668  28.570  36.788  1.00  0.00     0.059 A 
ATOM     69  C   UNL A   1      43.658  26.723  35.233  1.00  0.00     0.059 A 
ATOM     70  F   UNL A   1      42.996  27.014  33.057  1.00  0.00    -0.206 F 
ATOM     71  C   UNL A   1      43.979  27.249  36.472  1.00  0.00     0.060 A 
BRANCH  71  72
ATOM     72  S   UNL A   1      44.875  26.243  37.664  1.00  0.00     0.124 S 
ATOM     73  O   UNL A   1      46.130  26.978  37.774  1.00  0.00    -0.237 OA
ATOM     74  O   UNL A   1      43.995  26.295  38.826  1.00  0.00    -0.237 OA
ATOM     75  O   UNL A   1      44.961  24.942  37.005  1.00  0.00    -0.744 OA
ENDBRANCH  71  72
ENDBRANCH  50  64
BRANCH  51  76
ATOM     76  C   UNL A   1      43.412  25.695  26.455  1.00  0.00     0.058 A 
ATOM     77  C   UNL A   1      44.240  25.436  25.346  1.00  0.00     0.135 A 
ATOM     78  C   UNL A   1      42.790  24.565  27.028  1.00  0.00     0.135 A 
ATOM     79  F   UNL A   1      44.893  26.441  24.744  1.00  0.00    -0.206 F 
ATOM     80  C   UNL A   1      44.469  24.138  24.868  1.00  0.00     0.059 A 
ATOM     81  C   UNL A   1      42.987  23.268  26.560  1.00  0.00     0.059 A 
ATOM     82  F   UNL A   1      42.035  24.665  28.132  1.00  0.00    -0.206 F 
ATOM     83  C   UNL A   1      43.851  23.057  25.497  1.00  0.00     0.060 A 
BRANCH  83  84
ATOM     84  S   UNL A   1      44.283  21.367  25.020  1.00  0.00     0.124 S 
ATOM     85  O   UNL A   1      44.423  21.489  23.573  1.00  0.00    -0.237 OA
ATOM     86  O   UNL A   1      45.516  21.142  25.767  1.00  0.00    -0.237 OA
ATOM     87  O   UNL A   1      43.135  20.585  25.473  1.00  0.00    -0.744 OA
ENDBRANCH  83  84
ENDBRANCH  51  76
BRANCH  63  88
ATOM     88  C   UNL A   1      45.425  31.285  28.670  1.00  0.00     0.058 A 
ATOM     89  C   UNL A   1      44.468  31.832  27.797  1.00  0.00     0.135 A 
ATOM     90  C   UNL A   1      46.722  31.814  28.602  1.00  0.00     0.135 A 
ATOM     91  F   UNL A   1      43.181  31.473  27.872  1.00  0.00    -0.206 F 
ATOM     92  C   UNL A   1      44.790  32.827  26.874  1.00  0.00     0.059 A 
ATOM     93  C   UNL A   1      47.060  32.832  27.712  1.00  0.00     0.059 A 
ATOM     94  F   UNL A   1      47.668  31.387  29.455  1.00  0.00    -0.206 F 
ATOM     95  C   UNL A   1      46.089  33.327  26.844  1.00  0.00     0.060 A 
BRANCH  95  96
ATOM     96  S   UNL A   1      46.472  34.691  25.724  1.00  0.00     0.124 S 
ATOM     97  O   UNL A   1      45.519  34.474  24.641  1.00  0.00    -0.237 OA
ATOM     98  O   UNL A   1      46.228  35.866  26.556  1.00  0.00    -0.237 OA
ATOM     99  O   UNL A   1      47.873  34.466  25.379  1.00  0.00    -0.744 OA
ENDBRANCH  95  96
ENDBRANCH  63  88
ENDBRANCH  37  38
ENDBRANCH  30  32
ENDBRANCH  29  30
ENDBRANCH  28  29
ENDBRANCH   1  28
TORSDOF 18
ENDMDL
MODEL 3
REMARK VINA RESULT:     -12.4      1.591      2.201
REMARK SMILES Cc1cc2n(n1)[C@H](C(F)(F)F)CCN2C(=O)c1cnn([C@@H](C)C(=O)OCCOC(=O)c2ccc(-c3c4nc(c(-c5c(F)cc(S(=O)(=O)[O-])cc5F)c5ccc([nH]5)c(-c5c(F)cc(S(=O)(=O)[O-])cc5F)c5nc(c(-c6c(F)cc(S(=O)(=O)[O-])cc6F)c6ccc3[nH]6)C=C5)C=C4)cc2)c1
REMARK SMILES IDX 26 1 25 2 23 3 24 4 21 5 22 6 20 7 17 8 18 9 97 10 19 11
REMARK SMILES IDX 15 12 16 13 14 14 1 15 2 16 3 17 6 18 4 19 5 20 7 21 13 22
REMARK SMILES IDX 12 23 8 24 9 25 10 26 11 27 27 28 28 29 29 30 30 31 31 32
REMARK SMILES IDX 32 33 96 34 33 35 95 36 34 37 35 38 36 39 89 40 37 41 94 42
REMARK SMILES IDX 88 43 90 44 38 45 93 46 87 47 86 48 39 50 73 51 52 52 72 53
REMARK SMILES IDX 53 54 56 55 71 56 91 57 54 58 55 59 70 61 92 62 57 63 40 64
REMARK SMILES IDX 41 65 50 66 42 67 43 68 49 69 51 70 44 71 45 72 46 73 47 74
REMARK SMILES IDX 48 75 74 76 75 77 84 78 76 79 77 80 83 81 85 82 78 83 79 84
REMARK SMILES IDX 80 85 81 86 82 87 58 88 59 89 68 90 60 91 61 92 67 93 69 94
REMARK SMILES IDX 62 95 63 96 64 97 65 98 66 99
REMARK H PARENT 90 49 56 60
REMARK Flexibility Score: inf
ROOT
ATOM      1  C   UNL A   1      36.502  21.658  24.591  1.00  0.00     0.274 C 
ENDROOT
BRANCH   1   2
ATOM      2  O   UNL A   1      35.354  21.149  25.301  1.00  0.00    -0.460 OA
BRANCH   2   3
ATOM      3  C   UNL A   1      34.452  22.068  25.732  1.00  0.00     0.330 C 
ATOM      4  O   UNL A   1      34.740  23.022  26.454  1.00  0.00    -0.250 OA
BRANCH   3   5
ATOM      5  C   UNL A   1      33.020  21.795  25.326  1.00  0.00     0.213 C 
ATOM      6  C   UNL A   1      32.971  21.435  23.850  1.00  0.00     0.046 C 
BRANCH   5   7
ATOM      7  N   UNL A   1      32.038  22.818  25.689  1.00  0.00    -0.258 N 
ATOM      8  C   UNL A   1      30.859  24.698  25.728  1.00  0.00     0.078 A 
ATOM      9  C   UNL A   1      30.465  23.777  26.722  1.00  0.00     0.149 A 
ATOM     10  C   UNL A   1      31.873  24.032  25.061  1.00  0.00     0.123 A 
ATOM     11  N   UNL A   1      31.292  22.732  26.814  1.00  0.00    -0.180 NA
BRANCH   8  12
ATOM     12  C   UNL A   1      30.310  25.987  25.371  1.00  0.00     0.262 C 
ATOM     13  O   UNL A   1      29.284  26.124  24.724  1.00  0.00    -0.269 OA
BRANCH  12  14
ATOM     14  N   UNL A   1      31.167  27.124  25.721  1.00  0.00    -0.293 N 
ATOM     15  C   UNL A   1      33.994  28.231  21.695  1.00  0.00     0.069 C 
ATOM     16  C   UNL A   1      33.329  28.189  23.024  1.00  0.00     0.062 A 
ATOM     17  C   UNL A   1      32.266  27.344  23.443  1.00  0.00     0.072 A 
ATOM     18  N   UNL A   1      33.725  29.002  24.012  1.00  0.00    -0.176 NA
ATOM     19  C   UNL A   1      32.058  27.646  24.769  1.00  0.00     0.134 A 
ATOM     20  N   UNL A   1      32.964  28.635  25.047  1.00  0.00    -0.237 N 
ATOM     21  C   UNL A   1      33.089  29.304  26.318  1.00  0.00     0.216 C 
ATOM     22  C   UNL A   1      31.325  27.586  27.121  1.00  0.00     0.130 C 
ATOM     23  C   UNL A   1      31.882  29.009  27.218  1.00  0.00     0.059 C 
BRANCH  21  24
ATOM     24  C   UNL A   1      34.398  28.950  26.990  1.00  0.00     0.410 C 
ATOM     25  F   UNL A   1      34.251  29.039  28.339  1.00  0.00    -0.169 F 
ATOM     26  F   UNL A   1      34.764  27.676  26.726  1.00  0.00    -0.169 F 
ATOM     27  F   UNL A   1      35.419  29.765  26.664  1.00  0.00    -0.169 F 
ENDBRANCH  21  24
ENDBRANCH  12  14
ENDBRANCH   8  12
ENDBRANCH   5   7
ENDBRANCH   3   5
ENDBRANCH   2   3
ENDBRANCH   1   2
BRANCH   1  28
ATOM     28  C   UNL A   1      37.802  21.352  25.326  1.00  0.00     0.275 C 
BRANCH  28  29
ATOM     29  O   UNL A   1      38.202  22.441  26.154  1.00  0.00    -0.458 OA
BRANCH  29  30
ATOM     30  C   UNL A   1      39.462  22.323  26.642  1.00  0.00     0.338 C 
ATOM     31  O   UNL A   1      39.975  21.338  27.107  1.00  0.00    -0.246 OA
BRANCH  30  32
ATOM     32  C   UNL A   1      40.094  23.637  26.742  1.00  0.00     0.060 A 
ATOM     33  C   UNL A   1      41.354  23.675  27.353  1.00  0.00     0.016 A 
ATOM     34  C   UNL A   1      39.293  24.770  26.588  1.00  0.00     0.016 A 
ATOM     35  C   UNL A   1      41.734  24.830  27.992  1.00  0.00     0.010 A 
ATOM     36  C   UNL A   1      39.661  25.912  27.248  1.00  0.00     0.010 A 
ATOM     37  C   UNL A   1      40.837  25.898  27.999  1.00  0.00    -0.014 A 
BRANCH  37  38
ATOM     38  C   UNL A   1      41.170  27.074  28.766  1.00  0.00     0.031 A 
ATOM     39  C   UNL A   1      42.312  27.824  28.203  1.00  0.00     0.074 A 
ATOM     40  C   UNL A   1      40.375  27.487  29.768  1.00  0.00     0.049 A 
ATOM     41  N   UNL A   1      43.465  28.021  28.746  1.00  0.00    -0.248 NA
ATOM     42  C   UNL A   1      42.233  28.238  26.791  1.00  0.00     0.031 C 
ATOM     43  C   UNL A   1      39.089  26.926  30.194  1.00  0.00     0.029 A 
ATOM     44  N   UNL A   1      40.491  28.597  30.538  1.00  0.00    -0.354 N 
ATOM     45  C   UNL A   1      44.173  28.791  27.830  1.00  0.00     0.074 A 
ATOM     46  C   UNL A   1      43.464  28.700  26.582  1.00  0.00     0.031 C 
ATOM     47  C   UNL A   1      38.447  27.833  30.964  1.00  0.00     0.029 A 
ATOM     48  C   UNL A   1      39.311  28.985  31.158  1.00  0.00     0.049 A 
ATOM     49  H   UNL A   1      41.338  29.086  30.648  1.00  0.00     0.167 HD
ATOM     50  C   UNL A   1      45.140  29.658  28.232  1.00  0.00     0.037 A 
ATOM     51  C   UNL A   1      39.055  30.213  31.679  1.00  0.00     0.037 A 
ATOM     52  C   UNL A   1      45.542  29.405  29.590  1.00  0.00     0.049 A 
ATOM     53  C   UNL A   1      40.379  30.865  31.911  1.00  0.00     0.074 A 
ATOM     54  C   UNL A   1      46.089  28.316  30.241  1.00  0.00     0.029 A 
ATOM     55  N   UNL A   1      45.023  30.217  30.571  1.00  0.00    -0.354 N 
ATOM     56  N   UNL A   1      41.245  30.439  32.794  1.00  0.00    -0.248 NA
ATOM     57  C   UNL A   1      40.946  31.671  30.837  1.00  0.00     0.031 C 
ATOM     58  C   UNL A   1      45.465  28.299  31.521  1.00  0.00     0.029 A 
ATOM     59  C   UNL A   1      44.624  29.410  31.608  1.00  0.00     0.049 A 
ATOM     60  H   UNL A   1      44.952  31.198  30.536  1.00  0.00     0.167 HD
ATOM     61  C   UNL A   1      42.481  30.549  32.171  1.00  0.00     0.074 A 
ATOM     62  C   UNL A   1      42.244  31.396  31.004  1.00  0.00     0.031 C 
ATOM     63  C   UNL A   1      43.510  29.704  32.482  1.00  0.00     0.037 A 
BRANCH  50  64
ATOM     64  C   UNL A   1      45.452  30.946  27.523  1.00  0.00     0.058 A 
ATOM     65  C   UNL A   1      46.737  31.143  26.985  1.00  0.00     0.135 A 
ATOM     66  C   UNL A   1      44.629  32.094  27.586  1.00  0.00     0.135 A 
ATOM     67  F   UNL A   1      47.602  30.120  26.894  1.00  0.00    -0.206 F 
ATOM     68  C   UNL A   1      47.194  32.400  26.597  1.00  0.00     0.059 A 
ATOM     69  C   UNL A   1      45.041  33.344  27.148  1.00  0.00     0.059 A 
ATOM     70  F   UNL A   1      43.424  32.080  28.172  1.00  0.00    -0.206 F 
ATOM     71  C   UNL A   1      46.340  33.497  26.697  1.00  0.00     0.060 A 
BRANCH  71  72
ATOM     72  S   UNL A   1      46.962  35.140  26.307  1.00  0.00     0.124 S 
ATOM     73  O   UNL A   1      47.685  34.886  25.067  1.00  0.00    -0.237 OA
ATOM     74  O   UNL A   1      45.729  35.909  26.187  1.00  0.00    -0.237 OA
ATOM     75  O   UNL A   1      47.789  35.467  27.466  1.00  0.00    -0.744 OA
ENDBRANCH  71  72
ENDBRANCH  50  64
BRANCH  51  76
ATOM     76  C   UNL A   1      37.763  30.957  31.628  1.00  0.00     0.058 A 
ATOM     77  C   UNL A   1      37.024  31.222  32.796  1.00  0.00     0.135 A 
ATOM     78  C   UNL A   1      37.343  31.645  30.470  1.00  0.00     0.135 A 
ATOM     79  F   UNL A   1      37.359  30.633  33.954  1.00  0.00    -0.206 F 
ATOM     80  C   UNL A   1      35.967  32.143  32.821  1.00  0.00     0.059 A 
ATOM     81  C   UNL A   1      36.284  32.551  30.466  1.00  0.00     0.059 A 
ATOM     82  F   UNL A   1      38.006  31.537  29.310  1.00  0.00    -0.206 F 
ATOM     83  C   UNL A   1      35.618  32.818  31.652  1.00  0.00     0.060 A 
BRANCH  83  84
ATOM     84  S   UNL A   1      34.391  34.145  31.707  1.00  0.00     0.124 S 
ATOM     85  O   UNL A   1      35.212  35.300  32.050  1.00  0.00    -0.237 OA
ATOM     86  O   UNL A   1      33.852  34.122  30.351  1.00  0.00    -0.237 OA
ATOM     87  O   UNL A   1      33.464  33.705  32.747  1.00  0.00    -0.744 OA
ENDBRANCH  83  84
ENDBRANCH  51  76
BRANCH  63  88
ATOM     88  C   UNL A   1      43.364  28.819  33.697  1.00  0.00     0.058 A 
ATOM     89  C   UNL A   1      43.589  29.250  35.016  1.00  0.00     0.135 A 
ATOM     90  C   UNL A   1      42.800  27.546  33.532  1.00  0.00     0.135 A 
ATOM     91  F   UNL A   1      44.014  30.494  35.272  1.00  0.00    -0.206 F 
ATOM     92  C   UNL A   1      43.307  28.443  36.118  1.00  0.00     0.059 A 
ATOM     93  C   UNL A   1      42.477  26.734  34.618  1.00  0.00     0.059 A 
ATOM     94  F   UNL A   1      42.493  27.100  32.303  1.00  0.00    -0.206 F 
ATOM     95  C   UNL A   1      42.743  27.187  35.909  1.00  0.00     0.060 A 
BRANCH  95  96
ATOM     96  S   UNL A   1      42.278  26.191  37.342  1.00  0.00     0.124 S 
ATOM     97  O   UNL A   1      42.436  24.833  36.836  1.00  0.00    -0.237 OA
ATOM     98  O   UNL A   1      43.249  26.608  38.350  1.00  0.00    -0.237 OA
ATOM     99  O   UNL A   1      40.903  26.603  37.611  1.00  0.00    -0.744 OA
ENDBRANCH  95  96
ENDBRANCH  63  88
ENDBRANCH  37  38
ENDBRANCH  30  32
ENDBRANCH  29  30
ENDBRANCH  28  29
ENDBRANCH   1  28
TORSDOF 18
ENDMDL
