MODEL 1
REMARK VINA RESULT:     -10.7      0.000      0.000
REMARK SMILES CC(C)[C@@H](CC(=O)OCCOC(=O)c1ccc(-c2c3nc(c(-c4c(F)cc(S(=O)(=O)[O-])cc4F)c4ccc([nH]4)c(-c4c(F)cc(S(=O)(=O)[O-])cc4F)c4nc(c(-c5c(F)cc(S(=O)(=O)[O-])cc5F)c5ccc2[nH]5)C=C4)C=C3)cc1)NC(=O)OCc1ccccc1
REMARK SMILES IDX 9 1 8 2 6 3 7 4 5 5 4 6 2 7 1 8 3 9 80 10 81 11 82 13 83 14
REMARK SMILES IDX 84 15 85 16 86 17 90 18 87 19 89 20 88 21 10 22 11 23 12 24
REMARK SMILES IDX 13 25 14 26 15 27 79 28 16 29 78 30 17 31 18 32 19 33 72 34
REMARK SMILES IDX 20 35 77 36 71 37 73 38 21 39 76 40 70 41 69 42 22 44 56 45
REMARK SMILES IDX 35 46 55 47 36 48 39 49 54 50 74 51 37 52 38 53 53 55 75 56
REMARK SMILES IDX 40 57 23 58 24 59 33 60 25 61 26 62 32 63 34 64 27 65 28 66
REMARK SMILES IDX 29 67 30 68 31 69 57 70 58 71 67 72 59 73 60 74 66 75 68 76
REMARK SMILES IDX 61 77 62 78 63 79 64 80 65 81 41 82 42 83 51 84 43 85 44 86
REMARK SMILES IDX 50 87 52 88 45 89 46 90 47 91 48 92 49 93
REMARK H PARENT 80 12 73 43 39 54
REMARK Flexibility Score: inf
ROOT
ATOM      1  C   UNL A   1      38.295  21.931  25.657  1.00  0.00     0.274 C 
ENDROOT
BRANCH   1   2
ATOM      2  O   UNL A   1      37.746  22.968  24.817  1.00  0.00    -0.462 OA
BRANCH   2   3
ATOM      3  C   UNL A   1      36.580  22.688  24.189  1.00  0.00     0.308 C 
ATOM      4  O   UNL A   1      36.362  22.919  23.005  1.00  0.00    -0.252 OA
BRANCH   3   5
ATOM      5  C   UNL A   1      35.509  22.110  25.089  1.00  0.00     0.148 C 
BRANCH   5   6
ATOM      6  C   UNL A   1      34.166  22.839  25.252  1.00  0.00     0.099 C 
BRANCH   6   7
ATOM      7  C   UNL A   1      33.236  22.303  26.376  1.00  0.00     0.006 C 
ATOM      8  C   UNL A   1      34.018  21.853  27.612  1.00  0.00     0.009 C 
ATOM      9  C   UNL A   1      32.202  23.360  26.790  1.00  0.00     0.009 C 
ENDBRANCH   6   7
BRANCH   6  10
ATOM     10  N   UNL A   1      33.433  22.932  23.993  1.00  0.00    -0.318 N 
ATOM     11  C   UNL A   1      32.826  21.924  23.304  1.00  0.00     0.407 C 
ATOM     12  H   UNL A   1      33.369  23.830  23.593  1.00  0.00     0.167 HD
ATOM     13  O   UNL A   1      32.508  22.062  22.127  1.00  0.00    -0.225 OA
BRANCH  11  14
ATOM     14  O   UNL A   1      32.651  20.797  24.034  1.00  0.00    -0.445 OA
BRANCH  14  15
ATOM     15  C   UNL A   1      32.231  19.652  23.278  1.00  0.00     0.270 C 
BRANCH  15  16
ATOM     16  C   UNL A   1      32.761  18.360  23.846  1.00  0.00    -0.011 A 
ATOM     17  C   UNL A   1      33.486  17.477  23.031  1.00  0.00     0.007 A 
ATOM     18  C   UNL A   1      32.533  18.019  25.186  1.00  0.00     0.007 A 
ATOM     19  C   UNL A   1      33.991  16.287  23.551  1.00  0.00     0.000 A 
ATOM     20  C   UNL A   1      33.034  16.823  25.702  1.00  0.00     0.000 A 
ATOM     21  C   UNL A   1      33.767  15.965  24.887  1.00  0.00     0.000 A 
ENDBRANCH  15  16
ENDBRANCH  14  15
ENDBRANCH  11  14
ENDBRANCH   6  10
ENDBRANCH   5   6
ENDBRANCH   3   5
ENDBRANCH   2   3
ENDBRANCH   1   2
BRANCH   1  22
ATOM     22  C   UNL A   1      39.453  22.453  26.510  1.00  0.00     0.275 C 
BRANCH  22  23
ATOM     23  O   UNL A   1      39.384  23.880  26.675  1.00  0.00    -0.458 OA
BRANCH  23  24
ATOM     24  C   UNL A   1      40.584  24.477  26.859  1.00  0.00     0.338 C 
ATOM     25  O   UNL A   1      41.610  24.246  26.242  1.00  0.00    -0.246 OA
BRANCH  24  26
ATOM     26  C   UNL A   1      40.457  25.571  27.832  1.00  0.00     0.060 A 
ATOM     27  C   UNL A   1      41.525  26.456  27.986  1.00  0.00     0.016 A 
ATOM     28  C   UNL A   1      39.333  25.671  28.651  1.00  0.00     0.016 A 
ATOM     29  C   UNL A   1      41.487  27.438  28.972  1.00  0.00     0.010 A 
ATOM     30  C   UNL A   1      39.282  26.679  29.619  1.00  0.00     0.010 A 
ATOM     31  C   UNL A   1      40.363  27.562  29.797  1.00  0.00    -0.014 A 
BRANCH  31  32
ATOM     32  C   UNL A   1      40.329  28.607  30.852  1.00  0.00     0.031 A 
ATOM     33  C   UNL A   1      41.196  28.475  32.075  1.00  0.00     0.074 A 
ATOM     34  C   UNL A   1      39.516  29.672  30.710  1.00  0.00     0.049 A 
ATOM     35  N   UNL A   1      41.271  29.259  33.120  1.00  0.00    -0.248 NA
ATOM     36  C   UNL A   1      42.094  27.311  32.133  1.00  0.00     0.031 C 
ATOM     37  C   UNL A   1      38.639  29.918  29.563  1.00  0.00     0.029 A 
ATOM     38  N   UNL A   1      39.277  30.735  31.544  1.00  0.00    -0.354 N 
ATOM     39  C   UNL A   1      42.239  28.698  33.946  1.00  0.00     0.074 A 
ATOM     40  C   UNL A   1      42.677  27.475  33.312  1.00  0.00     0.031 C 
ATOM     41  C   UNL A   1      37.945  31.047  29.775  1.00  0.00     0.029 A 
ATOM     42  C   UNL A   1      38.291  31.579  31.090  1.00  0.00     0.049 A 
ATOM     43  H   UNL A   1      39.765  30.881  32.387  1.00  0.00     0.167 HD
ATOM     44  C   UNL A   1      42.736  29.177  35.111  1.00  0.00     0.037 A 
ATOM     45  C   UNL A   1      37.702  32.637  31.682  1.00  0.00     0.037 A 
ATOM     46  C   UNL A   1      42.268  30.372  35.758  1.00  0.00     0.049 A 
ATOM     47  C   UNL A   1      38.167  33.065  33.047  1.00  0.00     0.074 A 
ATOM     48  C   UNL A   1      42.704  30.937  36.944  1.00  0.00     0.029 A 
ATOM     49  N   UNL A   1      41.238  31.175  35.289  1.00  0.00    -0.354 N 
ATOM     50  N   UNL A   1      39.122  32.556  33.788  1.00  0.00    -0.248 NA
ATOM     51  C   UNL A   1      37.476  34.208  33.657  1.00  0.00     0.031 C 
ATOM     52  C   UNL A   1      41.898  32.048  37.220  1.00  0.00     0.029 A 
ATOM     53  C   UNL A   1      40.996  32.207  36.179  1.00  0.00     0.049 A 
ATOM     54  H   UNL A   1      40.751  31.032  34.445  1.00  0.00     0.167 HD
ATOM     55  C   UNL A   1      39.165  33.333  34.941  1.00  0.00     0.074 A 
ATOM     56  C   UNL A   1      38.145  34.351  34.793  1.00  0.00     0.031 C 
ATOM     57  C   UNL A   1      39.979  33.217  36.020  1.00  0.00     0.037 A 
BRANCH  44  58
ATOM     58  C   UNL A   1      43.844  28.398  35.764  1.00  0.00     0.058 A 
ATOM     59  C   UNL A   1      43.571  27.387  36.699  1.00  0.00     0.135 A 
ATOM     60  C   UNL A   1      45.186  28.632  35.426  1.00  0.00     0.135 A 
ATOM     61  F   UNL A   1      42.305  27.116  37.050  1.00  0.00    -0.206 F 
ATOM     62  C   UNL A   1      44.590  26.659  37.304  1.00  0.00     0.059 A 
ATOM     63  C   UNL A   1      46.221  27.900  36.000  1.00  0.00     0.059 A 
ATOM     64  F   UNL A   1      45.500  29.582  34.531  1.00  0.00    -0.206 F 
ATOM     65  C   UNL A   1      45.914  26.925  36.950  1.00  0.00     0.060 A 
BRANCH  65  66
ATOM     66  S   UNL A   1      47.226  25.970  37.742  1.00  0.00     0.124 S 
ATOM     67  O   UNL A   1      46.575  25.555  38.981  1.00  0.00    -0.237 OA
ATOM     68  O   UNL A   1      47.473  24.910  36.770  1.00  0.00    -0.237 OA
ATOM     69  O   UNL A   1      48.306  26.940  37.897  1.00  0.00    -0.744 OA
ENDBRANCH  65  66
ENDBRANCH  44  58
BRANCH  45  70
ATOM     70  C   UNL A   1      36.579  33.336  30.999  1.00  0.00     0.058 A 
ATOM     71  C   UNL A   1      36.796  34.128  29.863  1.00  0.00     0.135 A 
ATOM     72  C   UNL A   1      35.261  33.216  31.470  1.00  0.00     0.135 A 
ATOM     73  F   UNL A   1      38.038  34.284  29.381  1.00  0.00    -0.206 F 
ATOM     74  C   UNL A   1      35.749  34.787  29.224  1.00  0.00     0.059 A 
ATOM     75  C   UNL A   1      34.195  33.842  30.832  1.00  0.00     0.059 A 
ATOM     76  F   UNL A   1      34.998  32.461  32.548  1.00  0.00    -0.206 F 
ATOM     77  C   UNL A   1      34.451  34.635  29.715  1.00  0.00     0.060 A 
BRANCH  77  78
ATOM     78  S   UNL A   1      33.094  35.456  28.852  1.00  0.00     0.124 S 
ATOM     79  O   UNL A   1      32.556  34.367  28.046  1.00  0.00    -0.237 OA
ATOM     80  O   UNL A   1      32.254  35.905  29.960  1.00  0.00    -0.237 OA
ATOM     81  O   UNL A   1      33.762  36.521  28.111  1.00  0.00    -0.744 OA
ENDBRANCH  77  78
ENDBRANCH  45  70
BRANCH  57  82
ATOM     82  C   UNL A   1      39.826  34.234  37.114  1.00  0.00     0.058 A 
ATOM     83  C   UNL A   1      39.047  33.981  38.254  1.00  0.00     0.135 A 
ATOM     84  C   UNL A   1      40.509  35.460  37.046  1.00  0.00     0.135 A 
ATOM     85  F   UNL A   1      38.366  32.829  38.366  1.00  0.00    -0.206 F 
ATOM     86  C   UNL A   1      38.935  34.915  39.280  1.00  0.00     0.059 A 
ATOM     87  C   UNL A   1      40.434  36.396  38.072  1.00  0.00     0.059 A 
ATOM     88  F   UNL A   1      41.274  35.748  35.981  1.00  0.00    -0.206 F 
ATOM     89  C   UNL A   1      39.635  36.120  39.180  1.00  0.00     0.060 A 
BRANCH  89  90
ATOM     90  S   UNL A   1      39.512  37.307  40.533  1.00  0.00     0.124 S 
ATOM     91  O   UNL A   1      38.770  38.395  39.904  1.00  0.00    -0.237 OA
ATOM     92  O   UNL A   1      38.788  36.551  41.550  1.00  0.00    -0.237 OA
ATOM     93  O   UNL A   1      40.905  37.602  40.855  1.00  0.00    -0.744 OA
ENDBRANCH  89  90
ENDBRANCH  57  82
ENDBRANCH  31  32
ENDBRANCH  24  26
ENDBRANCH  23  24
ENDBRANCH  22  23
ENDBRANCH   1  22
TORSDOF 20
ENDMDL
MODEL 2
REMARK VINA RESULT:     -10.7      1.606      3.545
REMARK SMILES CC(C)[C@@H](CC(=O)OCCOC(=O)c1ccc(-c2c3nc(c(-c4c(F)cc(S(=O)(=O)[O-])cc4F)c4ccc([nH]4)c(-c4c(F)cc(S(=O)(=O)[O-])cc4F)c4nc(c(-c5c(F)cc(S(=O)(=O)[O-])cc5F)c5ccc2[nH]5)C=C4)C=C3)cc1)NC(=O)OCc1ccccc1
REMARK SMILES IDX 9 1 8 2 6 3 7 4 5 5 4 6 2 7 1 8 3 9 80 10 81 11 82 13 83 14
REMARK SMILES IDX 84 15 85 16 86 17 90 18 87 19 89 20 88 21 10 22 11 23 12 24
REMARK SMILES IDX 13 25 14 26 15 27 79 28 16 29 78 30 17 31 18 32 19 33 72 34
REMARK SMILES IDX 20 35 77 36 71 37 73 38 21 39 76 40 70 41 69 42 22 44 56 45
REMARK SMILES IDX 35 46 55 47 36 48 39 49 54 50 74 51 37 52 38 53 53 55 75 56
REMARK SMILES IDX 40 57 23 58 24 59 33 60 25 61 26 62 32 63 34 64 27 65 28 66
REMARK SMILES IDX 29 67 30 68 31 69 57 70 58 71 67 72 59 73 60 74 66 75 68 76
REMARK SMILES IDX 61 77 62 78 63 79 64 80 65 81 41 82 42 83 51 84 43 85 44 86
REMARK SMILES IDX 50 87 52 88 45 89 46 90 47 91 48 92 49 93
REMARK H PARENT 80 12 73 43 39 54
REMARK Flexibility Score: inf
ROOT
ATOM      1  C   UNL A   1      38.341  21.866  25.784  1.00  0.00     0.274 C 
ENDROOT
BRANCH   1   2
ATOM      2  O   UNL A   1      37.514  22.935  25.280  1.00  0.00    -0.462 OA
BRANCH   2   3
ATOM      3  C   UNL A   1      36.190  22.861  25.553  1.00  0.00     0.308 C 
ATOM      4  O   UNL A   1      35.682  23.234  26.605  1.00  0.00    -0.252 OA
BRANCH   3   5
ATOM      5  C   UNL A   1      35.362  22.212  24.465  1.00  0.00     0.148 C 
BRANCH   5   6
ATOM      6  C   UNL A   1      33.985  22.789  24.099  1.00  0.00     0.099 C 
BRANCH   6   7
ATOM      7  C   UNL A   1      32.826  21.759  23.992  1.00  0.00     0.006 C 
ATOM      8  C   UNL A   1      32.280  21.644  22.568  1.00  0.00     0.009 C 
ATOM      9  C   UNL A   1      33.274  20.372  24.475  1.00  0.00     0.009 C 
ENDBRANCH   6   7
BRANCH   6  10
ATOM     10  N   UNL A   1      34.036  23.616  22.898  1.00  0.00    -0.318 N 
ATOM     11  C   UNL A   1      33.827  24.960  22.800  1.00  0.00     0.407 C 
ATOM     12  H   UNL A   1      34.247  23.149  22.057  1.00  0.00     0.167 HD
ATOM     13  O   UNL A   1      33.599  25.489  21.716  1.00  0.00    -0.225 OA
BRANCH  11  14
ATOM     14  O   UNL A   1      33.870  25.604  23.990  1.00  0.00    -0.445 OA
BRANCH  14  15
ATOM     15  C   UNL A   1      33.775  27.033  23.903  1.00  0.00     0.270 C 
BRANCH  15  16
ATOM     16  C   UNL A   1      33.206  27.650  25.156  1.00  0.00    -0.011 A 
ATOM     17  C   UNL A   1      33.871  28.716  25.781  1.00  0.00     0.007 A 
ATOM     18  C   UNL A   1      32.015  27.168  25.715  1.00  0.00     0.007 A 
ATOM     19  C   UNL A   1      33.346  29.301  26.931  1.00  0.00     0.000 A 
ATOM     20  C   UNL A   1      31.494  27.751  26.871  1.00  0.00     0.000 A 
ATOM     21  C   UNL A   1      32.156  28.820  27.471  1.00  0.00     0.000 A 
ENDBRANCH  15  16
ENDBRANCH  14  15
ENDBRANCH  11  14
ENDBRANCH   6  10
ENDBRANCH   5   6
ENDBRANCH   3   5
ENDBRANCH   2   3
ENDBRANCH   1   2
BRANCH   1  22
ATOM     22  C   UNL A   1      39.711  22.378  26.232  1.00  0.00     0.275 C 
BRANCH  22  23
ATOM     23  O   UNL A   1      39.597  23.603  26.978  1.00  0.00    -0.458 OA
BRANCH  23  24
ATOM     24  C   UNL A   1      40.683  24.407  26.896  1.00  0.00     0.338 C 
ATOM     25  O   UNL A   1      41.588  24.320  26.083  1.00  0.00    -0.246 OA
BRANCH  24  26
ATOM     26  C   UNL A   1      40.560  25.516  27.852  1.00  0.00     0.060 A 
ATOM     27  C   UNL A   1      41.651  26.368  28.030  1.00  0.00     0.016 A 
ATOM     28  C   UNL A   1      39.415  25.661  28.633  1.00  0.00     0.016 A 
ATOM     29  C   UNL A   1      41.613  27.363  29.003  1.00  0.00     0.010 A 
ATOM     30  C   UNL A   1      39.365  26.683  29.587  1.00  0.00     0.010 A 
ATOM     31  C   UNL A   1      40.468  27.533  29.790  1.00  0.00    -0.014 A 
BRANCH  31  32
ATOM     32  C   UNL A   1      40.434  28.591  30.832  1.00  0.00     0.031 A 
ATOM     33  C   UNL A   1      41.315  28.485  32.047  1.00  0.00     0.074 A 
ATOM     34  C   UNL A   1      39.608  29.645  30.684  1.00  0.00     0.049 A 
ATOM     35  N   UNL A   1      41.393  29.283  33.081  1.00  0.00    -0.248 NA
ATOM     36  C   UNL A   1      42.226  27.331  32.110  1.00  0.00     0.031 C 
ATOM     37  C   UNL A   1      38.716  29.867  29.544  1.00  0.00     0.029 A 
ATOM     38  N   UNL A   1      39.367  30.717  31.507  1.00  0.00    -0.354 N 
ATOM     39  C   UNL A   1      42.376  28.744  33.904  1.00  0.00     0.074 A 
ATOM     40  C   UNL A   1      42.820  27.517  33.281  1.00  0.00     0.031 C 
ATOM     41  C   UNL A   1      38.012  30.991  29.749  1.00  0.00     0.029 A 
ATOM     42  C   UNL A   1      38.366  31.544  31.053  1.00  0.00     0.049 A 
ATOM     43  H   UNL A   1      39.862  30.879  32.343  1.00  0.00     0.167 HD
ATOM     44  C   UNL A   1      42.880  29.243  35.057  1.00  0.00     0.037 A 
ATOM     45  C   UNL A   1      37.773  32.604  31.637  1.00  0.00     0.037 A 
ATOM     46  C   UNL A   1      42.406  30.442  35.693  1.00  0.00     0.049 A 
ATOM     47  C   UNL A   1      38.248  33.055  32.991  1.00  0.00     0.074 A 
ATOM     48  C   UNL A   1      42.849  31.027  36.867  1.00  0.00     0.029 A 
ATOM     49  N   UNL A   1      41.362  31.227  35.224  1.00  0.00    -0.354 N 
ATOM     50  N   UNL A   1      39.216  32.565  33.728  1.00  0.00    -0.248 NA
ATOM     51  C   UNL A   1      37.551  34.199  33.594  1.00  0.00     0.031 C 
ATOM     52  C   UNL A   1      42.034  32.133  37.137  1.00  0.00     0.029 A 
ATOM     53  C   UNL A   1      41.120  32.269  36.104  1.00  0.00     0.049 A 
ATOM     54  H   UNL A   1      40.868  31.068  34.388  1.00  0.00     0.167 HD
ATOM     55  C   UNL A   1      39.263  33.359  34.870  1.00  0.00     0.074 A 
ATOM     56  C   UNL A   1      38.231  34.364  34.720  1.00  0.00     0.031 C 
ATOM     57  C   UNL A   1      40.090  33.265  35.942  1.00  0.00     0.037 A 
BRANCH  44  58
ATOM     58  C   UNL A   1      44.003  28.484  35.707  1.00  0.00     0.058 A 
ATOM     59  C   UNL A   1      43.752  27.486  36.661  1.00  0.00     0.135 A 
ATOM     60  C   UNL A   1      45.339  28.726  35.350  1.00  0.00     0.135 A 
ATOM     61  F   UNL A   1      42.492  27.208  37.032  1.00  0.00    -0.206 F 
ATOM     62  C   UNL A   1      44.785  26.777  37.265  1.00  0.00     0.059 A 
ATOM     63  C   UNL A   1      46.388  28.012  35.922  1.00  0.00     0.059 A 
ATOM     64  F   UNL A   1      45.633  29.665  34.436  1.00  0.00    -0.206 F 
ATOM     65  C   UNL A   1      46.101  27.050  36.890  1.00  0.00     0.060 A 
BRANCH  65  66
ATOM     66  S   UNL A   1      47.432  26.120  37.681  1.00  0.00     0.124 S 
ATOM     67  O   UNL A   1      47.146  24.761  37.228  1.00  0.00    -0.237 OA
ATOM     68  O   UNL A   1      48.626  26.738  37.114  1.00  0.00    -0.237 OA
ATOM     69  O   UNL A   1      47.218  26.364  39.104  1.00  0.00    -0.744 OA
ENDBRANCH  65  66
ENDBRANCH  44  58
BRANCH  45  70
ATOM     70  C   UNL A   1      36.635  33.282  30.957  1.00  0.00     0.058 A 
ATOM     71  C   UNL A   1      35.313  33.091  31.381  1.00  0.00     0.135 A 
ATOM     72  C   UNL A   1      36.854  34.145  29.870  1.00  0.00     0.135 A 
ATOM     73  F   UNL A   1      35.050  32.267  32.408  1.00  0.00    -0.206 F 
ATOM     74  C   UNL A   1      34.246  33.720  30.746  1.00  0.00     0.059 A 
ATOM     75  C   UNL A   1      35.807  34.806  29.237  1.00  0.00     0.059 A 
ATOM     76  F   UNL A   1      38.102  34.369  29.431  1.00  0.00    -0.206 F 
ATOM     77  C   UNL A   1      34.504  34.579  29.676  1.00  0.00     0.060 A 
BRANCH  77  78
ATOM     78  S   UNL A   1      33.118  35.426  28.887  1.00  0.00     0.124 S 
ATOM     79  O   UNL A   1      32.405  35.961  30.041  1.00  0.00    -0.237 OA
ATOM     80  O   UNL A   1      33.797  36.407  28.045  1.00  0.00    -0.237 OA
ATOM     81  O   UNL A   1      32.438  34.356  28.164  1.00  0.00    -0.744 OA
ENDBRANCH  77  78
ENDBRANCH  45  70
BRANCH  57  82
ATOM     82  C   UNL A   1      39.937  34.296  37.025  1.00  0.00     0.058 A 
ATOM     83  C   UNL A   1      40.501  35.576  36.912  1.00  0.00     0.135 A 
ATOM     84  C   UNL A   1      39.172  34.015  38.169  1.00  0.00     0.135 A 
ATOM     85  F   UNL A   1      41.249  35.893  35.843  1.00  0.00    -0.206 F 
ATOM     86  C   UNL A   1      40.327  36.536  37.903  1.00  0.00     0.059 A 
ATOM     87  C   UNL A   1      38.962  34.969  39.159  1.00  0.00     0.059 A 
ATOM     88  F   UNL A   1      38.603  32.809  38.322  1.00  0.00    -0.206 F 
ATOM     89  C   UNL A   1      39.554  36.224  39.023  1.00  0.00     0.060 A 
BRANCH  89  90
ATOM     90  S   UNL A   1      39.305  37.490  40.285  1.00  0.00     0.124 S 
ATOM     91  O   UNL A   1      38.477  38.456  39.572  1.00  0.00    -0.237 OA
ATOM     92  O   UNL A   1      38.639  36.746  41.349  1.00  0.00    -0.237 OA
ATOM     93  O   UNL A   1      40.661  37.934  40.594  1.00  0.00    -0.744 OA
ENDBRANCH  89  90
ENDBRANCH  57  82
ENDBRANCH  31  32
ENDBRANCH  24  26
ENDBRANCH  23  24
ENDBRANCH  22  23
ENDBRANCH   1  22
TORSDOF 20
ENDMDL
MODEL 3
REMARK VINA RESULT:     -10.4      4.293     10.173
REMARK SMILES CC(C)[C@@H](CC(=O)OCCOC(=O)c1ccc(-c2c3nc(c(-c4c(F)cc(S(=O)(=O)[O-])cc4F)c4ccc([nH]4)c(-c4c(F)cc(S(=O)(=O)[O-])cc4F)c4nc(c(-c5c(F)cc(S(=O)(=O)[O-])cc5F)c5ccc2[nH]5)C=C4)C=C3)cc1)NC(=O)OCc1ccccc1
REMARK SMILES IDX 9 1 8 2 6 3 7 4 5 5 4 6 2 7 1 8 3 9 80 10 81 11 82 13 83 14
REMARK SMILES IDX 84 15 85 16 86 17 90 18 87 19 89 20 88 21 10 22 11 23 12 24
REMARK SMILES IDX 13 25 14 26 15 27 79 28 16 29 78 30 17 31 18 32 19 33 72 34
REMARK SMILES IDX 20 35 77 36 71 37 73 38 21 39 76 40 70 41 69 42 22 44 56 45
REMARK SMILES IDX 35 46 55 47 36 48 39 49 54 50 74 51 37 52 38 53 53 55 75 56
REMARK SMILES IDX 40 57 23 58 24 59 33 60 25 61 26 62 32 63 34 64 27 65 28 66
REMARK SMILES IDX 29 67 30 68 31 69 57 70 58 71 67 72 59 73 60 74 66 75 68 76
REMARK SMILES IDX 61 77 62 78 63 79 64 80 65 81 41 82 42 83 51 84 43 85 44 86
REMARK SMILES IDX 50 87 52 88 45 89 46 90 47 91 48 92 49 93
REMARK H PARENT 80 12 73 43 39 54
REMARK Flexibility Score: inf
ROOT
ATOM      1  C   UNL A   1      46.170  25.410  25.009  1.00  0.00     0.274 C 
ENDROOT
BRANCH   1   2
ATOM      2  O   UNL A   1      45.530  24.293  24.359  1.00  0.00    -0.462 OA
BRANCH   2   3
ATOM      3  C   UNL A   1      45.780  23.065  24.872  1.00  0.00     0.308 C 
ATOM      4  O   UNL A   1      46.667  22.826  25.684  1.00  0.00    -0.252 OA
BRANCH   3   5
ATOM      5  C   UNL A   1      44.903  21.965  24.315  1.00  0.00     0.148 C 
BRANCH   5   6
ATOM      6  C   UNL A   1      44.413  20.833  25.233  1.00  0.00     0.099 C 
BRANCH   6   7
ATOM      7  C   UNL A   1      44.956  19.414  24.906  1.00  0.00     0.006 C 
ATOM      8  C   UNL A   1      44.876  19.091  23.413  1.00  0.00     0.009 C 
ATOM      9  C   UNL A   1      46.407  19.254  25.381  1.00  0.00     0.009 C 
ENDBRANCH   6   7
BRANCH   6  10
ATOM     10  N   UNL A   1      42.958  20.804  25.343  1.00  0.00    -0.318 N 
ATOM     11  C   UNL A   1      42.181  21.386  26.300  1.00  0.00     0.407 C 
ATOM     12  H   UNL A   1      42.480  20.303  24.642  1.00  0.00     0.167 HD
ATOM     13  O   UNL A   1      41.012  21.047  26.460  1.00  0.00    -0.225 OA
BRANCH  11  14
ATOM     14  O   UNL A   1      42.831  22.318  27.034  1.00  0.00    -0.445 OA
BRANCH  14  15
ATOM     15  C   UNL A   1      42.711  22.155  28.454  1.00  0.00     0.270 C 
BRANCH  15  16
ATOM     16  C   UNL A   1      43.606  23.096  29.221  1.00  0.00    -0.011 A 
ATOM     17  C   UNL A   1      43.449  23.245  30.608  1.00  0.00     0.007 A 
ATOM     18  C   UNL A   1      44.597  23.838  28.564  1.00  0.00     0.007 A 
ATOM     19  C   UNL A   1      44.279  24.103  31.326  1.00  0.00     0.000 A 
ATOM     20  C   UNL A   1      45.423  24.701  29.285  1.00  0.00     0.000 A 
ATOM     21  C   UNL A   1      45.268  24.826  30.663  1.00  0.00     0.000 A 
ENDBRANCH  15  16
ENDBRANCH  14  15
ENDBRANCH  11  14
ENDBRANCH   6  10
ENDBRANCH   5   6
ENDBRANCH   3   5
ENDBRANCH   2   3
ENDBRANCH   1   2
BRANCH   1  22
ATOM     22  C   UNL A   1      45.210  26.137  25.953  1.00  0.00     0.275 C 
BRANCH  22  23
ATOM     23  O   UNL A   1      43.983  26.487  25.287  1.00  0.00    -0.458 OA
BRANCH  23  24
ATOM     24  C   UNL A   1      42.881  25.902  25.810  1.00  0.00     0.338 C 
ATOM     25  O   UNL A   1      42.375  24.854  25.443  1.00  0.00    -0.246 OA
BRANCH  24  26
ATOM     26  C   UNL A   1      42.436  26.639  27.001  1.00  0.00     0.060 A 
ATOM     27  C   UNL A   1      42.815  27.975  27.138  1.00  0.00     0.016 A 
ATOM     28  C   UNL A   1      41.731  25.996  28.016  1.00  0.00     0.016 A 
ATOM     29  C   UNL A   1      42.506  28.677  28.301  1.00  0.00     0.010 A 
ATOM     30  C   UNL A   1      41.392  26.711  29.169  1.00  0.00     0.010 A 
ATOM     31  C   UNL A   1      41.788  28.052  29.327  1.00  0.00    -0.014 A 
BRANCH  31  32
ATOM     32  C   UNL A   1      41.467  28.801  30.569  1.00  0.00     0.031 A 
ATOM     33  C   UNL A   1      40.352  29.811  30.577  1.00  0.00     0.074 A 
ATOM     34  C   UNL A   1      42.182  28.573  31.688  1.00  0.00     0.049 A 
ATOM     35  N   UNL A   1      39.954  30.592  31.548  1.00  0.00    -0.248 NA
ATOM     36  C   UNL A   1      39.585  29.966  29.331  1.00  0.00     0.031 C 
ATOM     37  C   UNL A   1      43.278  27.609  31.809  1.00  0.00     0.029 A 
ATOM     38  N   UNL A   1      42.111  29.151  32.931  1.00  0.00    -0.354 N 
ATOM     39  C   UNL A   1      38.878  31.311  31.041  1.00  0.00     0.074 A 
ATOM     40  C   UNL A   1      38.725  30.920  29.657  1.00  0.00     0.031 C 
ATOM     41  C   UNL A   1      43.788  27.677  33.049  1.00  0.00     0.029 A 
ATOM     42  C   UNL A   1      43.089  28.719  33.795  1.00  0.00     0.049 A 
ATOM     43  H   UNL A   1      41.425  29.813  33.181  1.00  0.00     0.167 HD
ATOM     44  C   UNL A   1      38.073  32.193  31.681  1.00  0.00     0.037 A 
ATOM     45  C   UNL A   1      43.414  29.141  35.033  1.00  0.00     0.037 A 
ATOM     46  C   UNL A   1      38.255  32.609  33.045  1.00  0.00     0.049 A 
ATOM     47  C   UNL A   1      42.598  30.232  35.672  1.00  0.00     0.074 A 
ATOM     48  C   UNL A   1      37.496  33.502  33.781  1.00  0.00     0.029 A 
ATOM     49  N   UNL A   1      39.283  32.181  33.872  1.00  0.00    -0.354 N 
ATOM     50  N   UNL A   1      41.549  30.860  35.198  1.00  0.00    -0.248 NA
ATOM     51  C   UNL A   1      43.008  30.672  37.012  1.00  0.00     0.031 C 
ATOM     52  C   UNL A   1      38.100  33.657  35.034  1.00  0.00     0.029 A 
ATOM     53  C   UNL A   1      39.203  32.821  35.098  1.00  0.00     0.049 A 
ATOM     54  H   UNL A   1      39.968  31.519  33.625  1.00  0.00     0.167 HD
ATOM     55  C   UNL A   1      41.157  31.751  36.192  1.00  0.00     0.074 A 
ATOM     56  C   UNL A   1      42.078  31.573  37.296  1.00  0.00     0.031 C 
ATOM     57  C   UNL A   1      40.125  32.632  36.191  1.00  0.00     0.037 A 
BRANCH  44  58
ATOM     58  C   UNL A   1      36.924  32.772  30.903  1.00  0.00     0.058 A 
ATOM     59  C   UNL A   1      37.117  33.820  29.989  1.00  0.00     0.135 A 
ATOM     60  C   UNL A   1      35.627  32.254  31.041  1.00  0.00     0.135 A 
ATOM     61  F   UNL A   1      38.339  34.345  29.813  1.00  0.00    -0.206 F 
ATOM     62  C   UNL A   1      36.060  34.359  29.264  1.00  0.00     0.059 A 
ATOM     63  C   UNL A   1      34.558  32.760  30.307  1.00  0.00     0.059 A 
ATOM     64  F   UNL A   1      35.390  31.246  31.895  1.00  0.00    -0.206 F 
ATOM     65  C   UNL A   1      34.782  33.823  29.432  1.00  0.00     0.060 A 
BRANCH  65  66
ATOM     66  S   UNL A   1      33.420  34.532  28.481  1.00  0.00     0.124 S 
ATOM     67  O   UNL A   1      32.957  33.371  27.726  1.00  0.00    -0.237 OA
ATOM     68  O   UNL A   1      32.520  35.005  29.529  1.00  0.00    -0.237 OA
ATOM     69  O   UNL A   1      34.064  35.577  27.692  1.00  0.00    -0.744 OA
ENDBRANCH  65  66
ENDBRANCH  44  58
BRANCH  45  70
ATOM     70  C   UNL A   1      44.592  28.556  35.729  1.00  0.00     0.058 A 
ATOM     71  C   UNL A   1      44.459  27.466  36.599  1.00  0.00     0.135 A 
ATOM     72  C   UNL A   1      45.882  29.077  35.527  1.00  0.00     0.135 A 
ATOM     73  F   UNL A   1      43.247  26.939  36.835  1.00  0.00    -0.206 F 
ATOM     74  C   UNL A   1      45.558  26.918  37.255  1.00  0.00     0.059 A 
ATOM     75  C   UNL A   1      46.999  28.530  36.149  1.00  0.00     0.059 A 
ATOM     76  F   UNL A   1      46.066  30.115  34.697  1.00  0.00    -0.206 F 
ATOM     77  C   UNL A   1      46.825  27.456  37.021  1.00  0.00     0.060 A 
BRANCH  77  78
ATOM     78  S   UNL A   1      48.251  26.710  37.841  1.00  0.00     0.124 S 
ATOM     79  O   UNL A   1      48.442  27.609  38.973  1.00  0.00    -0.237 OA
ATOM     80  O   UNL A   1      47.756  25.374  38.162  1.00  0.00    -0.237 OA
ATOM     81  O   UNL A   1      49.289  26.755  36.816  1.00  0.00    -0.744 OA
ENDBRANCH  77  78
ENDBRANCH  45  70
BRANCH  57  82
ATOM     82  C   UNL A   1      39.914  33.450  37.433  1.00  0.00     0.058 A 
ATOM     83  C   UNL A   1      40.629  34.635  37.668  1.00  0.00     0.135 A 
ATOM     84  C   UNL A   1      38.945  33.071  38.377  1.00  0.00     0.135 A 
ATOM     85  F   UNL A   1      41.572  35.038  36.802  1.00  0.00    -0.206 F 
ATOM     86  C   UNL A   1      40.405  35.405  38.805  1.00  0.00     0.059 A 
ATOM     87  C   UNL A   1      38.685  33.841  39.506  1.00  0.00     0.059 A 
ATOM     88  F   UNL A   1      38.227  31.951  38.196  1.00  0.00    -0.206 F 
ATOM     89  C   UNL A   1      39.429  35.000  39.718  1.00  0.00     0.060 A 
BRANCH  89  90
ATOM     90  S   UNL A   1      39.121  36.027  41.170  1.00  0.00     0.124 S 
ATOM     91  O   UNL A   1      39.162  37.368  40.595  1.00  0.00    -0.237 OA
ATOM     92  O   UNL A   1      37.807  35.565  41.608  1.00  0.00    -0.237 OA
ATOM     93  O   UNL A   1      40.225  35.694  42.064  1.00  0.00    -0.744 OA
ENDBRANCH  89  90
ENDBRANCH  57  82
ENDBRANCH  31  32
ENDBRANCH  24  26
ENDBRANCH  23  24
ENDBRANCH  22  23
ENDBRANCH   1  22
TORSDOF 20
ENDMDL
