MODEL 1
REMARK VINA RESULT:     -12.4      0.000      0.000
REMARK SMILES Cc1c(CC(=O)OCCOC(=O)c2ccc(-c3c4nc(c(-c5c(F)cc(S(=O)(=O)[O-])cc5F)c5ccc([nH]5)c(-c5c(F)cc(S(=O)(=O)[O-])cc5F)c5nc(c(-c6c(F)cc(S(=O)(=O)[O-])cc6F)c6ccc3[nH]6)C=C5)C=C4)cc2)c2ccccc2n1C(=O)c1ccc(Cl)cc1
REMARK SMILES IDX 8 1 7 2 5 3 6 4 4 5 3 6 1 7 2 8 85 9 79 10 84 11 80 12 83 13
REMARK SMILES IDX 81 14 82 15 86 16 87 17 88 18 89 19 94 20 90 21 93 22 91 23
REMARK SMILES IDX 92 24 9 25 10 26 11 27 12 28 13 29 14 30 78 31 15 32 77 33
REMARK SMILES IDX 16 34 17 35 18 36 71 37 19 38 76 39 70 40 72 41 20 42 75 43
REMARK SMILES IDX 69 44 68 45 21 47 55 48 34 49 54 50 35 51 38 52 53 53 73 54
REMARK SMILES IDX 36 55 37 56 52 58 74 59 39 60 22 61 23 62 32 63 24 64 25 65
REMARK SMILES IDX 31 66 33 67 26 68 27 69 28 70 29 71 30 72 56 73 57 74 66 75
REMARK SMILES IDX 58 76 59 77 65 78 67 79 60 80 61 81 62 82 63 83 64 84 40 85
REMARK SMILES IDX 41 86 50 87 42 88 43 89 49 90 51 91 44 92 45 93 46 94 47 95
REMARK SMILES IDX 48 96
REMARK H PARENT 72 46 38 57
REMARK Flexibility Score: inf
ROOT
ATOM      1  C   UNL A   1      44.393  20.731  25.233  1.00  0.00     0.274 C 
ENDROOT
BRANCH   1   2
ATOM      2  O   UNL A   1      42.943  20.689  25.316  1.00  0.00    -0.462 OA
BRANCH   2   3
ATOM      3  C   UNL A   1      42.433  19.611  25.966  1.00  0.00     0.310 C 
ATOM      4  O   UNL A   1      43.134  18.677  26.350  1.00  0.00    -0.252 OA
BRANCH   3   5
ATOM      5  C   UNL A   1      40.921  19.612  26.160  1.00  0.00     0.160 C 
BRANCH   5   6
ATOM      6  C   UNL A   1      40.140  20.936  26.241  1.00  0.00    -0.008 A 
ATOM      7  C   UNL A   1      38.208  19.726  25.131  1.00  0.00     0.065 C 
ATOM      8  C   UNL A   1      38.887  20.955  25.657  1.00  0.00     0.028 A 
ATOM      9  N   UNL A   1      38.372  22.242  25.686  1.00  0.00    -0.280 N 
ATOM     10  C   UNL A   1      40.258  22.226  26.943  1.00  0.00     0.004 A 
ATOM     11  C   UNL A   1      39.224  23.043  26.471  1.00  0.00     0.056 A 
ATOM     12  C   UNL A   1      41.078  22.862  27.934  1.00  0.00     0.010 A 
ATOM     13  C   UNL A   1      39.178  24.415  26.863  1.00  0.00     0.027 A 
ATOM     14  C   UNL A   1      41.158  24.248  28.127  1.00  0.00     0.001 A 
ATOM     15  C   UNL A   1      40.207  25.038  27.561  1.00  0.00     0.002 A 
BRANCH   9  16
ATOM     16  C   UNL A   1      37.181  22.653  25.036  1.00  0.00     0.262 C 
ATOM     17  O   UNL A   1      37.125  22.700  23.819  1.00  0.00    -0.268 OA
BRANCH  16  18
ATOM     18  C   UNL A   1      35.947  22.993  25.742  1.00  0.00     0.040 A 
ATOM     19  C   UNL A   1      35.224  22.008  26.421  1.00  0.00     0.015 A 
ATOM     20  C   UNL A   1      35.443  24.279  25.543  1.00  0.00     0.015 A 
ATOM     21  C   UNL A   1      33.900  22.279  26.766  1.00  0.00     0.021 A 
ATOM     22  C   UNL A   1      34.143  24.559  25.945  1.00  0.00     0.021 A 
ATOM     23  C   UNL A   1      33.363  23.546  26.510  1.00  0.00     0.041 A 
ATOM     24  Cl  UNL A   1      31.695  23.834  26.811  1.00  0.00    -0.084 Cl
ENDBRANCH  16  18
ENDBRANCH   9  16
ENDBRANCH   5   6
ENDBRANCH   3   5
ENDBRANCH   2   3
ENDBRANCH   1   2
BRANCH   1  25
ATOM     25  C   UNL A   1      44.899  22.150  24.926  1.00  0.00     0.275 C 
BRANCH  25  26
ATOM     26  O   UNL A   1      44.530  23.068  26.001  1.00  0.00    -0.458 OA
BRANCH  26  27
ATOM     27  C   UNL A   1      43.748  24.084  25.555  1.00  0.00     0.338 C 
ATOM     28  O   UNL A   1      42.715  23.850  24.974  1.00  0.00    -0.246 OA
BRANCH  27  29
ATOM     29  C   UNL A   1      44.047  25.430  26.190  1.00  0.00     0.060 A 
ATOM     30  C   UNL A   1      44.716  25.802  27.317  1.00  0.00     0.016 A 
ATOM     31  C   UNL A   1      43.229  26.438  25.742  1.00  0.00     0.016 A 
ATOM     32  C   UNL A   1      44.098  26.848  28.139  1.00  0.00     0.010 A 
ATOM     33  C   UNL A   1      42.881  27.590  26.447  1.00  0.00     0.010 A 
ATOM     34  C   UNL A   1      42.832  27.482  27.814  1.00  0.00    -0.014 A 
BRANCH  34  35
ATOM     35  C   UNL A   1      42.017  28.717  28.550  1.00  0.00     0.031 A 
ATOM     36  C   UNL A   1      43.157  29.858  28.221  1.00  0.00     0.074 A 
ATOM     37  C   UNL A   1      40.694  28.862  29.273  1.00  0.00     0.049 A 
ATOM     38  N   UNL A   1      44.203  30.028  28.984  1.00  0.00    -0.248 NA
ATOM     39  C   UNL A   1      43.566  30.427  26.855  1.00  0.00     0.031 C 
ATOM     40  C   UNL A   1      39.431  27.975  29.654  1.00  0.00     0.029 A 
ATOM     41  N   UNL A   1      40.143  29.991  30.025  1.00  0.00    -0.354 N 
ATOM     42  C   UNL A   1      44.887  31.138  28.479  1.00  0.00     0.074 A 
ATOM     43  C   UNL A   1      44.687  31.128  27.086  1.00  0.00     0.031 C 
ATOM     44  C   UNL A   1      38.321  28.694  30.107  1.00  0.00     0.029 A 
ATOM     45  C   UNL A   1      38.662  30.096  30.284  1.00  0.00     0.049 A 
ATOM     46  H   UNL A   1      40.747  30.691  30.365  1.00  0.00     0.167 HD
ATOM     47  C   UNL A   1      45.121  32.184  29.308  1.00  0.00     0.037 A 
ATOM     48  C   UNL A   1      37.901  31.099  30.966  1.00  0.00     0.037 A 
ATOM     49  C   UNL A   1      44.913  31.713  30.652  1.00  0.00     0.049 A 
ATOM     50  C   UNL A   1      38.937  31.960  31.602  1.00  0.00     0.074 A 
ATOM     51  C   UNL A   1      45.498  30.727  31.421  1.00  0.00     0.029 A 
ATOM     52  N   UNL A   1      43.597  31.778  31.015  1.00  0.00    -0.354 N 
ATOM     53  N   UNL A   1      39.658  31.508  32.594  1.00  0.00    -0.248 NA
ATOM     54  C   UNL A   1      39.567  32.865  30.641  1.00  0.00     0.031 C 
ATOM     55  C   UNL A   1      44.436  30.084  32.119  1.00  0.00     0.029 A 
ATOM     56  C   UNL A   1      43.270  30.813  31.919  1.00  0.00     0.049 A 
ATOM     57  H   UNL A   1      42.961  32.442  30.665  1.00  0.00     0.167 HD
ATOM     58  C   UNL A   1      40.951  31.621  32.118  1.00  0.00     0.074 A 
ATOM     59  C   UNL A   1      40.824  32.469  30.888  1.00  0.00     0.031 C 
ATOM     60  C   UNL A   1      41.938  30.718  32.457  1.00  0.00     0.037 A 
BRANCH  47  61
ATOM     61  C   UNL A   1      44.998  33.643  28.939  1.00  0.00     0.058 A 
ATOM     62  C   UNL A   1      46.144  34.427  29.133  1.00  0.00     0.135 A 
ATOM     63  C   UNL A   1      43.809  34.355  28.630  1.00  0.00     0.135 A 
ATOM     64  F   UNL A   1      47.312  33.851  29.456  1.00  0.00    -0.206 F 
ATOM     65  C   UNL A   1      46.130  35.811  29.032  1.00  0.00     0.059 A 
ATOM     66  C   UNL A   1      43.780  35.747  28.479  1.00  0.00     0.059 A 
ATOM     67  F   UNL A   1      42.620  33.746  28.515  1.00  0.00    -0.206 F 
ATOM     68  C   UNL A   1      44.950  36.463  28.693  1.00  0.00     0.060 A 
BRANCH  68  69
ATOM     69  S   UNL A   1      45.008  38.255  28.533  1.00  0.00     0.124 S 
ATOM     70  O   UNL A   1      44.510  38.450  27.177  1.00  0.00    -0.237 OA
ATOM     71  O   UNL A   1      44.108  38.669  29.607  1.00  0.00    -0.237 OA
ATOM     72  O   UNL A   1      46.416  38.572  28.745  1.00  0.00    -0.744 OA
ENDBRANCH  68  69
ENDBRANCH  47  61
BRANCH  48  73
ATOM     73  C   UNL A   1      36.503  31.788  30.660  1.00  0.00     0.058 A 
ATOM     74  C   UNL A   1      35.531  32.415  31.535  1.00  0.00     0.135 A 
ATOM     75  C   UNL A   1      36.297  32.114  29.318  1.00  0.00     0.135 A 
ATOM     76  F   UNL A   1      35.546  32.200  32.863  1.00  0.00    -0.206 F 
ATOM     77  C   UNL A   1      34.499  33.315  31.074  1.00  0.00     0.059 A 
ATOM     78  C   UNL A   1      35.317  33.008  28.850  1.00  0.00     0.059 A 
ATOM     79  F   UNL A   1      37.128  31.617  28.397  1.00  0.00    -0.206 F 
ATOM     80  C   UNL A   1      34.430  33.631  29.720  1.00  0.00     0.060 A 
BRANCH  80  81
ATOM     81  S   UNL A   1      33.267  34.882  29.055  1.00  0.00     0.124 S 
ATOM     82  O   UNL A   1      32.554  34.141  28.019  1.00  0.00    -0.237 OA
ATOM     83  O   UNL A   1      32.479  35.245  30.228  1.00  0.00    -0.237 OA
ATOM     84  O   UNL A   1      34.152  35.933  28.558  1.00  0.00    -0.744 OA
ENDBRANCH  80  81
ENDBRANCH  48  73
BRANCH  60  85
ATOM     85  C   UNL A   1      41.730  29.596  33.479  1.00  0.00     0.058 A 
ATOM     86  C   UNL A   1      41.681  28.203  33.225  1.00  0.00     0.135 A 
ATOM     87  C   UNL A   1      41.883  29.946  34.823  1.00  0.00     0.135 A 
ATOM     88  F   UNL A   1      41.747  27.729  31.978  1.00  0.00    -0.206 F 
ATOM     89  C   UNL A   1      41.672  27.233  34.248  1.00  0.00     0.059 A 
ATOM     90  C   UNL A   1      41.931  29.004  35.854  1.00  0.00     0.059 A 
ATOM     91  F   UNL A   1      42.100  31.231  35.145  1.00  0.00    -0.206 F 
ATOM     92  C   UNL A   1      41.789  27.651  35.569  1.00  0.00     0.060 A 
BRANCH  92  93
ATOM     93  S   UNL A   1      41.796  26.415  36.893  1.00  0.00     0.124 S 
ATOM     94  O   UNL A   1      41.854  25.167  36.153  1.00  0.00    -0.237 OA
ATOM     95  O   UNL A   1      42.980  26.764  37.657  1.00  0.00    -0.237 OA
ATOM     96  O   UNL A   1      40.515  26.664  37.590  1.00  0.00    -0.744 OA
ENDBRANCH  92  93
ENDBRANCH  60  85
ENDBRANCH  34  35
ENDBRANCH  27  29
ENDBRANCH  26  27
ENDBRANCH  25  26
ENDBRANCH   1  25
TORSDOF 17
ENDMDL
MODEL 2
REMARK VINA RESULT:     -11.8      2.704      4.833
REMARK SMILES Cc1c(CC(=O)OCCOC(=O)c2ccc(-c3c4nc(c(-c5c(F)cc(S(=O)(=O)[O-])cc5F)c5ccc([nH]5)c(-c5c(F)cc(S(=O)(=O)[O-])cc5F)c5nc(c(-c6c(F)cc(S(=O)(=O)[O-])cc6F)c6ccc3[nH]6)C=C5)C=C4)cc2)c2ccccc2n1C(=O)c1ccc(Cl)cc1
REMARK SMILES IDX 8 1 7 2 5 3 6 4 4 5 3 6 1 7 2 8 85 9 79 10 84 11 80 12 83 13
REMARK SMILES IDX 81 14 82 15 86 16 87 17 88 18 89 19 94 20 90 21 93 22 91 23
REMARK SMILES IDX 92 24 9 25 10 26 11 27 12 28 13 29 14 30 78 31 15 32 77 33
REMARK SMILES IDX 16 34 17 35 18 36 71 37 19 38 76 39 70 40 72 41 20 42 75 43
REMARK SMILES IDX 69 44 68 45 21 47 55 48 34 49 54 50 35 51 38 52 53 53 73 54
REMARK SMILES IDX 36 55 37 56 52 58 74 59 39 60 22 61 23 62 32 63 24 64 25 65
REMARK SMILES IDX 31 66 33 67 26 68 27 69 28 70 29 71 30 72 56 73 57 74 66 75
REMARK SMILES IDX 58 76 59 77 65 78 67 79 60 80 61 81 62 82 63 83 64 84 40 85
REMARK SMILES IDX 41 86 50 87 42 88 43 89 49 90 51 91 44 92 45 93 46 94 47 95
REMARK SMILES IDX 48 96
REMARK H PARENT 72 46 38 57
REMARK Flexibility Score: inf
ROOT
ATOM      1  C   UNL A   1      36.237  21.282  25.737  1.00  0.00     0.274 C 
ENDROOT
BRANCH   1   2
ATOM      2  O   UNL A   1      35.226  21.574  24.735  1.00  0.00    -0.462 OA
BRANCH   2   3
ATOM      3  C   UNL A   1      34.127  20.776  24.775  1.00  0.00     0.310 C 
ATOM      4  O   UNL A   1      34.174  19.573  24.531  1.00  0.00    -0.252 OA
BRANCH   3   5
ATOM      5  C   UNL A   1      32.816  21.477  25.108  1.00  0.00     0.160 C 
BRANCH   5   6
ATOM      6  C   UNL A   1      32.602  22.959  24.747  1.00  0.00    -0.008 A 
ATOM      7  C   UNL A   1      32.491  23.426  27.237  1.00  0.00     0.065 C 
ATOM      8  C   UNL A   1      32.366  23.827  25.797  1.00  0.00     0.028 A 
ATOM      9  N   UNL A   1      32.055  25.086  25.308  1.00  0.00    -0.280 N 
ATOM     10  C   UNL A   1      32.747  23.820  23.561  1.00  0.00     0.004 A 
ATOM     11  C   UNL A   1      32.276  25.088  23.917  1.00  0.00     0.056 A 
ATOM     12  C   UNL A   1      33.221  23.749  22.207  1.00  0.00     0.010 A 
ATOM     13  C   UNL A   1      32.151  26.099  22.916  1.00  0.00     0.027 A 
ATOM     14  C   UNL A   1      32.881  24.662  21.200  1.00  0.00     0.001 A 
ATOM     15  C   UNL A   1      32.314  25.844  21.559  1.00  0.00     0.002 A 
BRANCH   9  16
ATOM     16  C   UNL A   1      31.604  26.174  26.099  1.00  0.00     0.262 C 
ATOM     17  O   UNL A   1      30.567  26.089  26.733  1.00  0.00    -0.268 OA
BRANCH  16  18
ATOM     18  C   UNL A   1      32.346  27.424  26.256  1.00  0.00     0.040 A 
ATOM     19  C   UNL A   1      33.743  27.426  26.240  1.00  0.00     0.015 A 
ATOM     20  C   UNL A   1      31.605  28.553  26.609  1.00  0.00     0.015 A 
ATOM     21  C   UNL A   1      34.408  28.544  26.744  1.00  0.00     0.021 A 
ATOM     22  C   UNL A   1      32.279  29.684  27.053  1.00  0.00     0.021 A 
ATOM     23  C   UNL A   1      33.672  29.658  27.164  1.00  0.00     0.041 A 
ATOM     24  Cl  UNL A   1      34.484  30.978  27.910  1.00  0.00    -0.084 Cl
ENDBRANCH  16  18
ENDBRANCH   9  16
ENDBRANCH   5   6
ENDBRANCH   3   5
ENDBRANCH   2   3
ENDBRANCH   1   2
BRANCH   1  25
ATOM     25  C   UNL A   1      37.645  21.660  25.244  1.00  0.00     0.275 C 
BRANCH  25  26
ATOM     26  O   UNL A   1      38.249  22.649  26.132  1.00  0.00    -0.458 OA
BRANCH  26  27
ATOM     27  C   UNL A   1      39.477  22.263  26.562  1.00  0.00     0.338 C 
ATOM     28  O   UNL A   1      39.846  21.122  26.415  1.00  0.00    -0.246 OA
BRANCH  27  29
ATOM     29  C   UNL A   1      40.438  23.410  26.823  1.00  0.00     0.060 A 
ATOM     30  C   UNL A   1      41.504  23.561  27.657  1.00  0.00     0.016 A 
ATOM     31  C   UNL A   1      39.966  24.625  26.392  1.00  0.00     0.016 A 
ATOM     32  C   UNL A   1      41.605  24.836  28.377  1.00  0.00     0.010 A 
ATOM     33  C   UNL A   1      40.308  25.873  26.915  1.00  0.00     0.010 A 
ATOM     34  C   UNL A   1      40.637  25.911  28.247  1.00  0.00    -0.014 A 
BRANCH  34  35
ATOM     35  C   UNL A   1      40.610  27.431  28.895  1.00  0.00     0.031 A 
ATOM     36  C   UNL A   1      41.969  27.943  28.118  1.00  0.00     0.074 A 
ATOM     37  C   UNL A   1      39.706  28.188  29.845  1.00  0.00     0.049 A 
ATOM     38  N   UNL A   1      43.164  27.708  28.592  1.00  0.00    -0.248 NA
ATOM     39  C   UNL A   1      42.175  28.168  26.614  1.00  0.00     0.031 C 
ATOM     40  C   UNL A   1      38.353  27.962  30.650  1.00  0.00     0.029 A 
ATOM     41  N   UNL A   1      39.873  29.500  30.471  1.00  0.00    -0.354 N 
ATOM     42  C   UNL A   1      44.061  28.373  27.751  1.00  0.00     0.074 A 
ATOM     43  C   UNL A   1      43.498  28.338  26.461  1.00  0.00     0.031 C 
ATOM     44  C   UNL A   1      37.787  29.121  31.188  1.00  0.00     0.029 A 
ATOM     45  C   UNL A   1      38.686  30.251  31.019  1.00  0.00     0.049 A 
ATOM     46  H   UNL A   1      40.772  29.898  30.535  1.00  0.00     0.167 HD
ATOM     47  C   UNL A   1      44.905  29.281  28.296  1.00  0.00     0.037 A 
ATOM     48  C   UNL A   1      38.602  31.534  31.647  1.00  0.00     0.037 A 
ATOM     49  C   UNL A   1      44.908  29.054  29.719  1.00  0.00     0.049 A 
ATOM     50  C   UNL A   1      40.023  31.917  31.870  1.00  0.00     0.074 A 
ATOM     51  C   UNL A   1      45.244  27.979  30.515  1.00  0.00     0.029 A 
ATOM     52  N   UNL A   1      43.879  29.706  30.338  1.00  0.00    -0.354 N 
ATOM     53  N   UNL A   1      40.752  31.280  32.751  1.00  0.00    -0.248 NA
ATOM     54  C   UNL A   1      40.668  32.383  30.644  1.00  0.00     0.031 C 
ATOM     55  C   UNL A   1      44.252  27.912  31.534  1.00  0.00     0.029 A 
ATOM     56  C   UNL A   1      43.460  29.051  31.456  1.00  0.00     0.049 A 
ATOM     57  H   UNL A   1      43.486  30.549  30.014  1.00  0.00     0.167 HD
ATOM     58  C   UNL A   1      41.799  30.788  31.994  1.00  0.00     0.074 A 
ATOM     59  C   UNL A   1      41.683  31.508  30.683  1.00  0.00     0.031 C 
ATOM     60  C   UNL A   1      42.403  29.580  32.276  1.00  0.00     0.037 A 
BRANCH  47  61
ATOM     61  C   UNL A   1      45.270  30.616  27.694  1.00  0.00     0.058 A 
ATOM     62  C   UNL A   1      44.205  31.499  27.460  1.00  0.00     0.135 A 
ATOM     63  C   UNL A   1      46.519  30.998  27.138  1.00  0.00     0.135 A 
ATOM     64  F   UNL A   1      42.977  31.215  27.921  1.00  0.00    -0.206 F 
ATOM     65  C   UNL A   1      44.351  32.672  26.734  1.00  0.00     0.059 A 
ATOM     66  C   UNL A   1      46.701  32.198  26.440  1.00  0.00     0.059 A 
ATOM     67  F   UNL A   1      47.600  30.205  27.198  1.00  0.00    -0.206 F 
ATOM     68  C   UNL A   1      45.602  33.022  26.238  1.00  0.00     0.060 A 
BRANCH  68  69
ATOM     69  S   UNL A   1      45.735  34.579  25.346  1.00  0.00     0.124 S 
ATOM     70  O   UNL A   1      45.004  34.284  24.119  1.00  0.00    -0.237 OA
ATOM     71  O   UNL A   1      45.078  35.499  26.272  1.00  0.00    -0.237 OA
ATOM     72  O   UNL A   1      47.174  34.768  25.198  1.00  0.00    -0.744 OA
ENDBRANCH  68  69
ENDBRANCH  47  61
BRANCH  48  73
ATOM     73  C   UNL A   1      37.562  32.729  31.526  1.00  0.00     0.058 A 
ATOM     74  C   UNL A   1      36.975  33.375  30.367  1.00  0.00     0.135 A 
ATOM     75  C   UNL A   1      36.868  33.019  32.703  1.00  0.00     0.135 A 
ATOM     76  F   UNL A   1      37.516  33.240  29.143  1.00  0.00    -0.206 F 
ATOM     77  C   UNL A   1      35.779  34.184  30.419  1.00  0.00     0.059 A 
ATOM     78  C   UNL A   1      35.688  33.781  32.772  1.00  0.00     0.059 A 
ATOM     79  F   UNL A   1      37.290  32.480  33.851  1.00  0.00    -0.206 F 
ATOM     80  C   UNL A   1      35.123  34.347  31.636  1.00  0.00     0.060 A 
BRANCH  80  81
ATOM     81  S   UNL A   1      33.516  35.216  31.784  1.00  0.00     0.124 S 
ATOM     82  O   UNL A   1      32.954  35.085  30.444  1.00  0.00    -0.237 OA
ATOM     83  O   UNL A   1      32.836  34.461  32.832  1.00  0.00    -0.237 OA
ATOM     84  O   UNL A   1      33.902  36.575  32.157  1.00  0.00    -0.744 OA
ENDBRANCH  80  81
ENDBRANCH  48  73
BRANCH  60  85
ATOM     85  C   UNL A   1      42.060  28.743  33.512  1.00  0.00     0.058 A 
ATOM     86  C   UNL A   1      41.141  27.668  33.592  1.00  0.00     0.135 A 
ATOM     87  C   UNL A   1      42.932  28.855  34.599  1.00  0.00     0.135 A 
ATOM     88  F   UNL A   1      40.398  27.320  32.537  1.00  0.00    -0.206 F 
ATOM     89  C   UNL A   1      41.026  26.834  34.722  1.00  0.00     0.059 A 
ATOM     90  C   UNL A   1      42.876  28.009  35.710  1.00  0.00     0.059 A 
ATOM     91  F   UNL A   1      43.940  29.740  34.542  1.00  0.00    -0.206 F 
ATOM     92  C   UNL A   1      41.900  27.023  35.787  1.00  0.00     0.060 A 
BRANCH  92  93
ATOM     93  S   UNL A   1      41.774  25.948  37.239  1.00  0.00     0.124 S 
ATOM     94  O   UNL A   1      42.802  26.484  38.113  1.00  0.00    -0.237 OA
ATOM     95  O   UNL A   1      40.401  26.143  37.669  1.00  0.00    -0.237 OA
ATOM     96  O   UNL A   1      42.065  24.606  36.689  1.00  0.00    -0.744 OA
ENDBRANCH  92  93
ENDBRANCH  60  85
ENDBRANCH  34  35
ENDBRANCH  27  29
ENDBRANCH  26  27
ENDBRANCH  25  26
ENDBRANCH   1  25
TORSDOF 17
ENDMDL
MODEL 3
REMARK VINA RESULT:     -11.7      3.425     10.242
REMARK SMILES Cc1c(CC(=O)OCCOC(=O)c2ccc(-c3c4nc(c(-c5c(F)cc(S(=O)(=O)[O-])cc5F)c5ccc([nH]5)c(-c5c(F)cc(S(=O)(=O)[O-])cc5F)c5nc(c(-c6c(F)cc(S(=O)(=O)[O-])cc6F)c6ccc3[nH]6)C=C5)C=C4)cc2)c2ccccc2n1C(=O)c1ccc(Cl)cc1
REMARK SMILES IDX 8 1 7 2 5 3 6 4 4 5 3 6 1 7 2 8 85 9 79 10 84 11 80 12 83 13
REMARK SMILES IDX 81 14 82 15 86 16 87 17 88 18 89 19 94 20 90 21 93 22 91 23
REMARK SMILES IDX 92 24 9 25 10 26 11 27 12 28 13 29 14 30 78 31 15 32 77 33
REMARK SMILES IDX 16 34 17 35 18 36 71 37 19 38 76 39 70 40 72 41 20 42 75 43
REMARK SMILES IDX 69 44 68 45 21 47 55 48 34 49 54 50 35 51 38 52 53 53 73 54
REMARK SMILES IDX 36 55 37 56 52 58 74 59 39 60 22 61 23 62 32 63 24 64 25 65
REMARK SMILES IDX 31 66 33 67 26 68 27 69 28 70 29 71 30 72 56 73 57 74 66 75
REMARK SMILES IDX 58 76 59 77 65 78 67 79 60 80 61 81 62 82 63 83 64 84 40 85
REMARK SMILES IDX 41 86 50 87 42 88 43 89 49 90 51 91 44 92 45 93 46 94 47 95
REMARK SMILES IDX 48 96
REMARK H PARENT 72 46 38 57
REMARK Flexibility Score: inf
ROOT
ATOM      1  C   UNL A   1      32.550  28.753  27.330  1.00  0.00     0.274 C 
ENDROOT
BRANCH   1   2
ATOM      2  O   UNL A   1      33.356  27.801  26.585  1.00  0.00    -0.462 OA
BRANCH   2   3
ATOM      3  C   UNL A   1      32.662  26.991  25.744  1.00  0.00     0.310 C 
ATOM      4  O   UNL A   1      32.172  27.395  24.691  1.00  0.00    -0.252 OA
BRANCH   3   5
ATOM      5  C   UNL A   1      32.495  25.548  26.205  1.00  0.00     0.160 C 
BRANCH   5   6
ATOM      6  C   UNL A   1      33.198  24.399  25.459  1.00  0.00    -0.008 A 
ATOM      7  C   UNL A   1      30.967  23.913  24.355  1.00  0.00     0.065 C 
ATOM      8  C   UNL A   1      32.401  23.599  24.659  1.00  0.00     0.028 A 
ATOM      9  N   UNL A   1      33.142  22.533  24.171  1.00  0.00    -0.280 N 
ATOM     10  C   UNL A   1      34.578  23.962  25.188  1.00  0.00     0.004 A 
ATOM     11  C   UNL A   1      34.494  22.743  24.506  1.00  0.00     0.056 A 
ATOM     12  C   UNL A   1      35.927  24.406  25.396  1.00  0.00     0.010 A 
ATOM     13  C   UNL A   1      35.685  22.001  24.244  1.00  0.00     0.027 A 
ATOM     14  C   UNL A   1      37.052  23.572  25.341  1.00  0.00     0.001 A 
ATOM     15  C   UNL A   1      36.922  22.341  24.779  1.00  0.00     0.002 A 
BRANCH   9  16
ATOM     16  C   UNL A   1      32.605  21.437  23.450  1.00  0.00     0.262 C 
ATOM     17  O   UNL A   1      32.220  21.581  22.303  1.00  0.00    -0.268 OA
BRANCH  16  18
ATOM     18  C   UNL A   1      32.521  20.078  23.982  1.00  0.00     0.040 A 
ATOM     19  C   UNL A   1      32.627  19.847  25.356  1.00  0.00     0.015 A 
ATOM     20  C   UNL A   1      32.526  19.038  23.052  1.00  0.00     0.015 A 
ATOM     21  C   UNL A   1      32.903  18.550  25.790  1.00  0.00     0.021 A 
ATOM     22  C   UNL A   1      32.741  17.740  23.499  1.00  0.00     0.021 A 
ATOM     23  C   UNL A   1      32.977  17.509  24.858  1.00  0.00     0.041 A 
ATOM     24  Cl  UNL A   1      33.450  15.940  25.377  1.00  0.00    -0.084 Cl
ENDBRANCH  16  18
ENDBRANCH   9  16
ENDBRANCH   5   6
ENDBRANCH   3   5
ENDBRANCH   2   3
ENDBRANCH   1   2
BRANCH   1  25
ATOM     25  C   UNL A   1      33.063  30.191  27.147  1.00  0.00     0.275 C 
BRANCH  25  26
ATOM     26  O   UNL A   1      34.522  30.209  27.080  1.00  0.00    -0.458 OA
BRANCH  26  27
ATOM     27  C   UNL A   1      35.049  31.257  27.764  1.00  0.00     0.338 C 
ATOM     28  O   UNL A   1      34.420  32.279  27.897  1.00  0.00    -0.246 OA
BRANCH  27  29
ATOM     29  C   UNL A   1      36.227  30.895  28.652  1.00  0.00     0.060 A 
ATOM     30  C   UNL A   1      37.243  31.622  29.194  1.00  0.00     0.016 A 
ATOM     31  C   UNL A   1      36.520  29.554  28.649  1.00  0.00     0.016 A 
ATOM     32  C   UNL A   1      38.583  31.027  29.141  1.00  0.00     0.010 A 
ATOM     33  C   UNL A   1      37.769  28.984  28.894  1.00  0.00     0.010 A 
ATOM     34  C   UNL A   1      38.864  29.733  28.544  1.00  0.00    -0.014 A 
BRANCH  34  35
ATOM     35  C   UNL A   1      40.266  28.861  28.456  1.00  0.00     0.031 A 
ATOM     36  C   UNL A   1      40.386  28.618  30.080  1.00  0.00     0.074 A 
ATOM     37  C   UNL A   1      41.176  28.384  27.344  1.00  0.00     0.049 A 
ATOM     38  N   UNL A   1      40.930  29.503  30.872  1.00  0.00    -0.248 NA
ATOM     39  C   UNL A   1      39.470  27.784  30.986  1.00  0.00     0.031 C 
ATOM     40  C   UNL A   1      41.253  28.422  25.756  1.00  0.00     0.029 A 
ATOM     41  N   UNL A   1      42.490  27.740  27.404  1.00  0.00    -0.354 N 
ATOM     42  C   UNL A   1      40.967  28.928  32.145  1.00  0.00     0.074 A 
ATOM     43  C   UNL A   1      39.833  28.099  32.240  1.00  0.00     0.031 C 
ATOM     44  C   UNL A   1      42.201  27.564  25.191  1.00  0.00     0.029 A 
ATOM     45  C   UNL A   1      43.019  26.958  26.228  1.00  0.00     0.049 A 
ATOM     46  H   UNL A   1      43.033  27.816  28.221  1.00  0.00     0.167 HD
ATOM     47  C   UNL A   1      42.163  28.824  32.772  1.00  0.00     0.037 A 
ATOM     48  C   UNL A   1      44.245  26.237  26.062  1.00  0.00     0.037 A 
ATOM     49  C   UNL A   1      43.077  29.700  32.086  1.00  0.00     0.049 A 
ATOM     50  C   UNL A   1      45.044  26.611  27.262  1.00  0.00     0.074 A 
ATOM     51  C   UNL A   1      43.103  31.059  31.850  1.00  0.00     0.029 A 
ATOM     52  N   UNL A   1      43.644  29.093  31.001  1.00  0.00    -0.354 N 
ATOM     53  N   UNL A   1      45.511  27.825  27.397  1.00  0.00    -0.248 NA
ATOM     54  C   UNL A   1      44.603  25.899  28.461  1.00  0.00     0.031 C 
ATOM     55  C   UNL A   1      43.537  31.221  30.502  1.00  0.00     0.029 A 
ATOM     56  C   UNL A   1      43.953  29.986  30.020  1.00  0.00     0.049 A 
ATOM     57  H   UNL A   1      43.809  28.125  30.935  1.00  0.00     0.167 HD
ATOM     58  C   UNL A   1      44.945  28.247  28.586  1.00  0.00     0.074 A 
ATOM     59  C   UNL A   1      44.383  26.998  29.197  1.00  0.00     0.031 C 
ATOM     60  C   UNL A   1      44.585  29.562  28.799  1.00  0.00     0.037 A 
BRANCH  47  61
ATOM     61  C   UNL A   1      42.637  27.635  33.572  1.00  0.00     0.058 A 
ATOM     62  C   UNL A   1      42.497  27.733  34.965  1.00  0.00     0.135 A 
ATOM     63  C   UNL A   1      43.400  26.532  33.106  1.00  0.00     0.135 A 
ATOM     64  F   UNL A   1      41.816  28.754  35.506  1.00  0.00    -0.206 F 
ATOM     65  C   UNL A   1      43.064  26.817  35.839  1.00  0.00     0.059 A 
ATOM     66  C   UNL A   1      43.944  25.572  33.967  1.00  0.00     0.059 A 
ATOM     67  F   UNL A   1      43.699  26.368  31.808  1.00  0.00    -0.206 F 
ATOM     68  C   UNL A   1      43.775  25.733  35.335  1.00  0.00     0.060 A 
BRANCH  68  69
ATOM     69  S   UNL A   1      44.445  24.557  36.520  1.00  0.00     0.124 S 
ATOM     70  O   UNL A   1      43.754  24.940  37.745  1.00  0.00    -0.237 OA
ATOM     71  O   UNL A   1      44.033  23.286  35.928  1.00  0.00    -0.237 OA
ATOM     72  O   UNL A   1      45.880  24.819  36.490  1.00  0.00    -0.744 OA
ENDBRANCH  68  69
ENDBRANCH  47  61
BRANCH  48  73
ATOM     73  C   UNL A   1      44.592  24.840  25.391  1.00  0.00     0.058 A 
ATOM     74  C   UNL A   1      45.863  24.232  25.046  1.00  0.00     0.135 A 
ATOM     75  C   UNL A   1      43.546  23.915  25.398  1.00  0.00     0.135 A 
ATOM     76  F   UNL A   1      46.988  24.965  24.958  1.00  0.00    -0.206 F 
ATOM     77  C   UNL A   1      46.034  22.820  24.789  1.00  0.00     0.059 A 
ATOM     78  C   UNL A   1      43.694  22.534  25.178  1.00  0.00     0.059 A 
ATOM     79  F   UNL A   1      42.316  24.333  25.713  1.00  0.00    -0.206 F 
ATOM     80  C   UNL A   1      44.934  21.973  24.897  1.00  0.00     0.060 A 
BRANCH  80  81
ATOM     81  S   UNL A   1      45.072  20.152  24.751  1.00  0.00     0.124 S 
ATOM     82  O   UNL A   1      44.989  19.937  23.310  1.00  0.00    -0.237 OA
ATOM     83  O   UNL A   1      46.370  19.877  25.357  1.00  0.00    -0.237 OA
ATOM     84  O   UNL A   1      43.922  19.666  25.511  1.00  0.00    -0.744 OA
ENDBRANCH  80  81
ENDBRANCH  48  73
BRANCH  60  85
ATOM     85  C   UNL A   1      44.891  30.685  27.803  1.00  0.00     0.058 A 
ATOM     86  C   UNL A   1      44.002  31.264  26.865  1.00  0.00     0.135 A 
ATOM     87  C   UNL A   1      46.069  31.405  28.022  1.00  0.00     0.135 A 
ATOM     88  F   UNL A   1      42.759  30.797  26.717  1.00  0.00    -0.206 F 
ATOM     89  C   UNL A   1      44.314  32.418  26.118  1.00  0.00     0.059 A 
ATOM     90  C   UNL A   1      46.381  32.580  27.335  1.00  0.00     0.059 A 
ATOM     91  F   UNL A   1      46.897  31.022  29.007  1.00  0.00    -0.206 F 
ATOM     92  C   UNL A   1      45.520  33.066  26.358  1.00  0.00     0.060 A 
BRANCH  92  93
ATOM     93  S   UNL A   1      45.928  34.559  25.416  1.00  0.00     0.124 S 
ATOM     94  O   UNL A   1      47.376  34.497  25.346  1.00  0.00    -0.237 OA
ATOM     95  O   UNL A   1      45.215  34.360  24.168  1.00  0.00    -0.237 OA
ATOM     96  O   UNL A   1      45.394  35.647  26.266  1.00  0.00    -0.744 OA
ENDBRANCH  92  93
ENDBRANCH  60  85
ENDBRANCH  34  35
ENDBRANCH  27  29
ENDBRANCH  26  27
ENDBRANCH  25  26
ENDBRANCH   1  25
TORSDOF 17
ENDMDL
