MODEL 1
REMARK VINA RESULT:     -11.4      0.000      0.000
REMARK SMILES C[C@H](Sc1ccc(S(C)(=O)=O)cc1)c1ccc(C(=O)OCCOC(=O)c2ccc(-c3c4nc(c(-c5c(F)cc(S(=O)(=O)[O-])cc5F)c5ccc([nH]5)c(-c5c(F)cc(S(=O)(=O)[O-])cc5F)c5nc(c(-c6c(F)cc(S(=O)(=O)[O-])cc6F)c6ccc3[nH]6)C=C5)C=C4)cc2)o1
REMARK SMILES IDX 21 1 20 2 18 3 19 4 17 5 14 6 15 7 92 8 16 9 2 10 1 11 3 12
REMARK SMILES IDX 4 13 5 14 13 15 6 16 12 17 7 18 8 19 9 20 10 21 11 22 22 23
REMARK SMILES IDX 23 24 24 25 25 26 26 27 27 28 91 29 28 30 90 31 29 32 30 33
REMARK SMILES IDX 31 34 84 35 32 36 89 37 83 38 85 39 33 40 88 41 82 42 81 43
REMARK SMILES IDX 34 45 68 46 47 47 67 48 48 49 51 50 66 51 86 52 49 53 50 54
REMARK SMILES IDX 65 56 87 57 52 58 35 59 36 60 45 61 37 62 38 63 44 64 46 65
REMARK SMILES IDX 39 66 40 67 41 68 42 69 43 70 69 71 70 72 79 73 71 74 72 75
REMARK SMILES IDX 78 76 80 77 73 78 74 79 75 80 76 81 77 82 53 83 54 84 63 85
REMARK SMILES IDX 55 86 56 87 62 88 64 89 57 90 58 91 59 92 60 93 61 94
REMARK H PARENT 85 44 51 55
REMARK Flexibility Score: inf
ROOT
ATOM      1  C   UNL A   1      39.952  21.379  26.147  1.00  0.00     0.275 C 
ENDROOT
BRANCH   1   2
ATOM      2  O   UNL A   1      38.682  22.056  26.170  1.00  0.00    -0.456 OA
BRANCH   2   3
ATOM      3  C   UNL A   1      37.790  21.705  25.194  1.00  0.00     0.374 C 
ATOM      4  O   UNL A   1      37.781  20.624  24.623  1.00  0.00    -0.242 OA
BRANCH   3   5
ATOM      5  C   UNL A   1      36.811  22.757  25.035  1.00  0.00     0.211 A 
ATOM      6  C   UNL A   1      34.965  23.625  24.152  1.00  0.00     0.118 A 
ATOM      7  C   UNL A   1      35.266  24.367  25.279  1.00  0.00     0.048 A 
ATOM      8  O   UNL A   1      35.942  22.681  23.978  1.00  0.00    -0.453 OA
ATOM      9  C   UNL A   1      36.459  23.834  25.824  1.00  0.00     0.058 A 
BRANCH   6  10
ATOM     10  C   UNL A   1      33.800  23.525  23.209  1.00  0.00     0.115 C 
ATOM     11  C   UNL A   1      33.377  24.854  22.587  1.00  0.00     0.028 C 
BRANCH  10  12
ATOM     12  S   UNL A   1      32.333  22.584  23.804  1.00  0.00    -0.115 SA
BRANCH  12  13
ATOM     13  C   UNL A   1      32.800  20.863  23.823  1.00  0.00     0.008 A 
ATOM     14  C   UNL A   1      32.225  19.875  23.020  1.00  0.00     0.016 A 
ATOM     15  C   UNL A   1      33.826  20.500  24.709  1.00  0.00     0.016 A 
ATOM     16  C   UNL A   1      32.621  18.541  23.137  1.00  0.00     0.021 A 
ATOM     17  C   UNL A   1      34.231  19.168  24.836  1.00  0.00     0.021 A 
ATOM     18  C   UNL A   1      33.606  18.193  24.063  1.00  0.00     0.067 A 
BRANCH  18  19
ATOM     19  S   UNL A   1      34.049  16.485  24.245  1.00  0.00     0.175 S 
ATOM     20  C   UNL A   1      32.643  15.790  25.076  1.00  0.00     0.163 C 
ATOM     21  O   UNL A   1      34.121  15.911  22.915  1.00  0.00    -0.224 OA
ATOM     22  O   UNL A   1      35.177  16.406  25.153  1.00  0.00    -0.224 OA
ENDBRANCH  18  19
ENDBRANCH  12  13
ENDBRANCH  10  12
ENDBRANCH   6  10
ENDBRANCH   3   5
ENDBRANCH   2   3
ENDBRANCH   1   2
BRANCH   1  23
ATOM     23  C   UNL A   1      41.097  22.383  26.334  1.00  0.00     0.275 C 
BRANCH  23  24
ATOM     24  O   UNL A   1      40.602  23.723  26.522  1.00  0.00    -0.458 OA
BRANCH  24  25
ATOM     25  C   UNL A   1      41.535  24.704  26.469  1.00  0.00     0.338 C 
ATOM     26  O   UNL A   1      42.397  24.846  25.618  1.00  0.00    -0.246 OA
BRANCH  25  27
ATOM     27  C   UNL A   1      41.273  25.690  27.535  1.00  0.00     0.060 A 
ATOM     28  C   UNL A   1      42.200  26.719  27.716  1.00  0.00     0.016 A 
ATOM     29  C   UNL A   1      40.158  25.591  28.370  1.00  0.00     0.016 A 
ATOM     30  C   UNL A   1      42.015  27.661  28.725  1.00  0.00     0.010 A 
ATOM     31  C   UNL A   1      39.975  26.534  29.389  1.00  0.00     0.010 A 
ATOM     32  C   UNL A   1      40.906  27.571  29.574  1.00  0.00    -0.014 A 
BRANCH  32  33
ATOM     33  C   UNL A   1      40.750  28.550  30.676  1.00  0.00     0.031 A 
ATOM     34  C   UNL A   1      41.643  28.472  31.880  1.00  0.00     0.074 A 
ATOM     35  C   UNL A   1      39.828  29.526  30.577  1.00  0.00     0.049 A 
ATOM     36  N   UNL A   1      41.655  29.225  32.949  1.00  0.00    -0.248 NA
ATOM     37  C   UNL A   1      42.659  27.408  31.878  1.00  0.00     0.031 C 
ATOM     38  C   UNL A   1      38.927  29.722  29.441  1.00  0.00     0.029 A 
ATOM     39  N   UNL A   1      39.501  30.539  31.443  1.00  0.00    -0.354 N 
ATOM     40  C   UNL A   1      42.670  28.722  33.754  1.00  0.00     0.074 A 
ATOM     41  C   UNL A   1      43.238  27.587  33.056  1.00  0.00     0.031 C 
ATOM     42  C   UNL A   1      38.152  30.793  29.678  1.00  0.00     0.029 A 
ATOM     43  C   UNL A   1      38.479  31.338  30.993  1.00  0.00     0.049 A 
ATOM     44  H   UNL A   1      39.957  30.679  32.305  1.00  0.00     0.167 HD
ATOM     45  C   UNL A   1      43.091  29.170  34.961  1.00  0.00     0.037 A 
ATOM     46  C   UNL A   1      37.866  32.384  31.582  1.00  0.00     0.037 A 
ATOM     47  C   UNL A   1      42.527  30.303  35.648  1.00  0.00     0.049 A 
ATOM     48  C   UNL A   1      38.321  32.834  32.943  1.00  0.00     0.074 A 
ATOM     49  C   UNL A   1      42.895  30.842  36.869  1.00  0.00     0.029 A 
ATOM     50  N   UNL A   1      41.469  31.066  35.178  1.00  0.00    -0.354 N 
ATOM     51  N   UNL A   1      39.287  32.354  33.689  1.00  0.00    -0.248 NA
ATOM     52  C   UNL A   1      37.599  33.964  33.546  1.00  0.00     0.031 C 
ATOM     53  C   UNL A   1      42.037  31.911  37.152  1.00  0.00     0.029 A 
ATOM     54  C   UNL A   1      41.158  32.061  36.092  1.00  0.00     0.049 A 
ATOM     55  H   UNL A   1      41.006  30.924  34.320  1.00  0.00     0.167 HD
ATOM     56  C   UNL A   1      39.299  33.132  34.842  1.00  0.00     0.074 A 
ATOM     57  C   UNL A   1      38.252  34.121  34.689  1.00  0.00     0.031 C 
ATOM     58  C   UNL A   1      40.108  33.035  35.927  1.00  0.00     0.037 A 
BRANCH  45  59
ATOM     59  C   UNL A   1      44.203  28.408  35.625  1.00  0.00     0.058 A 
ATOM     60  C   UNL A   1      43.947  27.349  36.509  1.00  0.00     0.135 A 
ATOM     61  C   UNL A   1      45.543  28.744  35.373  1.00  0.00     0.135 A 
ATOM     62  F   UNL A   1      42.682  27.000  36.797  1.00  0.00    -0.206 F 
ATOM     63  C   UNL A   1      44.980  26.669  37.146  1.00  0.00     0.059 A 
ATOM     64  C   UNL A   1      46.592  28.064  35.983  1.00  0.00     0.059 A 
ATOM     65  F   UNL A   1      45.841  29.750  34.536  1.00  0.00    -0.206 F 
ATOM     66  C   UNL A   1      46.299  27.040  36.883  1.00  0.00     0.060 A 
BRANCH  66  67
ATOM     67  S   UNL A   1      47.632  26.170  37.735  1.00  0.00     0.124 S 
ATOM     68  O   UNL A   1      47.085  26.051  39.084  1.00  0.00    -0.237 OA
ATOM     69  O   UNL A   1      47.732  24.925  36.981  1.00  0.00    -0.237 OA
ATOM     70  O   UNL A   1      48.769  27.075  37.598  1.00  0.00    -0.744 OA
ENDBRANCH  66  67
ENDBRANCH  45  59
BRANCH  46  71
ATOM     71  C   UNL A   1      36.751  33.070  30.882  1.00  0.00     0.058 A 
ATOM     72  C   UNL A   1      36.998  33.948  29.817  1.00  0.00     0.135 A 
ATOM     73  C   UNL A   1      35.415  32.840  31.245  1.00  0.00     0.135 A 
ATOM     74  F   UNL A   1      38.258  34.208  29.441  1.00  0.00    -0.206 F 
ATOM     75  C   UNL A   1      35.958  34.575  29.135  1.00  0.00     0.059 A 
ATOM     76  C   UNL A   1      34.359  33.439  30.567  1.00  0.00     0.059 A 
ATOM     77  F   UNL A   1      35.128  32.001  32.253  1.00  0.00    -0.206 F 
ATOM     78  C   UNL A   1      34.642  34.310  29.516  1.00  0.00     0.060 A 
BRANCH  78  79
ATOM     79  S   UNL A   1      33.296  35.071  28.581  1.00  0.00     0.124 S 
ATOM     80  O   UNL A   1      32.564  35.766  29.634  1.00  0.00    -0.237 OA
ATOM     81  O   UNL A   1      34.015  35.920  27.637  1.00  0.00    -0.237 OA
ATOM     82  O   UNL A   1      32.614  33.925  27.987  1.00  0.00    -0.744 OA
ENDBRANCH  78  79
ENDBRANCH  46  71
BRANCH  58  83
ATOM     83  C   UNL A   1      39.899  34.034  37.029  1.00  0.00     0.058 A 
ATOM     84  C   UNL A   1      40.447  35.324  36.961  1.00  0.00     0.135 A 
ATOM     85  C   UNL A   1      39.104  33.715  38.141  1.00  0.00     0.135 A 
ATOM     86  F   UNL A   1      41.220  35.676  35.922  1.00  0.00    -0.206 F 
ATOM     87  C   UNL A   1      40.229  36.259  37.969  1.00  0.00     0.059 A 
ATOM     88  C   UNL A   1      38.856  34.640  39.150  1.00  0.00     0.059 A 
ATOM     89  F   UNL A   1      38.550  32.497  38.248  1.00  0.00    -0.206 F 
ATOM     90  C   UNL A   1      39.432  35.907  39.059  1.00  0.00     0.060 A 
BRANCH  90  91
ATOM     91  S   UNL A   1      39.125  37.137  40.346  1.00  0.00     0.124 S 
ATOM     92  O   UNL A   1      40.474  37.376  40.851  1.00  0.00    -0.237 OA
ATOM     93  O   UNL A   1      38.525  38.237  39.596  1.00  0.00    -0.237 OA
ATOM     94  O   UNL A   1      38.222  36.449  41.264  1.00  0.00    -0.744 OA
ENDBRANCH  90  91
ENDBRANCH  58  83
ENDBRANCH  32  33
ENDBRANCH  25  27
ENDBRANCH  24  25
ENDBRANCH  23  24
ENDBRANCH   1  23
TORSDOF 18
ENDMDL
MODEL 2
REMARK VINA RESULT:     -11.1      1.157      8.438
REMARK SMILES C[C@H](Sc1ccc(S(C)(=O)=O)cc1)c1ccc(C(=O)OCCOC(=O)c2ccc(-c3c4nc(c(-c5c(F)cc(S(=O)(=O)[O-])cc5F)c5ccc([nH]5)c(-c5c(F)cc(S(=O)(=O)[O-])cc5F)c5nc(c(-c6c(F)cc(S(=O)(=O)[O-])cc6F)c6ccc3[nH]6)C=C5)C=C4)cc2)o1
REMARK SMILES IDX 21 1 20 2 18 3 19 4 17 5 14 6 15 7 92 8 16 9 2 10 1 11 3 12
REMARK SMILES IDX 4 13 5 14 13 15 6 16 12 17 7 18 8 19 9 20 10 21 11 22 22 23
REMARK SMILES IDX 23 24 24 25 25 26 26 27 27 28 91 29 28 30 90 31 29 32 30 33
REMARK SMILES IDX 31 34 84 35 32 36 89 37 83 38 85 39 33 40 88 41 82 42 81 43
REMARK SMILES IDX 34 45 68 46 47 47 67 48 48 49 51 50 66 51 86 52 49 53 50 54
REMARK SMILES IDX 65 56 87 57 52 58 35 59 36 60 45 61 37 62 38 63 44 64 46 65
REMARK SMILES IDX 39 66 40 67 41 68 42 69 43 70 69 71 70 72 79 73 71 74 72 75
REMARK SMILES IDX 78 76 80 77 73 78 74 79 75 80 76 81 77 82 53 83 54 84 63 85
REMARK SMILES IDX 55 86 56 87 62 88 64 89 57 90 58 91 59 92 60 93 61 94
REMARK H PARENT 85 44 51 55
REMARK Flexibility Score: inf
ROOT
ATOM      1  C   UNL A   1      42.696  22.435  27.234  1.00  0.00     0.275 C 
ENDROOT
BRANCH   1   2
ATOM      2  O   UNL A   1      41.355  22.586  27.734  1.00  0.00    -0.456 OA
BRANCH   2   3
ATOM      3  C   UNL A   1      40.386  21.854  27.104  1.00  0.00     0.374 C 
ATOM      4  O   UNL A   1      40.347  20.632  27.085  1.00  0.00    -0.242 OA
BRANCH   3   5
ATOM      5  C   UNL A   1      39.376  22.744  26.576  1.00  0.00     0.211 A 
ATOM      6  C   UNL A   1      37.482  23.166  25.492  1.00  0.00     0.118 A 
ATOM      7  C   UNL A   1      37.798  24.300  26.218  1.00  0.00     0.048 A 
ATOM      8  O   UNL A   1      38.477  22.242  25.672  1.00  0.00    -0.453 OA
ATOM      9  C   UNL A   1      39.020  24.042  26.884  1.00  0.00     0.058 A 
BRANCH   6  10
ATOM     10  C   UNL A   1      36.292  22.685  24.713  1.00  0.00     0.115 C 
ATOM     11  C   UNL A   1      35.938  23.549  23.504  1.00  0.00     0.028 C 
BRANCH  10  12
ATOM     12  S   UNL A   1      34.784  22.264  25.681  1.00  0.00    -0.115 SA
BRANCH  12  13
ATOM     13  C   UNL A   1      34.436  20.544  25.369  1.00  0.00     0.008 A 
ATOM     14  C   UNL A   1      33.204  19.927  25.603  1.00  0.00     0.016 A 
ATOM     15  C   UNL A   1      35.486  19.776  24.843  1.00  0.00     0.016 A 
ATOM     16  C   UNL A   1      33.037  18.559  25.374  1.00  0.00     0.021 A 
ATOM     17  C   UNL A   1      35.331  18.406  24.609  1.00  0.00     0.021 A 
ATOM     18  C   UNL A   1      34.110  17.802  24.900  1.00  0.00     0.067 A 
BRANCH  18  19
ATOM     19  S   UNL A   1      33.898  16.056  24.678  1.00  0.00     0.175 S 
ATOM     20  C   UNL A   1      32.498  15.686  25.704  1.00  0.00     0.163 C 
ATOM     21  O   UNL A   1      33.520  15.836  23.296  1.00  0.00    -0.224 OA
ATOM     22  O   UNL A   1      35.050  15.385  25.251  1.00  0.00    -0.224 OA
ENDBRANCH  18  19
ENDBRANCH  12  13
ENDBRANCH  10  12
ENDBRANCH   6  10
ENDBRANCH   3   5
ENDBRANCH   2   3
ENDBRANCH   1   2
BRANCH   1  23
ATOM     23  C   UNL A   1      42.916  23.334  26.010  1.00  0.00     0.275 C 
BRANCH  23  24
ATOM     24  O   UNL A   1      43.426  24.628  26.389  1.00  0.00    -0.458 OA
BRANCH  24  25
ATOM     25  C   UNL A   1      42.634  25.683  26.079  1.00  0.00     0.338 C 
ATOM     26  O   UNL A   1      42.067  25.881  25.017  1.00  0.00    -0.246 OA
BRANCH  25  27
ATOM     27  C   UNL A   1      42.429  26.514  27.280  1.00  0.00     0.060 A 
ATOM     28  C   UNL A   1      41.499  26.078  28.226  1.00  0.00     0.016 A 
ATOM     29  C   UNL A   1      43.108  27.720  27.463  1.00  0.00     0.016 A 
ATOM     30  C   UNL A   1      41.247  26.838  29.365  1.00  0.00     0.010 A 
ATOM     31  C   UNL A   1      42.850  28.489  28.605  1.00  0.00     0.010 A 
ATOM     32  C   UNL A   1      41.915  28.052  29.560  1.00  0.00    -0.014 A 
BRANCH  32  33
ATOM     33  C   UNL A   1      41.598  28.876  30.751  1.00  0.00     0.031 A 
ATOM     34  C   UNL A   1      40.422  29.808  30.727  1.00  0.00     0.074 A 
ATOM     35  C   UNL A   1      42.349  28.759  31.863  1.00  0.00     0.049 A 
ATOM     36  N   UNL A   1      39.990  30.617  31.660  1.00  0.00    -0.248 NA
ATOM     37  C   UNL A   1      39.625  29.829  29.491  1.00  0.00     0.031 C 
ATOM     38  C   UNL A   1      43.496  27.863  32.015  1.00  0.00     0.029 A 
ATOM     39  N   UNL A   1      42.256  29.394  33.075  1.00  0.00    -0.354 N 
ATOM     40  C   UNL A   1      38.878  31.254  31.123  1.00  0.00     0.074 A 
ATOM     41  C   UNL A   1      38.713  30.749  29.775  1.00  0.00     0.031 C 
ATOM     42  C   UNL A   1      43.997  28.002  33.253  1.00  0.00     0.029 A 
ATOM     43  C   UNL A   1      43.229  29.018  33.968  1.00  0.00     0.049 A 
ATOM     44  H   UNL A   1      41.558  30.057  33.285  1.00  0.00     0.167 HD
ATOM     45  C   UNL A   1      38.067  32.170  31.703  1.00  0.00     0.037 A 
ATOM     46  C   UNL A   1      43.481  29.454  35.219  1.00  0.00     0.037 A 
ATOM     47  C   UNL A   1      38.231  32.665  33.046  1.00  0.00     0.049 A 
ATOM     48  C   UNL A   1      42.594  30.506  35.825  1.00  0.00     0.074 A 
ATOM     49  C   UNL A   1      37.453  33.583  33.728  1.00  0.00     0.029 A 
ATOM     50  N   UNL A   1      39.249  32.287  33.908  1.00  0.00    -0.354 N 
ATOM     51  N   UNL A   1      41.541  31.093  35.308  1.00  0.00    -0.248 NA
ATOM     52  C   UNL A   1      42.932  30.960  37.182  1.00  0.00     0.031 C 
ATOM     53  C   UNL A   1      38.019  33.786  34.991  1.00  0.00     0.029 A 
ATOM     54  C   UNL A   1      39.131  32.967  35.110  1.00  0.00     0.049 A 
ATOM     55  H   UNL A   1      39.953  31.630  33.699  1.00  0.00     0.167 HD
ATOM     56  C   UNL A   1      41.081  31.974  36.281  1.00  0.00     0.074 A 
ATOM     57  C   UNL A   1      41.964  31.835  37.422  1.00  0.00     0.031 C 
ATOM     58  C   UNL A   1      40.022  32.820  36.233  1.00  0.00     0.037 A 
BRANCH  45  59
ATOM     59  C   UNL A   1      36.942  32.716  30.870  1.00  0.00     0.058 A 
ATOM     60  C   UNL A   1      37.164  33.672  29.866  1.00  0.00     0.135 A 
ATOM     61  C   UNL A   1      35.625  32.276  31.080  1.00  0.00     0.135 A 
ATOM     62  F   UNL A   1      38.403  34.137  29.638  1.00  0.00    -0.206 F 
ATOM     63  C   UNL A   1      36.114  34.198  29.120  1.00  0.00     0.059 A 
ATOM     64  C   UNL A   1      34.563  32.774  30.331  1.00  0.00     0.059 A 
ATOM     65  F   UNL A   1      35.360  31.365  32.028  1.00  0.00    -0.206 F 
ATOM     66  C   UNL A   1      34.816  33.748  29.366  1.00  0.00     0.060 A 
BRANCH  66  67
ATOM     67  S   UNL A   1      33.456  34.457  28.411  1.00  0.00     0.124 S 
ATOM     68  O   UNL A   1      32.571  34.927  29.473  1.00  0.00    -0.237 OA
ATOM     69  O   UNL A   1      34.122  35.498  27.636  1.00  0.00    -0.237 OA
ATOM     70  O   UNL A   1      32.960  33.324  27.637  1.00  0.00    -0.744 OA
ENDBRANCH  66  67
ENDBRANCH  45  59
BRANCH  46  71
ATOM     71  C   UNL A   1      44.631  28.894  35.974  1.00  0.00     0.058 A 
ATOM     72  C   UNL A   1      44.471  27.782  36.813  1.00  0.00     0.135 A 
ATOM     73  C   UNL A   1      45.916  29.441  35.849  1.00  0.00     0.135 A 
ATOM     74  F   UNL A   1      43.259  27.232  36.973  1.00  0.00    -0.206 F 
ATOM     75  C   UNL A   1      45.547  27.232  37.503  1.00  0.00     0.059 A 
ATOM     76  C   UNL A   1      47.010  28.898  36.512  1.00  0.00     0.059 A 
ATOM     77  F   UNL A   1      46.121  30.501  35.049  1.00  0.00    -0.206 F 
ATOM     78  C   UNL A   1      46.814  27.794  37.343  1.00  0.00     0.060 A 
BRANCH  78  79
ATOM     79  S   UNL A   1      48.218  27.032  38.185  1.00  0.00     0.124 S 
ATOM     80  O   UNL A   1      47.932  27.350  39.579  1.00  0.00    -0.237 OA
ATOM     81  O   UNL A   1      48.081  25.628  37.808  1.00  0.00    -0.237 OA
ATOM     82  O   UNL A   1      49.368  27.718  37.603  1.00  0.00    -0.744 OA
ENDBRANCH  78  79
ENDBRANCH  46  71
BRANCH  58  83
ATOM     83  C   UNL A   1      39.752  33.651  37.456  1.00  0.00     0.058 A 
ATOM     84  C   UNL A   1      38.883  33.209  38.464  1.00  0.00     0.135 A 
ATOM     85  C   UNL A   1      40.405  34.879  37.642  1.00  0.00     0.135 A 
ATOM     86  F   UNL A   1      38.229  32.045  38.331  1.00  0.00    -0.206 F 
ATOM     87  C   UNL A   1      38.657  33.966  39.610  1.00  0.00     0.059 A 
ATOM     88  C   UNL A   1      40.210  35.643  38.788  1.00  0.00     0.059 A 
ATOM     89  F   UNL A   1      41.253  35.342  36.709  1.00  0.00    -0.206 F 
ATOM     90  C   UNL A   1      39.324  35.182  39.762  1.00  0.00     0.060 A 
BRANCH  90  91
ATOM     91  S   UNL A   1      39.051  36.142  41.267  1.00  0.00     0.124 S 
ATOM     92  O   UNL A   1      37.846  35.515  41.801  1.00  0.00    -0.237 OA
ATOM     93  O   UNL A   1      40.278  35.903  42.023  1.00  0.00    -0.237 OA
ATOM     94  O   UNL A   1      38.885  37.506  40.774  1.00  0.00    -0.744 OA
ENDBRANCH  90  91
ENDBRANCH  58  83
ENDBRANCH  32  33
ENDBRANCH  25  27
ENDBRANCH  24  25
ENDBRANCH  23  24
ENDBRANCH   1  23
TORSDOF 18
ENDMDL
MODEL 3
REMARK VINA RESULT:     -11.1      6.660     13.889
REMARK SMILES C[C@H](Sc1ccc(S(C)(=O)=O)cc1)c1ccc(C(=O)OCCOC(=O)c2ccc(-c3c4nc(c(-c5c(F)cc(S(=O)(=O)[O-])cc5F)c5ccc([nH]5)c(-c5c(F)cc(S(=O)(=O)[O-])cc5F)c5nc(c(-c6c(F)cc(S(=O)(=O)[O-])cc6F)c6ccc3[nH]6)C=C5)C=C4)cc2)o1
REMARK SMILES IDX 21 1 20 2 18 3 19 4 17 5 14 6 15 7 92 8 16 9 2 10 1 11 3 12
REMARK SMILES IDX 4 13 5 14 13 15 6 16 12 17 7 18 8 19 9 20 10 21 11 22 22 23
REMARK SMILES IDX 23 24 24 25 25 26 26 27 27 28 91 29 28 30 90 31 29 32 30 33
REMARK SMILES IDX 31 34 84 35 32 36 89 37 83 38 85 39 33 40 88 41 82 42 81 43
REMARK SMILES IDX 34 45 68 46 47 47 67 48 48 49 51 50 66 51 86 52 49 53 50 54
REMARK SMILES IDX 65 56 87 57 52 58 35 59 36 60 45 61 37 62 38 63 44 64 46 65
REMARK SMILES IDX 39 66 40 67 41 68 42 69 43 70 69 71 70 72 79 73 71 74 72 75
REMARK SMILES IDX 78 76 80 77 73 78 74 79 75 80 76 81 77 82 53 83 54 84 63 85
REMARK SMILES IDX 55 86 56 87 62 88 64 89 57 90 58 91 59 92 60 93 61 94
REMARK H PARENT 85 44 51 55
REMARK Flexibility Score: inf
ROOT
ATOM      1  C   UNL A   1      34.171  32.011  28.069  1.00  0.00     0.275 C 
ENDROOT
BRANCH   1   2
ATOM      2  O   UNL A   1      34.174  33.441  27.907  1.00  0.00    -0.456 OA
BRANCH   2   3
ATOM      3  C   UNL A   1      32.957  34.062  27.978  1.00  0.00     0.374 C 
ATOM      4  O   UNL A   1      31.980  33.744  27.316  1.00  0.00    -0.242 OA
BRANCH   3   5
ATOM      5  C   UNL A   1      32.986  35.059  29.024  1.00  0.00     0.211 A 
ATOM      6  C   UNL A   1      33.246  35.706  31.135  1.00  0.00     0.118 A 
ATOM      7  C   UNL A   1      33.345  36.838  30.347  1.00  0.00     0.048 A 
ATOM      8  O   UNL A   1      32.972  34.634  30.327  1.00  0.00    -0.453 OA
ATOM      9  C   UNL A   1      33.149  36.431  29.005  1.00  0.00     0.058 A 
BRANCH   6  10
ATOM     10  C   UNL A   1      33.502  35.374  32.577  1.00  0.00     0.115 C 
ATOM     11  C   UNL A   1      34.286  36.439  33.340  1.00  0.00     0.028 C 
BRANCH  10  12
ATOM     12  S   UNL A   1      34.162  33.692  32.934  1.00  0.00    -0.115 SA
BRANCH  12  13
ATOM     13  C   UNL A   1      35.934  33.788  32.757  1.00  0.00     0.008 A 
ATOM     14  C   UNL A   1      36.599  34.044  31.555  1.00  0.00     0.016 A 
ATOM     15  C   UNL A   1      36.693  33.598  33.922  1.00  0.00     0.016 A 
ATOM     16  C   UNL A   1      37.995  34.052  31.501  1.00  0.00     0.021 A 
ATOM     17  C   UNL A   1      38.090  33.604  33.881  1.00  0.00     0.021 A 
ATOM     18  C   UNL A   1      38.732  33.808  32.662  1.00  0.00     0.067 A 
BRANCH  18  19
ATOM     19  S   UNL A   1      40.502  33.758  32.561  1.00  0.00     0.175 S 
ATOM     20  C   UNL A   1      40.810  33.898  30.819  1.00  0.00     0.163 C 
ATOM     21  O   UNL A   1      41.009  34.951  33.211  1.00  0.00    -0.224 OA
ATOM     22  O   UNL A   1      40.940  32.439  32.978  1.00  0.00    -0.224 OA
ENDBRANCH  18  19
ENDBRANCH  12  13
ENDBRANCH  10  12
ENDBRANCH   6  10
ENDBRANCH   3   5
ENDBRANCH   2   3
ENDBRANCH   1   2
BRANCH   1  23
ATOM     23  C   UNL A   1      34.834  31.621  29.396  1.00  0.00     0.275 C 
BRANCH  23  24
ATOM     24  O   UNL A   1      36.241  31.356  29.229  1.00  0.00    -0.458 OA
BRANCH  24  25
ATOM     25  C   UNL A   1      36.818  30.621  30.210  1.00  0.00     0.338 C 
ATOM     26  O   UNL A   1      36.269  30.162  31.197  1.00  0.00    -0.246 OA
BRANCH  25  27
ATOM     27  C   UNL A   1      38.215  30.322  29.842  1.00  0.00     0.060 A 
ATOM     28  C   UNL A   1      38.491  30.029  28.504  1.00  0.00     0.016 A 
ATOM     29  C   UNL A   1      39.236  30.292  30.794  1.00  0.00     0.016 A 
ATOM     30  C   UNL A   1      39.788  29.713  28.108  1.00  0.00     0.010 A 
ATOM     31  C   UNL A   1      40.539  29.968  30.397  1.00  0.00     0.010 A 
ATOM     32  C   UNL A   1      40.820  29.673  29.052  1.00  0.00    -0.014 A 
BRANCH  32  33
ATOM     33  C   UNL A   1      42.185  29.284  28.624  1.00  0.00     0.031 A 
ATOM     34  C   UNL A   1      42.463  27.872  28.198  1.00  0.00     0.074 A 
ATOM     35  C   UNL A   1      43.162  30.209  28.588  1.00  0.00     0.049 A 
ATOM     36  N   UNL A   1      43.589  27.335  27.803  1.00  0.00    -0.248 NA
ATOM     37  C   UNL A   1      41.324  26.943  28.215  1.00  0.00     0.031 C 
ATOM     38  C   UNL A   1      43.003  31.619  28.947  1.00  0.00     0.029 A 
ATOM     39  N   UNL A   1      44.482  30.102  28.228  1.00  0.00    -0.354 N 
ATOM     40  C   UNL A   1      43.300  26.003  27.535  1.00  0.00     0.074 A 
ATOM     41  C   UNL A   1      41.894  25.810  27.830  1.00  0.00     0.031 C 
ATOM     42  C   UNL A   1      44.178  32.247  28.784  1.00  0.00     0.029 A 
ATOM     43  C   UNL A   1      45.180  31.280  28.341  1.00  0.00     0.049 A 
ATOM     44  H   UNL A   1      44.890  29.261  27.917  1.00  0.00     0.167 HD
ATOM     45  C   UNL A   1      44.128  25.034  27.080  1.00  0.00     0.037 A 
ATOM     46  C   UNL A   1      46.483  31.546  28.126  1.00  0.00     0.037 A 
ATOM     47  C   UNL A   1      45.523  25.232  26.782  1.00  0.00     0.049 A 
ATOM     48  C   UNL A   1      47.394  30.441  27.665  1.00  0.00     0.074 A 
ATOM     49  C   UNL A   1      46.442  24.315  26.303  1.00  0.00     0.029 A 
ATOM     50  N   UNL A   1      46.203  26.430  26.943  1.00  0.00    -0.354 N 
ATOM     51  N   UNL A   1      47.104  29.188  27.407  1.00  0.00    -0.248 NA
ATOM     52  C   UNL A   1      48.810  30.785  27.470  1.00  0.00     0.031 C 
ATOM     53  C   UNL A   1      47.685  24.949  26.205  1.00  0.00     0.029 A 
ATOM     54  C   UNL A   1      47.534  26.271  26.590  1.00  0.00     0.049 A 
ATOM     55  H   UNL A   1      45.800  27.271  27.260  1.00  0.00     0.167 HD
ATOM     56  C   UNL A   1      48.297  28.597  27.006  1.00  0.00     0.074 A 
ATOM     57  C   UNL A   1      49.310  29.633  27.044  1.00  0.00     0.031 C 
ATOM     58  C   UNL A   1      48.530  27.312  26.638  1.00  0.00     0.037 A 
BRANCH  45  59
ATOM     59  C   UNL A   1      43.545  23.660  26.904  1.00  0.00     0.058 A 
ATOM     60  C   UNL A   1      43.315  22.810  27.997  1.00  0.00     0.135 A 
ATOM     61  C   UNL A   1      43.212  23.188  25.623  1.00  0.00     0.135 A 
ATOM     62  F   UNL A   1      43.633  23.207  29.240  1.00  0.00    -0.206 F 
ATOM     63  C   UNL A   1      42.806  21.527  27.824  1.00  0.00     0.059 A 
ATOM     64  C   UNL A   1      42.682  21.917  25.430  1.00  0.00     0.059 A 
ATOM     65  F   UNL A   1      43.414  23.962  24.546  1.00  0.00    -0.206 F 
ATOM     66  C   UNL A   1      42.500  21.086  26.536  1.00  0.00     0.060 A 
BRANCH  66  67
ATOM     67  S   UNL A   1      41.865  19.410  26.319  1.00  0.00     0.124 S 
ATOM     68  O   UNL A   1      40.437  19.660  26.154  1.00  0.00    -0.237 OA
ATOM     69  O   UNL A   1      42.570  18.955  25.126  1.00  0.00    -0.237 OA
ATOM     70  O   UNL A   1      42.246  18.741  27.560  1.00  0.00    -0.744 OA
ENDBRANCH  66  67
ENDBRANCH  45  59
BRANCH  46  71
ATOM     71  C   UNL A   1      47.000  32.920  28.351  1.00  0.00     0.058 A 
ATOM     72  C   UNL A   1      47.547  33.291  29.588  1.00  0.00     0.135 A 
ATOM     73  C   UNL A   1      46.982  33.879  27.328  1.00  0.00     0.135 A 
ATOM     74  F   UNL A   1      47.576  32.412  30.600  1.00  0.00    -0.206 F 
ATOM     75  C   UNL A   1      48.060  34.567  29.802  1.00  0.00     0.059 A 
ATOM     76  C   UNL A   1      47.505  35.153  27.511  1.00  0.00     0.059 A 
ATOM     77  F   UNL A   1      46.476  33.567  26.123  1.00  0.00    -0.206 F 
ATOM     78  C   UNL A   1      48.038  35.491  28.755  1.00  0.00     0.060 A 
BRANCH  78  79
ATOM     79  S   UNL A   1      48.769  37.121  29.017  1.00  0.00     0.124 S 
ATOM     80  O   UNL A   1      49.853  36.811  29.942  1.00  0.00    -0.237 OA
ATOM     81  O   UNL A   1      49.171  37.502  27.666  1.00  0.00    -0.237 OA
ATOM     82  O   UNL A   1      47.664  37.896  29.574  1.00  0.00    -0.744 OA
ENDBRANCH  78  79
ENDBRANCH  46  71
BRANCH  58  83
ATOM     83  C   UNL A   1      49.933  26.959  26.233  1.00  0.00     0.058 A 
ATOM     84  C   UNL A   1      50.868  26.486  27.167  1.00  0.00     0.135 A 
ATOM     85  C   UNL A   1      50.332  27.047  24.890  1.00  0.00     0.135 A 
ATOM     86  F   UNL A   1      50.538  26.389  28.464  1.00  0.00    -0.206 F 
ATOM     87  C   UNL A   1      52.158  26.130  26.785  1.00  0.00     0.059 A 
ATOM     88  C   UNL A   1      51.610  26.678  24.483  1.00  0.00     0.059 A 
ATOM     89  F   UNL A   1      49.472  27.486  23.957  1.00  0.00    -0.206 F 
ATOM     90  C   UNL A   1      52.520  26.230  25.441  1.00  0.00     0.060 A 
BRANCH  90  91
ATOM     91  S   UNL A   1      54.185  25.733  24.948  1.00  0.00     0.124 S 
ATOM     92  O   UNL A   1      54.261  26.266  23.592  1.00  0.00    -0.237 OA
ATOM     93  O   UNL A   1      55.021  26.404  25.940  1.00  0.00    -0.237 OA
ATOM     94  O   UNL A   1      54.149  24.278  25.052  1.00  0.00    -0.744 OA
ENDBRANCH  90  91
ENDBRANCH  58  83
ENDBRANCH  32  33
ENDBRANCH  25  27
ENDBRANCH  24  25
ENDBRANCH  23  24
ENDBRANCH   1  23
TORSDOF 18
ENDMDL
