MODEL 1
REMARK VINA RESULT:     -13.9      0.000      0.000
REMARK SMILES Cc1ccc(C(=O)N2CCCC[C@@H]2C(=O)OCCOC(=O)c2ccc(-c3c4nc(c(-c5c(F)cc(S(=O)(=O)[O-])cc5F)c5ccc([nH]5)c(-c5c(F)cc(S(=O)(=O)[O-])cc5F)c5nc(c(-c6c(F)cc(S(=O)(=O)[O-])cc6F)c6ccc3[nH]6)C=C5)C=C4)cc2)cc1S(=O)(=O)N1CCCCC1
REMARK SMILES IDX 17 1 16 2 14 3 15 4 13 5 8 6 9 7 10 8 12 9 11 10 6 11 7 12
REMARK SMILES IDX 5 13 1 14 2 15 3 16 89 17 4 18 88 19 90 20 91 21 92 22 93 23
REMARK SMILES IDX 94 24 98 25 95 26 97 27 96 28 18 29 19 30 20 31 21 32 22 33
REMARK SMILES IDX 23 34 87 35 24 36 86 37 25 38 26 39 27 40 80 41 28 42 85 43
REMARK SMILES IDX 79 44 81 45 29 46 84 47 78 48 77 49 30 51 64 52 43 53 63 54
REMARK SMILES IDX 44 55 47 56 62 57 82 58 45 59 46 60 61 62 83 63 48 64 31 65
REMARK SMILES IDX 32 66 41 67 33 68 34 69 40 70 42 71 35 72 36 73 37 74 38 75
REMARK SMILES IDX 39 76 65 77 66 78 75 79 67 80 68 81 74 82 76 83 69 84 70 85
REMARK SMILES IDX 71 86 72 87 73 88 49 89 50 90 59 91 51 92 52 93 58 94 60 95
REMARK SMILES IDX 53 96 54 97 55 98 56 99 57 100
REMARK H PARENT 81 50 47 61
REMARK Flexibility Score: inf
ROOT
ATOM      1  C   UNL A   1      46.495  21.335  39.224  1.00  0.00     0.274 C 
ENDROOT
BRANCH   1   2
ATOM      2  O   UNL A   1      46.390  20.482  40.773  1.00  0.00    -0.461 OA
BRANCH   2   3
ATOM      3  C   UNL A   1      47.179  19.143  41.835  1.00  0.00     0.328 C 
ATOM      4  O   UNL A   1      48.199  18.485  41.522  1.00  0.00    -0.250 OA
BRANCH   3   5
ATOM      5  C   UNL A   1      46.648  18.728  43.441  1.00  0.00     0.195 C 
ATOM      6  N   UNL A   1      45.263  18.436  43.342  1.00  0.00    -0.325 N 
ATOM      7  C   UNL A   1      44.413  18.209  44.548  1.00  0.00     0.121 C 
ATOM      8  C   UNL A   1      44.710  19.100  45.725  1.00  0.00     0.022 C 
ATOM      9  C   UNL A   1      46.985  19.423  44.801  1.00  0.00     0.037 C 
ATOM     10  C   UNL A   1      46.187  18.968  46.028  1.00  0.00     0.005 C 
BRANCH   6  11
ATOM     11  C   UNL A   1      44.870  17.761  42.199  1.00  0.00     0.254 C 
ATOM     12  O   UNL A   1      43.939  18.431  41.677  1.00  0.00    -0.269 OA
BRANCH  11  13
ATOM     13  C   UNL A   1      45.746  16.214  41.364  1.00  0.00     0.041 A 
ATOM     14  C   UNL A   1      41.437  14.614  40.820  1.00  0.00     0.046 C 
ATOM     15  C   UNL A   1      42.529  15.594  40.667  1.00  0.00    -0.031 A 
ATOM     16  C   UNL A   1      43.525  15.809  39.084  1.00  0.00     0.005 A 
ATOM     17  C   UNL A   1      43.162  15.511  42.315  1.00  0.00     0.086 A 
ATOM     18  C   UNL A   1      45.453  15.984  39.336  1.00  0.00     0.014 A 
ATOM     19  C   UNL A   1      44.669  15.809  42.623  1.00  0.00     0.035 A 
BRANCH  17  20
ATOM     20  S   UNL A   1      42.364  14.513  44.005  1.00  0.00     0.243 S 
ATOM     21  O   UNL A   1      43.106  15.045  45.139  1.00  0.00    -0.207 OA
ATOM     22  O   UNL A   1      40.926  14.673  43.925  1.00  0.00    -0.207 OA
BRANCH  20  23
ATOM     23  N   UNL A   1      42.712  12.550  44.082  1.00  0.00    -0.198 NA
ATOM     24  C   UNL A   1      44.160  12.314  44.253  1.00  0.00     0.102 C 
ATOM     25  C   UNL A   1      42.227  11.589  42.938  1.00  0.00     0.102 C 
ATOM     26  C   UNL A   1      44.506  10.802  44.207  1.00  0.00     0.017 C 
ATOM     27  C   UNL A   1      42.285  10.079  43.405  1.00  0.00     0.017 C 
ATOM     28  C   UNL A   1      43.348   9.838  44.454  1.00  0.00     0.003 C 
ENDBRANCH  20  23
ENDBRANCH  17  20
ENDBRANCH  11  13
ENDBRANCH   6  11
ENDBRANCH   3   5
ENDBRANCH   2   3
ENDBRANCH   1   2
BRANCH   1  29
ATOM     29  C   UNL A   1      46.289  20.611  37.757  1.00  0.00     0.275 C 
BRANCH  29  30
ATOM     30  O   UNL A   1      45.709  21.263  36.576  1.00  0.00    -0.458 OA
BRANCH  30  31
ATOM     31  C   UNL A   1      46.486  21.747  35.583  1.00  0.00     0.338 C 
ATOM     32  O   UNL A   1      47.535  21.307  35.169  1.00  0.00    -0.246 OA
BRANCH  31  33
ATOM     33  C   UNL A   1      45.778  22.878  35.084  1.00  0.00     0.060 A 
ATOM     34  C   UNL A   1      44.211  22.924  34.123  1.00  0.00     0.016 A 
ATOM     35  C   UNL A   1      46.402  24.412  35.849  1.00  0.00     0.016 A 
ATOM     36  C   UNL A   1      43.430  24.592  33.734  1.00  0.00     0.010 A 
ATOM     37  C   UNL A   1      45.476  25.906  35.599  1.00  0.00     0.010 A 
ATOM     38  C   UNL A   1      44.122  26.191  34.314  1.00  0.00    -0.014 A 
BRANCH  38  39
ATOM     39  C   UNL A   1      44.551  27.942  33.296  1.00  0.00     0.031 A 
ATOM     40  C   UNL A   1      45.737  27.372  32.100  1.00  0.00     0.074 A 
ATOM     41  C   UNL A   1      42.945  29.047  33.121  1.00  0.00     0.049 A 
ATOM     42  N   UNL A   1      45.942  27.860  30.884  1.00  0.00    -0.248 NA
ATOM     43  C   UNL A   1      46.344  26.048  32.225  1.00  0.00     0.031 C 
ATOM     44  C   UNL A   1      41.710  28.753  31.745  1.00  0.00     0.029 A 
ATOM     45  N   UNL A   1      41.621  29.266  33.860  1.00  0.00    -0.354 N 
ATOM     46  C   UNL A   1      46.070  26.757  30.049  1.00  0.00     0.074 A 
ATOM     47  C   UNL A   1      46.644  25.770  30.945  1.00  0.00     0.031 C 
ATOM     48  C   UNL A   1      40.455  29.114  31.918  1.00  0.00     0.029 A 
ATOM     49  C   UNL A   1      40.527  29.812  33.102  1.00  0.00     0.049 A 
ATOM     50  H   UNL A   1      41.523  29.043  34.814  1.00  0.00     0.167 HD
ATOM     51  C   UNL A   1      45.407  26.635  28.832  1.00  0.00     0.037 A 
ATOM     52  C   UNL A   1      40.256  31.133  33.099  1.00  0.00     0.037 A 
ATOM     53  C   UNL A   1      44.361  27.688  28.545  1.00  0.00     0.049 A 
ATOM     54  C   UNL A   1      41.045  31.772  31.608  1.00  0.00     0.074 A 
ATOM     55  C   UNL A   1      42.995  27.572  28.267  1.00  0.00     0.029 A 
ATOM     56  N   UNL A   1      44.566  29.072  28.681  1.00  0.00    -0.354 N 
ATOM     57  N   UNL A   1      41.398  31.066  30.490  1.00  0.00    -0.248 NA
ATOM     58  C   UNL A   1      41.407  33.173  31.256  1.00  0.00     0.031 C 
ATOM     59  C   UNL A   1      42.387  28.862  28.248  1.00  0.00     0.029 A 
ATOM     60  C   UNL A   1      43.346  29.804  28.555  1.00  0.00     0.049 A 
ATOM     61  H   UNL A   1      45.444  29.487  28.844  1.00  0.00     0.167 HD
ATOM     62  C   UNL A   1      42.264  31.792  29.600  1.00  0.00     0.074 A 
ATOM     63  C   UNL A   1      42.090  33.141  30.089  1.00  0.00     0.031 C 
ATOM     64  C   UNL A   1      43.277  31.280  28.735  1.00  0.00     0.037 A 
BRANCH  51  65
ATOM     65  C   UNL A   1      45.458  25.405  27.867  1.00  0.00     0.058 A 
ATOM     66  C   UNL A   1      44.804  24.197  28.243  1.00  0.00     0.135 A 
ATOM     67  C   UNL A   1      46.059  25.319  26.590  1.00  0.00     0.135 A 
ATOM     68  F   UNL A   1      44.135  24.085  29.399  1.00  0.00    -0.206 F 
ATOM     69  C   UNL A   1      44.763  23.040  27.455  1.00  0.00     0.059 A 
ATOM     70  C   UNL A   1      45.986  24.187  25.759  1.00  0.00     0.059 A 
ATOM     71  F   UNL A   1      46.769  26.311  26.054  1.00  0.00    -0.206 F 
ATOM     72  C   UNL A   1      45.334  23.050  26.197  1.00  0.00     0.060 A 
BRANCH  72  73
ATOM     73  S   UNL A   1      45.155  21.598  25.147  1.00  0.00     0.124 S 
ATOM     74  O   UNL A   1      45.084  22.192  23.816  1.00  0.00    -0.237 OA
ATOM     75  O   UNL A   1      46.371  20.851  25.447  1.00  0.00    -0.237 OA
ATOM     76  O   UNL A   1      43.917  20.985  25.621  1.00  0.00    -0.744 OA
ENDBRANCH  72  73
ENDBRANCH  51  65
BRANCH  52  77
ATOM     77  C   UNL A   1      40.180  31.196  34.746  1.00  0.00     0.058 A 
ATOM     78  C   UNL A   1      41.030  31.915  35.632  1.00  0.00     0.135 A 
ATOM     79  C   UNL A   1      38.933  31.162  35.348  1.00  0.00     0.135 A 
ATOM     80  F   UNL A   1      42.292  32.166  35.255  1.00  0.00    -0.206 F 
ATOM     81  C   UNL A   1      40.613  32.477  36.924  1.00  0.00     0.059 A 
ATOM     82  C   UNL A   1      38.457  31.655  36.592  1.00  0.00     0.059 A 
ATOM     83  F   UNL A   1      38.041  30.727  34.506  1.00  0.00    -0.206 F 
ATOM     84  C   UNL A   1      39.305  32.342  37.395  1.00  0.00     0.060 A 
BRANCH  84  85
ATOM     85  S   UNL A   1      38.636  33.040  38.948  1.00  0.00     0.124 S 
ATOM     86  O   UNL A   1      37.257  32.560  38.905  1.00  0.00    -0.237 OA
ATOM     87  O   UNL A   1      39.490  32.430  39.962  1.00  0.00    -0.237 OA
ATOM     88  O   UNL A   1      38.758  34.490  38.814  1.00  0.00    -0.744 OA
ENDBRANCH  84  85
ENDBRANCH  52  77
BRANCH  64  89
ATOM     89  C   UNL A   1      44.494  32.070  28.084  1.00  0.00     0.058 A 
ATOM     90  C   UNL A   1      44.654  32.424  26.727  1.00  0.00     0.135 A 
ATOM     91  C   UNL A   1      45.526  32.605  28.917  1.00  0.00     0.135 A 
ATOM     92  F   UNL A   1      43.662  32.254  25.841  1.00  0.00    -0.206 F 
ATOM     93  C   UNL A   1      45.840  33.002  26.219  1.00  0.00     0.059 A 
ATOM     94  C   UNL A   1      46.670  33.259  28.448  1.00  0.00     0.059 A 
ATOM     95  F   UNL A   1      45.478  32.502  30.253  1.00  0.00    -0.206 F 
ATOM     96  C   UNL A   1      46.872  33.350  27.086  1.00  0.00     0.060 A 
BRANCH  96  97
ATOM     97  S   UNL A   1      48.514  33.767  26.453  1.00  0.00     0.124 S 
ATOM     98  O   UNL A   1      49.133  32.445  26.378  1.00  0.00    -0.237 OA
ATOM     99  O   UNL A   1      48.221  34.400  25.172  1.00  0.00    -0.237 OA
ATOM    100  O   UNL A   1      49.069  34.652  27.473  1.00  0.00    -0.744 OA
ENDBRANCH  96  97
ENDBRANCH  64  89
ENDBRANCH  38  39
ENDBRANCH  31  33
ENDBRANCH  30  31
ENDBRANCH  29  30
ENDBRANCH   1  29
TORSDOF 18
ENDMDL
MODEL 2
REMARK VINA RESULT:     -13.3      7.972     22.389
REMARK SMILES Cc1ccc(C(=O)N2CCCC[C@@H]2C(=O)OCCOC(=O)c2ccc(-c3c4nc(c(-c5c(F)cc(S(=O)(=O)[O-])cc5F)c5ccc([nH]5)c(-c5c(F)cc(S(=O)(=O)[O-])cc5F)c5nc(c(-c6c(F)cc(S(=O)(=O)[O-])cc6F)c6ccc3[nH]6)C=C5)C=C4)cc2)cc1S(=O)(=O)N1CCCCC1
REMARK SMILES IDX 17 1 16 2 14 3 15 4 13 5 8 6 9 7 10 8 12 9 11 10 6 11 7 12
REMARK SMILES IDX 5 13 1 14 2 15 3 16 89 17 4 18 88 19 90 20 91 21 92 22 93 23
REMARK SMILES IDX 94 24 98 25 95 26 97 27 96 28 18 29 19 30 20 31 21 32 22 33
REMARK SMILES IDX 23 34 87 35 24 36 86 37 25 38 26 39 27 40 80 41 28 42 85 43
REMARK SMILES IDX 79 44 81 45 29 46 84 47 78 48 77 49 30 51 64 52 43 53 63 54
REMARK SMILES IDX 44 55 47 56 62 57 82 58 45 59 46 60 61 62 83 63 48 64 31 65
REMARK SMILES IDX 32 66 41 67 33 68 34 69 40 70 42 71 35 72 36 73 37 74 38 75
REMARK SMILES IDX 39 76 65 77 66 78 75 79 67 80 68 81 74 82 76 83 69 84 70 85
REMARK SMILES IDX 71 86 72 87 73 88 49 89 50 90 59 91 51 92 52 93 58 94 60 95
REMARK SMILES IDX 53 96 54 97 55 98 56 99 57 100
REMARK H PARENT 81 50 47 61
REMARK Flexibility Score: inf
ROOT
ATOM      1  C   UNL A   1      45.158  41.218  25.546  1.00  0.00     0.274 C 
ENDROOT
BRANCH   1   2
ATOM      2  O   UNL A   1      46.507  42.082  24.791  1.00  0.00    -0.461 OA
BRANCH   2   3
ATOM      3  C   UNL A   1      47.094  43.765  24.182  1.00  0.00     0.328 C 
ATOM      4  O   UNL A   1      47.067  44.822  24.856  1.00  0.00    -0.250 OA
BRANCH   3   5
ATOM      5  C   UNL A   1      47.854  44.037  22.639  1.00  0.00     0.195 C 
ATOM      6  N   UNL A   1      47.121  43.274  21.692  1.00  0.00    -0.325 N 
ATOM      7  C   UNL A   1      47.578  43.112  20.281  1.00  0.00     0.121 C 
ATOM      8  C   UNL A   1      49.064  42.944  20.099  1.00  0.00     0.022 C 
ATOM      9  C   UNL A   1      49.376  44.072  22.281  1.00  0.00     0.037 C 
ATOM     10  C   UNL A   1      49.737  44.109  20.792  1.00  0.00     0.005 C 
BRANCH   6  11
ATOM     11  C   UNL A   1      45.750  43.232  21.884  1.00  0.00     0.254 C 
ATOM     12  O   UNL A   1      45.389  42.037  21.712  1.00  0.00    -0.269 OA
BRANCH  11  13
ATOM     13  C   UNL A   1      44.594  44.668  22.564  1.00  0.00     0.041 A 
ATOM     14  C   UNL A   1      41.735  43.392  19.155  1.00  0.00     0.046 C 
ATOM     15  C   UNL A   1      42.556  43.180  20.363  1.00  0.00    -0.031 A 
ATOM     16  C   UNL A   1      41.845  43.080  22.104  1.00  0.00     0.005 A 
ATOM     17  C   UNL A   1      43.982  44.088  19.850  1.00  0.00     0.086 A 
ATOM     18  C   UNL A   1      42.835  44.075  23.460  1.00  0.00     0.014 A 
ATOM     19  C   UNL A   1      44.927  44.774  20.895  1.00  0.00     0.035 A 
BRANCH  17  20
ATOM     20  S   UNL A   1      44.416  44.940  17.959  1.00  0.00     0.243 S 
ATOM     21  O   UNL A   1      45.869  45.041  17.919  1.00  0.00    -0.207 OA
ATOM     22  O   UNL A   1      43.706  44.137  16.984  1.00  0.00    -0.207 OA
BRANCH  20  23
ATOM     23  N   UNL A   1      43.797  46.819  17.705  1.00  0.00    -0.198 NA
ATOM     24  C   UNL A   1      42.332  46.832  17.510  1.00  0.00     0.102 C 
ATOM     25  C   UNL A   1      44.412  47.738  16.590  1.00  0.00     0.102 C 
ATOM     26  C   UNL A   1      41.806  48.257  17.195  1.00  0.00     0.017 C 
ATOM     27  C   UNL A   1      44.036  49.255  16.837  1.00  0.00     0.017 C 
ATOM     28  C   UNL A   1      42.726  49.415  17.576  1.00  0.00     0.003 C 
ENDBRANCH  20  23
ENDBRANCH  17  20
ENDBRANCH  11  13
ENDBRANCH   6  11
ENDBRANCH   3   5
ENDBRANCH   2   3
ENDBRANCH   1   2
BRANCH   1  29
ATOM     29  C   UNL A   1      45.297  39.742  26.268  1.00  0.00     0.275 C 
BRANCH  29  30
ATOM     30  O   UNL A   1      44.168  38.948  26.773  1.00  0.00    -0.458 OA
BRANCH  30  31
ATOM     31  C   UNL A   1      43.942  38.804  28.096  1.00  0.00     0.338 C 
ATOM     32  O   UNL A   1      43.835  39.668  28.938  1.00  0.00    -0.246 OA
BRANCH  31  33
ATOM     33  C   UNL A   1      43.805  37.400  28.291  1.00  0.00     0.060 A 
ATOM     34  C   UNL A   1      42.300  36.357  28.135  1.00  0.00     0.016 A 
ATOM     35  C   UNL A   1      45.443  36.600  28.356  1.00  0.00     0.016 A 
ATOM     36  C   UNL A   1      42.464  34.489  28.305  1.00  0.00     0.010 A 
ATOM     37  C   UNL A   1      45.510  34.827  28.298  1.00  0.00     0.010 A 
ATOM     38  C   UNL A   1      44.070  33.636  28.567  1.00  0.00    -0.014 A 
BRANCH  38  39
ATOM     39  C   UNL A   1      44.650  32.218  29.959  1.00  0.00     0.031 A 
ATOM     40  C   UNL A   1      43.939  32.876  31.450  1.00  0.00     0.074 A 
ATOM     41  C   UNL A   1      44.614  30.426  29.172  1.00  0.00     0.049 A 
ATOM     42  N   UNL A   1      43.504  32.189  32.498  1.00  0.00    -0.248 NA
ATOM     43  C   UNL A   1      43.421  34.243  31.489  1.00  0.00     0.031 C 
ATOM     44  C   UNL A   1      43.026  29.439  29.084  1.00  0.00     0.029 A 
ATOM     45  N   UNL A   1      44.743  29.782  27.788  1.00  0.00    -0.354 N 
ATOM     46  C   UNL A   1      42.294  32.769  32.857  1.00  0.00     0.074 A 
ATOM     47  C   UNL A   1      42.497  34.151  32.460  1.00  0.00     0.031 C 
ATOM     48  C   UNL A   1      42.889  28.521  28.148  1.00  0.00     0.029 A 
ATOM     49  C   UNL A   1      44.156  28.480  27.612  1.00  0.00     0.049 A 
ATOM     50  H   UNL A   1      45.209  30.238  27.051  1.00  0.00     0.167 HD
ATOM     51  C   UNL A   1      41.142  32.038  33.125  1.00  0.00     0.037 A 
ATOM     52  C   UNL A   1      44.882  27.351  27.738  1.00  0.00     0.037 A 
ATOM     53  C   UNL A   1      41.211  30.562  32.805  1.00  0.00     0.049 A 
ATOM     54  C   UNL A   1      44.582  26.785  29.425  1.00  0.00     0.074 A 
ATOM     55  C   UNL A   1      40.426  29.769  31.961  1.00  0.00     0.029 A 
ATOM     56  N   UNL A   1      42.254  29.708  33.204  1.00  0.00    -0.354 N 
ATOM     57  N   UNL A   1      43.518  27.098  30.225  1.00  0.00    -0.248 NA
ATOM     58  C   UNL A   1      45.366  25.830  30.255  1.00  0.00     0.031 C 
ATOM     59  C   UNL A   1      40.994  28.466  31.845  1.00  0.00     0.029 A 
ATOM     60  C   UNL A   1      42.163  28.430  32.576  1.00  0.00     0.049 A 
ATOM     61  H   UNL A   1      42.962  29.962  33.840  1.00  0.00     0.167 HD
ATOM     62  C   UNL A   1      43.706  26.730  31.604  1.00  0.00     0.074 A 
ATOM     63  C   UNL A   1      44.820  25.816  31.493  1.00  0.00     0.031 C 
ATOM     64  C   UNL A   1      43.188  27.368  32.770  1.00  0.00     0.037 A 
BRANCH  51  65
ATOM     65  C   UNL A   1      39.734  32.621  33.481  1.00  0.00     0.058 A 
ATOM     66  C   UNL A   1      38.938  33.197  32.449  1.00  0.00     0.135 A 
ATOM     67  C   UNL A   1      39.083  32.630  34.736  1.00  0.00     0.135 A 
ATOM     68  F   UNL A   1      39.356  33.246  31.177  1.00  0.00    -0.206 F 
ATOM     69  C   UNL A   1      37.658  33.730  32.642  1.00  0.00     0.059 A 
ATOM     70  C   UNL A   1      37.778  33.111  34.943  1.00  0.00     0.059 A 
ATOM     71  F   UNL A   1      39.656  32.189  35.854  1.00  0.00    -0.206 F 
ATOM     72  C   UNL A   1      37.069  33.659  33.890  1.00  0.00     0.060 A 
BRANCH  72  73
ATOM     73  S   UNL A   1      35.372  34.228  34.087  1.00  0.00     0.124 S 
ATOM     74  O   UNL A   1      35.185  34.135  35.532  1.00  0.00    -0.237 OA
ATOM     75  O   UNL A   1      35.436  35.579  33.539  1.00  0.00    -0.237 OA
ATOM     76  O   UNL A   1      34.598  33.274  33.297  1.00  0.00    -0.744 OA
ENDBRANCH  72  73
ENDBRANCH  51  65
BRANCH  52  77
ATOM     77  C   UNL A   1      46.005  27.863  26.643  1.00  0.00     0.058 A 
ATOM     78  C   UNL A   1      47.420  27.884  26.787  1.00  0.00     0.135 A 
ATOM     79  C   UNL A   1      45.756  27.646  25.298  1.00  0.00     0.135 A 
ATOM     80  F   UNL A   1      47.942  28.002  28.016  1.00  0.00    -0.206 F 
ATOM     81  C   UNL A   1      48.379  27.715  25.687  1.00  0.00     0.059 A 
ATOM     82  C   UNL A   1      46.616  27.497  24.177  1.00  0.00     0.059 A 
ATOM     83  F   UNL A   1      44.495  27.383  25.112  1.00  0.00    -0.206 F 
ATOM     84  C   UNL A   1      47.958  27.514  24.371  1.00  0.00     0.060 A 
BRANCH  84  85
ATOM     85  S   UNL A   1      49.035  27.228  22.920  1.00  0.00     0.124 S 
ATOM     86  O   UNL A   1      48.389  26.069  22.310  1.00  0.00    -0.237 OA
ATOM     87  O   UNL A   1      48.915  28.484  22.186  1.00  0.00    -0.237 OA
ATOM     88  O   UNL A   1      50.361  26.943  23.464  1.00  0.00    -0.744 OA
ENDBRANCH  84  85
ENDBRANCH  52  77
BRANCH  64  89
ATOM     89  C   UNL A   1      43.713  27.240  34.266  1.00  0.00     0.058 A 
ATOM     90  C   UNL A   1      44.938  27.713  34.785  1.00  0.00     0.135 A 
ATOM     91  C   UNL A   1      42.863  26.692  35.277  1.00  0.00     0.135 A 
ATOM     92  F   UNL A   1      45.746  28.497  34.057  1.00  0.00    -0.206 F 
ATOM     93  C   UNL A   1      45.378  27.426  36.097  1.00  0.00     0.059 A 
ATOM     94  C   UNL A   1      43.242  26.476  36.606  1.00  0.00     0.059 A 
ATOM     95  F   UNL A   1      41.603  26.320  35.013  1.00  0.00    -0.206 F 
ATOM     96  C   UNL A   1      44.544  26.741  36.977  1.00  0.00     0.060 A 
BRANCH  96  97
ATOM     97  S   UNL A   1      45.188  26.063  38.525  1.00  0.00     0.124 S 
ATOM     98  O   UNL A   1      46.599  26.429  38.430  1.00  0.00    -0.237 OA
ATOM     99  O   UNL A   1      44.418  26.774  39.540  1.00  0.00    -0.237 OA
ATOM    100  O   UNL A   1      44.912  24.632  38.423  1.00  0.00    -0.744 OA
ENDBRANCH  96  97
ENDBRANCH  64  89
ENDBRANCH  38  39
ENDBRANCH  31  33
ENDBRANCH  30  31
ENDBRANCH  29  30
ENDBRANCH   1  29
TORSDOF 18
ENDMDL
MODEL 3
REMARK VINA RESULT:     -13.3     11.000     21.675
REMARK SMILES Cc1ccc(C(=O)N2CCCC[C@@H]2C(=O)OCCOC(=O)c2ccc(-c3c4nc(c(-c5c(F)cc(S(=O)(=O)[O-])cc5F)c5ccc([nH]5)c(-c5c(F)cc(S(=O)(=O)[O-])cc5F)c5nc(c(-c6c(F)cc(S(=O)(=O)[O-])cc6F)c6ccc3[nH]6)C=C5)C=C4)cc2)cc1S(=O)(=O)N1CCCCC1
REMARK SMILES IDX 17 1 16 2 14 3 15 4 13 5 8 6 9 7 10 8 12 9 11 10 6 11 7 12
REMARK SMILES IDX 5 13 1 14 2 15 3 16 89 17 4 18 88 19 90 20 91 21 92 22 93 23
REMARK SMILES IDX 94 24 98 25 95 26 97 27 96 28 18 29 19 30 20 31 21 32 22 33
REMARK SMILES IDX 23 34 87 35 24 36 86 37 25 38 26 39 27 40 80 41 28 42 85 43
REMARK SMILES IDX 79 44 81 45 29 46 84 47 78 48 77 49 30 51 64 52 43 53 63 54
REMARK SMILES IDX 44 55 47 56 62 57 82 58 45 59 46 60 61 62 83 63 48 64 31 65
REMARK SMILES IDX 32 66 41 67 33 68 34 69 40 70 42 71 35 72 36 73 37 74 38 75
REMARK SMILES IDX 39 76 65 77 66 78 75 79 67 80 68 81 74 82 76 83 69 84 70 85
REMARK SMILES IDX 71 86 72 87 73 88 49 89 50 90 59 91 51 92 52 93 58 94 60 95
REMARK SMILES IDX 53 96 54 97 55 98 56 99 57 100
REMARK H PARENT 81 50 47 61
REMARK Flexibility Score: inf
ROOT
ATOM      1  C   UNL A   1      47.089  40.080  25.023  1.00  0.00     0.274 C 
ENDROOT
BRANCH   1   2
ATOM      2  O   UNL A   1      47.061  41.424  23.870  1.00  0.00    -0.461 OA
BRANCH   2   3
ATOM      3  C   UNL A   1      47.096  43.300  23.708  1.00  0.00     0.328 C 
ATOM      4  O   UNL A   1      46.861  44.105  24.640  1.00  0.00    -0.250 OA
BRANCH   3   5
ATOM      5  C   UNL A   1      47.570  44.149  22.264  1.00  0.00     0.195 C 
ATOM      6  N   UNL A   1      46.789  43.610  21.208  1.00  0.00    -0.325 N 
ATOM      7  C   UNL A   1      47.035  43.964  19.780  1.00  0.00     0.121 C 
ATOM      8  C   UNL A   1      48.483  44.096  19.388  1.00  0.00     0.022 C 
ATOM      9  C   UNL A   1      49.003  44.530  21.769  1.00  0.00     0.037 C 
ATOM     10  C   UNL A   1      49.121  45.081  20.344  1.00  0.00     0.005 C 
BRANCH   6  11
ATOM     11  C   UNL A   1      45.477  43.298  21.528  1.00  0.00     0.254 C 
ATOM     12  O   UNL A   1      45.298  42.091  21.213  1.00  0.00    -0.269 OA
BRANCH  11  13
ATOM     13  C   UNL A   1      44.198  44.398  22.533  1.00  0.00     0.041 A 
ATOM     14  C   UNL A   1      41.283  43.391  19.082  1.00  0.00     0.046 C 
ATOM     15  C   UNL A   1      42.213  43.074  20.182  1.00  0.00    -0.031 A 
ATOM     16  C   UNL A   1      41.654  42.547  21.902  1.00  0.00     0.005 A 
ATOM     17  C   UNL A   1      43.465  44.258  19.791  1.00  0.00     0.086 A 
ATOM     18  C   UNL A   1      42.604  43.400  23.379  1.00  0.00     0.014 A 
ATOM     19  C   UNL A   1      44.387  44.864  20.903  1.00  0.00     0.035 A 
BRANCH  17  20
ATOM     20  S   UNL A   1      43.640  45.505  18.086  1.00  0.00     0.243 S 
ATOM     21  O   UNL A   1      44.918  45.143  17.488  1.00  0.00    -0.207 OA
ATOM     22  O   UNL A   1      42.407  45.344  17.343  1.00  0.00    -0.207 OA
BRANCH  20  23
ATOM     23  N   UNL A   1      43.822  47.454  18.467  1.00  0.00    -0.198 NA
ATOM     24  C   UNL A   1      43.405  48.228  17.280  1.00  0.00     0.102 C 
ATOM     25  C   UNL A   1      45.184  48.067  18.954  1.00  0.00     0.102 C 
ATOM     26  C   UNL A   1      43.632  49.751  17.477  1.00  0.00     0.017 C 
ATOM     27  C   UNL A   1      44.972  49.522  19.538  1.00  0.00     0.017 C 
ATOM     28  C   UNL A   1      43.786  50.228  18.919  1.00  0.00     0.003 C 
ENDBRANCH  20  23
ENDBRANCH  17  20
ENDBRANCH  11  13
ENDBRANCH   6  11
ENDBRANCH   3   5
ENDBRANCH   2   3
ENDBRANCH   1   2
BRANCH   1  29
ATOM     29  C   UNL A   1      46.974  40.266  26.658  1.00  0.00     0.275 C 
BRANCH  29  30
ATOM     30  O   UNL A   1      46.370  41.425  27.327  1.00  0.00    -0.458 OA
BRANCH  30  31
ATOM     31  C   UNL A   1      45.044  41.669  27.258  1.00  0.00     0.338 C 
ATOM     32  O   UNL A   1      44.483  42.652  26.826  1.00  0.00    -0.246 OA
BRANCH  31  33
ATOM     33  C   UNL A   1      44.429  40.489  27.765  1.00  0.00     0.060 A 
ATOM     34  C   UNL A   1      44.402  39.854  29.491  1.00  0.00     0.016 A 
ATOM     35  C   UNL A   1      43.270  39.794  26.540  1.00  0.00     0.016 A 
ATOM     36  C   UNL A   1      43.366  38.333  29.886  1.00  0.00     0.010 A 
ATOM     37  C   UNL A   1      42.178  38.496  27.066  1.00  0.00     0.010 A 
ATOM     38  C   UNL A   1      42.326  37.469  28.643  1.00  0.00    -0.014 A 
BRANCH  38  39
ATOM     39  C   UNL A   1      42.192  35.468  28.129  1.00  0.00     0.031 A 
ATOM     40  C   UNL A   1      43.739  35.216  27.289  1.00  0.00     0.074 A 
ATOM     41  C   UNL A   1      41.289  34.455  29.540  1.00  0.00     0.049 A 
ATOM     42  N   UNL A   1      44.443  34.093  27.233  1.00  0.00    -0.248 NA
ATOM     43  C   UNL A   1      44.565  36.354  26.891  1.00  0.00     0.031 C 
ATOM     44  C   UNL A   1      42.225  33.831  31.036  1.00  0.00     0.029 A 
ATOM     45  N   UNL A   1      40.268  34.705  30.654  1.00  0.00    -0.354 N 
ATOM     46  C   UNL A   1      45.766  34.464  27.440  1.00  0.00     0.074 A 
ATOM     47  C   UNL A   1      45.791  35.803  26.879  1.00  0.00     0.031 C 
ATOM     48  C   UNL A   1      41.575  33.626  32.163  1.00  0.00     0.029 A 
ATOM     49  C   UNL A   1      40.268  33.791  31.764  1.00  0.00     0.049 A 
ATOM     50  H   UNL A   1      39.637  35.460  30.611  1.00  0.00     0.167 HD
ATOM     51  C   UNL A   1      46.617  33.810  28.324  1.00  0.00     0.037 A 
ATOM     52  C   UNL A   1      39.431  32.736  31.815  1.00  0.00     0.037 A 
ATOM     53  C   UNL A   1      45.968  32.780  29.221  1.00  0.00     0.049 A 
ATOM     54  C   UNL A   1      40.402  31.336  31.218  1.00  0.00     0.074 A 
ATOM     55  C   UNL A   1      45.919  32.678  30.615  1.00  0.00     0.029 A 
ATOM     56  N   UNL A   1      45.101  31.767  28.773  1.00  0.00    -0.354 N 
ATOM     57  N   UNL A   1      41.765  31.225  31.194  1.00  0.00    -0.248 NA
ATOM     58  C   UNL A   1      39.941  30.017  30.705  1.00  0.00     0.031 C 
ATOM     59  C   UNL A   1      45.030  31.632  30.999  1.00  0.00     0.029 A 
ATOM     60  C   UNL A   1      44.474  31.088  29.861  1.00  0.00     0.049 A 
ATOM     61  H   UNL A   1      44.947  31.553  27.825  1.00  0.00     0.167 HD
ATOM     62  C   UNL A   1      42.239  30.123  30.399  1.00  0.00     0.074 A 
ATOM     63  C   UNL A   1      41.028  29.346  30.260  1.00  0.00     0.031 C 
ATOM     64  C   UNL A   1      43.453  30.023  29.657  1.00  0.00     0.037 A 
BRANCH  51  65
ATOM     65  C   UNL A   1      48.096  34.202  28.650  1.00  0.00     0.058 A 
ATOM     66  C   UNL A   1      49.140  33.273  28.373  1.00  0.00     0.135 A 
ATOM     67  C   UNL A   1      48.583  35.421  29.176  1.00  0.00     0.135 A 
ATOM     68  F   UNL A   1      48.894  32.074  27.829  1.00  0.00    -0.206 F 
ATOM     69  C   UNL A   1      50.500  33.519  28.602  1.00  0.00     0.059 A 
ATOM     70  C   UNL A   1      49.946  35.710  29.365  1.00  0.00     0.059 A 
ATOM     71  F   UNL A   1      47.784  36.417  29.556  1.00  0.00    -0.206 F 
ATOM     72  C   UNL A   1      50.900  34.754  29.074  1.00  0.00     0.060 A 
BRANCH  72  73
ATOM     73  S   UNL A   1      52.661  35.097  29.235  1.00  0.00     0.124 S 
ATOM     74  O   UNL A   1      53.181  33.811  29.688  1.00  0.00    -0.237 OA
ATOM     75  O   UNL A   1      53.023  35.487  27.877  1.00  0.00    -0.237 OA
ATOM     76  O   UNL A   1      52.711  36.171  30.224  1.00  0.00    -0.744 OA
ENDBRANCH  72  73
ENDBRANCH  51  65
BRANCH  52  77
ATOM     77  C   UNL A   1      38.102  33.684  31.577  1.00  0.00     0.058 A 
ATOM     78  C   UNL A   1      37.090  33.538  30.589  1.00  0.00     0.135 A 
ATOM     79  C   UNL A   1      37.483  34.236  32.687  1.00  0.00     0.135 A 
ATOM     80  F   UNL A   1      37.403  32.948  29.426  1.00  0.00    -0.206 F 
ATOM     81  C   UNL A   1      35.684  33.925  30.763  1.00  0.00     0.059 A 
ATOM     82  C   UNL A   1      36.148  34.657  32.927  1.00  0.00     0.059 A 
ATOM     83  F   UNL A   1      38.281  34.191  33.714  1.00  0.00    -0.206 F 
ATOM     84  C   UNL A   1      35.219  34.486  31.955  1.00  0.00     0.060 A 
BRANCH  84  85
ATOM     85  S   UNL A   1      33.492  34.955  32.330  1.00  0.00     0.124 S 
ATOM     86  O   UNL A   1      33.055  33.816  33.133  1.00  0.00    -0.237 OA
ATOM     87  O   UNL A   1      33.656  36.215  33.049  1.00  0.00    -0.237 OA
ATOM     88  O   UNL A   1      32.820  35.054  31.036  1.00  0.00    -0.744 OA
ENDBRANCH  84  85
ENDBRANCH  52  77
BRANCH  64  89
ATOM     89  C   UNL A   1      43.790  29.022  28.467  1.00  0.00     0.058 A 
ATOM     90  C   UNL A   1      43.085  28.870  27.254  1.00  0.00     0.135 A 
ATOM     91  C   UNL A   1      44.982  28.233  28.513  1.00  0.00     0.135 A 
ATOM     92  F   UNL A   1      42.104  29.715  26.908  1.00  0.00    -0.206 F 
ATOM     93  C   UNL A   1      43.379  27.852  26.318  1.00  0.00     0.059 A 
ATOM     94  C   UNL A   1      45.343  27.279  27.557  1.00  0.00     0.059 A 
ATOM     95  F   UNL A   1      45.862  28.345  29.518  1.00  0.00    -0.206 F 
ATOM     96  C   UNL A   1      44.473  27.015  26.520  1.00  0.00     0.060 A 
BRANCH  96  97
ATOM     97  S   UNL A   1      44.678  25.506  25.543  1.00  0.00     0.124 S 
ATOM     98  O   UNL A   1      45.906  25.809  24.810  1.00  0.00    -0.237 OA
ATOM     99  O   UNL A   1      44.791  24.468  26.562  1.00  0.00    -0.237 OA
ATOM    100  O   UNL A   1      43.469  25.450  24.727  1.00  0.00    -0.744 OA
ENDBRANCH  96  97
ENDBRANCH  64  89
ENDBRANCH  38  39
ENDBRANCH  31  33
ENDBRANCH  30  31
ENDBRANCH  29  30
ENDBRANCH   1  29
TORSDOF 18
ENDMDL
