MODEL 1
REMARK VINA RESULT:     -10.5      0.000      0.000
REMARK SMILES CC(C)C[C@H](NS(=O)(=O)N1C[C@@H](C)C[C@H](C)C1)C(=O)OCCOC(=O)c1ccc(-c2c3nc(c(-c4c(F)cc(S(=O)(=O)[O-])cc4F)c4ccc([nH]4)c(-c4c(F)cc(S(=O)(=O)[O-])cc4F)c4nc(c(-c5c(F)cc(S(=O)(=O)[O-])cc5F)c5ccc2[nH]5)C=C4)C=C3)cc1
REMARK SMILES IDX 21 1 20 2 18 3 19 4 5 5 4 6 2 7 1 8 3 9 6 10 7 12 8 13 9 14
REMARK SMILES IDX 10 15 11 16 17 17 12 18 15 19 13 20 14 21 16 22 22 23 23 24
REMARK SMILES IDX 24 25 25 26 26 27 27 28 91 29 28 30 90 31 29 32 30 33 31 34
REMARK SMILES IDX 84 35 32 36 89 37 83 38 85 39 33 40 88 41 82 42 81 43 34 45
REMARK SMILES IDX 68 46 47 47 67 48 48 49 51 50 66 51 86 52 49 53 50 54 65 56
REMARK SMILES IDX 87 57 52 58 35 59 36 60 45 61 37 62 38 63 44 64 46 65 39 66
REMARK SMILES IDX 40 67 41 68 42 69 43 70 69 71 70 72 79 73 71 74 72 75 78 76
REMARK SMILES IDX 80 77 73 78 74 79 75 80 76 81 77 82 53 83 54 84 63 85 55 86
REMARK SMILES IDX 56 87 62 88 64 89 57 90 58 91 59 92 60 93 61 94
REMARK H PARENT 6 11 85 44 51 55
REMARK Flexibility Score: inf
ROOT
ATOM      1  C   UNL A   1      39.142  21.135  26.108  1.00  0.00     0.274 C 
ENDROOT
BRANCH   1   2
ATOM      2  O   UNL A   1      37.895  21.556  25.509  1.00  0.00    -0.461 OA
BRANCH   2   3
ATOM      3  C   UNL A   1      37.107  20.523  25.120  1.00  0.00     0.324 C 
ATOM      4  O   UNL A   1      37.556  19.408  24.855  1.00  0.00    -0.250 OA
BRANCH   3   5
ATOM      5  C   UNL A   1      35.618  20.798  25.082  1.00  0.00     0.181 C 
BRANCH   5   6
ATOM      6  C   UNL A   1      34.777  19.594  24.672  1.00  0.00     0.035 C 
BRANCH   6   7
ATOM      7  C   UNL A   1      33.247  19.485  24.685  1.00  0.00    -0.015 C 
ATOM      8  C   UNL A   1      32.620  18.867  23.435  1.00  0.00     0.007 C 
ATOM      9  C   UNL A   1      32.904  18.547  25.866  1.00  0.00     0.007 C 
ENDBRANCH   6   7
ENDBRANCH   5   6
BRANCH   5  10
ATOM     10  N   UNL A   1      35.160  22.082  24.472  1.00  0.00    -0.188 NA
ATOM     11  H   UNL A   1      34.388  21.825  23.858  1.00  0.00     0.143 HD
BRANCH  10  12
ATOM     12  S   UNL A   1      34.624  23.441  25.308  1.00  0.00     0.280 S 
ATOM     13  O   UNL A   1      34.180  22.923  26.579  1.00  0.00    -0.195 OA
ATOM     14  O   UNL A   1      35.635  24.473  25.250  1.00  0.00    -0.195 OA
BRANCH  12  15
ATOM     15  N   UNL A   1      33.275  23.961  24.451  1.00  0.00    -0.188 NA
ATOM     16  C   UNL A   1      31.974  23.267  24.628  1.00  0.00     0.106 C 
ATOM     17  C   UNL A   1      33.414  24.305  23.002  1.00  0.00     0.106 C 
ATOM     18  C   UNL A   1      30.865  24.326  24.502  1.00  0.00     0.001 C 
ATOM     19  C   UNL A   1      32.323  25.350  22.671  1.00  0.00     0.001 C 
ATOM     20  C   UNL A   1      30.997  25.506  25.465  1.00  0.00     0.009 C 
ATOM     21  C   UNL A   1      30.909  24.862  23.066  1.00  0.00     0.009 C 
ATOM     22  C   UNL A   1      32.318  25.759  21.204  1.00  0.00     0.009 C 
ENDBRANCH  12  15
ENDBRANCH  10  12
ENDBRANCH   5  10
ENDBRANCH   3   5
ENDBRANCH   2   3
ENDBRANCH   1   2
BRANCH   1  23
ATOM     23  C   UNL A   1      40.238  22.216  26.060  1.00  0.00     0.275 C 
BRANCH  23  24
ATOM     24  O   UNL A   1      39.907  23.456  26.727  1.00  0.00    -0.458 OA
BRANCH  24  25
ATOM     25  C   UNL A   1      40.872  24.408  26.695  1.00  0.00     0.338 C 
ATOM     26  O   UNL A   1      41.839  24.429  25.945  1.00  0.00    -0.246 OA
BRANCH  25  27
ATOM     27  C   UNL A   1      40.581  25.529  27.621  1.00  0.00     0.060 A 
ATOM     28  C   UNL A   1      41.514  26.567  27.671  1.00  0.00     0.016 A 
ATOM     29  C   UNL A   1      39.516  25.523  28.521  1.00  0.00     0.016 A 
ATOM     30  C   UNL A   1      41.423  27.572  28.635  1.00  0.00     0.010 A 
ATOM     31  C   UNL A   1      39.410  26.550  29.481  1.00  0.00     0.010 A 
ATOM     32  C   UNL A   1      40.374  27.574  29.564  1.00  0.00    -0.014 A 
BRANCH  32  33
ATOM     33  C   UNL A   1      40.324  28.619  30.634  1.00  0.00     0.031 A 
ATOM     34  C   UNL A   1      41.255  28.547  31.820  1.00  0.00     0.074 A 
ATOM     35  C   UNL A   1      39.472  29.659  30.536  1.00  0.00     0.049 A 
ATOM     36  N   UNL A   1      41.310  29.313  32.882  1.00  0.00    -0.248 NA
ATOM     37  C   UNL A   1      42.255  27.468  31.812  1.00  0.00     0.031 C 
ATOM     38  C   UNL A   1      38.539  29.888  29.431  1.00  0.00     0.029 A 
ATOM     39  N   UNL A   1      39.245  30.721  31.383  1.00  0.00    -0.354 N 
ATOM     40  C   UNL A   1      42.339  28.808  33.671  1.00  0.00     0.074 A 
ATOM     41  C   UNL A   1      42.858  27.646  32.979  1.00  0.00     0.031 C 
ATOM     42  C   UNL A   1      37.843  31.012  29.667  1.00  0.00     0.029 A 
ATOM     43  C   UNL A   1      38.235  31.559  30.964  1.00  0.00     0.049 A 
ATOM     44  H   UNL A   1      39.756  30.867  32.212  1.00  0.00     0.167 HD
ATOM     45  C   UNL A   1      42.817  29.272  34.853  1.00  0.00     0.037 A 
ATOM     46  C   UNL A   1      37.665  32.624  31.563  1.00  0.00     0.037 A 
ATOM     47  C   UNL A   1      42.308  30.433  35.543  1.00  0.00     0.049 A 
ATOM     48  C   UNL A   1      38.164  33.076  32.911  1.00  0.00     0.074 A 
ATOM     49  C   UNL A   1      42.730  30.972  36.748  1.00  0.00     0.029 A 
ATOM     50  N   UNL A   1      41.271  31.237  35.093  1.00  0.00    -0.354 N 
ATOM     51  N   UNL A   1      39.132  32.582  33.644  1.00  0.00    -0.248 NA
ATOM     52  C   UNL A   1      37.491  34.238  33.515  1.00  0.00     0.031 C 
ATOM     53  C   UNL A   1      41.918  32.070  37.050  1.00  0.00     0.029 A 
ATOM     54  C   UNL A   1      41.029  32.255  36.005  1.00  0.00     0.049 A 
ATOM     55  H   UNL A   1      40.779  31.105  34.252  1.00  0.00     0.167 HD
ATOM     56  C   UNL A   1      39.204  33.387  34.777  1.00  0.00     0.074 A 
ATOM     57  C   UNL A   1      38.195  34.413  34.625  1.00  0.00     0.031 C 
ATOM     58  C   UNL A   1      40.032  33.284  35.847  1.00  0.00     0.037 A 
BRANCH  45  59
ATOM     59  C   UNL A   1      43.952  28.515  35.495  1.00  0.00     0.058 A 
ATOM     60  C   UNL A   1      45.294  28.813  35.210  1.00  0.00     0.135 A 
ATOM     61  C   UNL A   1      43.696  27.515  36.450  1.00  0.00     0.135 A 
ATOM     62  F   UNL A   1      45.599  29.750  34.298  1.00  0.00    -0.206 F 
ATOM     63  C   UNL A   1      46.339  28.129  35.824  1.00  0.00     0.059 A 
ATOM     64  C   UNL A   1      44.725  26.841  37.099  1.00  0.00     0.059 A 
ATOM     65  F   UNL A   1      42.432  27.193  36.767  1.00  0.00    -0.206 F 
ATOM     66  C   UNL A   1      46.045  27.145  36.769  1.00  0.00     0.060 A 
BRANCH  66  67
ATOM     67  S   UNL A   1      47.414  26.273  37.560  1.00  0.00     0.124 S 
ATOM     68  O   UNL A   1      48.541  26.691  36.732  1.00  0.00    -0.237 OA
ATOM     69  O   UNL A   1      47.387  26.814  38.914  1.00  0.00    -0.237 OA
ATOM     70  O   UNL A   1      47.038  24.868  37.441  1.00  0.00    -0.744 OA
ENDBRANCH  66  67
ENDBRANCH  45  59
BRANCH  46  71
ATOM     71  C   UNL A   1      36.524  33.327  30.911  1.00  0.00     0.058 A 
ATOM     72  C   UNL A   1      36.719  34.172  29.808  1.00  0.00     0.135 A 
ATOM     73  C   UNL A   1      35.215  33.190  31.401  1.00  0.00     0.135 A 
ATOM     74  F   UNL A   1      37.953  34.349  29.309  1.00  0.00    -0.206 F 
ATOM     75  C   UNL A   1      35.667  34.877  29.232  1.00  0.00     0.059 A 
ATOM     76  C   UNL A   1      34.140  33.858  30.821  1.00  0.00     0.059 A 
ATOM     77  F   UNL A   1      34.968  32.388  32.448  1.00  0.00    -0.206 F 
ATOM     78  C   UNL A   1      34.379  34.712  29.745  1.00  0.00     0.060 A 
BRANCH  78  79
ATOM     79  S   UNL A   1      33.016  35.608  28.973  1.00  0.00     0.124 S 
ATOM     80  O   UNL A   1      32.247  36.033  30.136  1.00  0.00    -0.237 OA
ATOM     81  O   UNL A   1      33.716  36.664  28.248  1.00  0.00    -0.237 OA
ATOM     82  O   UNL A   1      32.383  34.595  28.132  1.00  0.00    -0.744 OA
ENDBRANCH  78  79
ENDBRANCH  46  71
BRANCH  58  83
ATOM     83  C   UNL A   1      39.918  34.338  36.919  1.00  0.00     0.058 A 
ATOM     84  C   UNL A   1      39.083  34.178  38.037  1.00  0.00     0.135 A 
ATOM     85  C   UNL A   1      40.680  35.516  36.840  1.00  0.00     0.135 A 
ATOM     86  F   UNL A   1      38.329  33.074  38.164  1.00  0.00    -0.206 F 
ATOM     87  C   UNL A   1      38.979  35.162  39.016  1.00  0.00     0.059 A 
ATOM     88  C   UNL A   1      40.616  36.499  37.824  1.00  0.00     0.059 A 
ATOM     89  F   UNL A   1      41.505  35.720  35.802  1.00  0.00    -0.206 F 
ATOM     90  C   UNL A   1      39.748  36.320  38.900  1.00  0.00     0.060 A 
BRANCH  90  91
ATOM     91  S   UNL A   1      39.612  37.583  40.184  1.00  0.00     0.124 S 
ATOM     92  O   UNL A   1      38.232  38.026  40.017  1.00  0.00    -0.237 OA
ATOM     93  O   UNL A   1      39.893  36.825  41.399  1.00  0.00    -0.237 OA
ATOM     94  O   UNL A   1      40.633  38.559  39.813  1.00  0.00    -0.744 OA
ENDBRANCH  90  91
ENDBRANCH  58  83
ENDBRANCH  32  33
ENDBRANCH  25  27
ENDBRANCH  24  25
ENDBRANCH  23  24
ENDBRANCH   1  23
TORSDOF 19
ENDMDL
MODEL 2
REMARK VINA RESULT:     -10.5      4.605     10.557
REMARK SMILES CC(C)C[C@H](NS(=O)(=O)N1C[C@@H](C)C[C@H](C)C1)C(=O)OCCOC(=O)c1ccc(-c2c3nc(c(-c4c(F)cc(S(=O)(=O)[O-])cc4F)c4ccc([nH]4)c(-c4c(F)cc(S(=O)(=O)[O-])cc4F)c4nc(c(-c5c(F)cc(S(=O)(=O)[O-])cc5F)c5ccc2[nH]5)C=C4)C=C3)cc1
REMARK SMILES IDX 21 1 20 2 18 3 19 4 5 5 4 6 2 7 1 8 3 9 6 10 7 12 8 13 9 14
REMARK SMILES IDX 10 15 11 16 17 17 12 18 15 19 13 20 14 21 16 22 22 23 23 24
REMARK SMILES IDX 24 25 25 26 26 27 27 28 91 29 28 30 90 31 29 32 30 33 31 34
REMARK SMILES IDX 84 35 32 36 89 37 83 38 85 39 33 40 88 41 82 42 81 43 34 45
REMARK SMILES IDX 68 46 47 47 67 48 48 49 51 50 66 51 86 52 49 53 50 54 65 56
REMARK SMILES IDX 87 57 52 58 35 59 36 60 45 61 37 62 38 63 44 64 46 65 39 66
REMARK SMILES IDX 40 67 41 68 42 69 43 70 69 71 70 72 79 73 71 74 72 75 78 76
REMARK SMILES IDX 80 77 73 78 74 79 75 80 76 81 77 82 53 83 54 84 63 85 55 86
REMARK SMILES IDX 56 87 62 88 64 89 57 90 58 91 59 92 60 93 61 94
REMARK H PARENT 6 11 85 44 51 55
REMARK Flexibility Score: inf
ROOT
ATOM      1  C   UNL A   1      32.799  29.455  24.994  1.00  0.00     0.274 C 
ENDROOT
BRANCH   1   2
ATOM      2  O   UNL A   1      31.411  29.061  25.089  1.00  0.00    -0.461 OA
BRANCH   2   3
ATOM      3  C   UNL A   1      31.168  27.820  24.601  1.00  0.00     0.324 C 
ATOM      4  O   UNL A   1      30.894  26.863  25.324  1.00  0.00    -0.250 OA
BRANCH   3   5
ATOM      5  C   UNL A   1      31.192  27.681  23.093  1.00  0.00     0.181 C 
BRANCH   5   6
ATOM      6  C   UNL A   1      29.982  28.293  22.396  1.00  0.00     0.035 C 
BRANCH   6   7
ATOM      7  C   UNL A   1      29.128  29.470  22.884  1.00  0.00    -0.015 C 
ATOM      8  C   UNL A   1      29.191  30.732  22.024  1.00  0.00     0.007 C 
ATOM      9  C   UNL A   1      27.665  28.973  22.840  1.00  0.00     0.007 C 
ENDBRANCH   6   7
ENDBRANCH   5   6
BRANCH   5  10
ATOM     10  N   UNL A   1      31.610  26.367  22.519  1.00  0.00    -0.188 NA
ATOM     11  H   UNL A   1      31.011  26.227  21.706  1.00  0.00     0.143 HD
BRANCH  10  12
ATOM     12  S   UNL A   1      33.158  25.958  22.000  1.00  0.00     0.280 S 
ATOM     13  O   UNL A   1      32.971  25.524  20.636  1.00  0.00    -0.195 OA
ATOM     14  O   UNL A   1      34.071  27.037  22.306  1.00  0.00    -0.195 OA
BRANCH  12  15
ATOM     15  N   UNL A   1      33.576  24.619  22.925  1.00  0.00    -0.188 NA
ATOM     16  C   UNL A   1      35.007  24.309  23.173  1.00  0.00     0.106 C 
ATOM     17  C   UNL A   1      32.861  23.324  22.705  1.00  0.00     0.106 C 
ATOM     18  C   UNL A   1      35.110  23.709  24.586  1.00  0.00     0.001 C 
ATOM     19  C   UNL A   1      32.904  22.544  24.040  1.00  0.00     0.001 C 
ATOM     20  C   UNL A   1      34.535  24.588  25.696  1.00  0.00     0.009 C 
ATOM     21  C   UNL A   1      34.347  22.379  24.573  1.00  0.00     0.009 C 
ATOM     22  C   UNL A   1      32.247  21.172  23.947  1.00  0.00     0.009 C 
ENDBRANCH  12  15
ENDBRANCH  10  12
ENDBRANCH   5  10
ENDBRANCH   3   5
ENDBRANCH   2   3
ENDBRANCH   1   2
BRANCH   1  23
ATOM     23  C   UNL A   1      33.747  28.553  25.808  1.00  0.00     0.275 C 
BRANCH  23  24
ATOM     24  O   UNL A   1      33.741  28.786  27.235  1.00  0.00    -0.458 OA
BRANCH  24  25
ATOM     25  C   UNL A   1      34.240  29.983  27.631  1.00  0.00     0.338 C 
ATOM     26  O   UNL A   1      33.625  31.040  27.677  1.00  0.00    -0.246 OA
BRANCH  25  27
ATOM     27  C   UNL A   1      35.634  29.872  28.124  1.00  0.00     0.060 A 
ATOM     28  C   UNL A   1      36.653  30.053  27.187  1.00  0.00     0.016 A 
ATOM     29  C   UNL A   1      35.959  29.469  29.419  1.00  0.00     0.016 A 
ATOM     30  C   UNL A   1      37.985  29.793  27.513  1.00  0.00     0.010 A 
ATOM     31  C   UNL A   1      37.305  29.227  29.756  1.00  0.00     0.010 A 
ATOM     32  C   UNL A   1      38.333  29.364  28.801  1.00  0.00    -0.014 A 
BRANCH  32  33
ATOM     33  C   UNL A   1      39.755  29.025  29.119  1.00  0.00     0.031 A 
ATOM     34  C   UNL A   1      40.651  30.035  29.795  1.00  0.00     0.074 A 
ATOM     35  C   UNL A   1      40.246  27.801  28.839  1.00  0.00     0.049 A 
ATOM     36  N   UNL A   1      41.927  29.952  30.082  1.00  0.00    -0.248 NA
ATOM     37  C   UNL A   1      40.029  31.305  30.200  1.00  0.00     0.031 C 
ATOM     38  C   UNL A   1      39.493  26.707  28.224  1.00  0.00     0.029 A 
ATOM     39  N   UNL A   1      41.502  27.269  29.029  1.00  0.00    -0.354 N 
ATOM     40  C   UNL A   1      42.265  31.158  30.690  1.00  0.00     0.074 A 
ATOM     41  C   UNL A   1      41.064  31.968  30.699  1.00  0.00     0.031 C 
ATOM     42  C   UNL A   1      40.297  25.640  28.086  1.00  0.00     0.029 A 
ATOM     43  C   UNL A   1      41.638  25.985  28.551  1.00  0.00     0.049 A 
ATOM     44  H   UNL A   1      42.234  27.761  29.466  1.00  0.00     0.167 HD
ATOM     45  C   UNL A   1      43.457  31.552  31.206  1.00  0.00     0.037 A 
ATOM     46  C   UNL A   1      42.721  25.184  28.463  1.00  0.00     0.037 A 
ATOM     47  C   UNL A   1      44.655  30.747  31.206  1.00  0.00     0.049 A 
ATOM     48  C   UNL A   1      44.052  25.672  28.975  1.00  0.00     0.074 A 
ATOM     49  C   UNL A   1      45.907  31.068  31.703  1.00  0.00     0.029 A 
ATOM     50  N   UNL A   1      44.753  29.463  30.691  1.00  0.00    -0.354 N 
ATOM     51  N   UNL A   1      44.352  26.817  29.540  1.00  0.00    -0.248 NA
ATOM     52  C   UNL A   1      45.195  24.756  28.839  1.00  0.00     0.031 C 
ATOM     53  C   UNL A   1      46.774  30.000  31.445  1.00  0.00     0.029 A 
ATOM     54  C   UNL A   1      46.047  28.987  30.842  1.00  0.00     0.049 A 
ATOM     55  H   UNL A   1      44.013  28.962  30.278  1.00  0.00     0.167 HD
ATOM     56  C   UNL A   1      45.707  26.746  29.852  1.00  0.00     0.074 A 
ATOM     57  C   UNL A   1      46.163  25.439  29.431  1.00  0.00     0.031 C 
ATOM     58  C   UNL A   1      46.499  27.680  30.435  1.00  0.00     0.037 A 
BRANCH  45  59
ATOM     59  C   UNL A   1      43.537  32.931  31.809  1.00  0.00     0.058 A 
ATOM     60  C   UNL A   1      43.774  34.069  31.023  1.00  0.00     0.135 A 
ATOM     61  C   UNL A   1      43.320  33.124  33.185  1.00  0.00     0.135 A 
ATOM     62  F   UNL A   1      44.000  33.944  29.705  1.00  0.00    -0.206 F 
ATOM     63  C   UNL A   1      43.821  35.343  31.580  1.00  0.00     0.059 A 
ATOM     64  C   UNL A   1      43.333  34.392  33.758  1.00  0.00     0.059 A 
ATOM     65  F   UNL A   1      43.083  32.073  33.986  1.00  0.00    -0.206 F 
ATOM     66  C   UNL A   1      43.599  35.496  32.949  1.00  0.00     0.060 A 
BRANCH  66  67
ATOM     67  S   UNL A   1      43.659  37.158  33.653  1.00  0.00     0.124 S 
ATOM     68  O   UNL A   1      43.726  37.980  32.449  1.00  0.00    -0.237 OA
ATOM     69  O   UNL A   1      42.406  37.226  34.397  1.00  0.00    -0.237 OA
ATOM     70  O   UNL A   1      44.869  37.140  34.467  1.00  0.00    -0.744 OA
ENDBRANCH  66  67
ENDBRANCH  45  59
BRANCH  46  71
ATOM     71  C   UNL A   1      42.608  23.840  27.830  1.00  0.00     0.058 A 
ATOM     72  C   UNL A   1      42.446  22.680  28.602  1.00  0.00     0.135 A 
ATOM     73  C   UNL A   1      42.691  23.687  26.437  1.00  0.00     0.135 A 
ATOM     74  F   UNL A   1      42.375  22.768  29.940  1.00  0.00    -0.206 F 
ATOM     75  C   UNL A   1      42.399  21.416  28.021  1.00  0.00     0.059 A 
ATOM     76  C   UNL A   1      42.612  22.437  25.830  1.00  0.00     0.059 A 
ATOM     77  F   UNL A   1      42.836  24.763  25.648  1.00  0.00    -0.206 F 
ATOM     78  C   UNL A   1      42.482  21.305  26.633  1.00  0.00     0.060 A 
BRANCH  78  79
ATOM     79  S   UNL A   1      42.391  19.664  25.886  1.00  0.00     0.124 S 
ATOM     80  O   UNL A   1      40.998  19.612  25.459  1.00  0.00    -0.237 OA
ATOM     81  O   UNL A   1      43.384  19.758  24.819  1.00  0.00    -0.237 OA
ATOM     82  O   UNL A   1      42.750  18.774  26.987  1.00  0.00    -0.744 OA
ENDBRANCH  78  79
ENDBRANCH  46  71
BRANCH  58  83
ATOM     83  C   UNL A   1      47.936  27.307  30.700  1.00  0.00     0.058 A 
ATOM     84  C   UNL A   1      48.340  26.701  31.900  1.00  0.00     0.135 A 
ATOM     85  C   UNL A   1      48.920  27.536  29.723  1.00  0.00     0.135 A 
ATOM     86  F   UNL A   1      47.445  26.461  32.871  1.00  0.00    -0.206 F 
ATOM     87  C   UNL A   1      49.671  26.370  32.137  1.00  0.00     0.059 A 
ATOM     88  C   UNL A   1      50.252  27.184  29.926  1.00  0.00     0.059 A 
ATOM     89  F   UNL A   1      48.592  28.102  28.551  1.00  0.00    -0.206 F 
ATOM     90  C   UNL A   1      50.621  26.617  31.145  1.00  0.00     0.060 A 
BRANCH  90  91
ATOM     91  S   UNL A   1      52.342  26.171  31.461  1.00  0.00     0.124 S 
ATOM     92  O   UNL A   1      52.960  26.445  30.168  1.00  0.00    -0.237 OA
ATOM     93  O   UNL A   1      52.706  27.078  32.544  1.00  0.00    -0.237 OA
ATOM     94  O   UNL A   1      52.266  24.761  31.833  1.00  0.00    -0.744 OA
ENDBRANCH  90  91
ENDBRANCH  58  83
ENDBRANCH  32  33
ENDBRANCH  25  27
ENDBRANCH  24  25
ENDBRANCH  23  24
ENDBRANCH   1  23
TORSDOF 19
ENDMDL
MODEL 3
REMARK VINA RESULT:     -10.5      5.025      6.473
REMARK SMILES CC(C)C[C@H](NS(=O)(=O)N1C[C@@H](C)C[C@H](C)C1)C(=O)OCCOC(=O)c1ccc(-c2c3nc(c(-c4c(F)cc(S(=O)(=O)[O-])cc4F)c4ccc([nH]4)c(-c4c(F)cc(S(=O)(=O)[O-])cc4F)c4nc(c(-c5c(F)cc(S(=O)(=O)[O-])cc5F)c5ccc2[nH]5)C=C4)C=C3)cc1
REMARK SMILES IDX 21 1 20 2 18 3 19 4 5 5 4 6 2 7 1 8 3 9 6 10 7 12 8 13 9 14
REMARK SMILES IDX 10 15 11 16 17 17 12 18 15 19 13 20 14 21 16 22 22 23 23 24
REMARK SMILES IDX 24 25 25 26 26 27 27 28 91 29 28 30 90 31 29 32 30 33 31 34
REMARK SMILES IDX 84 35 32 36 89 37 83 38 85 39 33 40 88 41 82 42 81 43 34 45
REMARK SMILES IDX 68 46 47 47 67 48 48 49 51 50 66 51 86 52 49 53 50 54 65 56
REMARK SMILES IDX 87 57 52 58 35 59 36 60 45 61 37 62 38 63 44 64 46 65 39 66
REMARK SMILES IDX 40 67 41 68 42 69 43 70 69 71 70 72 79 73 71 74 72 75 78 76
REMARK SMILES IDX 80 77 73 78 74 79 75 80 76 81 77 82 53 83 54 84 63 85 55 86
REMARK SMILES IDX 56 87 62 88 64 89 57 90 58 91 59 92 60 93 61 94
REMARK H PARENT 6 11 85 44 51 55
REMARK Flexibility Score: inf
ROOT
ATOM      1  C   UNL A   1      36.000  20.654  25.151  1.00  0.00     0.274 C 
ENDROOT
BRANCH   1   2
ATOM      2  O   UNL A   1      35.020  21.592  25.650  1.00  0.00    -0.461 OA
BRANCH   2   3
ATOM      3  C   UNL A   1      33.977  21.783  24.804  1.00  0.00     0.324 C 
ATOM      4  O   UNL A   1      34.110  22.281  23.687  1.00  0.00    -0.250 OA
BRANCH   3   5
ATOM      5  C   UNL A   1      32.628  21.292  25.289  1.00  0.00     0.181 C 
BRANCH   5   6
ATOM      6  C   UNL A   1      32.153  20.015  24.604  1.00  0.00     0.035 C 
BRANCH   6   7
ATOM      7  C   UNL A   1      32.966  18.738  24.356  1.00  0.00    -0.015 C 
ATOM      8  C   UNL A   1      32.749  17.612  25.367  1.00  0.00     0.007 C 
ATOM      9  C   UNL A   1      32.498  18.203  22.984  1.00  0.00     0.007 C 
ENDBRANCH   6   7
ENDBRANCH   5   6
BRANCH   5  10
ATOM     10  N   UNL A   1      31.546  22.303  25.484  1.00  0.00    -0.188 NA
ATOM     11  H   UNL A   1      30.678  21.768  25.486  1.00  0.00     0.143 HD
BRANCH  10  12
ATOM     12  S   UNL A   1      31.408  23.370  26.779  1.00  0.00     0.280 S 
ATOM     13  O   UNL A   1      30.076  23.140  27.286  1.00  0.00    -0.195 OA
ATOM     14  O   UNL A   1      32.557  23.229  27.645  1.00  0.00    -0.195 OA
BRANCH  12  15
ATOM     15  N   UNL A   1      31.447  24.896  26.076  1.00  0.00    -0.188 NA
ATOM     16  C   UNL A   1      31.721  25.035  24.623  1.00  0.00     0.106 C 
ATOM     17  C   UNL A   1      32.153  26.010  26.781  1.00  0.00     0.106 C 
ATOM     18  C   UNL A   1      30.901  26.232  24.111  1.00  0.00     0.001 C 
ATOM     19  C   UNL A   1      31.479  27.331  26.343  1.00  0.00     0.001 C 
ATOM     20  C   UNL A   1      29.400  26.139  24.383  1.00  0.00     0.009 C 
ATOM     21  C   UNL A   1      31.445  27.486  24.804  1.00  0.00     0.009 C 
ATOM     22  C   UNL A   1      32.133  28.564  26.954  1.00  0.00     0.009 C 
ENDBRANCH  12  15
ENDBRANCH  10  12
ENDBRANCH   5  10
ENDBRANCH   3   5
ENDBRANCH   2   3
ENDBRANCH   1   2
BRANCH   1  23
ATOM     23  C   UNL A   1      37.342  21.313  24.779  1.00  0.00     0.275 C 
BRANCH  23  24
ATOM     24  O   UNL A   1      37.812  22.317  25.708  1.00  0.00    -0.458 OA
BRANCH  24  25
ATOM     25  C   UNL A   1      39.045  22.098  26.228  1.00  0.00     0.338 C 
ATOM     26  O   UNL A   1      39.710  21.078  26.098  1.00  0.00    -0.246 OA
BRANCH  25  27
ATOM     27  C   UNL A   1      39.585  23.297  26.912  1.00  0.00     0.060 A 
ATOM     28  C   UNL A   1      39.136  24.540  26.460  1.00  0.00     0.016 A 
ATOM     29  C   UNL A   1      40.599  23.243  27.867  1.00  0.00     0.016 A 
ATOM     30  C   UNL A   1      39.717  25.725  26.914  1.00  0.00     0.010 A 
ATOM     31  C   UNL A   1      41.172  24.439  28.344  1.00  0.00     0.010 A 
ATOM     32  C   UNL A   1      40.754  25.694  27.857  1.00  0.00    -0.014 A 
BRANCH  32  33
ATOM     33  C   UNL A   1      41.413  26.966  28.287  1.00  0.00     0.031 A 
ATOM     34  C   UNL A   1      42.896  27.167  28.086  1.00  0.00     0.074 A 
ATOM     35  C   UNL A   1      40.686  27.966  28.826  1.00  0.00     0.049 A 
ATOM     36  N   UNL A   1      43.657  28.166  28.460  1.00  0.00    -0.248 NA
ATOM     37  C   UNL A   1      43.617  26.102  27.372  1.00  0.00     0.031 C 
ATOM     38  C   UNL A   1      39.239  27.937  29.046  1.00  0.00     0.029 A 
ATOM     39  N   UNL A   1      41.066  29.204  29.295  1.00  0.00    -0.354 N 
ATOM     40  C   UNL A   1      44.945  27.849  28.038  1.00  0.00     0.074 A 
ATOM     41  C   UNL A   1      44.866  26.546  27.409  1.00  0.00     0.031 C 
ATOM     42  C   UNL A   1      38.855  29.095  29.607  1.00  0.00     0.029 A 
ATOM     43  C   UNL A   1      40.030  29.932  29.838  1.00  0.00     0.049 A 
ATOM     44  H   UNL A   1      41.991  29.537  29.247  1.00  0.00     0.167 HD
ATOM     45  C   UNL A   1      46.085  28.577  28.150  1.00  0.00     0.037 A 
ATOM     46  C   UNL A   1      40.025  31.120  30.477  1.00  0.00     0.037 A 
ATOM     47  C   UNL A   1      46.169  29.877  28.769  1.00  0.00     0.049 A 
ATOM     48  C   UNL A   1      41.317  31.875  30.656  1.00  0.00     0.074 A 
ATOM     49  C   UNL A   1      47.284  30.684  28.930  1.00  0.00     0.029 A 
ATOM     50  N   UNL A   1      45.101  30.566  29.325  1.00  0.00    -0.354 N 
ATOM     51  N   UNL A   1      42.525  31.556  30.256  1.00  0.00    -0.248 NA
ATOM     52  C   UNL A   1      41.245  33.158  31.373  1.00  0.00     0.031 C 
ATOM     53  C   UNL A   1      46.901  31.836  29.626  1.00  0.00     0.029 A 
ATOM     54  C   UNL A   1      45.535  31.777  29.844  1.00  0.00     0.049 A 
ATOM     55  H   UNL A   1      44.172  30.243  29.348  1.00  0.00     0.167 HD
ATOM     56  C   UNL A   1      43.347  32.609  30.646  1.00  0.00     0.074 A 
ATOM     57  C   UNL A   1      42.497  33.584  31.295  1.00  0.00     0.031 C 
ATOM     58  C   UNL A   1      44.686  32.754  30.480  1.00  0.00     0.037 A 
BRANCH  45  59
ATOM     59  C   UNL A   1      47.354  27.978  27.599  1.00  0.00     0.058 A 
ATOM     60  C   UNL A   1      47.762  28.201  26.274  1.00  0.00     0.135 A 
ATOM     61  C   UNL A   1      48.203  27.217  28.422  1.00  0.00     0.135 A 
ATOM     62  F   UNL A   1      46.987  28.912  25.439  1.00  0.00    -0.206 F 
ATOM     63  C   UNL A   1      48.948  27.669  25.777  1.00  0.00     0.059 A 
ATOM     64  C   UNL A   1      49.408  26.701  27.954  1.00  0.00     0.059 A 
ATOM     65  F   UNL A   1      47.867  26.976  29.699  1.00  0.00    -0.206 F 
ATOM     66  C   UNL A   1      49.766  26.920  26.625  1.00  0.00     0.060 A 
BRANCH  66  67
ATOM     67  S   UNL A   1      51.303  26.242  25.963  1.00  0.00     0.124 S 
ATOM     68  O   UNL A   1      52.291  27.151  26.536  1.00  0.00    -0.237 OA
ATOM     69  O   UNL A   1      51.303  24.886  26.503  1.00  0.00    -0.237 OA
ATOM     70  O   UNL A   1      51.125  26.340  24.518  1.00  0.00    -0.744 OA
ENDBRANCH  66  67
ENDBRANCH  45  59
BRANCH  46  71
ATOM     71  C   UNL A   1      38.755  31.663  31.036  1.00  0.00     0.058 A 
ATOM     72  C   UNL A   1      37.905  32.471  30.268  1.00  0.00     0.135 A 
ATOM     73  C   UNL A   1      38.383  31.408  32.366  1.00  0.00     0.135 A 
ATOM     74  F   UNL A   1      38.221  32.758  28.995  1.00  0.00    -0.206 F 
ATOM     75  C   UNL A   1      36.748  33.030  30.802  1.00  0.00     0.059 A 
ATOM     76  C   UNL A   1      37.213  31.927  32.913  1.00  0.00     0.059 A 
ATOM     77  F   UNL A   1      39.153  30.634  33.145  1.00  0.00    -0.206 F 
ATOM     78  C   UNL A   1      36.409  32.750  32.126  1.00  0.00     0.060 A 
BRANCH  78  79
ATOM     79  S   UNL A   1      34.891  33.456  32.802  1.00  0.00     0.124 S 
ATOM     80  O   UNL A   1      35.018  34.855  32.414  1.00  0.00    -0.237 OA
ATOM     81  O   UNL A   1      33.861  32.689  32.106  1.00  0.00    -0.237 OA
ATOM     82  O   UNL A   1      35.003  33.184  34.233  1.00  0.00    -0.744 OA
ENDBRANCH  78  79
ENDBRANCH  46  71
BRANCH  58  83
ATOM     83  C   UNL A   1      45.313  34.036  30.965  1.00  0.00     0.058 A 
ATOM     84  C   UNL A   1      45.422  35.171  30.144  1.00  0.00     0.135 A 
ATOM     85  C   UNL A   1      45.788  34.140  32.283  1.00  0.00     0.135 A 
ATOM     86  F   UNL A   1      44.989  35.129  28.874  1.00  0.00    -0.206 F 
ATOM     87  C   UNL A   1      46.012  36.347  30.599  1.00  0.00     0.059 A 
ATOM     88  C   UNL A   1      46.352  35.316  32.770  1.00  0.00     0.059 A 
ATOM     89  F   UNL A   1      45.700  33.093  33.118  1.00  0.00    -0.206 F 
ATOM     90  C   UNL A   1      46.476  36.409  31.914  1.00  0.00     0.060 A 
BRANCH  90  91
ATOM     91  S   UNL A   1      47.227  37.945  32.495  1.00  0.00     0.124 S 
ATOM     92  O   UNL A   1      46.460  38.208  33.709  1.00  0.00    -0.237 OA
ATOM     93  O   UNL A   1      48.619  37.556  32.696  1.00  0.00    -0.237 OA
ATOM     94  O   UNL A   1      46.996  38.876  31.395  1.00  0.00    -0.744 OA
ENDBRANCH  90  91
ENDBRANCH  58  83
ENDBRANCH  32  33
ENDBRANCH  25  27
ENDBRANCH  24  25
ENDBRANCH  23  24
ENDBRANCH   1  23
TORSDOF 19
ENDMDL
