MODEL 1
REMARK VINA RESULT:     -11.1      0.000      0.000
REMARK SMILES CN(Cc1ncc(C(=O)OCCOC(=O)c2ccc(-c3c4nc(c(-c5c(F)cc(S(=O)(=O)[O-])cc5F)c5ccc([nH]5)c(-c5c(F)cc(S(=O)(=O)[O-])cc5F)c5nc(c(-c6c(F)cc(S(=O)(=O)[O-])cc6F)c6ccc3[nH]6)C=C5)C=C4)cc2)cn1)S(=O)(=O)c1ccc(Cl)cc1
REMARK SMILES IDX 11 1 10 2 8 3 9 4 7 5 4 6 5 7 83 8 6 9 82 10 3 11 2 12 1 13
REMARK SMILES IDX 84 14 85 15 86 16 87 17 88 18 93 19 89 20 92 21 90 22 91 23
REMARK SMILES IDX 12 24 13 25 14 26 15 27 16 28 17 29 81 30 18 31 80 32 19 33
REMARK SMILES IDX 20 34 21 35 74 36 22 37 79 38 73 39 75 40 23 41 78 42 72 43
REMARK SMILES IDX 71 44 24 46 58 47 37 48 57 49 38 50 41 51 56 52 76 53 39 54
REMARK SMILES IDX 40 55 55 57 77 58 42 59 25 60 26 61 35 62 27 63 28 64 34 65
REMARK SMILES IDX 36 66 29 67 30 68 31 69 32 70 33 71 59 72 60 73 69 74 61 75
REMARK SMILES IDX 62 76 68 77 70 78 63 79 64 80 65 81 66 82 67 83 43 84 44 85
REMARK SMILES IDX 53 86 45 87 46 88 52 89 54 90 47 91 48 92 49 93 50 94 51 95
REMARK H PARENT 75 45 41 56
REMARK Flexibility Score: inf
ROOT
ATOM      1  C   UNL A   1      42.852  21.796  26.089  1.00  0.00     0.275 C 
ENDROOT
BRANCH   1   2
ATOM      2  O   UNL A   1      41.575  21.210  25.772  1.00  0.00    -0.458 OA
BRANCH   2   3
ATOM      3  C   UNL A   1      40.639  21.333  26.743  1.00  0.00     0.341 C 
ATOM      4  O   UNL A   1      40.774  21.049  27.918  1.00  0.00    -0.246 OA
BRANCH   3   5
ATOM      5  C   UNL A   1      39.416  21.958  26.231  1.00  0.00     0.096 A 
ATOM      6  C   UNL A   1      37.178  23.243  25.418  1.00  0.00     0.143 A 
ATOM      7  N   UNL A   1      37.381  21.989  24.955  1.00  0.00    -0.239 NA
ATOM      8  N   UNL A   1      38.046  23.926  26.191  1.00  0.00    -0.239 NA
ATOM      9  C   UNL A   1      38.513  21.374  25.373  1.00  0.00     0.130 A 
ATOM     10  C   UNL A   1      39.132  23.253  26.604  1.00  0.00     0.130 A 
BRANCH   6  11
ATOM     11  C   UNL A   1      35.805  23.859  25.260  1.00  0.00     0.179 C 
BRANCH  11  12
ATOM     12  N   UNL A   1      34.844  23.100  24.379  1.00  0.00    -0.193 NA
ATOM     13  C   UNL A   1      34.459  23.887  23.176  1.00  0.00     0.125 C 
BRANCH  12  14
ATOM     14  S   UNL A   1      33.484  22.414  25.154  1.00  0.00     0.243 S 
ATOM     15  O   UNL A   1      33.659  22.503  26.587  1.00  0.00    -0.207 OA
ATOM     16  O   UNL A   1      32.298  22.964  24.529  1.00  0.00    -0.207 OA
BRANCH  14  17
ATOM     17  C   UNL A   1      33.546  20.705  24.681  1.00  0.00     0.082 A 
ATOM     18  C   UNL A   1      34.688  19.956  24.984  1.00  0.00     0.023 A 
ATOM     19  C   UNL A   1      32.460  20.123  24.019  1.00  0.00     0.023 A 
ATOM     20  C   UNL A   1      34.740  18.608  24.629  1.00  0.00     0.022 A 
ATOM     21  C   UNL A   1      32.526  18.778  23.651  1.00  0.00     0.022 A 
ATOM     22  C   UNL A   1      33.662  18.027  23.959  1.00  0.00     0.041 A 
ATOM     23  Cl  UNL A   1      33.738  16.369  23.504  1.00  0.00    -0.084 Cl
ENDBRANCH  14  17
ENDBRANCH  12  14
ENDBRANCH  11  12
ENDBRANCH   6  11
ENDBRANCH   3   5
ENDBRANCH   2   3
ENDBRANCH   1   2
BRANCH   1  24
ATOM     24  C   UNL A   1      42.937  23.221  25.541  1.00  0.00     0.275 C 
BRANCH  24  25
ATOM     25  O   UNL A   1      42.659  24.186  26.574  1.00  0.00    -0.458 OA
BRANCH  25  26
ATOM     26  C   UNL A   1      42.374  25.439  26.148  1.00  0.00     0.338 C 
ATOM     27  O   UNL A   1      42.392  25.853  25.001  1.00  0.00    -0.246 OA
BRANCH  26  28
ATOM     28  C   UNL A   1      41.948  26.263  27.290  1.00  0.00     0.060 A 
ATOM     29  C   UNL A   1      42.618  27.459  27.531  1.00  0.00     0.016 A 
ATOM     30  C   UNL A   1      40.976  25.815  28.182  1.00  0.00     0.016 A 
ATOM     31  C   UNL A   1      42.354  28.198  28.681  1.00  0.00     0.010 A 
ATOM     32  C   UNL A   1      40.657  26.597  29.301  1.00  0.00     0.010 A 
ATOM     33  C   UNL A   1      41.351  27.792  29.569  1.00  0.00    -0.014 A 
BRANCH  33  34
ATOM     34  C   UNL A   1      41.034  28.620  30.768  1.00  0.00     0.031 A 
ATOM     35  C   UNL A   1      39.901  29.610  30.735  1.00  0.00     0.074 A 
ATOM     36  C   UNL A   1      41.761  28.479  31.895  1.00  0.00     0.049 A 
ATOM     37  N   UNL A   1      39.578  30.525  31.613  1.00  0.00    -0.248 NA
ATOM     38  C   UNL A   1      39.016  29.569  29.560  1.00  0.00     0.031 C 
ATOM     39  C   UNL A   1      42.859  27.528  32.083  1.00  0.00     0.029 A 
ATOM     40  N   UNL A   1      41.686  29.134  33.101  1.00  0.00    -0.354 N 
ATOM     41  C   UNL A   1      38.487  31.201  31.078  1.00  0.00     0.074 A 
ATOM     42  C   UNL A   1      38.201  30.588  29.797  1.00  0.00     0.031 C 
ATOM     43  C   UNL A   1      43.334  27.640  33.333  1.00  0.00     0.029 A 
ATOM     44  C   UNL A   1      42.637  28.729  34.009  1.00  0.00     0.049 A 
ATOM     45  H   UNL A   1      41.016  29.828  33.297  1.00  0.00     0.167 HD
ATOM     46  C   UNL A   1      37.791  32.237  31.606  1.00  0.00     0.037 A 
ATOM     47  C   UNL A   1      42.952  29.205  35.229  1.00  0.00     0.037 A 
ATOM     48  C   UNL A   1      38.051  32.813  32.900  1.00  0.00     0.049 A 
ATOM     49  C   UNL A   1      42.205  30.391  35.769  1.00  0.00     0.074 A 
ATOM     50  C   UNL A   1      37.380  33.844  33.535  1.00  0.00     0.029 A 
ATOM     51  N   UNL A   1      39.059  32.405  33.762  1.00  0.00    -0.354 N 
ATOM     52  N   UNL A   1      41.203  31.044  35.233  1.00  0.00    -0.248 NA
ATOM     53  C   UNL A   1      42.649  30.923  37.065  1.00  0.00     0.031 C 
ATOM     54  C   UNL A   1      38.006  34.087  34.763  1.00  0.00     0.029 A 
ATOM     55  C   UNL A   1      39.045  33.182  34.910  1.00  0.00     0.049 A 
ATOM     56  H   UNL A   1      39.692  31.672  33.585  1.00  0.00     0.167 HD
ATOM     57  C   UNL A   1      40.901  32.070  36.121  1.00  0.00     0.074 A 
ATOM     58  C   UNL A   1      41.808  31.932  37.243  1.00  0.00     0.031 C 
ATOM     59  C   UNL A   1      39.965  33.044  36.011  1.00  0.00     0.037 A 
BRANCH  46  60
ATOM     60  C   UNL A   1      36.700  32.844  30.769  1.00  0.00     0.058 A 
ATOM     61  C   UNL A   1      36.969  33.767  29.747  1.00  0.00     0.135 A 
ATOM     62  C   UNL A   1      35.362  32.464  30.971  1.00  0.00     0.135 A 
ATOM     63  F   UNL A   1      38.228  34.175  29.521  1.00  0.00    -0.206 F 
ATOM     64  C   UNL A   1      35.951  34.310  28.970  1.00  0.00     0.059 A 
ATOM     65  C   UNL A   1      34.329  32.978  30.192  1.00  0.00     0.059 A 
ATOM     66  F   UNL A   1      35.047  31.584  31.935  1.00  0.00    -0.206 F 
ATOM     67  C   UNL A   1      34.633  33.912  29.203  1.00  0.00     0.060 A 
BRANCH  67  68
ATOM     68  S   UNL A   1      33.319  34.628  28.190  1.00  0.00     0.124 S 
ATOM     69  O   UNL A   1      32.553  35.367  29.189  1.00  0.00    -0.237 OA
ATOM     70  O   UNL A   1      34.066  35.440  27.236  1.00  0.00    -0.237 OA
ATOM     71  O   UNL A   1      32.651  33.460  27.626  1.00  0.00    -0.744 OA
ENDBRANCH  67  68
ENDBRANCH  46  60
BRANCH  47  72
ATOM     72  C   UNL A   1      44.076  28.597  35.991  1.00  0.00     0.058 A 
ATOM     73  C   UNL A   1      45.379  29.101  35.885  1.00  0.00     0.135 A 
ATOM     74  C   UNL A   1      43.859  27.517  36.862  1.00  0.00     0.135 A 
ATOM     75  F   UNL A   1      45.639  30.122  35.053  1.00  0.00    -0.206 F 
ATOM     76  C   UNL A   1      46.430  28.560  36.618  1.00  0.00     0.059 A 
ATOM     77  C   UNL A   1      44.888  26.976  37.625  1.00  0.00     0.059 A 
ATOM     78  F   UNL A   1      42.628  27.004  37.004  1.00  0.00    -0.206 F 
ATOM     79  C   UNL A   1      46.172  27.501  37.492  1.00  0.00     0.060 A 
BRANCH  79  80
ATOM     80  S   UNL A   1      47.524  26.851  38.499  1.00  0.00     0.124 S 
ATOM     81  O   UNL A   1      46.934  25.627  39.026  1.00  0.00    -0.237 OA
ATOM     82  O   UNL A   1      48.587  26.676  37.513  1.00  0.00    -0.237 OA
ATOM     83  O   UNL A   1      47.756  27.914  39.473  1.00  0.00    -0.744 OA
ENDBRANCH  79  80
ENDBRANCH  47  72
BRANCH  59  84
ATOM     84  C   UNL A   1      39.880  34.043  37.129  1.00  0.00     0.058 A 
ATOM     85  C   UNL A   1      40.601  35.245  37.087  1.00  0.00     0.135 A 
ATOM     86  C   UNL A   1      39.036  33.819  38.229  1.00  0.00     0.135 A 
ATOM     87  F   UNL A   1      41.429  35.500  36.061  1.00  0.00    -0.206 F 
ATOM     88  C   UNL A   1      40.501  36.187  38.105  1.00  0.00     0.059 A 
ATOM     89  C   UNL A   1      38.905  34.757  39.248  1.00  0.00     0.059 A 
ATOM     90  F   UNL A   1      38.321  32.686  38.313  1.00  0.00    -0.206 F 
ATOM     91  C   UNL A   1      39.649  35.935  39.182  1.00  0.00     0.060 A 
BRANCH  91  92
ATOM     92  S   UNL A   1      39.497  37.183  40.478  1.00  0.00     0.124 S 
ATOM     93  O   UNL A   1      39.261  36.355  41.656  1.00  0.00    -0.237 OA
ATOM     94  O   UNL A   1      40.793  37.851  40.422  1.00  0.00    -0.237 OA
ATOM     95  O   UNL A   1      38.363  37.990  40.040  1.00  0.00    -0.744 OA
ENDBRANCH  91  92
ENDBRANCH  59  84
ENDBRANCH  33  34
ENDBRANCH  26  28
ENDBRANCH  25  26
ENDBRANCH  24  25
ENDBRANCH   1  24
TORSDOF 18
ENDMDL
MODEL 2
REMARK VINA RESULT:     -11.0      2.451      8.931
REMARK SMILES CN(Cc1ncc(C(=O)OCCOC(=O)c2ccc(-c3c4nc(c(-c5c(F)cc(S(=O)(=O)[O-])cc5F)c5ccc([nH]5)c(-c5c(F)cc(S(=O)(=O)[O-])cc5F)c5nc(c(-c6c(F)cc(S(=O)(=O)[O-])cc6F)c6ccc3[nH]6)C=C5)C=C4)cc2)cn1)S(=O)(=O)c1ccc(Cl)cc1
REMARK SMILES IDX 11 1 10 2 8 3 9 4 7 5 4 6 5 7 83 8 6 9 82 10 3 11 2 12 1 13
REMARK SMILES IDX 84 14 85 15 86 16 87 17 88 18 93 19 89 20 92 21 90 22 91 23
REMARK SMILES IDX 12 24 13 25 14 26 15 27 16 28 17 29 81 30 18 31 80 32 19 33
REMARK SMILES IDX 20 34 21 35 74 36 22 37 79 38 73 39 75 40 23 41 78 42 72 43
REMARK SMILES IDX 71 44 24 46 58 47 37 48 57 49 38 50 41 51 56 52 76 53 39 54
REMARK SMILES IDX 40 55 55 57 77 58 42 59 25 60 26 61 35 62 27 63 28 64 34 65
REMARK SMILES IDX 36 66 29 67 30 68 31 69 32 70 33 71 59 72 60 73 69 74 61 75
REMARK SMILES IDX 62 76 68 77 70 78 63 79 64 80 65 81 66 82 67 83 43 84 44 85
REMARK SMILES IDX 53 86 45 87 46 88 52 89 54 90 47 91 48 92 49 93 50 94 51 95
REMARK H PARENT 75 45 41 56
REMARK Flexibility Score: inf
ROOT
ATOM      1  C   UNL A   1      39.683  21.255  26.217  1.00  0.00     0.275 C 
ENDROOT
BRANCH   1   2
ATOM      2  O   UNL A   1      38.549  21.938  25.650  1.00  0.00    -0.458 OA
BRANCH   2   3
ATOM      3  C   UNL A   1      37.574  21.123  25.182  1.00  0.00     0.341 C 
ATOM      4  O   UNL A   1      37.699  19.958  24.856  1.00  0.00    -0.246 OA
BRANCH   3   5
ATOM      5  C   UNL A   1      36.269  21.791  25.193  1.00  0.00     0.096 A 
ATOM      6  C   UNL A   1      33.800  22.892  25.094  1.00  0.00     0.143 A 
ATOM      7  N   UNL A   1      34.790  23.630  25.644  1.00  0.00    -0.239 NA
ATOM      8  N   UNL A   1      33.936  21.623  24.662  1.00  0.00    -0.239 NA
ATOM      9  C   UNL A   1      36.013  23.049  25.686  1.00  0.00     0.130 A 
ATOM     10  C   UNL A   1      35.178  21.113  24.696  1.00  0.00     0.130 A 
BRANCH   6  11
ATOM     11  C   UNL A   1      32.506  23.584  24.721  1.00  0.00     0.179 C 
BRANCH  11  12
ATOM     12  N   UNL A   1      32.198  24.851  25.478  1.00  0.00    -0.193 NA
ATOM     13  C   UNL A   1      31.215  24.616  26.570  1.00  0.00     0.125 C 
BRANCH  12  14
ATOM     14  S   UNL A   1      31.792  26.218  24.537  1.00  0.00     0.243 S 
ATOM     15  O   UNL A   1      32.466  26.133  23.260  1.00  0.00    -0.207 OA
ATOM     16  O   UNL A   1      30.354  26.379  24.593  1.00  0.00    -0.207 OA
BRANCH  14  17
ATOM     17  C   UNL A   1      32.477  27.577  25.449  1.00  0.00     0.082 A 
ATOM     18  C   UNL A   1      31.745  28.765  25.552  1.00  0.00     0.023 A 
ATOM     19  C   UNL A   1      33.730  27.451  26.057  1.00  0.00     0.023 A 
ATOM     20  C   UNL A   1      32.269  29.835  26.279  1.00  0.00     0.022 A 
ATOM     21  C   UNL A   1      34.256  28.531  26.768  1.00  0.00     0.022 A 
ATOM     22  C   UNL A   1      33.525  29.715  26.878  1.00  0.00     0.041 A 
ATOM     23  Cl  UNL A   1      34.177  31.043  27.755  1.00  0.00    -0.084 Cl
ENDBRANCH  14  17
ENDBRANCH  12  14
ENDBRANCH  11  12
ENDBRANCH   6  11
ENDBRANCH   3   5
ENDBRANCH   2   3
ENDBRANCH   1   2
BRANCH   1  24
ATOM     24  C   UNL A   1      40.888  22.193  26.296  1.00  0.00     0.275 C 
BRANCH  24  25
ATOM     25  O   UNL A   1      40.478  23.528  26.649  1.00  0.00    -0.458 OA
BRANCH  25  26
ATOM     26  C   UNL A   1      41.416  24.492  26.491  1.00  0.00     0.338 C 
ATOM     27  O   UNL A   1      42.274  24.556  25.627  1.00  0.00    -0.246 OA
BRANCH  26  28
ATOM     28  C   UNL A   1      41.213  25.546  27.499  1.00  0.00     0.060 A 
ATOM     29  C   UNL A   1      42.159  26.563  27.594  1.00  0.00     0.016 A 
ATOM     30  C   UNL A   1      40.166  25.477  28.415  1.00  0.00     0.016 A 
ATOM     31  C   UNL A   1      42.092  27.495  28.625  1.00  0.00     0.010 A 
ATOM     32  C   UNL A   1      40.056  26.460  29.409  1.00  0.00     0.010 A 
ATOM     33  C   UNL A   1      41.025  27.474  29.532  1.00  0.00    -0.014 A 
BRANCH  33  34
ATOM     34  C   UNL A   1      40.930  28.512  30.598  1.00  0.00     0.031 A 
ATOM     35  C   UNL A   1      41.875  28.496  31.768  1.00  0.00     0.074 A 
ATOM     36  C   UNL A   1      39.996  29.482  30.512  1.00  0.00     0.049 A 
ATOM     37  N   UNL A   1      41.845  29.210  32.865  1.00  0.00    -0.248 NA
ATOM     38  C   UNL A   1      42.999  27.549  31.701  1.00  0.00     0.031 C 
ATOM     39  C   UNL A   1      39.044  29.646  29.411  1.00  0.00     0.029 A 
ATOM     40  N   UNL A   1      39.693  30.517  31.364  1.00  0.00    -0.354 N 
ATOM     41  C   UNL A   1      42.912  28.768  33.639  1.00  0.00     0.074 A 
ATOM     42  C   UNL A   1      43.573  27.722  32.885  1.00  0.00     0.031 C 
ATOM     43  C   UNL A   1      38.286  30.729  29.639  1.00  0.00     0.029 A 
ATOM     44  C   UNL A   1      38.635  31.287  30.941  1.00  0.00     0.049 A 
ATOM     45  H   UNL A   1      40.186  30.690  32.197  1.00  0.00     0.167 HD
ATOM     46  C   UNL A   1      43.303  29.194  34.865  1.00  0.00     0.037 A 
ATOM     47  C   UNL A   1      37.980  32.297  31.548  1.00  0.00     0.037 A 
ATOM     48  C   UNL A   1      42.669  30.265  35.591  1.00  0.00     0.049 A 
ATOM     49  C   UNL A   1      38.394  32.714  32.930  1.00  0.00     0.074 A 
ATOM     50  C   UNL A   1      43.012  30.790  36.825  1.00  0.00     0.029 A 
ATOM     51  N   UNL A   1      41.566  30.981  35.147  1.00  0.00    -0.354 N 
ATOM     52  N   UNL A   1      39.379  32.258  33.665  1.00  0.00    -0.248 NA
ATOM     53  C   UNL A   1      37.590  33.760  33.577  1.00  0.00     0.031 C 
ATOM     54  C   UNL A   1      42.093  31.795  37.147  1.00  0.00     0.029 A 
ATOM     55  C   UNL A   1      41.199  31.923  36.095  1.00  0.00     0.049 A 
ATOM     56  H   UNL A   1      41.111  30.840  34.286  1.00  0.00     0.167 HD
ATOM     57  C   UNL A   1      39.310  32.955  34.866  1.00  0.00     0.074 A 
ATOM     58  C   UNL A   1      38.203  33.883  34.746  1.00  0.00     0.031 C 
ATOM     59  C   UNL A   1      40.086  32.829  35.970  1.00  0.00     0.037 A 
BRANCH  46  60
ATOM     60  C   UNL A   1      44.449  28.477  35.522  1.00  0.00     0.058 A 
ATOM     61  C   UNL A   1      44.252  27.389  36.385  1.00  0.00     0.135 A 
ATOM     62  C   UNL A   1      45.772  28.864  35.249  1.00  0.00     0.135 A 
ATOM     63  F   UNL A   1      43.008  26.987  36.691  1.00  0.00    -0.206 F 
ATOM     64  C   UNL A   1      45.323  26.725  36.975  1.00  0.00     0.059 A 
ATOM     65  C   UNL A   1      46.860  28.202  35.810  1.00  0.00     0.059 A 
ATOM     66  F   UNL A   1      46.018  29.898  34.429  1.00  0.00    -0.206 F 
ATOM     67  C   UNL A   1      46.624  27.142  36.684  1.00  0.00     0.060 A 
BRANCH  67  68
ATOM     68  S   UNL A   1      48.005  26.274  37.459  1.00  0.00     0.124 S 
ATOM     69  O   UNL A   1      48.031  26.893  38.781  1.00  0.00    -0.237 OA
ATOM     70  O   UNL A   1      47.565  24.883  37.419  1.00  0.00    -0.237 OA
ATOM     71  O   UNL A   1      49.136  26.595  36.595  1.00  0.00    -0.744 OA
ENDBRANCH  67  68
ENDBRANCH  46  60
BRANCH  47  72
ATOM     72  C   UNL A   1      36.820  32.936  30.871  1.00  0.00     0.058 A 
ATOM     73  C   UNL A   1      35.504  32.632  31.248  1.00  0.00     0.135 A 
ATOM     74  C   UNL A   1      37.007  33.885  29.853  1.00  0.00     0.135 A 
ATOM     75  F   UNL A   1      35.274  31.720  32.204  1.00  0.00    -0.206 F 
ATOM     76  C   UNL A   1      34.414  33.249  30.643  1.00  0.00     0.059 A 
ATOM     77  C   UNL A   1      35.935  34.534  29.252  1.00  0.00     0.059 A 
ATOM     78  F   UNL A   1      38.248  34.216  29.462  1.00  0.00    -0.206 F 
ATOM     79  C   UNL A   1      34.640  34.205  29.650  1.00  0.00     0.060 A 
BRANCH  79  80
ATOM     80  S   UNL A   1      33.225  35.058  28.921  1.00  0.00     0.124 S 
ATOM     81  O   UNL A   1      32.393  35.299  30.094  1.00  0.00    -0.237 OA
ATOM     82  O   UNL A   1      33.848  36.237  28.327  1.00  0.00    -0.237 OA
ATOM     83  O   UNL A   1      32.705  34.086  27.964  1.00  0.00    -0.744 OA
ENDBRANCH  79  80
ENDBRANCH  47  72
BRANCH  59  84
ATOM     84  C   UNL A   1      39.759  33.710  37.141  1.00  0.00     0.058 A 
ATOM     85  C   UNL A   1      38.863  33.294  38.137  1.00  0.00     0.135 A 
ATOM     86  C   UNL A   1      40.381  34.960  37.295  1.00  0.00     0.135 A 
ATOM     87  F   UNL A   1      38.236  32.112  38.030  1.00  0.00    -0.206 F 
ATOM     88  C   UNL A   1      38.582  34.093  39.240  1.00  0.00     0.059 A 
ATOM     89  C   UNL A   1      40.131  35.766  38.400  1.00  0.00     0.059 A 
ATOM     90  F   UNL A   1      41.251  35.400  36.371  1.00  0.00    -0.206 F 
ATOM     91  C   UNL A   1      39.222  35.328  39.364  1.00  0.00     0.060 A 
BRANCH  91  92
ATOM     92  S   UNL A   1      38.880  36.340  40.819  1.00  0.00     0.124 S 
ATOM     93  O   UNL A   1      40.180  36.349  41.484  1.00  0.00    -0.237 OA
ATOM     94  O   UNL A   1      38.461  37.607  40.229  1.00  0.00    -0.237 OA
ATOM     95  O   UNL A   1      37.828  35.598  41.508  1.00  0.00    -0.744 OA
ENDBRANCH  91  92
ENDBRANCH  59  84
ENDBRANCH  33  34
ENDBRANCH  26  28
ENDBRANCH  25  26
ENDBRANCH  24  25
ENDBRANCH   1  24
TORSDOF 18
ENDMDL
MODEL 3
REMARK VINA RESULT:     -11.0      6.700     11.886
REMARK SMILES CN(Cc1ncc(C(=O)OCCOC(=O)c2ccc(-c3c4nc(c(-c5c(F)cc(S(=O)(=O)[O-])cc5F)c5ccc([nH]5)c(-c5c(F)cc(S(=O)(=O)[O-])cc5F)c5nc(c(-c6c(F)cc(S(=O)(=O)[O-])cc6F)c6ccc3[nH]6)C=C5)C=C4)cc2)cn1)S(=O)(=O)c1ccc(Cl)cc1
REMARK SMILES IDX 11 1 10 2 8 3 9 4 7 5 4 6 5 7 83 8 6 9 82 10 3 11 2 12 1 13
REMARK SMILES IDX 84 14 85 15 86 16 87 17 88 18 93 19 89 20 92 21 90 22 91 23
REMARK SMILES IDX 12 24 13 25 14 26 15 27 16 28 17 29 81 30 18 31 80 32 19 33
REMARK SMILES IDX 20 34 21 35 74 36 22 37 79 38 73 39 75 40 23 41 78 42 72 43
REMARK SMILES IDX 71 44 24 46 58 47 37 48 57 49 38 50 41 51 56 52 76 53 39 54
REMARK SMILES IDX 40 55 55 57 77 58 42 59 25 60 26 61 35 62 27 63 28 64 34 65
REMARK SMILES IDX 36 66 29 67 30 68 31 69 32 70 33 71 59 72 60 73 69 74 61 75
REMARK SMILES IDX 62 76 68 77 70 78 63 79 64 80 65 81 66 82 67 83 43 84 44 85
REMARK SMILES IDX 53 86 45 87 46 88 52 89 54 90 47 91 48 92 49 93 50 94 51 95
REMARK H PARENT 75 45 41 56
REMARK Flexibility Score: inf
ROOT
ATOM      1  C   UNL A   1      33.822  30.733  26.881  1.00  0.00     0.275 C 
ENDROOT
BRANCH   1   2
ATOM      2  O   UNL A   1      32.476  30.301  27.158  1.00  0.00    -0.458 OA
BRANCH   2   3
ATOM      3  C   UNL A   1      31.744  29.990  26.061  1.00  0.00     0.341 C 
ATOM      4  O   UNL A   1      31.021  30.743  25.437  1.00  0.00    -0.246 OA
BRANCH   3   5
ATOM      5  C   UNL A   1      31.993  28.613  25.625  1.00  0.00     0.096 A 
ATOM      6  C   UNL A   1      32.451  26.021  24.999  1.00  0.00     0.143 A 
ATOM      7  N   UNL A   1      32.646  26.941  24.028  1.00  0.00    -0.239 NA
ATOM      8  N   UNL A   1      31.974  26.293  26.230  1.00  0.00    -0.239 NA
ATOM      9  C   UNL A   1      32.401  28.229  24.369  1.00  0.00     0.130 A 
ATOM     10  C   UNL A   1      31.784  27.590  26.522  1.00  0.00     0.130 A 
BRANCH   6  11
ATOM     11  C   UNL A   1      33.006  24.627  24.796  1.00  0.00     0.179 C 
BRANCH  11  12
ATOM     12  N   UNL A   1      32.184  23.717  23.920  1.00  0.00    -0.193 NA
ATOM     13  C   UNL A   1      31.210  22.919  24.713  1.00  0.00     0.125 C 
BRANCH  12  14
ATOM     14  S   UNL A   1      33.050  22.746  22.811  1.00  0.00     0.243 S 
ATOM     15  O   UNL A   1      32.356  21.488  22.640  1.00  0.00    -0.207 OA
ATOM     16  O   UNL A   1      33.365  23.567  21.660  1.00  0.00    -0.207 OA
BRANCH  14  17
ATOM     17  C   UNL A   1      34.591  22.435  23.635  1.00  0.00     0.082 A 
ATOM     18  C   UNL A   1      34.645  21.449  24.627  1.00  0.00     0.023 A 
ATOM     19  C   UNL A   1      35.730  23.167  23.287  1.00  0.00     0.023 A 
ATOM     20  C   UNL A   1      35.855  21.188  25.270  1.00  0.00     0.022 A 
ATOM     21  C   UNL A   1      36.933  22.912  23.946  1.00  0.00     0.022 A 
ATOM     22  C   UNL A   1      36.992  21.924  24.931  1.00  0.00     0.041 A 
ATOM     23  Cl  UNL A   1      38.477  21.613  25.741  1.00  0.00    -0.084 Cl
ENDBRANCH  14  17
ENDBRANCH  12  14
ENDBRANCH  11  12
ENDBRANCH   6  11
ENDBRANCH   3   5
ENDBRANCH   2   3
ENDBRANCH   1   2
BRANCH   1  24
ATOM     24  C   UNL A   1      34.517  31.175  28.169  1.00  0.00     0.275 C 
BRANCH  24  25
ATOM     25  O   UNL A   1      35.389  30.141  28.664  1.00  0.00    -0.458 OA
BRANCH  25  26
ATOM     26  C   UNL A   1      36.258  30.517  29.632  1.00  0.00     0.338 C 
ATOM     27  O   UNL A   1      36.007  31.129  30.656  1.00  0.00    -0.246 OA
BRANCH  26  28
ATOM     28  C   UNL A   1      37.601  30.004  29.313  1.00  0.00     0.060 A 
ATOM     29  C   UNL A   1      38.477  29.744  30.363  1.00  0.00     0.016 A 
ATOM     30  C   UNL A   1      38.035  29.885  27.995  1.00  0.00     0.016 A 
ATOM     31  C   UNL A   1      39.803  29.403  30.110  1.00  0.00     0.010 A 
ATOM     32  C   UNL A   1      39.348  29.468  27.739  1.00  0.00     0.010 A 
ATOM     33  C   UNL A   1      40.251  29.234  28.794  1.00  0.00    -0.014 A 
BRANCH  33  34
ATOM     34  C   UNL A   1      41.657  28.810  28.532  1.00  0.00     0.031 A 
ATOM     35  C   UNL A   1      42.781  29.809  28.598  1.00  0.00     0.074 A 
ATOM     36  C   UNL A   1      41.929  27.521  28.243  1.00  0.00     0.049 A 
ATOM     37  N   UNL A   1      44.034  29.666  28.247  1.00  0.00    -0.248 NA
ATOM     38  C   UNL A   1      42.454  31.144  29.122  1.00  0.00     0.031 C 
ATOM     39  C   UNL A   1      40.944  26.438  28.189  1.00  0.00     0.029 A 
ATOM     40  N   UNL A   1      43.116  26.899  27.940  1.00  0.00    -0.354 N 
ATOM     41  C   UNL A   1      44.634  30.902  28.460  1.00  0.00     0.074 A 
ATOM     42  C   UNL A   1      43.605  31.785  28.973  1.00  0.00     0.031 C 
ATOM     43  C   UNL A   1      41.568  25.286  27.903  1.00  0.00     0.029 A 
ATOM     44  C   UNL A   1      42.982  25.558  27.666  1.00  0.00     0.049 A 
ATOM     45  H   UNL A   1      43.981  27.368  27.922  1.00  0.00     0.167 HD
ATOM     46  C   UNL A   1      45.921  31.266  28.246  1.00  0.00     0.037 A 
ATOM     47  C   UNL A   1      43.877  24.653  27.224  1.00  0.00     0.037 A 
ATOM     48  C   UNL A   1      46.950  30.372  27.778  1.00  0.00     0.049 A 
ATOM     49  C   UNL A   1      45.285  25.092  26.939  1.00  0.00     0.074 A 
ATOM     50  C   UNL A   1      48.290  30.640  27.560  1.00  0.00     0.029 A 
ATOM     51  N   UNL A   1      46.755  29.035  27.461  1.00  0.00    -0.354 N 
ATOM     52  N   UNL A   1      45.826  26.274  27.107  1.00  0.00    -0.248 NA
ATOM     53  C   UNL A   1      46.194  24.085  26.377  1.00  0.00     0.031 C 
ATOM     54  C   UNL A   1      48.898  29.477  27.074  1.00  0.00     0.029 A 
ATOM     55  C   UNL A   1      47.944  28.473  27.024  1.00  0.00     0.049 A 
ATOM     56  H   UNL A   1      45.899  28.556  27.535  1.00  0.00     0.167 HD
ATOM     57  C   UNL A   1      47.138  26.157  26.663  1.00  0.00     0.074 A 
ATOM     58  C   UNL A   1      47.316  24.780  26.247  1.00  0.00     0.031 C 
ATOM     59  C   UNL A   1      48.103  27.106  26.597  1.00  0.00     0.037 A 
BRANCH  46  60
ATOM     60  C   UNL A   1      46.289  32.705  28.479  1.00  0.00     0.058 A 
ATOM     61  C   UNL A   1      46.727  33.170  29.727  1.00  0.00     0.135 A 
ATOM     62  C   UNL A   1      46.236  33.627  27.419  1.00  0.00     0.135 A 
ATOM     63  F   UNL A   1      46.783  32.334  30.777  1.00  0.00    -0.206 F 
ATOM     64  C   UNL A   1      47.078  34.501  29.926  1.00  0.00     0.059 A 
ATOM     65  C   UNL A   1      46.603  34.958  27.588  1.00  0.00     0.059 A 
ATOM     66  F   UNL A   1      45.824  33.235  26.203  1.00  0.00    -0.206 F 
ATOM     67  C   UNL A   1      47.009  35.389  28.850  1.00  0.00     0.060 A 
BRANCH  67  68
ATOM     68  S   UNL A   1      47.464  37.117  29.121  1.00  0.00     0.124 S 
ATOM     69  O   UNL A   1      48.826  36.982  29.627  1.00  0.00    -0.237 OA
ATOM     70  O   UNL A   1      47.337  37.688  27.785  1.00  0.00    -0.237 OA
ATOM     71  O   UNL A   1      46.477  37.579  30.093  1.00  0.00    -0.744 OA
ENDBRANCH  67  68
ENDBRANCH  46  60
BRANCH  47  72
ATOM     72  C   UNL A   1      43.444  23.254  26.962  1.00  0.00     0.058 A 
ATOM     73  C   UNL A   1      43.295  22.775  25.653  1.00  0.00     0.135 A 
ATOM     74  C   UNL A   1      43.200  22.361  28.019  1.00  0.00     0.135 A 
ATOM     75  F   UNL A   1      43.501  23.595  24.612  1.00  0.00    -0.206 F 
ATOM     76  C   UNL A   1      42.922  21.459  25.399  1.00  0.00     0.059 A 
ATOM     77  C   UNL A   1      42.852  21.034  27.789  1.00  0.00     0.059 A 
ATOM     78  F   UNL A   1      43.337  22.769  29.290  1.00  0.00    -0.206 F 
ATOM     79  C   UNL A   1      42.710  20.594  26.475  1.00  0.00     0.060 A 
BRANCH  79  80
ATOM     80  S   UNL A   1      42.302  18.867  26.138  1.00  0.00     0.124 S 
ATOM     81  O   UNL A   1      43.256  18.540  25.085  1.00  0.00    -0.237 OA
ATOM     82  O   UNL A   1      42.538  18.236  27.434  1.00  0.00    -0.237 OA
ATOM     83  O   UNL A   1      40.902  18.929  25.728  1.00  0.00    -0.744 OA
ENDBRANCH  79  80
ENDBRANCH  47  72
BRANCH  59  84
ATOM     84  C   UNL A   1      49.436  26.690  26.046  1.00  0.00     0.058 A 
ATOM     85  C   UNL A   1      49.790  26.959  24.715  1.00  0.00     0.135 A 
ATOM     86  C   UNL A   1      50.387  26.061  26.865  1.00  0.00     0.135 A 
ATOM     87  F   UNL A   1      48.911  27.549  23.890  1.00  0.00    -0.206 F 
ATOM     88  C   UNL A   1      51.035  26.604  24.209  1.00  0.00     0.059 A 
ATOM     89  C   UNL A   1      51.647  25.716  26.386  1.00  0.00     0.059 A 
ATOM     90  F   UNL A   1      50.099  25.788  28.148  1.00  0.00    -0.206 F 
ATOM     91  C   UNL A   1      51.959  25.985  25.053  1.00  0.00     0.060 A 
BRANCH  91  92
ATOM     92  S   UNL A   1      53.587  25.564  24.396  1.00  0.00     0.124 S 
ATOM     93  O   UNL A   1      53.423  25.879  22.980  1.00  0.00    -0.237 OA
ATOM     94  O   UNL A   1      54.467  26.455  25.145  1.00  0.00    -0.237 OA
ATOM     95  O   UNL A   1      53.725  24.146  24.712  1.00  0.00    -0.744 OA
ENDBRANCH  91  92
ENDBRANCH  59  84
ENDBRANCH  33  34
ENDBRANCH  26  28
ENDBRANCH  25  26
ENDBRANCH  24  25
ENDBRANCH   1  24
TORSDOF 18
ENDMDL
