MODEL 1
REMARK VINA RESULT:     -12.3      0.000      0.000
REMARK SMILES O=C(OCCOC(=O)c1ccc(Cn2ccc3ccc(Br)cc32)nc1)c1ccc(-c2c3nc(c(-c4c(F)cc(S(=O)(=O)[O-])cc4F)c4ccc([nH]4)c(-c4c(F)cc(S(=O)(=O)[O-])cc4F)c4nc(c(-c5c(F)cc(S(=O)(=O)[O-])cc5F)c5ccc2[nH]5)C=C4)C=C3)cc1
REMARK SMILES IDX 4 1 3 2 2 3 1 4 26 5 27 6 91 7 28 8 90 9 29 10 30 11 31 12
REMARK SMILES IDX 84 13 32 14 89 15 83 16 85 17 33 18 88 19 82 20 81 21 34 23
REMARK SMILES IDX 68 24 47 25 67 26 48 27 51 28 66 29 86 30 49 31 50 32 65 34
REMARK SMILES IDX 87 35 52 36 35 37 36 38 45 39 37 40 38 41 44 42 46 43 39 44
REMARK SMILES IDX 40 45 41 46 42 47 43 48 69 49 70 50 79 51 71 52 72 53 78 54
REMARK SMILES IDX 80 55 73 56 74 57 75 58 76 59 77 60 53 61 54 62 63 63 55 64
REMARK SMILES IDX 56 65 62 66 64 67 57 68 58 69 59 70 60 71 61 72 5 73 6 74
REMARK SMILES IDX 7 75 8 76 9 77 10 78 25 79 11 80 24 81 12 82 13 83 14 84
REMARK SMILES IDX 15 85 23 86 16 87 17 88 22 89 18 90 20 91 19 92 21 93
REMARK H PARENT 85 22 51 33
REMARK Flexibility Score: inf
ROOT
ATOM      1  C   UNL A   1      43.062  19.331  25.675  1.00  0.00     0.275 C 
ENDROOT
BRANCH   1   2
ATOM      2  O   UNL A   1      43.714  20.334  24.850  1.00  0.00    -0.458 OA
BRANCH   2   3
ATOM      3  C   UNL A   1      44.894  20.970  25.107  1.00  0.00     0.338 C 
ATOM      4  O   UNL A   1      45.923  20.356  25.359  1.00  0.00    -0.246 OA
BRANCH   3   5
ATOM      5  C   UNL A   1      44.824  22.429  25.298  1.00  0.00     0.060 A 
ATOM      6  C   UNL A   1      45.633  22.934  26.302  1.00  0.00     0.016 A 
ATOM      7  C   UNL A   1      43.780  23.189  24.764  1.00  0.00     0.016 A 
ATOM      8  C   UNL A   1      45.153  24.015  27.015  1.00  0.00     0.010 A 
ATOM      9  C   UNL A   1      43.307  24.288  25.477  1.00  0.00     0.010 A 
ATOM     10  C   UNL A   1      43.925  24.629  26.676  1.00  0.00    -0.014 A 
BRANCH  10  11
ATOM     11  C   UNL A   1      43.558  25.818  27.464  1.00  0.00     0.031 A 
ATOM     12  C   UNL A   1      44.658  26.814  27.346  1.00  0.00     0.074 A 
ATOM     13  C   UNL A   1      42.418  26.056  28.155  1.00  0.00     0.049 A 
ATOM     14  N   UNL A   1      45.444  27.230  28.285  1.00  0.00    -0.248 NA
ATOM     15  C   UNL A   1      45.142  27.108  25.978  1.00  0.00     0.031 C 
ATOM     16  C   UNL A   1      41.215  25.225  28.225  1.00  0.00     0.029 A 
ATOM     17  N   UNL A   1      42.049  27.153  28.894  1.00  0.00    -0.354 N 
ATOM     18  C   UNL A   1      46.368  28.036  27.632  1.00  0.00     0.074 A 
ATOM     19  C   UNL A   1      46.299  27.713  26.235  1.00  0.00     0.031 C 
ATOM     20  C   UNL A   1      40.190  25.946  28.733  1.00  0.00     0.029 A 
ATOM     21  C   UNL A   1      40.672  27.260  29.123  1.00  0.00     0.049 A 
ATOM     22  H   UNL A   1      42.699  27.809  29.236  1.00  0.00     0.167 HD
ATOM     23  C   UNL A   1      46.840  29.161  28.225  1.00  0.00     0.037 A 
ATOM     24  C   UNL A   1      39.978  28.360  29.534  1.00  0.00     0.037 A 
ATOM     25  C   UNL A   1      46.750  29.073  29.656  1.00  0.00     0.049 A 
ATOM     26  C   UNL A   1      40.958  29.269  30.172  1.00  0.00     0.074 A 
ATOM     27  C   UNL A   1      47.321  28.283  30.631  1.00  0.00     0.029 A 
ATOM     28  N   UNL A   1      45.645  29.662  30.213  1.00  0.00    -0.354 N 
ATOM     29  N   UNL A   1      41.546  29.030  31.309  1.00  0.00    -0.248 NA
ATOM     30  C   UNL A   1      41.581  30.294  29.348  1.00  0.00     0.031 C 
ATOM     31  C   UNL A   1      46.346  28.179  31.664  1.00  0.00     0.029 A 
ATOM     32  C   UNL A   1      45.239  28.949  31.308  1.00  0.00     0.049 A 
ATOM     33  H   UNL A   1      45.208  30.477  29.875  1.00  0.00     0.167 HD
ATOM     34  C   UNL A   1      42.824  29.534  31.151  1.00  0.00     0.074 A 
ATOM     35  C   UNL A   1      42.745  30.413  29.987  1.00  0.00     0.031 C 
ATOM     36  C   UNL A   1      43.876  28.961  31.799  1.00  0.00     0.037 A 
BRANCH  23  37
ATOM     37  C   UNL A   1      46.881  30.472  27.473  1.00  0.00     0.058 A 
ATOM     38  C   UNL A   1      48.070  31.219  27.443  1.00  0.00     0.135 A 
ATOM     39  C   UNL A   1      45.726  31.148  27.004  1.00  0.00     0.135 A 
ATOM     40  F   UNL A   1      49.212  30.698  27.919  1.00  0.00    -0.206 F 
ATOM     41  C   UNL A   1      48.104  32.540  26.992  1.00  0.00     0.059 A 
ATOM     42  C   UNL A   1      45.750  32.431  26.489  1.00  0.00     0.059 A 
ATOM     43  F   UNL A   1      44.494  30.643  27.117  1.00  0.00    -0.206 F 
ATOM     44  C   UNL A   1      46.938  33.133  26.513  1.00  0.00     0.060 A 
BRANCH  44  45
ATOM     45  S   UNL A   1      46.958  34.847  25.967  1.00  0.00     0.124 S 
ATOM     46  O   UNL A   1      47.208  35.547  27.221  1.00  0.00    -0.237 OA
ATOM     47  O   UNL A   1      48.054  34.838  25.004  1.00  0.00    -0.237 OA
ATOM     48  O   UNL A   1      45.629  35.031  25.393  1.00  0.00    -0.744 OA
ENDBRANCH  44  45
ENDBRANCH  23  37
BRANCH  24  49
ATOM     49  C   UNL A   1      38.615  28.852  29.147  1.00  0.00     0.058 A 
ATOM     50  C   UNL A   1      37.605  29.049  30.119  1.00  0.00     0.135 A 
ATOM     51  C   UNL A   1      38.366  29.440  27.893  1.00  0.00     0.135 A 
ATOM     52  F   UNL A   1      37.737  28.528  31.349  1.00  0.00    -0.206 F 
ATOM     53  C   UNL A   1      36.479  29.854  29.890  1.00  0.00     0.059 A 
ATOM     54  C   UNL A   1      37.246  30.236  27.638  1.00  0.00     0.059 A 
ATOM     55  F   UNL A   1      39.254  29.343  26.894  1.00  0.00    -0.206 F 
ATOM     56  C   UNL A   1      36.326  30.472  28.652  1.00  0.00     0.060 A 
BRANCH  56  57
ATOM     57  S   UNL A   1      35.003  31.687  28.413  1.00  0.00     0.124 S 
ATOM     58  O   UNL A   1      34.653  32.031  29.787  1.00  0.00    -0.237 OA
ATOM     59  O   UNL A   1      35.677  32.728  27.645  1.00  0.00    -0.237 OA
ATOM     60  O   UNL A   1      33.986  30.938  27.679  1.00  0.00    -0.744 OA
ENDBRANCH  56  57
ENDBRANCH  24  49
BRANCH  36  61
ATOM     61  C   UNL A   1      43.588  28.148  33.033  1.00  0.00     0.058 A 
ATOM     62  C   UNL A   1      43.301  28.667  34.306  1.00  0.00     0.135 A 
ATOM     63  C   UNL A   1      43.475  26.758  32.862  1.00  0.00     0.135 A 
ATOM     64  F   UNL A   1      43.308  29.990  34.532  1.00  0.00    -0.206 F 
ATOM     65  C   UNL A   1      42.936  27.832  35.367  1.00  0.00     0.059 A 
ATOM     66  C   UNL A   1      43.079  25.915  33.892  1.00  0.00     0.059 A 
ATOM     67  F   UNL A   1      43.697  26.209  31.656  1.00  0.00    -0.206 F 
ATOM     68  C   UNL A   1      42.818  26.458  35.147  1.00  0.00     0.060 A 
BRANCH  68  69
ATOM     69  S   UNL A   1      42.251  25.389  36.487  1.00  0.00     0.124 S 
ATOM     70  O   UNL A   1      43.497  25.071  37.175  1.00  0.00    -0.237 OA
ATOM     71  O   UNL A   1      41.327  26.258  37.210  1.00  0.00    -0.237 OA
ATOM     72  O   UNL A   1      41.621  24.271  35.789  1.00  0.00    -0.744 OA
ENDBRANCH  68  69
ENDBRANCH  36  61
ENDBRANCH  10  11
ENDBRANCH   3   5
ENDBRANCH   2   3
ENDBRANCH   1   2
BRANCH   1  73
ATOM     73  C   UNL A   1      41.650  19.644  26.203  1.00  0.00     0.275 C 
BRANCH  73  74
ATOM     74  O   UNL A   1      41.259  21.011  26.060  1.00  0.00    -0.458 OA
BRANCH  74  75
ATOM     75  C   UNL A   1      40.368  21.516  26.937  1.00  0.00     0.339 C 
ATOM     76  O   UNL A   1      40.535  21.698  28.133  1.00  0.00    -0.246 OA
BRANCH  75  77
ATOM     77  C   UNL A   1      39.242  22.049  26.159  1.00  0.00     0.078 A 
ATOM     78  C   UNL A   1      38.773  23.362  26.237  1.00  0.00     0.019 A 
ATOM     79  C   UNL A   1      38.526  21.141  25.402  1.00  0.00     0.127 A 
ATOM     80  C   UNL A   1      37.606  23.713  25.539  1.00  0.00     0.026 A 
ATOM     81  N   UNL A   1      37.375  21.449  24.762  1.00  0.00    -0.258 NA
ATOM     82  C   UNL A   1      36.935  22.734  24.804  1.00  0.00     0.060 A 
BRANCH  82  83
ATOM     83  C   UNL A   1      35.703  23.051  23.981  1.00  0.00     0.178 C 
BRANCH  83  84
ATOM     84  N   UNL A   1      34.598  23.463  24.847  1.00  0.00    -0.341 N 
ATOM     85  C   UNL A   1      34.080  22.702  25.865  1.00  0.00     0.087 A 
ATOM     86  C   UNL A   1      33.994  24.709  24.839  1.00  0.00     0.049 A 
ATOM     87  C   UNL A   1      33.267  23.514  26.623  1.00  0.00     0.028 A 
ATOM     88  C   UNL A   1      33.240  24.797  26.011  1.00  0.00    -0.000 A 
ATOM     89  C   UNL A   1      34.112  25.791  23.949  1.00  0.00     0.042 A 
ATOM     90  C   UNL A   1      32.651  26.032  26.351  1.00  0.00     0.011 A 
ATOM     91  C   UNL A   1      33.533  27.005  24.316  1.00  0.00     0.020 A 
ATOM     92  C   UNL A   1      32.823  27.136  25.505  1.00  0.00     0.016 A 
ATOM     93  Br  UNL A   1      33.755  28.512  23.191  1.00  0.00    -0.051 Br
ENDBRANCH  83  84
ENDBRANCH  82  83
ENDBRANCH  75  77
ENDBRANCH  74  75
ENDBRANCH  73  74
ENDBRANCH   1  73
TORSDOF 16
ENDMDL
MODEL 2
REMARK VINA RESULT:     -12.2      1.272      1.784
REMARK SMILES O=C(OCCOC(=O)c1ccc(Cn2ccc3ccc(Br)cc32)nc1)c1ccc(-c2c3nc(c(-c4c(F)cc(S(=O)(=O)[O-])cc4F)c4ccc([nH]4)c(-c4c(F)cc(S(=O)(=O)[O-])cc4F)c4nc(c(-c5c(F)cc(S(=O)(=O)[O-])cc5F)c5ccc2[nH]5)C=C4)C=C3)cc1
REMARK SMILES IDX 4 1 3 2 2 3 1 4 26 5 27 6 91 7 28 8 90 9 29 10 30 11 31 12
REMARK SMILES IDX 84 13 32 14 89 15 83 16 85 17 33 18 88 19 82 20 81 21 34 23
REMARK SMILES IDX 68 24 47 25 67 26 48 27 51 28 66 29 86 30 49 31 50 32 65 34
REMARK SMILES IDX 87 35 52 36 35 37 36 38 45 39 37 40 38 41 44 42 46 43 39 44
REMARK SMILES IDX 40 45 41 46 42 47 43 48 69 49 70 50 79 51 71 52 72 53 78 54
REMARK SMILES IDX 80 55 73 56 74 57 75 58 76 59 77 60 53 61 54 62 63 63 55 64
REMARK SMILES IDX 56 65 62 66 64 67 57 68 58 69 59 70 60 71 61 72 5 73 6 74
REMARK SMILES IDX 7 75 8 76 9 77 10 78 25 79 11 80 24 81 12 82 13 83 14 84
REMARK SMILES IDX 15 85 23 86 16 87 17 88 22 89 18 90 20 91 19 92 21 93
REMARK H PARENT 85 22 51 33
REMARK Flexibility Score: inf
ROOT
ATOM      1  C   UNL A   1      42.880  19.135  25.860  1.00  0.00     0.275 C 
ENDROOT
BRANCH   1   2
ATOM      2  O   UNL A   1      43.275  20.361  25.190  1.00  0.00    -0.458 OA
BRANCH   2   3
ATOM      3  C   UNL A   1      44.479  20.998  25.282  1.00  0.00     0.338 C 
ATOM      4  O   UNL A   1      45.531  20.386  25.418  1.00  0.00    -0.246 OA
BRANCH   3   5
ATOM      5  C   UNL A   1      44.436  22.461  25.445  1.00  0.00     0.060 A 
ATOM      6  C   UNL A   1      45.272  22.973  26.423  1.00  0.00     0.016 A 
ATOM      7  C   UNL A   1      43.393  23.227  24.917  1.00  0.00     0.016 A 
ATOM      8  C   UNL A   1      44.823  24.075  27.123  1.00  0.00     0.010 A 
ATOM      9  C   UNL A   1      42.952  24.348  25.617  1.00  0.00     0.010 A 
ATOM     10  C   UNL A   1      43.599  24.702  26.797  1.00  0.00    -0.014 A 
BRANCH  10  11
ATOM     11  C   UNL A   1      43.266  25.912  27.568  1.00  0.00     0.031 A 
ATOM     12  C   UNL A   1      44.381  26.886  27.413  1.00  0.00     0.074 A 
ATOM     13  C   UNL A   1      42.142  26.183  28.273  1.00  0.00     0.049 A 
ATOM     14  N   UNL A   1      45.190  27.305  28.331  1.00  0.00    -0.248 NA
ATOM     15  C   UNL A   1      44.847  27.145  26.032  1.00  0.00     0.031 C 
ATOM     16  C   UNL A   1      40.927  25.375  28.378  1.00  0.00     0.029 A 
ATOM     17  N   UNL A   1      41.805  27.300  28.998  1.00  0.00    -0.354 N 
ATOM     18  C   UNL A   1      46.117  28.082  27.648  1.00  0.00     0.074 A 
ATOM     19  C   UNL A   1      46.019  27.734  26.258  1.00  0.00     0.031 C 
ATOM     20  C   UNL A   1      39.922  26.124  28.890  1.00  0.00     0.029 A 
ATOM     21  C   UNL A   1      40.434  27.436  29.247  1.00  0.00     0.049 A 
ATOM     22  H   UNL A   1      42.472  27.951  29.316  1.00  0.00     0.167 HD
ATOM     23  C   UNL A   1      46.618  29.209  28.211  1.00  0.00     0.037 A 
ATOM     24  C   UNL A   1      39.767  28.556  29.649  1.00  0.00     0.037 A 
ATOM     25  C   UNL A   1      46.551  29.150  29.645  1.00  0.00     0.049 A 
ATOM     26  C   UNL A   1      40.773  29.459  30.252  1.00  0.00     0.074 A 
ATOM     27  C   UNL A   1      47.125  28.368  30.625  1.00  0.00     0.029 A 
ATOM     28  N   UNL A   1      45.467  29.768  30.209  1.00  0.00    -0.354 N 
ATOM     29  N   UNL A   1      41.376  29.230  31.384  1.00  0.00    -0.248 NA
ATOM     30  C   UNL A   1      41.400  30.457  29.399  1.00  0.00     0.031 C 
ATOM     31  C   UNL A   1      46.166  28.301  31.676  1.00  0.00     0.029 A 
ATOM     32  C   UNL A   1      45.067  29.083  31.324  1.00  0.00     0.049 A 
ATOM     33  H   UNL A   1      45.039  30.584  29.863  1.00  0.00     0.167 HD
ATOM     34  C   UNL A   1      42.660  29.709  31.195  1.00  0.00     0.074 A 
ATOM     35  C   UNL A   1      42.577  30.567  30.017  1.00  0.00     0.031 C 
ATOM     36  C   UNL A   1      43.712  29.129  31.837  1.00  0.00     0.037 A 
BRANCH  23  37
ATOM     37  C   UNL A   1      46.670  30.505  27.434  1.00  0.00     0.058 A 
ATOM     38  C   UNL A   1      47.876  31.221  27.357  1.00  0.00     0.135 A 
ATOM     39  C   UNL A   1      45.520  31.201  26.985  1.00  0.00     0.135 A 
ATOM     40  F   UNL A   1      49.018  30.682  27.811  1.00  0.00    -0.206 F 
ATOM     41  C   UNL A   1      47.929  32.533  26.881  1.00  0.00     0.059 A 
ATOM     42  C   UNL A   1      45.559  32.474  26.444  1.00  0.00     0.059 A 
ATOM     43  F   UNL A   1      44.279  30.728  27.141  1.00  0.00    -0.206 F 
ATOM     44  C   UNL A   1      46.764  33.146  26.422  1.00  0.00     0.060 A 
BRANCH  44  45
ATOM     45  S   UNL A   1      46.810  34.849  25.844  1.00  0.00     0.124 S 
ATOM     46  O   UNL A   1      45.620  34.901  25.005  1.00  0.00    -0.237 OA
ATOM     47  O   UNL A   1      46.747  35.589  27.100  1.00  0.00    -0.237 OA
ATOM     48  O   UNL A   1      48.086  34.929  25.140  1.00  0.00    -0.744 OA
ENDBRANCH  44  45
ENDBRANCH  23  37
BRANCH  24  49
ATOM     49  C   UNL A   1      38.406  29.065  29.275  1.00  0.00     0.058 A 
ATOM     50  C   UNL A   1      37.430  29.337  30.263  1.00  0.00     0.135 A 
ATOM     51  C   UNL A   1      38.137  29.597  28.000  1.00  0.00     0.135 A 
ATOM     52  F   UNL A   1      37.584  28.873  31.513  1.00  0.00    -0.206 F 
ATOM     53  C   UNL A   1      36.319  30.159  30.025  1.00  0.00     0.059 A 
ATOM     54  C   UNL A   1      37.030  30.410  27.737  1.00  0.00     0.059 A 
ATOM     55  F   UNL A   1      38.993  29.427  26.984  1.00  0.00    -0.206 F 
ATOM     56  C   UNL A   1      36.147  30.720  28.763  1.00  0.00     0.060 A 
BRANCH  56  57
ATOM     57  S   UNL A   1      34.849  31.957  28.500  1.00  0.00     0.124 S 
ATOM     58  O   UNL A   1      34.539  32.369  29.864  1.00  0.00    -0.237 OA
ATOM     59  O   UNL A   1      35.531  32.947  27.673  1.00  0.00    -0.237 OA
ATOM     60  O   UNL A   1      33.798  31.204  27.821  1.00  0.00    -0.744 OA
ENDBRANCH  56  57
ENDBRANCH  24  49
BRANCH  36  61
ATOM     61  C   UNL A   1      43.431  28.344  33.090  1.00  0.00     0.058 A 
ATOM     62  C   UNL A   1      43.115  28.892  34.345  1.00  0.00     0.135 A 
ATOM     63  C   UNL A   1      43.357  26.947  32.959  1.00  0.00     0.135 A 
ATOM     64  F   UNL A   1      43.085  30.221  34.532  1.00  0.00    -0.206 F 
ATOM     65  C   UNL A   1      42.760  28.079  35.426  1.00  0.00     0.059 A 
ATOM     66  C   UNL A   1      42.970  26.124  34.009  1.00  0.00     0.059 A 
ATOM     67  F   UNL A   1      43.607  26.370  31.771  1.00  0.00    -0.206 F 
ATOM     68  C   UNL A   1      42.680  26.696  35.244  1.00  0.00     0.060 A 
BRANCH  68  69
ATOM     69  S   UNL A   1      42.125  25.651  36.608  1.00  0.00     0.124 S 
ATOM     70  O   UNL A   1      40.674  25.743  36.496  1.00  0.00    -0.237 OA
ATOM     71  O   UNL A   1      42.710  24.358  36.268  1.00  0.00    -0.237 OA
ATOM     72  O   UNL A   1      42.702  26.294  37.787  1.00  0.00    -0.744 OA
ENDBRANCH  68  69
ENDBRANCH  36  61
ENDBRANCH  10  11
ENDBRANCH   3   5
ENDBRANCH   2   3
ENDBRANCH   1   2
BRANCH   1  73
ATOM     73  C   UNL A   1      42.009  19.257  27.124  1.00  0.00     0.275 C 
BRANCH  73  74
ATOM     74  O   UNL A   1      40.795  19.987  26.933  1.00  0.00    -0.458 OA
BRANCH  74  75
ATOM     75  C   UNL A   1      40.762  21.280  27.311  1.00  0.00     0.339 C 
ATOM     76  O   UNL A   1      41.569  21.861  28.020  1.00  0.00    -0.246 OA
BRANCH  75  77
ATOM     77  C   UNL A   1      39.721  21.943  26.514  1.00  0.00     0.078 A 
ATOM     78  C   UNL A   1      39.361  23.286  26.634  1.00  0.00     0.019 A 
ATOM     79  C   UNL A   1      38.966  21.134  25.686  1.00  0.00     0.127 A 
ATOM     80  C   UNL A   1      38.261  23.767  25.906  1.00  0.00     0.026 A 
ATOM     81  N   UNL A   1      37.874  21.568  25.015  1.00  0.00    -0.258 NA
ATOM     82  C   UNL A   1      37.543  22.883  25.099  1.00  0.00     0.060 A 
BRANCH  82  83
ATOM     83  C   UNL A   1      36.381  23.340  24.242  1.00  0.00     0.178 C 
BRANCH  83  84
ATOM     84  N   UNL A   1      35.156  23.422  25.038  1.00  0.00    -0.341 N 
ATOM     85  C   UNL A   1      34.757  24.532  25.742  1.00  0.00     0.087 A 
ATOM     86  C   UNL A   1      34.177  22.445  25.108  1.00  0.00     0.049 A 
ATOM     87  C   UNL A   1      33.448  24.337  26.121  1.00  0.00     0.028 A 
ATOM     88  C   UNL A   1      33.056  23.041  25.688  1.00  0.00    -0.000 A 
ATOM     89  C   UNL A   1      34.155  21.120  24.638  1.00  0.00     0.042 A 
ATOM     90  C   UNL A   1      31.844  22.321  25.724  1.00  0.00     0.011 A 
ATOM     91  C   UNL A   1      32.940  20.436  24.673  1.00  0.00     0.020 A 
ATOM     92  C   UNL A   1      31.794  21.026  25.194  1.00  0.00     0.016 A 
ATOM     93  Br  UNL A   1      32.848  18.685  23.957  1.00  0.00    -0.051 Br
ENDBRANCH  83  84
ENDBRANCH  82  83
ENDBRANCH  75  77
ENDBRANCH  74  75
ENDBRANCH  73  74
ENDBRANCH   1  73
TORSDOF 16
ENDMDL
MODEL 3
REMARK VINA RESULT:     -11.6      2.569      9.664
REMARK SMILES O=C(OCCOC(=O)c1ccc(Cn2ccc3ccc(Br)cc32)nc1)c1ccc(-c2c3nc(c(-c4c(F)cc(S(=O)(=O)[O-])cc4F)c4ccc([nH]4)c(-c4c(F)cc(S(=O)(=O)[O-])cc4F)c4nc(c(-c5c(F)cc(S(=O)(=O)[O-])cc5F)c5ccc2[nH]5)C=C4)C=C3)cc1
REMARK SMILES IDX 4 1 3 2 2 3 1 4 26 5 27 6 91 7 28 8 90 9 29 10 30 11 31 12
REMARK SMILES IDX 84 13 32 14 89 15 83 16 85 17 33 18 88 19 82 20 81 21 34 23
REMARK SMILES IDX 68 24 47 25 67 26 48 27 51 28 66 29 86 30 49 31 50 32 65 34
REMARK SMILES IDX 87 35 52 36 35 37 36 38 45 39 37 40 38 41 44 42 46 43 39 44
REMARK SMILES IDX 40 45 41 46 42 47 43 48 69 49 70 50 79 51 71 52 72 53 78 54
REMARK SMILES IDX 80 55 73 56 74 57 75 58 76 59 77 60 53 61 54 62 63 63 55 64
REMARK SMILES IDX 56 65 62 66 64 67 57 68 58 69 59 70 60 71 61 72 5 73 6 74
REMARK SMILES IDX 7 75 8 76 9 77 10 78 25 79 11 80 24 81 12 82 13 83 14 84
REMARK SMILES IDX 15 85 23 86 16 87 17 88 22 89 18 90 20 91 19 92 21 93
REMARK H PARENT 85 22 51 33
REMARK Flexibility Score: inf
ROOT
ATOM      1  C   UNL A   1      32.464  31.212  26.869  1.00  0.00     0.275 C 
ENDROOT
BRANCH   1   2
ATOM      2  O   UNL A   1      33.825  30.931  27.290  1.00  0.00    -0.458 OA
BRANCH   2   3
ATOM      3  C   UNL A   1      34.699  31.799  27.881  1.00  0.00     0.338 C 
ATOM      4  O   UNL A   1      34.690  32.999  27.638  1.00  0.00    -0.246 OA
BRANCH   3   5
ATOM      5  C   UNL A   1      35.804  31.196  28.646  1.00  0.00     0.060 A 
ATOM      6  C   UNL A   1      36.866  32.042  28.918  1.00  0.00     0.016 A 
ATOM      7  C   UNL A   1      35.935  29.811  28.778  1.00  0.00     0.016 A 
ATOM      8  C   UNL A   1      38.128  31.483  28.937  1.00  0.00     0.010 A 
ATOM      9  C   UNL A   1      37.209  29.250  28.813  1.00  0.00     0.010 A 
ATOM     10  C   UNL A   1      38.316  30.092  28.769  1.00  0.00    -0.014 A 
BRANCH  10  11
ATOM     11  C   UNL A   1      39.703  29.609  28.883  1.00  0.00     0.031 A 
ATOM     12  C   UNL A   1      40.090  29.634  30.320  1.00  0.00     0.074 A 
ATOM     13  C   UNL A   1      40.524  29.155  27.906  1.00  0.00     0.049 A 
ATOM     14  N   UNL A   1      40.986  30.381  30.878  1.00  0.00    -0.248 NA
ATOM     15  C   UNL A   1      39.141  29.012  31.272  1.00  0.00     0.031 C 
ATOM     16  C   UNL A   1      40.212  28.946  26.491  1.00  0.00     0.029 A 
ATOM     17  N   UNL A   1      41.817  28.698  27.983  1.00  0.00    -0.354 N 
ATOM     18  C   UNL A   1      40.859  30.118  32.236  1.00  0.00     0.074 A 
ATOM     19  C   UNL A   1      39.575  29.503  32.430  1.00  0.00     0.031 C 
ATOM     20  C   UNL A   1      41.172  28.183  25.919  1.00  0.00     0.029 A 
ATOM     21  C   UNL A   1      42.223  27.925  26.888  1.00  0.00     0.049 A 
ATOM     22  H   UNL A   1      42.409  28.897  28.744  1.00  0.00     0.167 HD
ATOM     23  C   UNL A   1      41.954  30.074  33.034  1.00  0.00     0.037 A 
ATOM     24  C   UNL A   1      43.300  27.091  26.811  1.00  0.00     0.037 A 
ATOM     25  C   UNL A   1      43.032  30.849  32.484  1.00  0.00     0.049 A 
ATOM     26  C   UNL A   1      44.238  27.504  27.879  1.00  0.00     0.074 A 
ATOM     27  C   UNL A   1      43.245  32.185  32.213  1.00  0.00     0.029 A 
ATOM     28  N   UNL A   1      43.958  30.141  31.764  1.00  0.00    -0.354 N 
ATOM     29  N   UNL A   1      44.913  28.619  27.869  1.00  0.00    -0.248 NA
ATOM     30  C   UNL A   1      44.146  26.840  29.170  1.00  0.00     0.031 C 
ATOM     31  C   UNL A   1      44.105  32.216  31.078  1.00  0.00     0.029 A 
ATOM     32  C   UNL A   1      44.427  30.905  30.730  1.00  0.00     0.049 A 
ATOM     33  H   UNL A   1      44.243  29.220  31.962  1.00  0.00     0.167 HD
ATOM     34  C   UNL A   1      44.947  29.015  29.194  1.00  0.00     0.074 A 
ATOM     35  C   UNL A   1      44.582  27.825  29.957  1.00  0.00     0.031 C 
ATOM     36  C   UNL A   1      44.980  30.338  29.516  1.00  0.00     0.037 A 
BRANCH  23  37
ATOM     37  C   UNL A   1      42.162  28.930  34.000  1.00  0.00     0.058 A 
ATOM     38  C   UNL A   1      42.305  27.622  33.509  1.00  0.00     0.135 A 
ATOM     39  C   UNL A   1      41.962  29.035  35.400  1.00  0.00     0.135 A 
ATOM     40  F   UNL A   1      42.438  27.402  32.192  1.00  0.00    -0.206 F 
ATOM     41  C   UNL A   1      42.242  26.505  34.345  1.00  0.00     0.059 A 
ATOM     42  C   UNL A   1      41.966  27.948  36.256  1.00  0.00     0.059 A 
ATOM     43  F   UNL A   1      41.647  30.185  36.004  1.00  0.00    -0.206 F 
ATOM     44  C   UNL A   1      42.077  26.682  35.718  1.00  0.00     0.060 A 
BRANCH  44  45
ATOM     45  S   UNL A   1      41.954  25.252  36.801  1.00  0.00     0.124 S 
ATOM     46  O   UNL A   1      43.337  25.098  37.236  1.00  0.00    -0.237 OA
ATOM     47  O   UNL A   1      41.010  25.724  37.808  1.00  0.00    -0.237 OA
ATOM     48  O   UNL A   1      41.448  24.205  35.919  1.00  0.00    -0.744 OA
ENDBRANCH  44  45
ENDBRANCH  23  37
BRANCH  24  49
ATOM     49  C   UNL A   1      43.458  25.768  26.122  1.00  0.00     0.058 A 
ATOM     50  C   UNL A   1      44.617  25.472  25.365  1.00  0.00     0.135 A 
ATOM     51  C   UNL A   1      42.650  24.661  26.442  1.00  0.00     0.135 A 
ATOM     52  F   UNL A   1      45.456  26.453  24.999  1.00  0.00    -0.206 F 
ATOM     53  C   UNL A   1      44.994  24.161  25.037  1.00  0.00     0.059 A 
ATOM     54  C   UNL A   1      43.000  23.348  26.116  1.00  0.00     0.059 A 
ATOM     55  F   UNL A   1      41.536  24.806  27.172  1.00  0.00    -0.206 F 
ATOM     56  C   UNL A   1      44.193  23.100  25.449  1.00  0.00     0.060 A 
BRANCH  56  57
ATOM     57  S   UNL A   1      44.775  21.398  25.231  1.00  0.00     0.124 S 
ATOM     58  O   UNL A   1      46.140  21.475  25.739  1.00  0.00    -0.237 OA
ATOM     59  O   UNL A   1      43.830  20.644  26.047  1.00  0.00    -0.237 OA
ATOM     60  O   UNL A   1      44.656  21.184  23.791  1.00  0.00    -0.744 OA
ENDBRANCH  56  57
ENDBRANCH  24  49
BRANCH  36  61
ATOM     61  C   UNL A   1      45.482  31.306  28.479  1.00  0.00     0.058 A 
ATOM     62  C   UNL A   1      44.717  31.859  27.438  1.00  0.00     0.135 A 
ATOM     63  C   UNL A   1      46.790  31.791  28.647  1.00  0.00     0.135 A 
ATOM     64  F   UNL A   1      43.434  31.509  27.260  1.00  0.00    -0.206 F 
ATOM     65  C   UNL A   1      45.243  32.838  26.589  1.00  0.00     0.059 A 
ATOM     66  C   UNL A   1      47.319  32.789  27.838  1.00  0.00     0.059 A 
ATOM     67  F   UNL A   1      47.553  31.330  29.652  1.00  0.00    -0.206 F 
ATOM     68  C   UNL A   1      46.542  33.304  26.805  1.00  0.00     0.060 A 
BRANCH  68  69
ATOM     69  S   UNL A   1      47.190  34.638  25.775  1.00  0.00     0.124 S 
ATOM     70  O   UNL A   1      48.492  34.115  25.377  1.00  0.00    -0.237 OA
ATOM     71  O   UNL A   1      46.190  34.728  24.715  1.00  0.00    -0.237 OA
ATOM     72  O   UNL A   1      47.228  35.782  26.682  1.00  0.00    -0.744 OA
ENDBRANCH  68  69
ENDBRANCH  36  61
ENDBRANCH  10  11
ENDBRANCH   3   5
ENDBRANCH   2   3
ENDBRANCH   1   2
BRANCH   1  73
ATOM     73  C   UNL A   1      31.641  30.049  26.284  1.00  0.00     0.275 C 
BRANCH  73  74
ATOM     74  O   UNL A   1      32.098  29.589  25.011  1.00  0.00    -0.458 OA
BRANCH  74  75
ATOM     75  C   UNL A   1      31.213  28.977  24.197  1.00  0.00     0.339 C 
ATOM     76  O   UNL A   1      30.167  29.438  23.769  1.00  0.00    -0.246 OA
BRANCH  75  77
ATOM     77  C   UNL A   1      31.848  27.748  23.705  1.00  0.00     0.078 A 
ATOM     78  C   UNL A   1      33.221  27.584  23.510  1.00  0.00     0.019 A 
ATOM     79  C   UNL A   1      31.003  26.739  23.284  1.00  0.00     0.127 A 
ATOM     80  C   UNL A   1      33.691  26.405  22.911  1.00  0.00     0.026 A 
ATOM     81  N   UNL A   1      31.433  25.618  22.662  1.00  0.00    -0.258 NA
ATOM     82  C   UNL A   1      32.770  25.437  22.505  1.00  0.00     0.060 A 
BRANCH  82  83
ATOM     83  C   UNL A   1      33.205  24.117  21.903  1.00  0.00     0.178 C 
BRANCH  83  84
ATOM     84  N   UNL A   1      33.069  23.037  22.881  1.00  0.00    -0.341 N 
ATOM     85  C   UNL A   1      32.063  22.101  22.874  1.00  0.00     0.087 A 
ATOM     86  C   UNL A   1      33.982  22.736  23.878  1.00  0.00     0.049 A 
ATOM     87  C   UNL A   1      32.418  21.100  23.750  1.00  0.00     0.028 A 
ATOM     88  C   UNL A   1      33.649  21.467  24.357  1.00  0.00    -0.000 A 
ATOM     89  C   UNL A   1      35.114  23.431  24.338  1.00  0.00     0.042 A 
ATOM     90  C   UNL A   1      34.522  20.832  25.264  1.00  0.00     0.011 A 
ATOM     91  C   UNL A   1      35.967  22.774  25.224  1.00  0.00     0.020 A 
ATOM     92  C   UNL A   1      35.690  21.487  25.674  1.00  0.00     0.016 A 
ATOM     93  Br  UNL A   1      37.555  23.639  25.788  1.00  0.00    -0.051 Br
ENDBRANCH  83  84
ENDBRANCH  82  83
ENDBRANCH  75  77
ENDBRANCH  74  75
ENDBRANCH  73  74
ENDBRANCH   1  73
TORSDOF 16
ENDMDL
