MODEL 1
REMARK VINA RESULT:     -12.3      0.000      0.000
REMARK SMILES CC1(C)[C@H](C(=O)N(Cc2ccccc2)Cc2ccccc2)CC[C@@]1(C)C(=O)OCCOC(=O)c1ccc(-c2c3nc(c(-c4c(F)cc(S(=O)(=O)[O-])cc4F)c4ccc([nH]4)c(-c4c(F)cc(S(=O)(=O)[O-])cc4F)c4nc(c(-c5c(F)cc(S(=O)(=O)[O-])cc5F)c5ccc2[nH]5)C=C4)C=C3)cc1
REMARK SMILES IDX 29 1 28 2 26 3 27 4 24 5 1 6 2 7 3 8 4 9 22 10 23 11 25 12
REMARK SMILES IDX 5 13 6 14 7 15 8 16 9 17 10 18 14 19 11 20 13 21 12 22 15 23
REMARK SMILES IDX 16 24 17 25 21 26 18 27 20 28 19 29 30 30 31 31 32 32 33 33
REMARK SMILES IDX 34 34 35 35 99 36 36 37 98 38 37 39 38 40 39 41 92 42 40 43
REMARK SMILES IDX 97 44 91 45 93 46 41 47 96 48 90 49 89 50 42 52 76 53 55 54
REMARK SMILES IDX 75 55 56 56 59 57 74 58 94 59 57 60 58 61 73 63 95 64 60 65
REMARK SMILES IDX 43 66 44 67 53 68 45 69 46 70 52 71 54 72 47 73 48 74 49 75
REMARK SMILES IDX 50 76 51 77 77 78 78 79 87 80 79 81 80 82 86 83 88 84 81 85
REMARK SMILES IDX 82 86 83 87 84 88 85 89 61 90 62 91 71 92 63 93 64 94 70 95
REMARK SMILES IDX 72 96 65 97 66 98 67 99 68 100 69 101
REMARK H PARENT 93 51 59 62
REMARK Flexibility Score: inf
ROOT
ATOM      1  C   UNL A   1      33.492  29.099  25.529  1.00  0.00     0.274 C 
ENDROOT
BRANCH   1   2
ATOM      2  O   UNL A   1      32.448  28.200  25.113  1.00  0.00    -0.462 OA
BRANCH   2   3
ATOM      3  C   UNL A   1      32.467  26.943  25.641  1.00  0.00     0.312 C 
ATOM      4  O   UNL A   1      33.251  26.566  26.501  1.00  0.00    -0.252 OA
BRANCH   3   5
ATOM      5  C   UNL A   1      31.420  26.044  24.955  1.00  0.00     0.071 C 
ATOM      6  C   UNL A   1      33.594  25.278  23.674  1.00  0.00     0.013 C 
ATOM      7  C   UNL A   1      32.110  24.973  24.013  1.00  0.00    -0.008 C 
ATOM      8  C   UNL A   1      31.409  24.898  22.656  1.00  0.00     0.013 C 
ATOM      9  C   UNL A   1      32.063  23.663  24.849  1.00  0.00     0.085 C 
ATOM     10  C   UNL A   1      30.943  23.754  25.865  1.00  0.00     0.015 C 
ATOM     11  C   UNL A   1      30.640  25.234  26.037  1.00  0.00     0.020 C 
ATOM     12  C   UNL A   1      30.388  26.949  24.239  1.00  0.00     0.024 C 
BRANCH   9  13
ATOM     13  C   UNL A   1      32.272  22.327  24.118  1.00  0.00     0.226 C 
ATOM     14  O   UNL A   1      31.779  22.268  22.979  1.00  0.00    -0.275 OA
ATOM     15  N   UNL A   1      32.888  21.198  24.663  1.00  0.00    -0.334 N 
BRANCH  15  16
ATOM     16  C   UNL A   1      33.812  21.159  25.822  1.00  0.00     0.155 C 
BRANCH  16  17
ATOM     17  C   UNL A   1      35.171  21.841  25.718  1.00  0.00    -0.029 A 
ATOM     18  C   UNL A   1      36.287  21.100  25.277  1.00  0.00     0.005 A 
ATOM     19  C   UNL A   1      35.413  23.153  26.141  1.00  0.00     0.005 A 
ATOM     20  C   UNL A   1      37.550  21.679  25.134  1.00  0.00     0.000 A 
ATOM     21  C   UNL A   1      36.683  23.733  26.022  1.00  0.00     0.000 A 
ATOM     22  C   UNL A   1      37.745  23.005  25.495  1.00  0.00     0.000 A 
ENDBRANCH  16  17
ENDBRANCH  15  16
BRANCH  15  23
ATOM     23  C   UNL A   1      32.858  20.012  23.789  1.00  0.00     0.155 C 
BRANCH  23  24
ATOM     24  C   UNL A   1      33.237  18.693  24.445  1.00  0.00    -0.029 A 
ATOM     25  C   UNL A   1      32.360  17.965  25.261  1.00  0.00     0.005 A 
ATOM     26  C   UNL A   1      34.474  18.104  24.138  1.00  0.00     0.005 A 
ATOM     27  C   UNL A   1      32.710  16.723  25.792  1.00  0.00     0.000 A 
ATOM     28  C   UNL A   1      34.823  16.851  24.655  1.00  0.00     0.000 A 
ATOM     29  C   UNL A   1      33.944  16.164  25.488  1.00  0.00     0.000 A 
ENDBRANCH  23  24
ENDBRANCH  15  23
ENDBRANCH   9  13
ENDBRANCH   3   5
ENDBRANCH   2   3
ENDBRANCH   1   2
BRANCH   1  30
ATOM     30  C   UNL A   1      32.918  30.133  26.490  1.00  0.00     0.275 C 
BRANCH  30  31
ATOM     31  O   UNL A   1      33.434  29.886  27.808  1.00  0.00    -0.458 OA
BRANCH  31  32
ATOM     32  C   UNL A   1      34.384  30.757  28.219  1.00  0.00     0.338 C 
ATOM     33  O   UNL A   1      34.239  31.937  28.504  1.00  0.00    -0.246 OA
BRANCH  32  34
ATOM     34  C   UNL A   1      35.680  30.075  28.331  1.00  0.00     0.060 A 
ATOM     35  C   UNL A   1      36.101  29.603  29.572  1.00  0.00     0.016 A 
ATOM     36  C   UNL A   1      36.551  30.087  27.246  1.00  0.00     0.016 A 
ATOM     37  C   UNL A   1      37.443  29.285  29.769  1.00  0.00     0.010 A 
ATOM     38  C   UNL A   1      37.864  29.639  27.416  1.00  0.00     0.010 A 
ATOM     39  C   UNL A   1      38.342  29.286  28.691  1.00  0.00    -0.014 A 
BRANCH  39  40
ATOM     40  C   UNL A   1      39.782  28.960  28.888  1.00  0.00     0.031 A 
ATOM     41  C   UNL A   1      40.732  30.012  29.409  1.00  0.00     0.074 A 
ATOM     42  C   UNL A   1      40.252  27.732  28.593  1.00  0.00     0.049 A 
ATOM     43  N   UNL A   1      42.040  30.018  29.412  1.00  0.00    -0.248 NA
ATOM     44  C   UNL A   1      40.129  31.228  29.982  1.00  0.00     0.031 C 
ATOM     45  C   UNL A   1      39.448  26.603  28.119  1.00  0.00     0.029 A 
ATOM     46  N   UNL A   1      41.528  27.226  28.644  1.00  0.00    -0.354 N 
ATOM     47  C   UNL A   1      42.416  31.262  29.908  1.00  0.00     0.074 A 
ATOM     48  C   UNL A   1      41.197  31.980  30.213  1.00  0.00     0.031 C 
ATOM     49  C   UNL A   1      40.239  25.532  27.959  1.00  0.00     0.029 A 
ATOM     50  C   UNL A   1      41.619  25.920  28.222  1.00  0.00     0.049 A 
ATOM     51  H   UNL A   1      42.304  27.748  28.953  1.00  0.00     0.167 HD
ATOM     52  C   UNL A   1      43.665  31.761  30.083  1.00  0.00     0.037 A 
ATOM     53  C   UNL A   1      42.692  25.135  28.017  1.00  0.00     0.037 A 
ATOM     54  C   UNL A   1      44.872  31.011  29.846  1.00  0.00     0.049 A 
ATOM     55  C   UNL A   1      44.065  25.697  28.244  1.00  0.00     0.074 A 
ATOM     56  C   UNL A   1      46.186  31.420  29.994  1.00  0.00     0.029 A 
ATOM     57  N   UNL A   1      44.911  29.684  29.442  1.00  0.00    -0.354 N 
ATOM     58  N   UNL A   1      44.406  26.904  28.625  1.00  0.00    -0.248 NA
ATOM     59  C   UNL A   1      45.199  24.797  27.996  1.00  0.00     0.031 C 
ATOM     60  C   UNL A   1      47.020  30.345  29.666  1.00  0.00     0.029 A 
ATOM     61  C   UNL A   1      46.225  29.258  29.344  1.00  0.00     0.049 A 
ATOM     62  H   UNL A   1      44.121  29.129  29.252  1.00  0.00     0.167 HD
ATOM     63  C   UNL A   1      45.794  26.910  28.667  1.00  0.00     0.074 A 
ATOM     64  C   UNL A   1      46.228  25.579  28.293  1.00  0.00     0.031 C 
ATOM     65  C   UNL A   1      46.634  27.927  28.978  1.00  0.00     0.037 A 
BRANCH  52  66
ATOM     66  C   UNL A   1      43.792  33.194  30.517  1.00  0.00     0.058 A 
ATOM     67  C   UNL A   1      43.827  33.565  31.870  1.00  0.00     0.135 A 
ATOM     68  C   UNL A   1      43.918  34.212  29.557  1.00  0.00     0.135 A 
ATOM     69  F   UNL A   1      43.694  32.635  32.829  1.00  0.00    -0.206 F 
ATOM     70  C   UNL A   1      43.961  34.896  32.256  1.00  0.00     0.059 A 
ATOM     71  C   UNL A   1      44.074  35.547  29.920  1.00  0.00     0.059 A 
ATOM     72  F   UNL A   1      43.890  33.913  28.248  1.00  0.00    -0.206 F 
ATOM     73  C   UNL A   1      44.080  35.880  31.273  1.00  0.00     0.060 A 
BRANCH  73  74
ATOM     74  S   UNL A   1      44.258  37.604  31.783  1.00  0.00     0.124 S 
ATOM     75  O   UNL A   1      45.700  37.699  31.982  1.00  0.00    -0.237 OA
ATOM     76  O   UNL A   1      43.728  38.330  30.633  1.00  0.00    -0.237 OA
ATOM     77  O   UNL A   1      43.450  37.684  32.995  1.00  0.00    -0.744 OA
ENDBRANCH  73  74
ENDBRANCH  52  66
BRANCH  53  78
ATOM     78  C   UNL A   1      42.502  23.744  27.529  1.00  0.00     0.058 A 
ATOM     79  C   UNL A   1      42.462  23.461  26.157  1.00  0.00     0.135 A 
ATOM     80  C   UNL A   1      42.400  22.668  28.425  1.00  0.00     0.135 A 
ATOM     81  F   UNL A   1      42.548  24.458  25.264  1.00  0.00    -0.206 F 
ATOM     82  C   UNL A   1      42.323  22.159  25.687  1.00  0.00     0.059 A 
ATOM     83  C   UNL A   1      42.287  21.356  27.980  1.00  0.00     0.059 A 
ATOM     84  F   UNL A   1      42.450  22.887  29.748  1.00  0.00    -0.206 F 
ATOM     85  C   UNL A   1      42.241  21.113  26.607  1.00  0.00     0.060 A 
BRANCH  85  86
ATOM     86  S   UNL A   1      42.137  19.417  25.995  1.00  0.00     0.124 S 
ATOM     87  O   UNL A   1      42.651  18.664  27.133  1.00  0.00    -0.237 OA
ATOM     88  O   UNL A   1      40.710  19.270  25.725  1.00  0.00    -0.237 OA
ATOM     89  O   UNL A   1      42.990  19.439  24.811  1.00  0.00    -0.744 OA
ENDBRANCH  85  86
ENDBRANCH  53  78
BRANCH  65  90
ATOM     90  C   UNL A   1      48.103  27.622  28.961  1.00  0.00     0.058 A 
ATOM     91  C   UNL A   1      48.769  27.161  30.107  1.00  0.00     0.135 A 
ATOM     92  C   UNL A   1      48.846  27.775  27.781  1.00  0.00     0.135 A 
ATOM     93  F   UNL A   1      48.101  27.006  31.260  1.00  0.00    -0.206 F 
ATOM     94  C   UNL A   1      50.132  26.887  30.090  1.00  0.00     0.059 A 
ATOM     95  C   UNL A   1      50.206  27.489  27.736  1.00  0.00     0.059 A 
ATOM     96  F   UNL A   1      48.250  28.207  26.658  1.00  0.00    -0.206 F 
ATOM     97  C   UNL A   1      50.844  27.061  28.901  1.00  0.00     0.060 A 
BRANCH  97  98
ATOM     98  S   UNL A   1      52.610  26.694  28.882  1.00  0.00     0.124 S 
ATOM     99  O   UNL A   1      53.187  28.034  28.858  1.00  0.00    -0.237 OA
ATOM    100  O   UNL A   1      52.794  25.947  30.122  1.00  0.00    -0.237 OA
ATOM    101  O   UNL A   1      52.779  25.915  27.658  1.00  0.00    -0.744 OA
ENDBRANCH  97  98
ENDBRANCH  65  90
ENDBRANCH  39  40
ENDBRANCH  32  34
ENDBRANCH  31  32
ENDBRANCH  30  31
ENDBRANCH   1  30
TORSDOF 19
ENDMDL
MODEL 2
REMARK VINA RESULT:     -11.9      3.670     10.086
REMARK SMILES CC1(C)[C@H](C(=O)N(Cc2ccccc2)Cc2ccccc2)CC[C@@]1(C)C(=O)OCCOC(=O)c1ccc(-c2c3nc(c(-c4c(F)cc(S(=O)(=O)[O-])cc4F)c4ccc([nH]4)c(-c4c(F)cc(S(=O)(=O)[O-])cc4F)c4nc(c(-c5c(F)cc(S(=O)(=O)[O-])cc5F)c5ccc2[nH]5)C=C4)C=C3)cc1
REMARK SMILES IDX 29 1 28 2 26 3 27 4 24 5 1 6 2 7 3 8 4 9 22 10 23 11 25 12
REMARK SMILES IDX 5 13 6 14 7 15 8 16 9 17 10 18 14 19 11 20 13 21 12 22 15 23
REMARK SMILES IDX 16 24 17 25 21 26 18 27 20 28 19 29 30 30 31 31 32 32 33 33
REMARK SMILES IDX 34 34 35 35 99 36 36 37 98 38 37 39 38 40 39 41 92 42 40 43
REMARK SMILES IDX 97 44 91 45 93 46 41 47 96 48 90 49 89 50 42 52 76 53 55 54
REMARK SMILES IDX 75 55 56 56 59 57 74 58 94 59 57 60 58 61 73 63 95 64 60 65
REMARK SMILES IDX 43 66 44 67 53 68 45 69 46 70 52 71 54 72 47 73 48 74 49 75
REMARK SMILES IDX 50 76 51 77 77 78 78 79 87 80 79 81 80 82 86 83 88 84 81 85
REMARK SMILES IDX 82 86 83 87 84 88 85 89 61 90 62 91 71 92 63 93 64 94 70 95
REMARK SMILES IDX 72 96 65 97 66 98 67 99 68 100 69 101
REMARK H PARENT 93 51 59 62
REMARK Flexibility Score: inf
ROOT
ATOM      1  C   UNL A   1      36.246  21.273  25.523  1.00  0.00     0.274 C 
ENDROOT
BRANCH   1   2
ATOM      2  O   UNL A   1      35.484  21.527  24.328  1.00  0.00    -0.462 OA
BRANCH   2   3
ATOM      3  C   UNL A   1      34.213  21.035  24.288  1.00  0.00     0.312 C 
ATOM      4  O   UNL A   1      33.913  19.874  24.533  1.00  0.00    -0.252 OA
BRANCH   3   5
ATOM      5  C   UNL A   1      33.219  22.116  23.821  1.00  0.00     0.071 C 
ATOM      6  C   UNL A   1      32.755  22.157  26.417  1.00  0.00     0.013 C 
ATOM      7  C   UNL A   1      32.575  22.875  25.053  1.00  0.00    -0.008 C 
ATOM      8  C   UNL A   1      31.060  23.014  24.885  1.00  0.00     0.013 C 
ATOM      9  C   UNL A   1      33.353  24.219  25.105  1.00  0.00     0.085 C 
ATOM     10  C   UNL A   1      33.929  24.522  23.737  1.00  0.00     0.015 C 
ATOM     11  C   UNL A   1      33.978  23.197  22.991  1.00  0.00     0.020 C 
ATOM     12  C   UNL A   1      32.190  21.459  22.870  1.00  0.00     0.024 C 
BRANCH   9  13
ATOM     13  C   UNL A   1      32.746  25.381  25.909  1.00  0.00     0.226 C 
ATOM     14  O   UNL A   1      32.877  25.292  27.141  1.00  0.00    -0.275 OA
ATOM     15  N   UNL A   1      32.021  26.444  25.367  1.00  0.00    -0.334 N 
BRANCH  15  16
ATOM     16  C   UNL A   1      32.043  26.911  23.959  1.00  0.00     0.155 C 
BRANCH  16  17
ATOM     17  C   UNL A   1      30.863  27.708  23.417  1.00  0.00    -0.029 A 
ATOM     18  C   UNL A   1      31.089  28.971  22.831  1.00  0.00     0.005 A 
ATOM     19  C   UNL A   1      29.529  27.310  23.560  1.00  0.00     0.005 A 
ATOM     20  C   UNL A   1      30.051  29.733  22.290  1.00  0.00     0.000 A 
ATOM     21  C   UNL A   1      28.480  28.082  23.041  1.00  0.00     0.000 A 
ATOM     22  C   UNL A   1      28.743  29.279  22.385  1.00  0.00     0.000 A 
ENDBRANCH  16  17
ENDBRANCH  15  16
BRANCH  15  23
ATOM     23  C   UNL A   1      31.454  27.363  26.369  1.00  0.00     0.155 C 
BRANCH  23  24
ATOM     24  C   UNL A   1      32.260  28.623  26.649  1.00  0.00    -0.029 A 
ATOM     25  C   UNL A   1      31.727  29.913  26.526  1.00  0.00     0.005 A 
ATOM     26  C   UNL A   1      33.559  28.505  27.165  1.00  0.00     0.005 A 
ATOM     27  C   UNL A   1      32.468  31.049  26.856  1.00  0.00     0.000 A 
ATOM     28  C   UNL A   1      34.300  29.640  27.515  1.00  0.00     0.000 A 
ATOM     29  C   UNL A   1      33.757  30.913  27.353  1.00  0.00     0.000 A 
ENDBRANCH  23  24
ENDBRANCH  15  23
ENDBRANCH   9  13
ENDBRANCH   3   5
ENDBRANCH   2   3
ENDBRANCH   1   2
BRANCH   1  30
ATOM     30  C   UNL A   1      37.733  21.367  25.204  1.00  0.00     0.275 C 
BRANCH  30  31
ATOM     31  O   UNL A   1      38.163  22.728  25.369  1.00  0.00    -0.458 OA
BRANCH  31  32
ATOM     32  C   UNL A   1      39.353  22.877  25.995  1.00  0.00     0.338 C 
ATOM     33  O   UNL A   1      40.295  22.098  25.999  1.00  0.00    -0.246 OA
BRANCH  32  34
ATOM     34  C   UNL A   1      39.406  24.177  26.677  1.00  0.00     0.060 A 
ATOM     35  C   UNL A   1      40.205  25.192  26.156  1.00  0.00     0.016 A 
ATOM     36  C   UNL A   1      38.820  24.311  27.932  1.00  0.00     0.016 A 
ATOM     37  C   UNL A   1      40.545  26.280  26.957  1.00  0.00     0.010 A 
ATOM     38  C   UNL A   1      39.057  25.468  28.679  1.00  0.00     0.010 A 
ATOM     39  C   UNL A   1      39.967  26.440  28.226  1.00  0.00    -0.014 A 
BRANCH  39  40
ATOM     40  C   UNL A   1      40.330  27.592  29.098  1.00  0.00     0.031 A 
ATOM     41  C   UNL A   1      41.608  27.560  29.900  1.00  0.00     0.074 A 
ATOM     42  C   UNL A   1      39.517  28.664  29.190  1.00  0.00     0.049 A 
ATOM     43  N   UNL A   1      41.981  28.323  30.895  1.00  0.00    -0.248 NA
ATOM     44  C   UNL A   1      42.587  26.516  29.552  1.00  0.00     0.031 C 
ATOM     45  C   UNL A   1      38.270  28.854  28.445  1.00  0.00     0.029 A 
ATOM     46  N   UNL A   1      39.618  29.800  29.955  1.00  0.00    -0.354 N 
ATOM     47  C   UNL A   1      43.193  27.806  31.342  1.00  0.00     0.074 A 
ATOM     48  C   UNL A   1      43.502  26.671  30.498  1.00  0.00     0.031 C 
ATOM     49  C   UNL A   1      37.743  30.047  28.761  1.00  0.00     0.029 A 
ATOM     50  C   UNL A   1      38.558  30.663  29.800  1.00  0.00     0.049 A 
ATOM     51  H   UNL A   1      40.377  29.980  30.557  1.00  0.00     0.167 HD
ATOM     52  C   UNL A   1      43.968  28.234  32.369  1.00  0.00     0.037 A 
ATOM     53  C   UNL A   1      38.244  31.796  30.455  1.00  0.00     0.037 A 
ATOM     54  C   UNL A   1      43.687  29.408  33.155  1.00  0.00     0.049 A 
ATOM     55  C   UNL A   1      39.131  32.268  31.569  1.00  0.00     0.074 A 
ATOM     56  C   UNL A   1      44.408  29.930  34.215  1.00  0.00     0.029 A 
ATOM     57  N   UNL A   1      42.614  30.262  32.944  1.00  0.00    -0.354 N 
ATOM     58  N   UNL A   1      40.223  31.716  32.040  1.00  0.00    -0.248 NA
ATOM     59  C   UNL A   1      38.733  33.505  32.254  1.00  0.00     0.031 C 
ATOM     60  C   UNL A   1      43.764  31.092  34.654  1.00  0.00     0.029 A 
ATOM     61  C   UNL A   1      42.659  31.311  33.848  1.00  0.00     0.049 A 
ATOM     62  H   UNL A   1      41.923  30.139  32.254  1.00  0.00     0.167 HD
ATOM     63  C   UNL A   1      40.648  32.541  33.073  1.00  0.00     0.074 A 
ATOM     64  C   UNL A   1      39.706  33.640  33.145  1.00  0.00     0.031 C 
ATOM     65  C   UNL A   1      41.715  32.397  33.895  1.00  0.00     0.037 A 
BRANCH  52  66
ATOM     66  C   UNL A   1      45.173  27.410  32.727  1.00  0.00     0.058 A 
ATOM     67  C   UNL A   1      46.441  27.666  32.184  1.00  0.00     0.135 A 
ATOM     68  C   UNL A   1      45.061  26.367  33.661  1.00  0.00     0.135 A 
ATOM     69  F   UNL A   1      46.602  28.640  31.274  1.00  0.00    -0.206 F 
ATOM     70  C   UNL A   1      47.551  26.904  32.537  1.00  0.00     0.059 A 
ATOM     71  C   UNL A   1      46.161  25.605  34.045  1.00  0.00     0.059 A 
ATOM     72  F   UNL A   1      43.870  26.078  34.211  1.00  0.00    -0.206 F 
ATOM     73  C   UNL A   1      47.400  25.873  33.466  1.00  0.00     0.060 A 
BRANCH  73  74
ATOM     74  S   UNL A   1      48.846  24.891  33.922  1.00  0.00     0.124 S 
ATOM     75  O   UNL A   1      49.389  25.673  35.028  1.00  0.00    -0.237 OA
ATOM     76  O   UNL A   1      48.255  23.607  34.286  1.00  0.00    -0.237 OA
ATOM     77  O   UNL A   1      49.649  24.884  32.704  1.00  0.00    -0.744 OA
ENDBRANCH  73  74
ENDBRANCH  52  66
BRANCH  53  78
ATOM     78  C   UNL A   1      37.005  32.533  30.093  1.00  0.00     0.058 A 
ATOM     79  C   UNL A   1      35.800  32.291  30.768  1.00  0.00     0.135 A 
ATOM     80  C   UNL A   1      37.013  33.521  29.096  1.00  0.00     0.135 A 
ATOM     81  F   UNL A   1      35.743  31.351  31.723  1.00  0.00    -0.206 F 
ATOM     82  C   UNL A   1      34.643  33.002  30.466  1.00  0.00     0.059 A 
ATOM     83  C   UNL A   1      35.876  34.262  28.794  1.00  0.00     0.059 A 
ATOM     84  F   UNL A   1      38.146  33.799  28.434  1.00  0.00    -0.206 F 
ATOM     85  C   UNL A   1      34.692  33.988  29.480  1.00  0.00     0.060 A 
BRANCH  85  86
ATOM     86  S   UNL A   1      33.209  34.961  29.141  1.00  0.00     0.124 S 
ATOM     87  O   UNL A   1      33.784  36.227  28.703  1.00  0.00    -0.237 OA
ATOM     88  O   UNL A   1      32.546  34.169  28.110  1.00  0.00    -0.237 OA
ATOM     89  O   UNL A   1      32.528  34.987  30.432  1.00  0.00    -0.744 OA
ENDBRANCH  85  86
ENDBRANCH  53  78
BRANCH  65  90
ATOM     90  C   UNL A   1      41.937  33.476  34.914  1.00  0.00     0.058 A 
ATOM     91  C   UNL A   1      41.448  33.359  36.224  1.00  0.00     0.135 A 
ATOM     92  C   UNL A   1      42.662  34.630  34.580  1.00  0.00     0.135 A 
ATOM     93  F   UNL A   1      40.743  32.276  36.587  1.00  0.00    -0.206 F 
ATOM     94  C   UNL A   1      41.648  34.364  37.164  1.00  0.00     0.059 A 
ATOM     95  C   UNL A   1      42.890  35.639  35.508  1.00  0.00     0.059 A 
ATOM     96  F   UNL A   1      43.155  34.783  33.340  1.00  0.00    -0.206 F 
ATOM     97  C   UNL A   1      42.365  35.504  36.794  1.00  0.00     0.060 A 
BRANCH  97  98
ATOM     98  S   UNL A   1      42.630  36.802  38.020  1.00  0.00     0.124 S 
ATOM     99  O   UNL A   1      43.316  36.069  39.078  1.00  0.00    -0.237 OA
ATOM    100  O   UNL A   1      43.444  37.769  37.289  1.00  0.00    -0.237 OA
ATOM    101  O   UNL A   1      41.276  37.246  38.337  1.00  0.00    -0.744 OA
ENDBRANCH  97  98
ENDBRANCH  65  90
ENDBRANCH  39  40
ENDBRANCH  32  34
ENDBRANCH  31  32
ENDBRANCH  30  31
ENDBRANCH   1  30
TORSDOF 19
ENDMDL
MODEL 3
REMARK VINA RESULT:     -11.8      4.941     10.552
REMARK SMILES CC1(C)[C@H](C(=O)N(Cc2ccccc2)Cc2ccccc2)CC[C@@]1(C)C(=O)OCCOC(=O)c1ccc(-c2c3nc(c(-c4c(F)cc(S(=O)(=O)[O-])cc4F)c4ccc([nH]4)c(-c4c(F)cc(S(=O)(=O)[O-])cc4F)c4nc(c(-c5c(F)cc(S(=O)(=O)[O-])cc5F)c5ccc2[nH]5)C=C4)C=C3)cc1
REMARK SMILES IDX 29 1 28 2 26 3 27 4 24 5 1 6 2 7 3 8 4 9 22 10 23 11 25 12
REMARK SMILES IDX 5 13 6 14 7 15 8 16 9 17 10 18 14 19 11 20 13 21 12 22 15 23
REMARK SMILES IDX 16 24 17 25 21 26 18 27 20 28 19 29 30 30 31 31 32 32 33 33
REMARK SMILES IDX 34 34 35 35 99 36 36 37 98 38 37 39 38 40 39 41 92 42 40 43
REMARK SMILES IDX 97 44 91 45 93 46 41 47 96 48 90 49 89 50 42 52 76 53 55 54
REMARK SMILES IDX 75 55 56 56 59 57 74 58 94 59 57 60 58 61 73 63 95 64 60 65
REMARK SMILES IDX 43 66 44 67 53 68 45 69 46 70 52 71 54 72 47 73 48 74 49 75
REMARK SMILES IDX 50 76 51 77 77 78 78 79 87 80 79 81 80 82 86 83 88 84 81 85
REMARK SMILES IDX 82 86 83 87 84 88 85 89 61 90 62 91 71 92 63 93 64 94 70 95
REMARK SMILES IDX 72 96 65 97 66 98 67 99 68 100 69 101
REMARK H PARENT 93 51 59 62
REMARK Flexibility Score: inf
ROOT
ATOM      1  C   UNL A   1      38.823  21.142  26.018  1.00  0.00     0.274 C 
ENDROOT
BRANCH   1   2
ATOM      2  O   UNL A   1      37.917  21.907  25.202  1.00  0.00    -0.462 OA
BRANCH   2   3
ATOM      3  C   UNL A   1      36.589  21.615  25.310  1.00  0.00     0.312 C 
ATOM      4  O   UNL A   1      36.100  20.520  25.065  1.00  0.00    -0.252 OA
BRANCH   3   5
ATOM      5  C   UNL A   1      35.781  22.866  25.707  1.00  0.00     0.071 C 
ATOM      6  C   UNL A   1      35.155  22.706  23.150  1.00  0.00     0.013 C 
ATOM      7  C   UNL A   1      34.822  23.326  24.533  1.00  0.00    -0.008 C 
ATOM      8  C   UNL A   1      34.908  24.838  24.311  1.00  0.00     0.013 C 
ATOM      9  C   UNL A   1      33.425  22.808  24.975  1.00  0.00     0.085 C 
ATOM     10  C   UNL A   1      33.405  22.633  26.480  1.00  0.00     0.015 C 
ATOM     11  C   UNL A   1      34.857  22.527  26.917  1.00  0.00     0.020 C 
ATOM     12  C   UNL A   1      36.769  23.957  26.186  1.00  0.00     0.024 C 
BRANCH   9  13
ATOM     13  C   UNL A   1      32.180  23.405  24.298  1.00  0.00     0.226 C 
ATOM     14  O   UNL A   1      31.866  22.878  23.218  1.00  0.00    -0.275 OA
ATOM     15  N   UNL A   1      31.458  24.505  24.765  1.00  0.00    -0.334 N 
BRANCH  15  16
ATOM     16  C   UNL A   1      31.449  25.043  26.147  1.00  0.00     0.155 C 
BRANCH  16  17
ATOM     17  C   UNL A   1      31.988  26.443  26.409  1.00  0.00    -0.029 A 
ATOM     18  C   UNL A   1      33.359  26.708  26.208  1.00  0.00     0.005 A 
ATOM     19  C   UNL A   1      31.219  27.481  26.949  1.00  0.00     0.005 A 
ATOM     20  C   UNL A   1      33.904  27.979  26.403  1.00  0.00     0.000 A 
ATOM     21  C   UNL A   1      31.766  28.752  27.170  1.00  0.00     0.000 A 
ATOM     22  C   UNL A   1      33.100  29.008  26.874  1.00  0.00     0.000 A 
ENDBRANCH  16  17
ENDBRANCH  15  16
BRANCH  15  23
ATOM     23  C   UNL A   1      30.375  24.943  23.867  1.00  0.00     0.155 C 
BRANCH  23  24
ATOM     24  C   UNL A   1      30.442  26.389  23.399  1.00  0.00    -0.029 A 
ATOM     25  C   UNL A   1      29.376  27.288  23.539  1.00  0.00     0.005 A 
ATOM     26  C   UNL A   1      31.655  26.895  22.907  1.00  0.00     0.005 A 
ATOM     27  C   UNL A   1      29.488  28.627  23.164  1.00  0.00     0.000 A 
ATOM     28  C   UNL A   1      31.779  28.242  22.545  1.00  0.00     0.000 A 
ATOM     29  C   UNL A   1      30.693  29.106  22.667  1.00  0.00     0.000 A 
ENDBRANCH  23  24
ENDBRANCH  15  23
ENDBRANCH   9  13
ENDBRANCH   3   5
ENDBRANCH   2   3
ENDBRANCH   1   2
BRANCH   1  30
ATOM     30  C   UNL A   1      40.177  21.840  26.062  1.00  0.00     0.275 C 
BRANCH  30  31
ATOM     31  O   UNL A   1      40.034  23.095  26.746  1.00  0.00    -0.458 OA
BRANCH  31  32
ATOM     32  C   UNL A   1      41.061  23.958  26.570  1.00  0.00     0.338 C 
ATOM     33  O   UNL A   1      42.043  23.811  25.856  1.00  0.00    -0.246 OA
BRANCH  32  34
ATOM     34  C   UNL A   1      40.831  25.182  27.348  1.00  0.00     0.060 A 
ATOM     35  C   UNL A   1      41.749  26.227  27.269  1.00  0.00     0.016 A 
ATOM     36  C   UNL A   1      39.815  25.204  28.298  1.00  0.00     0.016 A 
ATOM     37  C   UNL A   1      41.744  27.223  28.243  1.00  0.00     0.010 A 
ATOM     38  C   UNL A   1      39.733  26.276  29.191  1.00  0.00     0.010 A 
ATOM     39  C   UNL A   1      40.729  27.269  29.211  1.00  0.00    -0.014 A 
BRANCH  39  40
ATOM     40  C   UNL A   1      40.718  28.321  30.266  1.00  0.00     0.031 A 
ATOM     41  C   UNL A   1      41.705  28.260  31.407  1.00  0.00     0.074 A 
ATOM     42  C   UNL A   1      39.821  29.327  30.220  1.00  0.00     0.049 A 
ATOM     43  N   UNL A   1      41.702  28.912  32.540  1.00  0.00    -0.248 NA
ATOM     44  C   UNL A   1      42.832  27.323  31.262  1.00  0.00     0.031 C 
ATOM     45  C   UNL A   1      38.832  29.539  29.160  1.00  0.00     0.029 A 
ATOM     46  N   UNL A   1      39.592  30.362  31.093  1.00  0.00    -0.354 N 
ATOM     47  C   UNL A   1      42.773  28.411  33.274  1.00  0.00     0.074 A 
ATOM     48  C   UNL A   1      43.415  27.410  32.449  1.00  0.00     0.031 C 
ATOM     49  C   UNL A   1      38.131  30.652  29.425  1.00  0.00     0.029 A 
ATOM     50  C   UNL A   1      38.550  31.177  30.718  1.00  0.00     0.049 A 
ATOM     51  H   UNL A   1      40.123  30.507  31.910  1.00  0.00     0.167 HD
ATOM     52  C   UNL A   1      43.173  28.749  34.524  1.00  0.00     0.037 A 
ATOM     53  C   UNL A   1      37.958  32.200  31.361  1.00  0.00     0.037 A 
ATOM     54  C   UNL A   1      42.572  29.799  35.307  1.00  0.00     0.049 A 
ATOM     55  C   UNL A   1      38.436  32.578  32.732  1.00  0.00     0.074 A 
ATOM     56  C   UNL A   1      42.904  30.223  36.582  1.00  0.00     0.029 A 
ATOM     57  N   UNL A   1      41.535  30.612  34.873  1.00  0.00    -0.354 N 
ATOM     58  N   UNL A   1      39.389  32.033  33.449  1.00  0.00    -0.248 NA
ATOM     59  C   UNL A   1      37.747  33.696  33.390  1.00  0.00     0.031 C 
ATOM     60  C   UNL A   1      42.057  31.284  36.925  1.00  0.00     0.029 A 
ATOM     61  C   UNL A   1      41.220  31.540  35.852  1.00  0.00     0.049 A 
ATOM     62  H   UNL A   1      41.088  30.538  34.000  1.00  0.00     0.167 HD
ATOM     63  C   UNL A   1      39.419  32.744  34.642  1.00  0.00     0.074 A 
ATOM     64  C   UNL A   1      38.402  33.771  34.541  1.00  0.00     0.031 C 
ATOM     65  C   UNL A   1      40.210  32.558  35.726  1.00  0.00     0.037 A 
BRANCH  52  66
ATOM     66  C   UNL A   1      44.292  27.955  35.140  1.00  0.00     0.058 A 
ATOM     67  C   UNL A   1      45.634  28.348  35.032  1.00  0.00     0.135 A 
ATOM     68  C   UNL A   1      44.007  26.797  35.883  1.00  0.00     0.135 A 
ATOM     69  F   UNL A   1      45.965  29.437  34.320  1.00  0.00    -0.206 F 
ATOM     70  C   UNL A   1      46.658  27.610  35.622  1.00  0.00     0.059 A 
ATOM     71  C   UNL A   1      45.011  26.055  36.498  1.00  0.00     0.059 A 
ATOM     72  F   UNL A   1      42.739  26.376  36.017  1.00  0.00    -0.206 F 
ATOM     73  C   UNL A   1      46.336  26.463  36.349  1.00  0.00     0.060 A 
BRANCH  73  74
ATOM     74  S   UNL A   1      47.669  25.513  37.114  1.00  0.00     0.124 S 
ATOM     75  O   UNL A   1      47.612  25.993  38.491  1.00  0.00    -0.237 OA
ATOM     76  O   UNL A   1      47.236  24.135  36.905  1.00  0.00    -0.237 OA
ATOM     77  O   UNL A   1      48.849  25.917  36.357  1.00  0.00    -0.744 OA
ENDBRANCH  73  74
ENDBRANCH  52  66
BRANCH  53  78
ATOM     78  C   UNL A   1      36.817  32.907  30.723  1.00  0.00     0.058 A 
ATOM     79  C   UNL A   1      37.034  33.902  29.760  1.00  0.00     0.135 A 
ATOM     80  C   UNL A   1      35.490  32.572  31.035  1.00  0.00     0.135 A 
ATOM     81  F   UNL A   1      38.285  34.261  29.437  1.00  0.00    -0.206 F 
ATOM     82  C   UNL A   1      35.974  34.545  29.128  1.00  0.00     0.059 A 
ATOM     83  C   UNL A   1      34.415  33.181  30.398  1.00  0.00     0.059 A 
ATOM     84  F   UNL A   1      35.232  31.614  31.939  1.00  0.00    -0.206 F 
ATOM     85  C   UNL A   1      34.668  34.173  29.451  1.00  0.00     0.060 A 
BRANCH  85  86
ATOM     86  S   UNL A   1      33.295  34.954  28.574  1.00  0.00     0.124 S 
ATOM     87  O   UNL A   1      32.505  35.482  29.680  1.00  0.00    -0.237 OA
ATOM     88  O   UNL A   1      33.977  35.945  27.747  1.00  0.00    -0.237 OA
ATOM     89  O   UNL A   1      32.697  33.844  27.840  1.00  0.00    -0.744 OA
ENDBRANCH  85  86
ENDBRANCH  53  78
BRANCH  65  90
ATOM     90  C   UNL A   1      40.027  33.511  36.870  1.00  0.00     0.058 A 
ATOM     91  C   UNL A   1      40.798  34.678  36.984  1.00  0.00     0.135 A 
ATOM     92  C   UNL A   1      39.056  33.263  37.852  1.00  0.00     0.135 A 
ATOM     93  F   UNL A   1      41.744  34.952  36.072  1.00  0.00    -0.206 F 
ATOM     94  C   UNL A   1      40.632  35.555  38.049  1.00  0.00     0.059 A 
ATOM     95  C   UNL A   1      38.859  34.136  38.917  1.00  0.00     0.059 A 
ATOM     96  F   UNL A   1      38.289  32.163  37.782  1.00  0.00    -0.206 F 
ATOM     97  C   UNL A   1      39.663  35.272  39.015  1.00  0.00     0.060 A 
BRANCH  97  98
ATOM     98  S   UNL A   1      39.444  36.419  40.391  1.00  0.00     0.124 S 
ATOM     99  O   UNL A   1      38.806  37.551  39.729  1.00  0.00    -0.237 OA
ATOM    100  O   UNL A   1      38.598  35.659  41.307  1.00  0.00    -0.237 OA
ATOM    101  O   UNL A   1      40.809  36.650  40.857  1.00  0.00    -0.744 OA
ENDBRANCH  97  98
ENDBRANCH  65  90
ENDBRANCH  39  40
ENDBRANCH  32  34
ENDBRANCH  31  32
ENDBRANCH  30  31
ENDBRANCH   1  30
TORSDOF 19
ENDMDL
