MODEL 1
REMARK VINA RESULT:     -11.6      0.000      0.000
REMARK SMILES Cc1c(Cl)cc2c(c1C)O[C@H](C(F)(F)F)C(C(=O)OCCOC(=O)c1ccc(-c3c4nc(c(-c5c(F)cc(S(=O)(=O)[O-])cc5F)c5ccc([nH]5)c(-c5c(F)cc(S(=O)(=O)[O-])cc5F)c5nc(c(-c6c(F)cc(S(=O)(=O)[O-])cc6F)c6ccc3[nH]6)C=C5)C=C4)cc1)=C2
REMARK SMILES IDX 21 1 20 2 19 3 17 4 18 5 16 6 1 7 2 8 3 9 8 10 4 11 5 12
REMARK SMILES IDX 7 13 9 14 6 15 10 16 91 17 11 18 12 19 13 20 14 21 15 22
REMARK SMILES IDX 22 23 23 24 24 25 25 26 26 27 90 28 27 29 89 30 28 31 29 32
REMARK SMILES IDX 30 33 83 34 31 35 88 36 82 37 84 38 32 39 87 40 81 41 80 42
REMARK SMILES IDX 33 44 67 45 46 46 66 47 47 48 50 49 65 50 85 51 48 52 49 53
REMARK SMILES IDX 64 55 86 56 51 57 34 58 35 59 44 60 36 61 37 62 43 63 45 64
REMARK SMILES IDX 38 65 39 66 40 67 41 68 42 69 68 70 69 71 78 72 70 73 71 74
REMARK SMILES IDX 77 75 79 76 72 77 73 78 74 79 75 80 76 81 52 82 53 83 62 84
REMARK SMILES IDX 54 85 55 86 61 87 63 88 56 89 57 90 58 91 59 92 60 93
REMARK H PARENT 84 43 50 54
REMARK Flexibility Score: inf
ROOT
ATOM      1  C   UNL A   1      33.921  28.619  25.767  1.00  0.00     0.275 C 
ENDROOT
BRANCH   1   2
ATOM      2  C   UNL A   1      32.488  28.341  25.309  1.00  0.00     0.275 C 
BRANCH   2   3
ATOM      3  O   UNL A   1      32.340  26.990  24.818  1.00  0.00    -0.459 OA
BRANCH   3   4
ATOM      4  C   UNL A   1      31.820  26.110  25.703  1.00  0.00     0.338 C 
ATOM      5  O   UNL A   1      30.853  26.294  26.427  1.00  0.00    -0.246 OA
BRANCH   4   6
ATOM      6  C   UNL A   1      32.575  24.843  25.693  1.00  0.00     0.087 C 
ATOM      7  C   UNL A   1      37.195  20.307  24.938  1.00  0.00     0.046 C 
ATOM      8  C   UNL A   1      36.317  21.482  25.288  1.00  0.00    -0.026 A 
ATOM      9  C   UNL A   1      36.872  22.686  25.763  1.00  0.00     0.045 A 
ATOM     10  C   UNL A   1      34.908  21.406  25.100  1.00  0.00    -0.004 A 
ATOM     11  Cl  UNL A   1      38.569  22.902  26.013  1.00  0.00    -0.084 Cl
ATOM     12  C   UNL A   1      36.061  23.785  26.034  1.00  0.00     0.032 A 
ATOM     13  C   UNL A   1      34.103  22.532  25.370  1.00  0.00     0.131 A 
ATOM     14  C   UNL A   1      34.227  20.158  24.597  1.00  0.00     0.049 C 
ATOM     15  C   UNL A   1      34.684  23.713  25.821  1.00  0.00     0.019 A 
ATOM     16  O   UNL A   1      32.749  22.408  25.180  1.00  0.00    -0.475 OA
ATOM     17  C   UNL A   1      33.871  24.893  26.012  1.00  0.00     0.027 C 
ATOM     18  C   UNL A   1      31.916  23.603  25.173  1.00  0.00     0.316 C 
BRANCH  18  19
ATOM     19  C   UNL A   1      31.361  23.814  23.755  1.00  0.00     0.430 C 
ATOM     20  F   UNL A   1      30.176  24.474  23.784  1.00  0.00    -0.167 F 
ATOM     21  F   UNL A   1      32.197  24.566  22.999  1.00  0.00    -0.167 F 
ATOM     22  F   UNL A   1      31.159  22.649  23.102  1.00  0.00    -0.167 F 
ENDBRANCH  18  19
ENDBRANCH   4   6
ENDBRANCH   3   4
ENDBRANCH   2   3
ENDBRANCH   1   2
BRANCH   1  23
ATOM     23  O   UNL A   1      33.999  28.673  27.203  1.00  0.00    -0.458 OA
BRANCH  23  24
ATOM     24  C   UNL A   1      34.310  29.888  27.707  1.00  0.00     0.338 C 
ATOM     25  O   UNL A   1      33.555  30.831  27.878  1.00  0.00    -0.246 OA
BRANCH  24  26
ATOM     26  C   UNL A   1      35.714  29.924  28.141  1.00  0.00     0.060 A 
ATOM     27  C   UNL A   1      36.679  30.242  27.197  1.00  0.00     0.016 A 
ATOM     28  C   UNL A   1      36.092  29.420  29.382  1.00  0.00     0.016 A 
ATOM     29  C   UNL A   1      38.003  29.874  27.407  1.00  0.00     0.010 A 
ATOM     30  C   UNL A   1      37.452  29.222  29.656  1.00  0.00     0.010 A 
ATOM     31  C   UNL A   1      38.423  29.388  28.651  1.00  0.00    -0.014 A 
BRANCH  31  32
ATOM     32  C   UNL A   1      39.860  29.050  28.884  1.00  0.00     0.031 A 
ATOM     33  C   UNL A   1      40.803  30.069  29.479  1.00  0.00     0.074 A 
ATOM     34  C   UNL A   1      40.324  27.817  28.583  1.00  0.00     0.049 A 
ATOM     35  N   UNL A   1      42.107  30.032  29.574  1.00  0.00    -0.248 NA
ATOM     36  C   UNL A   1      40.204  31.300  30.023  1.00  0.00     0.031 C 
ATOM     37  C   UNL A   1      39.519  26.710  28.054  1.00  0.00     0.029 A 
ATOM     38  N   UNL A   1      41.582  27.274  28.689  1.00  0.00    -0.354 N 
ATOM     39  C   UNL A   1      42.488  31.248  30.137  1.00  0.00     0.074 A 
ATOM     40  C   UNL A   1      41.276  32.010  30.345  1.00  0.00     0.031 C 
ATOM     41  C   UNL A   1      40.281  25.614  27.949  1.00  0.00     0.029 A 
ATOM     42  C   UNL A   1      41.655  25.964  28.274  1.00  0.00     0.049 A 
ATOM     43  H   UNL A   1      42.357  27.776  29.031  1.00  0.00     0.167 HD
ATOM     44  C   UNL A   1      43.732  31.683  30.453  1.00  0.00     0.037 A 
ATOM     45  C   UNL A   1      42.711  25.143  28.114  1.00  0.00     0.037 A 
ATOM     46  C   UNL A   1      44.925  30.890  30.289  1.00  0.00     0.049 A 
ATOM     47  C   UNL A   1      44.085  25.670  28.405  1.00  0.00     0.074 A 
ATOM     48  C   UNL A   1      46.235  31.237  30.577  1.00  0.00     0.029 A 
ATOM     49  N   UNL A   1      44.954  29.586  29.812  1.00  0.00    -0.354 N 
ATOM     50  N   UNL A   1      44.434  26.848  28.862  1.00  0.00    -0.248 NA
ATOM     51  C   UNL A   1      45.212  24.767  28.136  1.00  0.00     0.031 C 
ATOM     52  C   UNL A   1      47.059  30.162  30.231  1.00  0.00     0.029 A 
ATOM     53  C   UNL A   1      46.260  29.123  29.781  1.00  0.00     0.049 A 
ATOM     54  H   UNL A   1      44.164  29.068  29.538  1.00  0.00     0.167 HD
ATOM     55  C   UNL A   1      45.820  26.824  28.952  1.00  0.00     0.074 A 
ATOM     56  C   UNL A   1      46.244  25.508  28.517  1.00  0.00     0.031 C 
ATOM     57  C   UNL A   1      46.664  27.807  29.351  1.00  0.00     0.037 A 
BRANCH  44  58
ATOM     58  C   UNL A   1      43.882  33.084  30.988  1.00  0.00     0.058 A 
ATOM     59  C   UNL A   1      44.050  34.192  30.144  1.00  0.00     0.135 A 
ATOM     60  C   UNL A   1      43.793  33.327  32.369  1.00  0.00     0.135 A 
ATOM     61  F   UNL A   1      44.158  34.020  28.817  1.00  0.00    -0.206 F 
ATOM     62  C   UNL A   1      44.145  35.487  30.649  1.00  0.00     0.059 A 
ATOM     63  C   UNL A   1      43.856  34.616  32.895  1.00  0.00     0.059 A 
ATOM     64  F   UNL A   1      43.632  32.307  33.227  1.00  0.00    -0.206 F 
ATOM     65  C   UNL A   1      44.043  35.689  32.027  1.00  0.00     0.060 A 
BRANCH  65  66
ATOM     66  S   UNL A   1      44.155  37.376  32.661  1.00  0.00     0.124 S 
ATOM     67  O   UNL A   1      45.514  37.399  33.194  1.00  0.00    -0.237 OA
ATOM     68  O   UNL A   1      43.932  38.174  31.459  1.00  0.00    -0.237 OA
ATOM     69  O   UNL A   1      43.092  37.438  33.659  1.00  0.00    -0.744 OA
ENDBRANCH  65  66
ENDBRANCH  44  58
BRANCH  45  70
ATOM     70  C   UNL A   1      42.501  23.756  27.615  1.00  0.00     0.058 A 
ATOM     71  C   UNL A   1      42.432  23.487  26.241  1.00  0.00     0.135 A 
ATOM     72  C   UNL A   1      42.407  22.665  28.497  1.00  0.00     0.135 A 
ATOM     73  F   UNL A   1      42.504  24.494  25.357  1.00  0.00    -0.206 F 
ATOM     74  C   UNL A   1      42.279  22.191  25.757  1.00  0.00     0.059 A 
ATOM     75  C   UNL A   1      42.287  21.357  28.038  1.00  0.00     0.059 A 
ATOM     76  F   UNL A   1      42.477  22.863  29.823  1.00  0.00    -0.206 F 
ATOM     77  C   UNL A   1      42.217  21.131  26.665  1.00  0.00     0.060 A 
BRANCH  77  78
ATOM     78  S   UNL A   1      42.081  19.450  26.021  1.00  0.00     0.124 S 
ATOM     79  O   UNL A   1      42.951  19.511  24.852  1.00  0.00    -0.237 OA
ATOM     80  O   UNL A   1      42.571  18.654  27.142  1.00  0.00    -0.237 OA
ATOM     81  O   UNL A   1      40.655  19.311  25.740  1.00  0.00    -0.744 OA
ENDBRANCH  77  78
ENDBRANCH  45  70
BRANCH  57  82
ATOM     82  C   UNL A   1      48.132  27.489  29.370  1.00  0.00     0.058 A 
ATOM     83  C   UNL A   1      48.965  27.793  28.283  1.00  0.00     0.135 A 
ATOM     84  C   UNL A   1      48.725  26.936  30.518  1.00  0.00     0.135 A 
ATOM     85  F   UNL A   1      48.447  28.314  27.160  1.00  0.00    -0.206 F 
ATOM     86  C   UNL A   1      50.333  27.544  28.325  1.00  0.00     0.059 A 
ATOM     87  C   UNL A   1      50.094  26.706  30.593  1.00  0.00     0.059 A 
ATOM     88  F   UNL A   1      47.973  26.634  31.588  1.00  0.00    -0.206 F 
ATOM     89  C   UNL A   1      50.889  27.007  29.488  1.00  0.00     0.060 A 
BRANCH  89  90
ATOM     90  S   UNL A   1      52.673  26.733  29.542  1.00  0.00     0.124 S 
ATOM     91  O   UNL A   1      52.901  26.034  28.281  1.00  0.00    -0.237 OA
ATOM     92  O   UNL A   1      53.191  28.095  29.614  1.00  0.00    -0.237 OA
ATOM     93  O   UNL A   1      52.859  25.931  30.746  1.00  0.00    -0.744 OA
ENDBRANCH  89  90
ENDBRANCH  57  82
ENDBRANCH  31  32
ENDBRANCH  24  26
ENDBRANCH  23  24
ENDBRANCH   1  23
TORSDOF 15
ENDMDL
MODEL 2
REMARK VINA RESULT:     -11.5      5.457     10.957
REMARK SMILES Cc1c(Cl)cc2c(c1C)O[C@H](C(F)(F)F)C(C(=O)OCCOC(=O)c1ccc(-c3c4nc(c(-c5c(F)cc(S(=O)(=O)[O-])cc5F)c5ccc([nH]5)c(-c5c(F)cc(S(=O)(=O)[O-])cc5F)c5nc(c(-c6c(F)cc(S(=O)(=O)[O-])cc6F)c6ccc3[nH]6)C=C5)C=C4)cc1)=C2
REMARK SMILES IDX 21 1 20 2 19 3 17 4 18 5 16 6 1 7 2 8 3 9 8 10 4 11 5 12
REMARK SMILES IDX 7 13 9 14 6 15 10 16 91 17 11 18 12 19 13 20 14 21 15 22
REMARK SMILES IDX 22 23 23 24 24 25 25 26 26 27 90 28 27 29 89 30 28 31 29 32
REMARK SMILES IDX 30 33 83 34 31 35 88 36 82 37 84 38 32 39 87 40 81 41 80 42
REMARK SMILES IDX 33 44 67 45 46 46 66 47 47 48 50 49 65 50 85 51 48 52 49 53
REMARK SMILES IDX 64 55 86 56 51 57 34 58 35 59 44 60 36 61 37 62 43 63 45 64
REMARK SMILES IDX 38 65 39 66 40 67 41 68 42 69 68 70 69 71 78 72 70 73 71 74
REMARK SMILES IDX 77 75 79 76 72 77 73 78 74 79 75 80 76 81 52 82 53 83 62 84
REMARK SMILES IDX 54 85 55 86 61 87 63 88 56 89 57 90 58 91 59 92 60 93
REMARK H PARENT 84 43 50 54
REMARK Flexibility Score: inf
ROOT
ATOM      1  C   UNL A   1      33.607  33.540  28.315  1.00  0.00     0.275 C 
ENDROOT
BRANCH   1   2
ATOM      2  C   UNL A   1      34.150  34.787  29.015  1.00  0.00     0.275 C 
BRANCH   2   3
ATOM      3  O   UNL A   1      34.052  34.675  30.452  1.00  0.00    -0.459 OA
BRANCH   3   4
ATOM      4  C   UNL A   1      34.738  33.645  30.997  1.00  0.00     0.338 C 
ATOM      5  O   UNL A   1      34.403  32.470  30.997  1.00  0.00    -0.246 OA
BRANCH   4   6
ATOM      6  C   UNL A   1      35.994  34.113  31.611  1.00  0.00     0.087 C 
ATOM      7  C   UNL A   1      42.199  34.692  33.522  1.00  0.00     0.046 C 
ATOM      8  C   UNL A   1      40.873  34.578  32.815  1.00  0.00    -0.026 A 
ATOM      9  C   UNL A   1      40.801  34.157  31.472  1.00  0.00     0.045 A 
ATOM     10  C   UNL A   1      39.662  34.854  33.511  1.00  0.00    -0.004 A 
ATOM     11  Cl  UNL A   1      42.201  33.777  30.532  1.00  0.00    -0.084 Cl
ATOM     12  C   UNL A   1      39.570  34.003  30.840  1.00  0.00     0.032 A 
ATOM     13  C   UNL A   1      38.423  34.682  32.858  1.00  0.00     0.131 A 
ATOM     14  C   UNL A   1      39.643  35.310  34.948  1.00  0.00     0.049 C 
ATOM     15  C   UNL A   1      38.386  34.248  31.536  1.00  0.00     0.019 A 
ATOM     16  O   UNL A   1      37.284  34.967  33.568  1.00  0.00    -0.475 OA
ATOM     17  C   UNL A   1      37.116  33.987  30.896  1.00  0.00     0.027 C 
ATOM     18  C   UNL A   1      35.991  34.545  33.044  1.00  0.00     0.316 C 
BRANCH  18  19
ATOM     19  C   UNL A   1      35.416  33.453  33.960  1.00  0.00     0.430 C 
ATOM     20  F   UNL A   1      34.061  33.434  33.911  1.00  0.00    -0.167 F 
ATOM     21  F   UNL A   1      35.828  32.218  33.582  1.00  0.00    -0.167 F 
ATOM     22  F   UNL A   1      35.773  33.622  35.252  1.00  0.00    -0.167 F 
ENDBRANCH  18  19
ENDBRANCH   4   6
ENDBRANCH   3   4
ENDBRANCH   2   3
ENDBRANCH   1   2
BRANCH   1  23
ATOM     23  O   UNL A   1      34.650  32.865  27.587  1.00  0.00    -0.458 OA
BRANCH  23  24
ATOM     24  C   UNL A   1      34.585  31.516  27.626  1.00  0.00     0.338 C 
ATOM     25  O   UNL A   1      33.649  30.812  27.284  1.00  0.00    -0.246 OA
BRANCH  24  26
ATOM     26  C   UNL A   1      35.871  30.950  28.060  1.00  0.00     0.060 A 
ATOM     27  C   UNL A   1      35.862  29.704  28.669  1.00  0.00     0.016 A 
ATOM     28  C   UNL A   1      37.023  31.730  28.087  1.00  0.00     0.016 A 
ATOM     29  C   UNL A   1      36.926  29.317  29.475  1.00  0.00     0.010 A 
ATOM     30  C   UNL A   1      38.161  31.251  28.751  1.00  0.00     0.010 A 
ATOM     31  C   UNL A   1      38.110  30.065  29.506  1.00  0.00    -0.014 A 
BRANCH  31  32
ATOM     32  C   UNL A   1      39.270  29.610  30.331  1.00  0.00     0.031 A 
ATOM     33  C   UNL A   1      40.284  28.644  29.764  1.00  0.00     0.074 A 
ATOM     34  C   UNL A   1      39.432  30.077  31.589  1.00  0.00     0.049 A 
ATOM     35  N   UNL A   1      41.236  27.989  30.379  1.00  0.00    -0.248 NA
ATOM     36  C   UNL A   1      40.209  28.364  28.320  1.00  0.00     0.031 C 
ATOM     37  C   UNL A   1      38.564  31.056  32.251  1.00  0.00     0.029 A 
ATOM     38  N   UNL A   1      40.390  29.805  32.536  1.00  0.00    -0.354 N 
ATOM     39  C   UNL A   1      41.836  27.184  29.414  1.00  0.00     0.074 A 
ATOM     40  C   UNL A   1      41.128  27.419  28.175  1.00  0.00     0.031 C 
ATOM     41  C   UNL A   1      39.064  31.351  33.458  1.00  0.00     0.029 A 
ATOM     42  C   UNL A   1      40.210  30.492  33.716  1.00  0.00     0.049 A 
ATOM     43  H   UNL A   1      41.135  29.180  32.385  1.00  0.00     0.167 HD
ATOM     44  C   UNL A   1      42.882  26.334  29.551  1.00  0.00     0.037 A 
ATOM     45  C   UNL A   1      40.851  30.407  34.897  1.00  0.00     0.037 A 
ATOM     46  C   UNL A   1      43.612  26.151  30.782  1.00  0.00     0.049 A 
ATOM     47  C   UNL A   1      41.961  29.408  35.045  1.00  0.00     0.074 A 
ATOM     48  C   UNL A   1      44.687  25.313  31.028  1.00  0.00     0.029 A 
ATOM     49  N   UNL A   1      43.356  26.829  31.966  1.00  0.00    -0.354 N 
ATOM     50  N   UNL A   1      42.465  28.600  34.144  1.00  0.00    -0.248 NA
ATOM     51  C   UNL A   1      42.575  29.291  36.374  1.00  0.00     0.031 C 
ATOM     52  C   UNL A   1      45.049  25.450  32.371  1.00  0.00     0.029 A 
ATOM     53  C   UNL A   1      44.240  26.415  32.949  1.00  0.00     0.049 A 
ATOM     54  H   UNL A   1      42.651  27.505  32.088  1.00  0.00     0.167 HD
ATOM     55  C   UNL A   1      43.466  27.888  34.792  1.00  0.00     0.074 A 
ATOM     56  C   UNL A   1      43.508  28.374  36.156  1.00  0.00     0.031 C 
ATOM     57  C   UNL A   1      44.272  26.915  34.301  1.00  0.00     0.037 A 
BRANCH  44  58
ATOM     58  C   UNL A   1      43.296  25.515  28.356  1.00  0.00     0.058 A 
ATOM     59  C   UNL A   1      44.263  25.961  27.444  1.00  0.00     0.135 A 
ATOM     60  C   UNL A   1      42.757  24.232  28.156  1.00  0.00     0.135 A 
ATOM     61  F   UNL A   1      44.802  27.184  27.574  1.00  0.00    -0.206 F 
ATOM     62  C   UNL A   1      44.668  25.177  26.366  1.00  0.00     0.059 A 
ATOM     63  C   UNL A   1      43.168  23.417  27.103  1.00  0.00     0.059 A 
ATOM     64  F   UNL A   1      41.827  23.750  28.996  1.00  0.00    -0.206 F 
ATOM     65  C   UNL A   1      44.116  23.903  26.206  1.00  0.00     0.060 A 
BRANCH  65  66
ATOM     66  S   UNL A   1      44.663  22.896  24.811  1.00  0.00     0.124 S 
ATOM     67  O   UNL A   1      45.317  21.782  25.492  1.00  0.00    -0.237 OA
ATOM     68  O   UNL A   1      43.403  22.579  24.145  1.00  0.00    -0.237 OA
ATOM     69  O   UNL A   1      45.553  23.787  24.073  1.00  0.00    -0.744 OA
ENDBRANCH  65  66
ENDBRANCH  44  58
BRANCH  45  70
ATOM     70  C   UNL A   1      40.423  31.266  36.035  1.00  0.00     0.058 A 
ATOM     71  C   UNL A   1      41.242  32.303  36.503  1.00  0.00     0.135 A 
ATOM     72  C   UNL A   1      39.171  31.097  36.652  1.00  0.00     0.135 A 
ATOM     73  F   UNL A   1      42.452  32.499  35.957  1.00  0.00    -0.206 F 
ATOM     74  C   UNL A   1      40.839  33.142  37.537  1.00  0.00     0.059 A 
ATOM     75  C   UNL A   1      38.731  31.943  37.664  1.00  0.00     0.059 A 
ATOM     76  F   UNL A   1      38.342  30.126  36.237  1.00  0.00    -0.206 F 
ATOM     77  C   UNL A   1      39.576  32.960  38.105  1.00  0.00     0.060 A 
BRANCH  77  78
ATOM     78  S   UNL A   1      39.041  34.094  39.403  1.00  0.00     0.124 S 
ATOM     79  O   UNL A   1      38.903  35.343  38.664  1.00  0.00    -0.237 OA
ATOM     80  O   UNL A   1      37.797  33.477  39.854  1.00  0.00    -0.237 OA
ATOM     81  O   UNL A   1      40.138  34.048  40.365  1.00  0.00    -0.744 OA
ENDBRANCH  77  78
ENDBRANCH  45  70
BRANCH  57  82
ATOM     82  C   UNL A   1      45.295  26.330  35.235  1.00  0.00     0.058 A 
ATOM     83  C   UNL A   1      45.024  25.186  36.001  1.00  0.00     0.135 A 
ATOM     84  C   UNL A   1      46.584  26.883  35.313  1.00  0.00     0.135 A 
ATOM     85  F   UNL A   1      43.805  24.625  35.969  1.00  0.00    -0.206 F 
ATOM     86  C   UNL A   1      45.990  24.619  36.824  1.00  0.00     0.059 A 
ATOM     87  C   UNL A   1      47.574  26.316  36.106  1.00  0.00     0.059 A 
ATOM     88  F   UNL A   1      46.896  27.973  34.594  1.00  0.00    -0.206 F 
ATOM     89  C   UNL A   1      47.265  25.187  36.865  1.00  0.00     0.060 A 
BRANCH  89  90
ATOM     90  S   UNL A   1      48.520  24.411  37.904  1.00  0.00     0.124 S 
ATOM     91  O   UNL A   1      48.679  23.113  37.254  1.00  0.00    -0.237 OA
ATOM     92  O   UNL A   1      49.645  25.330  37.768  1.00  0.00    -0.237 OA
ATOM     93  O   UNL A   1      47.899  24.378  39.224  1.00  0.00    -0.744 OA
ENDBRANCH  89  90
ENDBRANCH  57  82
ENDBRANCH  31  32
ENDBRANCH  24  26
ENDBRANCH  23  24
ENDBRANCH   1  23
TORSDOF 15
ENDMDL
MODEL 3
REMARK VINA RESULT:     -11.5      4.647      9.412
REMARK SMILES Cc1c(Cl)cc2c(c1C)O[C@H](C(F)(F)F)C(C(=O)OCCOC(=O)c1ccc(-c3c4nc(c(-c5c(F)cc(S(=O)(=O)[O-])cc5F)c5ccc([nH]5)c(-c5c(F)cc(S(=O)(=O)[O-])cc5F)c5nc(c(-c6c(F)cc(S(=O)(=O)[O-])cc6F)c6ccc3[nH]6)C=C5)C=C4)cc1)=C2
REMARK SMILES IDX 21 1 20 2 19 3 17 4 18 5 16 6 1 7 2 8 3 9 8 10 4 11 5 12
REMARK SMILES IDX 7 13 9 14 6 15 10 16 91 17 11 18 12 19 13 20 14 21 15 22
REMARK SMILES IDX 22 23 23 24 24 25 25 26 26 27 90 28 27 29 89 30 28 31 29 32
REMARK SMILES IDX 30 33 83 34 31 35 88 36 82 37 84 38 32 39 87 40 81 41 80 42
REMARK SMILES IDX 33 44 67 45 46 46 66 47 47 48 50 49 65 50 85 51 48 52 49 53
REMARK SMILES IDX 64 55 86 56 51 57 34 58 35 59 44 60 36 61 37 62 43 63 45 64
REMARK SMILES IDX 38 65 39 66 40 67 41 68 42 69 68 70 69 71 78 72 70 73 71 74
REMARK SMILES IDX 77 75 79 76 72 77 73 78 74 79 75 80 76 81 52 82 53 83 62 84
REMARK SMILES IDX 54 85 55 86 61 87 63 88 56 89 57 90 58 91 59 92 60 93
REMARK H PARENT 84 43 50 54
REMARK Flexibility Score: inf
ROOT
ATOM      1  C   UNL A   1      40.769  20.373  26.332  1.00  0.00     0.275 C 
ENDROOT
BRANCH   1   2
ATOM      2  C   UNL A   1      42.161  20.070  26.891  1.00  0.00     0.275 C 
BRANCH   2   3
ATOM      3  O   UNL A   1      43.202  20.477  25.976  1.00  0.00    -0.459 OA
BRANCH   3   4
ATOM      4  C   UNL A   1      43.256  21.803  25.718  1.00  0.00     0.338 C 
ATOM      5  O   UNL A   1      42.494  22.435  25.000  1.00  0.00    -0.246 OA
BRANCH   4   6
ATOM      6  C   UNL A   1      44.378  22.436  26.435  1.00  0.00     0.087 C 
ATOM      7  C   UNL A   1      48.053  26.432  30.043  1.00  0.00     0.046 C 
ATOM      8  C   UNL A   1      47.053  25.471  29.451  1.00  0.00    -0.026 A 
ATOM      9  C   UNL A   1      45.790  25.282  30.045  1.00  0.00     0.045 A 
ATOM     10  C   UNL A   1      47.357  24.768  28.251  1.00  0.00    -0.004 A 
ATOM     11  Cl  UNL A   1      45.302  26.094  31.492  1.00  0.00    -0.084 Cl
ATOM     12  C   UNL A   1      44.851  24.433  29.465  1.00  0.00     0.032 A 
ATOM     13  C   UNL A   1      46.390  23.920  27.671  1.00  0.00     0.131 A 
ATOM     14  C   UNL A   1      48.683  24.908  27.547  1.00  0.00     0.049 C 
ATOM     15  C   UNL A   1      45.145  23.769  28.273  1.00  0.00     0.019 A 
ATOM     16  O   UNL A   1      46.731  23.259  26.518  1.00  0.00    -0.475 OA
ATOM     17  C   UNL A   1      44.123  22.970  27.633  1.00  0.00     0.027 C 
ATOM     18  C   UNL A   1      45.692  22.601  25.737  1.00  0.00     0.316 C 
BRANCH  18  19
ATOM     19  C   UNL A   1      45.530  23.344  24.401  1.00  0.00     0.430 C 
ATOM     20  F   UNL A   1      45.005  22.533  23.449  1.00  0.00    -0.167 F 
ATOM     21  F   UNL A   1      44.682  24.395  24.515  1.00  0.00    -0.167 F 
ATOM     22  F   UNL A   1      46.703  23.818  23.928  1.00  0.00    -0.167 F 
ENDBRANCH  18  19
ENDBRANCH   4   6
ENDBRANCH   3   4
ENDBRANCH   2   3
ENDBRANCH   1   2
BRANCH   1  23
ATOM     23  O   UNL A   1      40.050  21.266  27.202  1.00  0.00    -0.458 OA
BRANCH  23  24
ATOM     24  C   UNL A   1      39.404  22.272  26.571  1.00  0.00     0.338 C 
ATOM     25  O   UNL A   1      38.557  22.173  25.699  1.00  0.00    -0.246 OA
BRANCH  24  26
ATOM     26  C   UNL A   1      39.786  23.570  27.146  1.00  0.00     0.060 A 
ATOM     27  C   UNL A   1      39.445  24.718  26.447  1.00  0.00     0.016 A 
ATOM     28  C   UNL A   1      40.666  23.645  28.222  1.00  0.00     0.016 A 
ATOM     29  C   UNL A   1      40.130  25.905  26.684  1.00  0.00     0.010 A 
ATOM     30  C   UNL A   1      41.217  24.885  28.573  1.00  0.00     0.010 A 
ATOM     31  C   UNL A   1      41.004  26.022  27.772  1.00  0.00    -0.014 A 
BRANCH  31  32
ATOM     32  C   UNL A   1      41.691  27.319  28.052  1.00  0.00     0.031 A 
ATOM     33  C   UNL A   1      40.984  28.414  28.816  1.00  0.00     0.074 A 
ATOM     34  C   UNL A   1      42.963  27.515  27.640  1.00  0.00     0.049 A 
ATOM     35  N   UNL A   1      41.335  29.663  28.986  1.00  0.00    -0.248 NA
ATOM     36  C   UNL A   1      39.706  28.065  29.460  1.00  0.00     0.031 C 
ATOM     37  C   UNL A   1      43.793  26.529  26.939  1.00  0.00     0.029 A 
ATOM     38  N   UNL A   1      43.793  28.604  27.760  1.00  0.00    -0.354 N 
ATOM     39  C   UNL A   1      40.304  30.260  29.706  1.00  0.00     0.074 A 
ATOM     40  C   UNL A   1      39.303  29.239  29.926  1.00  0.00     0.031 C 
ATOM     41  C   UNL A   1      45.021  27.029  26.756  1.00  0.00     0.029 A 
ATOM     42  C   UNL A   1      45.038  28.413  27.203  1.00  0.00     0.049 A 
ATOM     43  H   UNL A   1      43.524  29.441  28.204  1.00  0.00     0.167 HD
ATOM     44  C   UNL A   1      40.206  31.538  30.146  1.00  0.00     0.037 A 
ATOM     45  C   UNL A   1      46.064  29.265  27.014  1.00  0.00     0.037 A 
ATOM     46  C   UNL A   1      41.237  32.530  29.965  1.00  0.00     0.049 A 
ATOM     47  C   UNL A   1      45.905  30.693  27.447  1.00  0.00     0.074 A 
ATOM     48  C   UNL A   1      41.237  33.854  30.371  1.00  0.00     0.029 A 
ATOM     49  N   UNL A   1      42.458  32.303  29.345  1.00  0.00    -0.354 N 
ATOM     50  N   UNL A   1      44.893  31.259  28.057  1.00  0.00    -0.248 NA
ATOM     51  C   UNL A   1      47.016  31.605  27.146  1.00  0.00     0.031 C 
ATOM     52  C   UNL A   1      42.436  34.439  29.954  1.00  0.00     0.029 A 
ATOM     53  C   UNL A   1      43.210  33.467  29.340  1.00  0.00     0.049 A 
ATOM     54  H   UNL A   1      42.747  31.442  28.965  1.00  0.00     0.167 HD
ATOM     55  C   UNL A   1      45.249  32.590  28.228  1.00  0.00     0.074 A 
ATOM     56  C   UNL A   1      46.579  32.741  27.672  1.00  0.00     0.031 C 
ATOM     57  C   UNL A   1      44.536  33.598  28.788  1.00  0.00     0.037 A 
BRANCH  44  58
ATOM     58  C   UNL A   1      38.938  31.955  30.846  1.00  0.00     0.058 A 
ATOM     59  C   UNL A   1      38.817  31.939  32.243  1.00  0.00     0.135 A 
ATOM     60  C   UNL A   1      37.846  32.439  30.104  1.00  0.00     0.135 A 
ATOM     61  F   UNL A   1      39.820  31.473  33.004  1.00  0.00    -0.206 F 
ATOM     62  C   UNL A   1      37.654  32.367  32.880  1.00  0.00     0.059 A 
ATOM     63  C   UNL A   1      36.685  32.901  30.721  1.00  0.00     0.059 A 
ATOM     64  F   UNL A   1      37.904  32.479  28.763  1.00  0.00    -0.206 F 
ATOM     65  C   UNL A   1      36.595  32.850  32.109  1.00  0.00     0.060 A 
BRANCH  65  66
ATOM     66  S   UNL A   1      35.101  33.414  32.954  1.00  0.00     0.124 S 
ATOM     67  O   UNL A   1      35.387  33.039  34.336  1.00  0.00    -0.237 OA
ATOM     68  O   UNL A   1      35.108  34.846  32.672  1.00  0.00    -0.237 OA
ATOM     69  O   UNL A   1      34.035  32.654  32.308  1.00  0.00    -0.744 OA
ENDBRANCH  65  66
ENDBRANCH  44  58
BRANCH  45  70
ATOM     70  C   UNL A   1      47.308  28.790  26.348  1.00  0.00     0.058 A 
ATOM     71  C   UNL A   1      48.508  28.671  27.063  1.00  0.00     0.135 A 
ATOM     72  C   UNL A   1      47.315  28.405  24.996  1.00  0.00     0.135 A 
ATOM     73  F   UNL A   1      48.558  29.037  28.354  1.00  0.00    -0.206 F 
ATOM     74  C   UNL A   1      49.668  28.188  26.466  1.00  0.00     0.059 A 
ATOM     75  C   UNL A   1      48.453  27.887  24.386  1.00  0.00     0.059 A 
ATOM     76  F   UNL A   1      46.191  28.487  24.267  1.00  0.00    -0.206 F 
ATOM     77  C   UNL A   1      49.628  27.789  25.129  1.00  0.00     0.060 A 
BRANCH  77  78
ATOM     78  S   UNL A   1      51.124  27.106  24.385  1.00  0.00     0.124 S 
ATOM     79  O   UNL A   1      52.077  28.191  24.590  1.00  0.00    -0.237 OA
ATOM     80  O   UNL A   1      51.341  25.904  25.185  1.00  0.00    -0.237 OA
ATOM     81  O   UNL A   1      50.732  26.864  22.999  1.00  0.00    -0.744 OA
ENDBRANCH  77  78
ENDBRANCH  45  70
BRANCH  57  82
ATOM     82  C   UNL A   1      45.189  34.949  28.860  1.00  0.00     0.058 A 
ATOM     83  C   UNL A   1      45.012  35.908  27.851  1.00  0.00     0.135 A 
ATOM     84  C   UNL A   1      45.947  35.312  29.986  1.00  0.00     0.135 A 
ATOM     85  F   UNL A   1      44.305  35.607  26.751  1.00  0.00    -0.206 F 
ATOM     86  C   UNL A   1      45.577  37.175  27.947  1.00  0.00     0.059 A 
ATOM     87  C   UNL A   1      46.497  36.582  30.116  1.00  0.00     0.059 A 
ATOM     88  F   UNL A   1      46.141  34.434  30.983  1.00  0.00    -0.206 F 
ATOM     89  C   UNL A   1      46.312  37.505  29.087  1.00  0.00     0.060 A 
BRANCH  89  90
ATOM     90  S   UNL A   1      47.000  39.169  29.215  1.00  0.00     0.124 S 
ATOM     91  O   UNL A   1      48.177  38.937  30.045  1.00  0.00    -0.237 OA
ATOM     92  O   UNL A   1      47.263  39.503  27.820  1.00  0.00    -0.237 OA
ATOM     93  O   UNL A   1      45.929  39.934  29.847  1.00  0.00    -0.744 OA
ENDBRANCH  89  90
ENDBRANCH  57  82
ENDBRANCH  31  32
ENDBRANCH  24  26
ENDBRANCH  23  24
ENDBRANCH   1  23
TORSDOF 15
ENDMDL
