MODEL 1
REMARK VINA RESULT:     -11.1      0.000      0.000
REMARK SMILES C[C@@](NC(=O)[C@H]1COc2ccccc21)(C(=O)OCCOC(=O)c1ccc(-c2c3nc(c(-c4c(F)cc(S(=O)(=O)[O-])cc4F)c4ccc([nH]4)c(-c4c(F)cc(S(=O)(=O)[O-])cc4F)c4nc(c(-c5c(F)cc(S(=O)(=O)[O-])cc5F)c5ccc2[nH]5)C=C4)C=C3)cc1)C(F)(F)F
REMARK SMILES IDX 19 1 18 2 17 3 15 4 16 5 2 6 1 7 3 8 4 9 5 11 6 12 7 13
REMARK SMILES IDX 14 14 8 15 9 16 13 17 10 18 12 19 11 20 89 21 90 22 91 23
REMARK SMILES IDX 92 24 20 25 21 26 22 27 23 28 24 29 88 30 25 31 87 32 26 33
REMARK SMILES IDX 27 34 28 35 81 36 29 37 86 38 80 39 82 40 30 41 85 42 79 43
REMARK SMILES IDX 78 44 31 46 65 47 44 48 64 49 45 50 48 51 63 52 83 53 46 54
REMARK SMILES IDX 47 55 62 57 84 58 49 59 32 60 33 61 42 62 34 63 35 64 41 65
REMARK SMILES IDX 43 66 36 67 37 68 38 69 39 70 40 71 66 72 67 73 76 74 68 75
REMARK SMILES IDX 69 76 75 77 77 78 70 79 71 80 72 81 73 82 74 83 50 84 51 85
REMARK SMILES IDX 60 86 52 87 53 88 59 89 61 90 54 91 55 92 56 93 57 94 58 95
REMARK H PARENT 3 10 82 45 48 56
REMARK Flexibility Score: inf
ROOT
ATOM      1  C   UNL A   1      32.638  29.096  26.926  1.00  0.00     0.275 C 
ENDROOT
BRANCH   1   2
ATOM      2  C   UNL A   1      32.688  29.229  25.401  1.00  0.00     0.274 C 
BRANCH   2   3
ATOM      3  O   UNL A   1      33.017  27.994  24.722  1.00  0.00    -0.460 OA
BRANCH   3   4
ATOM      4  C   UNL A   1      31.970  27.167  24.434  1.00  0.00     0.341 C 
ATOM      5  O   UNL A   1      30.818  27.569  24.312  1.00  0.00    -0.249 OA
BRANCH   4   6
ATOM      6  C   UNL A   1      32.336  25.686  24.554  1.00  0.00     0.231 C 
ATOM      7  C   UNL A   1      31.190  24.812  24.011  1.00  0.00     0.058 C 
BRANCH   6   8
ATOM      8  N   UNL A   1      33.589  25.303  23.804  1.00  0.00    -0.332 N 
ATOM      9  C   UNL A   1      34.074  24.055  23.505  1.00  0.00     0.232 C 
ATOM     10  H   UNL A   1      34.137  26.056  23.484  1.00  0.00     0.164 HD
ATOM     11  O   UNL A   1      34.456  23.871  22.349  1.00  0.00    -0.274 OA
BRANCH   9  12
ATOM     12  C   UNL A   1      34.328  23.060  24.623  1.00  0.00     0.150 C 
ATOM     13  C   UNL A   1      34.036  21.606  24.240  1.00  0.00     0.248 C 
ATOM     14  C   UNL A   1      35.765  22.953  24.997  1.00  0.00     0.010 A 
ATOM     15  O   UNL A   1      35.153  20.758  24.614  1.00  0.00    -0.492 OA
ATOM     16  C   UNL A   1      36.138  21.621  25.003  1.00  0.00     0.123 A 
ATOM     17  C   UNL A   1      36.648  23.942  25.404  1.00  0.00     0.008 A 
ATOM     18  C   UNL A   1      37.394  21.221  25.411  1.00  0.00     0.047 A 
ATOM     19  C   UNL A   1      37.927  23.559  25.815  1.00  0.00     0.001 A 
ATOM     20  C   UNL A   1      38.297  22.204  25.822  1.00  0.00     0.004 A 
ENDBRANCH   9  12
ENDBRANCH   6   8
BRANCH   6  21
ATOM     21  C   UNL A   1      32.470  25.381  26.060  1.00  0.00     0.422 C 
ATOM     22  F   UNL A   1      31.647  26.145  26.810  1.00  0.00    -0.168 F 
ATOM     23  F   UNL A   1      32.109  24.090  26.300  1.00  0.00    -0.168 F 
ATOM     24  F   UNL A   1      33.727  25.521  26.525  1.00  0.00    -0.168 F 
ENDBRANCH   6  21
ENDBRANCH   4   6
ENDBRANCH   3   4
ENDBRANCH   2   3
ENDBRANCH   1   2
BRANCH   1  25
ATOM     25  O   UNL A   1      33.947  28.959  27.506  1.00  0.00    -0.458 OA
BRANCH  25  26
ATOM     26  C   UNL A   1      34.497  30.112  27.953  1.00  0.00     0.338 C 
ATOM     27  O   UNL A   1      33.915  31.157  28.188  1.00  0.00    -0.246 OA
BRANCH  26  28
ATOM     28  C   UNL A   1      35.905  29.877  28.307  1.00  0.00     0.060 A 
ATOM     29  C   UNL A   1      36.845  30.025  27.289  1.00  0.00     0.016 A 
ATOM     30  C   UNL A   1      36.299  29.447  29.571  1.00  0.00     0.016 A 
ATOM     31  C   UNL A   1      38.181  29.734  27.504  1.00  0.00     0.010 A 
ATOM     32  C   UNL A   1      37.654  29.171  29.800  1.00  0.00     0.010 A 
ATOM     33  C   UNL A   1      38.598  29.310  28.764  1.00  0.00    -0.014 A 
BRANCH  33  34
ATOM     34  C   UNL A   1      40.025  28.987  28.969  1.00  0.00     0.031 A 
ATOM     35  C   UNL A   1      40.956  30.048  29.471  1.00  0.00     0.074 A 
ATOM     36  C   UNL A   1      40.462  27.733  28.746  1.00  0.00     0.049 A 
ATOM     37  N   UNL A   1      42.258  30.034  29.537  1.00  0.00    -0.248 NA
ATOM     38  C   UNL A   1      40.338  31.292  29.962  1.00  0.00     0.031 C 
ATOM     39  C   UNL A   1      39.619  26.601  28.347  1.00  0.00     0.029 A 
ATOM     40  N   UNL A   1      41.723  27.198  28.816  1.00  0.00    -0.354 N 
ATOM     41  C   UNL A   1      42.624  31.283  30.025  1.00  0.00     0.074 A 
ATOM     42  C   UNL A   1      41.404  32.023  30.262  1.00  0.00     0.031 C 
ATOM     43  C   UNL A   1      40.388  25.512  28.196  1.00  0.00     0.029 A 
ATOM     44  C   UNL A   1      41.781  25.884  28.414  1.00  0.00     0.049 A 
ATOM     45  H   UNL A   1      42.508  27.705  29.124  1.00  0.00     0.167 HD
ATOM     46  C   UNL A   1      43.871  31.761  30.235  1.00  0.00     0.037 A 
ATOM     47  C   UNL A   1      42.845  25.094  28.180  1.00  0.00     0.037 A 
ATOM     48  C   UNL A   1      45.067  30.986  30.034  1.00  0.00     0.049 A 
ATOM     49  C   UNL A   1      44.222  25.668  28.366  1.00  0.00     0.074 A 
ATOM     50  C   UNL A   1      46.382  31.361  30.238  1.00  0.00     0.029 A 
ATOM     51  N   UNL A   1      45.088  29.672  29.588  1.00  0.00    -0.354 N 
ATOM     52  N   UNL A   1      44.564  26.867  28.775  1.00  0.00    -0.248 NA
ATOM     53  C   UNL A   1      45.357  24.800  28.027  1.00  0.00     0.031 C 
ATOM     54  C   UNL A   1      47.202  30.286  29.881  1.00  0.00     0.029 A 
ATOM     55  C   UNL A   1      46.395  29.229  29.483  1.00  0.00     0.049 A 
ATOM     56  H   UNL A   1      44.291  29.134  29.377  1.00  0.00     0.167 HD
ATOM     57  C   UNL A   1      45.951  26.900  28.735  1.00  0.00     0.074 A 
ATOM     58  C   UNL A   1      46.388  25.592  28.289  1.00  0.00     0.031 C 
ATOM     59  C   UNL A   1      46.792  27.923  29.028  1.00  0.00     0.037 A 
BRANCH  46  60
ATOM     60  C   UNL A   1      44.014  33.193  30.654  1.00  0.00     0.058 A 
ATOM     61  C   UNL A   1      44.026  34.245  29.728  1.00  0.00     0.135 A 
ATOM     62  C   UNL A   1      44.083  33.518  32.019  1.00  0.00     0.135 A 
ATOM     63  F   UNL A   1      43.986  33.985  28.411  1.00  0.00    -0.206 F 
ATOM     64  C   UNL A   1      44.102  35.572  30.139  1.00  0.00     0.059 A 
ATOM     65  C   UNL A   1      44.143  34.837  32.454  1.00  0.00     0.059 A 
ATOM     66  F   UNL A   1      44.087  32.545  32.945  1.00  0.00    -0.206 F 
ATOM     67  C   UNL A   1      44.157  35.858  31.505  1.00  0.00     0.060 A 
BRANCH  67  68
ATOM     68  S   UNL A   1      44.218  37.586  32.029  1.00  0.00     0.124 S 
ATOM     69  O   UNL A   1      43.315  37.574  33.176  1.00  0.00    -0.237 OA
ATOM     70  O   UNL A   1      45.632  37.770  32.338  1.00  0.00    -0.237 OA
ATOM     71  O   UNL A   1      43.735  38.313  30.858  1.00  0.00    -0.744 OA
ENDBRANCH  67  68
ENDBRANCH  46  60
BRANCH  47  72
ATOM     72  C   UNL A   1      42.651  23.720  27.645  1.00  0.00     0.058 A 
ATOM     73  C   UNL A   1      42.575  23.477  26.267  1.00  0.00     0.135 A 
ATOM     74  C   UNL A   1      42.532  22.621  28.511  1.00  0.00     0.135 A 
ATOM     75  F   UNL A   1      42.670  24.496  25.399  1.00  0.00    -0.206 F 
ATOM     76  C   UNL A   1      42.375  22.194  25.765  1.00  0.00     0.059 A 
ATOM     77  C   UNL A   1      42.358  21.327  28.033  1.00  0.00     0.059 A 
ATOM     78  F   UNL A   1      42.607  22.799  29.839  1.00  0.00    -0.206 F 
ATOM     79  C   UNL A   1      42.265  21.125  26.657  1.00  0.00     0.060 A 
BRANCH  79  80
ATOM     80  S   UNL A   1      42.041  19.456  26.006  1.00  0.00     0.124 S 
ATOM     81  O   UNL A   1      42.897  19.486  24.826  1.00  0.00    -0.237 OA
ATOM     82  O   UNL A   1      42.505  18.623  27.111  1.00  0.00    -0.237 OA
ATOM     83  O   UNL A   1      40.606  19.392  25.745  1.00  0.00    -0.744 OA
ENDBRANCH  79  80
ENDBRANCH  47  72
BRANCH  59  84
ATOM     84  C   UNL A   1      48.259  27.664  28.864  1.00  0.00     0.058 A 
ATOM     85  C   UNL A   1      49.015  27.101  29.902  1.00  0.00     0.135 A 
ATOM     86  C   UNL A   1      48.900  27.929  27.645  1.00  0.00     0.135 A 
ATOM     87  F   UNL A   1      48.445  26.840  31.089  1.00  0.00    -0.206 F 
ATOM     88  C   UNL A   1      50.365  26.816  29.740  1.00  0.00     0.059 A 
ATOM     89  C   UNL A   1      50.244  27.634  27.453  1.00  0.00     0.059 A 
ATOM     90  F   UNL A   1      48.214  28.462  26.620  1.00  0.00    -0.206 F 
ATOM     91  C   UNL A   1      50.971  27.085  28.511  1.00  0.00     0.060 A 
BRANCH  91  92
ATOM     92  S   UNL A   1      52.713  26.669  28.294  1.00  0.00     0.124 S 
ATOM     93  O   UNL A   1      52.634  25.561  27.348  1.00  0.00    -0.237 OA
ATOM     94  O   UNL A   1      53.272  27.912  27.769  1.00  0.00    -0.237 OA
ATOM     95  O   UNL A   1      53.148  26.316  29.642  1.00  0.00    -0.744 OA
ENDBRANCH  91  92
ENDBRANCH  59  84
ENDBRANCH  33  34
ENDBRANCH  26  28
ENDBRANCH  25  26
ENDBRANCH   1  25
TORSDOF 17
ENDMDL
MODEL 2
REMARK VINA RESULT:     -11.0      1.431      2.307
REMARK SMILES C[C@@](NC(=O)[C@H]1COc2ccccc21)(C(=O)OCCOC(=O)c1ccc(-c2c3nc(c(-c4c(F)cc(S(=O)(=O)[O-])cc4F)c4ccc([nH]4)c(-c4c(F)cc(S(=O)(=O)[O-])cc4F)c4nc(c(-c5c(F)cc(S(=O)(=O)[O-])cc5F)c5ccc2[nH]5)C=C4)C=C3)cc1)C(F)(F)F
REMARK SMILES IDX 19 1 18 2 17 3 15 4 16 5 2 6 1 7 3 8 4 9 5 11 6 12 7 13
REMARK SMILES IDX 14 14 8 15 9 16 13 17 10 18 12 19 11 20 89 21 90 22 91 23
REMARK SMILES IDX 92 24 20 25 21 26 22 27 23 28 24 29 88 30 25 31 87 32 26 33
REMARK SMILES IDX 27 34 28 35 81 36 29 37 86 38 80 39 82 40 30 41 85 42 79 43
REMARK SMILES IDX 78 44 31 46 65 47 44 48 64 49 45 50 48 51 63 52 83 53 46 54
REMARK SMILES IDX 47 55 62 57 84 58 49 59 32 60 33 61 42 62 34 63 35 64 41 65
REMARK SMILES IDX 43 66 36 67 37 68 38 69 39 70 40 71 66 72 67 73 76 74 68 75
REMARK SMILES IDX 69 76 75 77 77 78 70 79 71 80 72 81 73 82 74 83 50 84 51 85
REMARK SMILES IDX 60 86 52 87 53 88 59 89 61 90 54 91 55 92 56 93 57 94 58 95
REMARK H PARENT 3 10 82 45 48 56
REMARK Flexibility Score: inf
ROOT
ATOM      1  C   UNL A   1      32.473  29.085  27.206  1.00  0.00     0.275 C 
ENDROOT
BRANCH   1   2
ATOM      2  C   UNL A   1      32.271  29.416  25.725  1.00  0.00     0.274 C 
BRANCH   2   3
ATOM      3  O   UNL A   1      32.888  28.463  24.829  1.00  0.00    -0.460 OA
BRANCH   3   4
ATOM      4  C   UNL A   1      32.099  27.434  24.405  1.00  0.00     0.341 C 
ATOM      5  O   UNL A   1      30.922  27.583  24.093  1.00  0.00    -0.249 OA
BRANCH   4   6
ATOM      6  C   UNL A   1      32.743  26.064  24.625  1.00  0.00     0.231 C 
ATOM      7  C   UNL A   1      33.985  26.201  25.527  1.00  0.00     0.058 C 
BRANCH   6   8
ATOM      8  N   UNL A   1      31.827  25.054  25.273  1.00  0.00    -0.332 N 
ATOM      9  C   UNL A   1      32.087  24.175  26.293  1.00  0.00     0.232 C 
ATOM     10  H   UNL A   1      30.911  25.020  24.910  1.00  0.00     0.164 HD
ATOM     11  O   UNL A   1      31.250  24.109  27.195  1.00  0.00    -0.274 OA
BRANCH   9  12
ATOM     12  C   UNL A   1      33.234  23.189  26.162  1.00  0.00     0.150 C 
ATOM     13  C   UNL A   1      33.608  22.491  27.473  1.00  0.00     0.248 C 
ATOM     14  C   UNL A   1      32.897  22.008  25.319  1.00  0.00     0.010 A 
ATOM     15  O   UNL A   1      33.699  21.057  27.266  1.00  0.00    -0.492 OA
ATOM     16  C   UNL A   1      33.224  20.851  26.002  1.00  0.00     0.123 A 
ATOM     17  C   UNL A   1      32.438  21.959  24.011  1.00  0.00     0.008 A 
ATOM     18  C   UNL A   1      33.110  19.606  25.417  1.00  0.00     0.047 A 
ATOM     19  C   UNL A   1      32.309  20.707  23.402  1.00  0.00     0.001 A 
ATOM     20  C   UNL A   1      32.647  19.538  24.101  1.00  0.00     0.004 A 
ENDBRANCH   9  12
ENDBRANCH   6   8
BRANCH   6  21
ATOM     21  C   UNL A   1      33.231  25.574  23.246  1.00  0.00     0.422 C 
ATOM     22  F   UNL A   1      34.265  24.712  23.348  1.00  0.00    -0.168 F 
ATOM     23  F   UNL A   1      32.231  24.893  22.622  1.00  0.00    -0.168 F 
ATOM     24  F   UNL A   1      33.588  26.576  22.418  1.00  0.00    -0.168 F 
ENDBRANCH   6  21
ENDBRANCH   4   6
ENDBRANCH   3   4
ENDBRANCH   2   3
ENDBRANCH   1   2
BRANCH   1  25
ATOM     25  O   UNL A   1      33.863  29.001  27.564  1.00  0.00    -0.458 OA
BRANCH  25  26
ATOM     26  C   UNL A   1      34.419  30.165  27.972  1.00  0.00     0.338 C 
ATOM     27  O   UNL A   1      33.843  31.220  28.175  1.00  0.00    -0.246 OA
BRANCH  26  28
ATOM     28  C   UNL A   1      35.828  29.936  28.328  1.00  0.00     0.060 A 
ATOM     29  C   UNL A   1      36.764  30.041  27.301  1.00  0.00     0.016 A 
ATOM     30  C   UNL A   1      36.226  29.550  29.604  1.00  0.00     0.016 A 
ATOM     31  C   UNL A   1      38.099  29.751  27.520  1.00  0.00     0.010 A 
ATOM     32  C   UNL A   1      37.580  29.276  29.838  1.00  0.00     0.010 A 
ATOM     33  C   UNL A   1      38.520  29.372  28.793  1.00  0.00    -0.014 A 
BRANCH  33  34
ATOM     34  C   UNL A   1      39.946  29.048  29.003  1.00  0.00     0.031 A 
ATOM     35  C   UNL A   1      40.875  30.110  29.507  1.00  0.00     0.074 A 
ATOM     36  C   UNL A   1      40.384  27.794  28.784  1.00  0.00     0.049 A 
ATOM     37  N   UNL A   1      42.177  30.097  29.578  1.00  0.00    -0.248 NA
ATOM     38  C   UNL A   1      40.256  31.355  29.994  1.00  0.00     0.031 C 
ATOM     39  C   UNL A   1      39.542  26.662  28.383  1.00  0.00     0.029 A 
ATOM     40  N   UNL A   1      41.644  27.260  28.859  1.00  0.00    -0.354 N 
ATOM     41  C   UNL A   1      42.541  31.346  30.065  1.00  0.00     0.074 A 
ATOM     42  C   UNL A   1      41.321  32.086  30.297  1.00  0.00     0.031 C 
ATOM     43  C   UNL A   1      40.312  25.573  28.236  1.00  0.00     0.029 A 
ATOM     44  C   UNL A   1      41.704  25.945  28.457  1.00  0.00     0.049 A 
ATOM     45  H   UNL A   1      42.428  27.767  29.169  1.00  0.00     0.167 HD
ATOM     46  C   UNL A   1      43.788  31.824  30.279  1.00  0.00     0.037 A 
ATOM     47  C   UNL A   1      42.769  25.154  28.229  1.00  0.00     0.037 A 
ATOM     48  C   UNL A   1      44.984  31.049  30.084  1.00  0.00     0.049 A 
ATOM     49  C   UNL A   1      44.145  25.729  28.419  1.00  0.00     0.074 A 
ATOM     50  C   UNL A   1      46.299  31.424  30.291  1.00  0.00     0.029 A 
ATOM     51  N   UNL A   1      45.007  29.734  29.639  1.00  0.00    -0.354 N 
ATOM     52  N   UNL A   1      44.485  26.928  28.828  1.00  0.00    -0.248 NA
ATOM     53  C   UNL A   1      45.281  24.860  28.085  1.00  0.00     0.031 C 
ATOM     54  C   UNL A   1      47.120  30.348  29.938  1.00  0.00     0.029 A 
ATOM     55  C   UNL A   1      46.314  29.292  29.539  1.00  0.00     0.049 A 
ATOM     56  H   UNL A   1      44.211  29.196  29.425  1.00  0.00     0.167 HD
ATOM     57  C   UNL A   1      45.873  26.962  28.792  1.00  0.00     0.074 A 
ATOM     58  C   UNL A   1      46.311  25.653  28.349  1.00  0.00     0.031 C 
ATOM     59  C   UNL A   1      46.712  27.985  29.086  1.00  0.00     0.037 A 
BRANCH  46  60
ATOM     60  C   UNL A   1      43.930  33.257  30.697  1.00  0.00     0.058 A 
ATOM     61  C   UNL A   1      44.030  33.636  32.043  1.00  0.00     0.135 A 
ATOM     62  C   UNL A   1      44.023  34.263  29.721  1.00  0.00     0.135 A 
ATOM     63  F   UNL A   1      43.924  32.715  33.014  1.00  0.00    -0.206 F 
ATOM     64  C   UNL A   1      44.220  34.965  32.408  1.00  0.00     0.059 A 
ATOM     65  C   UNL A   1      44.228  35.595  30.063  1.00  0.00     0.059 A 
ATOM     66  F   UNL A   1      43.920  33.951  28.419  1.00  0.00    -0.206 F 
ATOM     67  C   UNL A   1      44.321  35.937  31.411  1.00  0.00     0.060 A 
BRANCH  67  68
ATOM     68  S   UNL A   1      44.602  37.654  31.896  1.00  0.00     0.124 S 
ATOM     69  O   UNL A   1      44.001  38.375  30.778  1.00  0.00    -0.237 OA
ATOM     70  O   UNL A   1      43.887  37.743  33.165  1.00  0.00    -0.237 OA
ATOM     71  O   UNL A   1      46.057  37.746  31.992  1.00  0.00    -0.744 OA
ENDBRANCH  67  68
ENDBRANCH  46  60
BRANCH  47  72
ATOM     72  C   UNL A   1      42.577  23.780  27.694  1.00  0.00     0.058 A 
ATOM     73  C   UNL A   1      42.450  23.542  26.319  1.00  0.00     0.135 A 
ATOM     74  C   UNL A   1      42.510  22.675  28.558  1.00  0.00     0.135 A 
ATOM     75  F   UNL A   1      42.494  24.566  25.454  1.00  0.00    -0.206 F 
ATOM     76  C   UNL A   1      42.251  22.258  25.819  1.00  0.00     0.059 A 
ATOM     77  C   UNL A   1      42.339  21.381  28.081  1.00  0.00     0.059 A 
ATOM     78  F   UNL A   1      42.634  22.849  29.884  1.00  0.00    -0.206 F 
ATOM     79  C   UNL A   1      42.195  21.184  26.709  1.00  0.00     0.060 A 
BRANCH  79  80
ATOM     80  S   UNL A   1      41.973  19.513  26.059  1.00  0.00     0.124 S 
ATOM     81  O   UNL A   1      40.541  19.496  25.785  1.00  0.00    -0.237 OA
ATOM     82  O   UNL A   1      42.847  19.512  24.891  1.00  0.00    -0.237 OA
ATOM     83  O   UNL A   1      42.416  18.667  27.163  1.00  0.00    -0.744 OA
ENDBRANCH  79  80
ENDBRANCH  47  72
BRANCH  59  84
ATOM     84  C   UNL A   1      48.180  27.726  28.928  1.00  0.00     0.058 A 
ATOM     85  C   UNL A   1      48.829  27.958  27.707  1.00  0.00     0.135 A 
ATOM     86  C   UNL A   1      48.952  27.297  30.018  1.00  0.00     0.135 A 
ATOM     87  F   UNL A   1      48.128  28.359  26.635  1.00  0.00    -0.206 F 
ATOM     88  C   UNL A   1      50.198  27.764  27.568  1.00  0.00     0.059 A 
ATOM     89  C   UNL A   1      50.325  27.115  29.907  1.00  0.00     0.059 A 
ATOM     90  F   UNL A   1      48.374  27.069  31.209  1.00  0.00    -0.206 F 
ATOM     91  C   UNL A   1      50.938  27.343  28.674  1.00  0.00     0.060 A 
BRANCH  91  92
ATOM     92  S   UNL A   1      52.722  27.138  28.497  1.00  0.00     0.124 S 
ATOM     93  O   UNL A   1      53.024  26.238  29.604  1.00  0.00    -0.237 OA
ATOM     94  O   UNL A   1      52.843  26.562  27.160  1.00  0.00    -0.237 OA
ATOM     95  O   UNL A   1      53.234  28.498  28.634  1.00  0.00    -0.744 OA
ENDBRANCH  91  92
ENDBRANCH  59  84
ENDBRANCH  33  34
ENDBRANCH  26  28
ENDBRANCH  25  26
ENDBRANCH   1  25
TORSDOF 17
ENDMDL
MODEL 3
REMARK VINA RESULT:     -10.9      5.438     10.793
REMARK SMILES C[C@@](NC(=O)[C@H]1COc2ccccc21)(C(=O)OCCOC(=O)c1ccc(-c2c3nc(c(-c4c(F)cc(S(=O)(=O)[O-])cc4F)c4ccc([nH]4)c(-c4c(F)cc(S(=O)(=O)[O-])cc4F)c4nc(c(-c5c(F)cc(S(=O)(=O)[O-])cc5F)c5ccc2[nH]5)C=C4)C=C3)cc1)C(F)(F)F
REMARK SMILES IDX 19 1 18 2 17 3 15 4 16 5 2 6 1 7 3 8 4 9 5 11 6 12 7 13
REMARK SMILES IDX 14 14 8 15 9 16 13 17 10 18 12 19 11 20 89 21 90 22 91 23
REMARK SMILES IDX 92 24 20 25 21 26 22 27 23 28 24 29 88 30 25 31 87 32 26 33
REMARK SMILES IDX 27 34 28 35 81 36 29 37 86 38 80 39 82 40 30 41 85 42 79 43
REMARK SMILES IDX 78 44 31 46 65 47 44 48 64 49 45 50 48 51 63 52 83 53 46 54
REMARK SMILES IDX 47 55 62 57 84 58 49 59 32 60 33 61 42 62 34 63 35 64 41 65
REMARK SMILES IDX 43 66 36 67 37 68 38 69 39 70 40 71 66 72 67 73 76 74 68 75
REMARK SMILES IDX 69 76 75 77 77 78 70 79 71 80 72 81 73 82 74 83 50 84 51 85
REMARK SMILES IDX 60 86 52 87 53 88 59 89 61 90 54 91 55 92 56 93 57 94 58 95
REMARK H PARENT 3 10 82 45 48 56
REMARK Flexibility Score: inf
ROOT
ATOM      1  C   UNL A   1      40.043  22.386  26.748  1.00  0.00     0.275 C 
ENDROOT
BRANCH   1   2
ATOM      2  C   UNL A   1      39.104  21.545  25.879  1.00  0.00     0.274 C 
BRANCH   2   3
ATOM      3  O   UNL A   1      37.751  22.055  25.826  1.00  0.00    -0.460 OA
BRANCH   3   4
ATOM      4  C   UNL A   1      36.808  21.213  25.313  1.00  0.00     0.341 C 
ATOM      5  O   UNL A   1      37.086  20.124  24.820  1.00  0.00    -0.249 OA
BRANCH   4   6
ATOM      6  C   UNL A   1      35.438  21.877  25.168  1.00  0.00     0.231 C 
ATOM      7  C   UNL A   1      34.369  20.818  24.837  1.00  0.00     0.058 C 
BRANCH   6   8
ATOM      8  N   UNL A   1      34.978  22.608  26.406  1.00  0.00    -0.332 N 
ATOM      9  C   UNL A   1      33.703  22.818  26.867  1.00  0.00     0.232 C 
ATOM     10  H   UNL A   1      35.696  22.990  26.962  1.00  0.00     0.164 HD
ATOM     11  O   UNL A   1      33.506  22.604  28.064  1.00  0.00    -0.274 OA
BRANCH   9  12
ATOM     12  C   UNL A   1      32.683  23.499  25.974  1.00  0.00     0.150 C 
ATOM     13  C   UNL A   1      31.229  23.219  26.363  1.00  0.00     0.248 C 
ATOM     14  C   UNL A   1      32.706  24.984  26.085  1.00  0.00     0.010 A 
ATOM     15  O   UNL A   1      30.483  24.462  26.434  1.00  0.00    -0.492 OA
ATOM     16  C   UNL A   1      31.422  25.446  26.307  1.00  0.00     0.123 A 
ATOM     17  C   UNL A   1      33.759  25.867  25.898  1.00  0.00     0.008 A 
ATOM     18  C   UNL A   1      31.133  26.795  26.353  1.00  0.00     0.047 A 
ATOM     19  C   UNL A   1      33.490  27.238  25.947  1.00  0.00     0.001 A 
ATOM     20  C   UNL A   1      32.183  27.699  26.169  1.00  0.00     0.004 A 
ENDBRANCH   9  12
ENDBRANCH   6   8
BRANCH   6  21
ATOM     21  C   UNL A   1      35.530  22.829  23.957  1.00  0.00     0.422 C 
ATOM     22  F   UNL A   1      36.522  22.481  23.109  1.00  0.00    -0.168 F 
ATOM     23  F   UNL A   1      34.377  22.765  23.236  1.00  0.00    -0.168 F 
ATOM     24  F   UNL A   1      35.696  24.120  24.303  1.00  0.00    -0.168 F 
ENDBRANCH   6  21
ENDBRANCH   4   6
ENDBRANCH   3   4
ENDBRANCH   2   3
ENDBRANCH   1   2
BRANCH   1  25
ATOM     25  O   UNL A   1      39.804  23.797  26.605  1.00  0.00    -0.458 OA
BRANCH  25  26
ATOM     26  C   UNL A   1      40.912  24.572  26.655  1.00  0.00     0.338 C 
ATOM     27  O   UNL A   1      41.871  24.527  25.902  1.00  0.00    -0.246 OA
BRANCH  26  28
ATOM     28  C   UNL A   1      40.723  25.634  27.654  1.00  0.00     0.060 A 
ATOM     29  C   UNL A   1      41.691  26.634  27.704  1.00  0.00     0.016 A 
ATOM     30  C   UNL A   1      39.678  25.621  28.573  1.00  0.00     0.016 A 
ATOM     31  C   UNL A   1      41.647  27.622  28.672  1.00  0.00     0.010 A 
ATOM     32  C   UNL A   1      39.616  26.632  29.542  1.00  0.00     0.010 A 
ATOM     33  C   UNL A   1      40.605  27.633  29.596  1.00  0.00    -0.014 A 
BRANCH  33  34
ATOM     34  C   UNL A   1      40.585  28.685  30.633  1.00  0.00     0.031 A 
ATOM     35  C   UNL A   1      41.538  28.599  31.786  1.00  0.00     0.074 A 
ATOM     36  C   UNL A   1      39.746  29.730  30.506  1.00  0.00     0.049 A 
ATOM     37  N   UNL A   1      41.560  29.298  32.887  1.00  0.00    -0.248 NA
ATOM     38  C   UNL A   1      42.607  27.590  31.688  1.00  0.00     0.031 C 
ATOM     39  C   UNL A   1      38.844  29.958  29.373  1.00  0.00     0.029 A 
ATOM     40  N   UNL A   1      39.507  30.793  31.339  1.00  0.00    -0.354 N 
ATOM     41  C   UNL A   1      42.608  28.782  33.640  1.00  0.00     0.074 A 
ATOM     42  C   UNL A   1      43.215  27.726  32.859  1.00  0.00     0.031 C 
ATOM     43  C   UNL A   1      38.143  31.082  29.588  1.00  0.00     0.029 A 
ATOM     44  C   UNL A   1      38.490  31.610  30.902  1.00  0.00     0.049 A 
ATOM     45  H   UNL A   1      40.014  30.955  32.166  1.00  0.00     0.167 HD
ATOM     46  C   UNL A   1      43.006  29.155  34.877  1.00  0.00     0.037 A 
ATOM     47  C   UNL A   1      37.865  32.626  31.525  1.00  0.00     0.037 A 
ATOM     48  C   UNL A   1      42.414  30.241  35.612  1.00  0.00     0.049 A 
ATOM     49  C   UNL A   1      38.288  32.983  32.922  1.00  0.00     0.074 A 
ATOM     50  C   UNL A   1      42.753  30.721  36.864  1.00  0.00     0.029 A 
ATOM     51  N   UNL A   1      41.360  31.019  35.154  1.00  0.00    -0.354 N 
ATOM     52  N   UNL A   1      39.243  32.456  33.651  1.00  0.00    -0.248 NA
ATOM     53  C   UNL A   1      37.530  34.045  33.597  1.00  0.00     0.031 C 
ATOM     54  C   UNL A   1      41.880  31.768  37.179  1.00  0.00     0.029 A 
ATOM     55  C   UNL A   1      41.017  31.960  36.109  1.00  0.00     0.049 A 
ATOM     56  H   UNL A   1      40.921  30.918  34.279  1.00  0.00     0.167 HD
ATOM     57  C   UNL A   1      39.196  33.115  34.872  1.00  0.00     0.074 A 
ATOM     58  C   UNL A   1      38.137  34.100  34.775  1.00  0.00     0.031 C 
ATOM     59  C   UNL A   1      39.951  32.918  35.981  1.00  0.00     0.037 A 
BRANCH  46  60
ATOM     60  C   UNL A   1      44.093  28.360  35.536  1.00  0.00     0.058 A 
ATOM     61  C   UNL A   1      45.447  28.705  35.418  1.00  0.00     0.135 A 
ATOM     62  C   UNL A   1      43.762  27.263  36.348  1.00  0.00     0.135 A 
ATOM     63  F   UNL A   1      45.817  29.731  34.635  1.00  0.00    -0.206 F 
ATOM     64  C   UNL A   1      46.437  27.989  36.084  1.00  0.00     0.059 A 
ATOM     65  C   UNL A   1      44.733  26.544  37.036  1.00  0.00     0.059 A 
ATOM     66  F   UNL A   1      42.480  26.886  36.482  1.00  0.00    -0.206 F 
ATOM     67  C   UNL A   1      46.070  26.912  36.894  1.00  0.00     0.060 A 
BRANCH  67  68
ATOM     68  S   UNL A   1      47.360  26.013  37.782  1.00  0.00     0.124 S 
ATOM     69  O   UNL A   1      48.282  25.683  36.699  1.00  0.00    -0.237 OA
ATOM     70  O   UNL A   1      47.836  27.008  38.737  1.00  0.00    -0.237 OA
ATOM     71  O   UNL A   1      46.646  24.880  38.364  1.00  0.00    -0.744 OA
ENDBRANCH  67  68
ENDBRANCH  46  60
BRANCH  47  72
ATOM     72  C   UNL A   1      36.708  33.300  30.877  1.00  0.00     0.058 A 
ATOM     73  C   UNL A   1      36.888  34.213  29.829  1.00  0.00     0.135 A 
ATOM     74  C   UNL A   1      35.395  33.042  31.302  1.00  0.00     0.135 A 
ATOM     75  F   UNL A   1      38.124  34.502  29.395  1.00  0.00    -0.206 F 
ATOM     76  C   UNL A   1      35.807  34.858  29.233  1.00  0.00     0.059 A 
ATOM     77  C   UNL A   1      34.298  33.654  30.706  1.00  0.00     0.059 A 
ATOM     78  F   UNL A   1      35.168  32.169  32.296  1.00  0.00    -0.206 F 
ATOM     79  C   UNL A   1      34.515  34.573  29.681  1.00  0.00     0.060 A 
BRANCH  79  80
ATOM     80  S   UNL A   1      33.110  35.382  28.886  1.00  0.00     0.124 S 
ATOM     81  O   UNL A   1      32.525  34.277  28.135  1.00  0.00    -0.237 OA
ATOM     82  O   UNL A   1      32.335  35.860  30.026  1.00  0.00    -0.237 OA
ATOM     83  O   UNL A   1      33.740  36.428  28.085  1.00  0.00    -0.744 OA
ENDBRANCH  79  80
ENDBRANCH  47  72
BRANCH  59  84
ATOM     84  C   UNL A   1      39.648  33.778  37.171  1.00  0.00     0.058 A 
ATOM     85  C   UNL A   1      38.781  33.336  38.181  1.00  0.00     0.135 A 
ATOM     86  C   UNL A   1      40.270  35.025  37.329  1.00  0.00     0.135 A 
ATOM     87  F   UNL A   1      38.158  32.153  38.067  1.00  0.00    -0.206 F 
ATOM     88  C   UNL A   1      38.533  34.109  39.309  1.00  0.00     0.059 A 
ATOM     89  C   UNL A   1      40.051  35.807  38.457  1.00  0.00     0.059 A 
ATOM     90  F   UNL A   1      41.112  35.486  36.390  1.00  0.00    -0.206 F 
ATOM     91  C   UNL A   1      39.173  35.343  39.438  1.00  0.00     0.060 A 
BRANCH  91  92
ATOM     92  S   UNL A   1      38.881  36.320  40.927  1.00  0.00     0.124 S 
ATOM     93  O   UNL A   1      40.183  36.255  41.581  1.00  0.00    -0.237 OA
ATOM     94  O   UNL A   1      38.508  37.622  40.382  1.00  0.00    -0.237 OA
ATOM     95  O   UNL A   1      37.803  35.599  41.598  1.00  0.00    -0.744 OA
ENDBRANCH  91  92
ENDBRANCH  59  84
ENDBRANCH  33  34
ENDBRANCH  26  28
ENDBRANCH  25  26
ENDBRANCH   1  25
TORSDOF 17
ENDMDL
