MODEL 1
REMARK VINA RESULT:     -11.5      0.000      0.000
REMARK SMILES O=C(C[C@@H]([NH2+]Cc1ccccc1)C(=O)OCCOC(=O)c1ccc(-c2c3nc(c(-c4c(F)cc(S(=O)(=O)[O-])cc4F)c4ccc([nH]4)c(-c4c(F)cc(S(=O)(=O)[O-])cc4F)c4nc(c(-c5c(F)cc(S(=O)(=O)[O-])cc5F)c5ccc2[nH]5)C=C4)C=C3)cc1)Nc1cccc(Cl)c1Cl
REMARK SMILES IDX 16 1 15 2 13 3 14 4 4 5 3 6 2 7 1 8 87 9 88 11 89 12 94 13
REMARK SMILES IDX 90 14 92 15 95 16 91 17 93 18 5 19 6 22 7 23 8 24 12 25 9 26
REMARK SMILES IDX 11 27 10 28 17 29 18 30 19 31 20 32 21 33 22 34 86 35 23 36
REMARK SMILES IDX 85 37 24 38 25 39 26 40 79 41 27 42 84 43 78 44 80 45 28 46
REMARK SMILES IDX 83 47 77 48 76 49 29 51 63 52 42 53 62 54 43 55 46 56 61 57
REMARK SMILES IDX 81 58 44 59 45 60 60 62 82 63 47 64 30 65 31 66 40 67 32 68
REMARK SMILES IDX 33 69 39 70 41 71 34 72 35 73 36 74 37 75 38 76 64 77 65 78
REMARK SMILES IDX 74 79 66 80 67 81 73 82 75 83 68 84 69 85 70 86 71 87 72 88
REMARK SMILES IDX 48 89 49 90 58 91 50 92 51 93 57 94 59 95 52 96 53 97 54 98
REMARK SMILES IDX 55 99 56 100
REMARK H PARENT 87 10 5 20 5 21 80 50 46 61
REMARK Flexibility Score: inf
ROOT
ATOM      1  C   UNL A   1      38.287  21.820  25.509  1.00  0.00     0.274 C 
ENDROOT
BRANCH   1   2
ATOM      2  O   UNL A   1      36.945  22.333  25.633  1.00  0.00    -0.458 OA
BRANCH   2   3
ATOM      3  C   UNL A   1      36.308  22.611  24.461  1.00  0.00     0.365 C 
ATOM      4  O   UNL A   1      36.889  22.685  23.383  1.00  0.00    -0.245 OA
BRANCH   3   5
ATOM      5  C   UNL A   1      34.779  22.766  24.613  1.00  0.00     0.303 C 
BRANCH   5   6
ATOM      6  C   UNL A   1      34.054  22.942  23.267  1.00  0.00     0.177 C 
BRANCH   6   7
ATOM      7  C   UNL A   1      33.628  24.387  23.105  1.00  0.00     0.231 C 
ATOM      8  O   UNL A   1      34.377  25.229  22.625  1.00  0.00    -0.274 OA
ATOM      9  N   UNL A   1      32.413  24.650  23.722  1.00  0.00    -0.325 N 
ATOM     10  H   UNL A   1      31.916  23.891  24.104  1.00  0.00     0.169 HD
BRANCH   9  11
ATOM     11  C   UNL A   1      31.843  25.939  23.835  1.00  0.00     0.061 A 
ATOM     12  C   UNL A   1      30.980  26.310  22.790  1.00  0.00     0.028 A 
ATOM     13  C   UNL A   1      32.098  26.848  24.883  1.00  0.00     0.083 A 
ATOM     14  C   UNL A   1      30.314  27.534  22.816  1.00  0.00     0.004 A 
ATOM     15  C   UNL A   1      31.430  28.085  24.891  1.00  0.00     0.061 A 
ATOM     16  Cl  UNL A   1      33.370  26.552  26.031  1.00  0.00    -0.080 Cl
ATOM     17  C   UNL A   1      30.532  28.417  23.870  1.00  0.00     0.022 A 
ATOM     18  Cl  UNL A   1      31.700  29.287  26.110  1.00  0.00    -0.083 Cl
ENDBRANCH   9  11
ENDBRANCH   6   7
ENDBRANCH   5   6
BRANCH   5  19
ATOM     19  N   UNL A   1      34.131  21.666  25.397  1.00  0.00    -0.330 N 
ATOM     20  H   UNL A   1      33.701  22.082  26.223  1.00  0.00     0.347 HD
ATOM     21  H   UNL A   1      34.875  21.001  25.605  1.00  0.00     0.347 HD
BRANCH  19  22
ATOM     22  C   UNL A   1      33.094  20.896  24.688  1.00  0.00     0.298 C 
BRANCH  22  23
ATOM     23  C   UNL A   1      33.372  19.438  24.377  1.00  0.00     0.006 A 
ATOM     24  C   UNL A   1      34.679  18.969  24.613  1.00  0.00     0.009 A 
ATOM     25  C   UNL A   1      32.451  18.543  23.812  1.00  0.00     0.009 A 
ATOM     26  C   UNL A   1      35.044  17.653  24.321  1.00  0.00     0.001 A 
ATOM     27  C   UNL A   1      32.813  17.219  23.535  1.00  0.00     0.001 A 
ATOM     28  C   UNL A   1      34.107  16.775  23.790  1.00  0.00     0.000 A 
ENDBRANCH  22  23
ENDBRANCH  19  22
ENDBRANCH   5  19
ENDBRANCH   3   5
ENDBRANCH   2   3
ENDBRANCH   1   2
BRANCH   1  29
ATOM     29  C   UNL A   1      39.264  22.480  26.493  1.00  0.00     0.275 C 
BRANCH  29  30
ATOM     30  O   UNL A   1      39.370  23.904  26.311  1.00  0.00    -0.458 OA
BRANCH  30  31
ATOM     31  C   UNL A   1      40.546  24.441  26.703  1.00  0.00     0.338 C 
ATOM     32  O   UNL A   1      41.655  24.181  26.239  1.00  0.00    -0.246 OA
BRANCH  31  33
ATOM     33  C   UNL A   1      40.335  25.517  27.680  1.00  0.00     0.060 A 
ATOM     34  C   UNL A   1      41.277  26.545  27.717  1.00  0.00     0.016 A 
ATOM     35  C   UNL A   1      39.303  25.480  28.618  1.00  0.00     0.016 A 
ATOM     36  C   UNL A   1      41.214  27.529  28.692  1.00  0.00     0.010 A 
ATOM     37  C   UNL A   1      39.228  26.482  29.596  1.00  0.00     0.010 A 
ATOM     38  C   UNL A   1      40.191  27.507  29.645  1.00  0.00    -0.014 A 
BRANCH  38  39
ATOM     39  C   UNL A   1      40.176  28.550  30.698  1.00  0.00     0.031 A 
ATOM     40  C   UNL A   1      41.162  28.496  31.828  1.00  0.00     0.074 A 
ATOM     41  C   UNL A   1      39.321  29.585  30.594  1.00  0.00     0.049 A 
ATOM     42  N   UNL A   1      41.264  29.279  32.872  1.00  0.00    -0.248 NA
ATOM     43  C   UNL A   1      42.171  27.427  31.776  1.00  0.00     0.031 C 
ATOM     44  C   UNL A   1      38.366  29.787  29.501  1.00  0.00     0.029 A 
ATOM     45  N   UNL A   1      39.123  30.667  31.414  1.00  0.00    -0.354 N 
ATOM     46  C   UNL A   1      42.330  28.786  33.613  1.00  0.00     0.074 A 
ATOM     47  C   UNL A   1      42.840  27.632  32.903  1.00  0.00     0.031 C 
ATOM     48  C   UNL A   1      37.689  30.926  29.716  1.00  0.00     0.029 A 
ATOM     49  C   UNL A   1      38.126  31.509  30.982  1.00  0.00     0.049 A 
ATOM     50  H   UNL A   1      39.646  30.827  32.233  1.00  0.00     0.167 HD
ATOM     51  C   UNL A   1      42.836  29.254  34.779  1.00  0.00     0.037 A 
ATOM     52  C   UNL A   1      37.600  32.606  31.558  1.00  0.00     0.037 A 
ATOM     53  C   UNL A   1      42.339  30.417  35.469  1.00  0.00     0.049 A 
ATOM     54  C   UNL A   1      38.136  33.069  32.883  1.00  0.00     0.074 A 
ATOM     55  C   UNL A   1      42.785  30.969  36.658  1.00  0.00     0.029 A 
ATOM     56  N   UNL A   1      41.290  31.210  35.030  1.00  0.00    -0.354 N 
ATOM     57  N   UNL A   1      39.115  32.567  33.596  1.00  0.00    -0.248 NA
ATOM     58  C   UNL A   1      37.484  34.238  33.491  1.00  0.00     0.031 C 
ATOM     59  C   UNL A   1      41.985  32.080  36.953  1.00  0.00     0.029 A 
ATOM     60  C   UNL A   1      41.061  32.237  35.931  1.00  0.00     0.049 A 
ATOM     61  H   UNL A   1      40.782  31.065  34.199  1.00  0.00     0.167 HD
ATOM     62  C   UNL A   1      39.201  33.361  34.733  1.00  0.00     0.074 A 
ATOM     63  C   UNL A   1      38.186  34.386  34.607  1.00  0.00     0.031 C 
ATOM     64  C   UNL A   1      40.041  33.245  35.792  1.00  0.00     0.037 A 
BRANCH  51  65
ATOM     65  C   UNL A   1      43.963  28.484  35.402  1.00  0.00     0.058 A 
ATOM     66  C   UNL A   1      43.733  27.445  36.317  1.00  0.00     0.135 A 
ATOM     67  C   UNL A   1      45.294  28.776  35.060  1.00  0.00     0.135 A 
ATOM     68  F   UNL A   1      42.480  27.138  36.688  1.00  0.00    -0.206 F 
ATOM     69  C   UNL A   1      44.784  26.735  36.888  1.00  0.00     0.059 A 
ATOM     70  C   UNL A   1      46.359  28.068  35.605  1.00  0.00     0.059 A 
ATOM     71  F   UNL A   1      45.567  29.763  34.192  1.00  0.00    -0.206 F 
ATOM     72  C   UNL A   1      46.096  27.058  36.529  1.00  0.00     0.060 A 
BRANCH  72  73
ATOM     73  S   UNL A   1      47.456  26.133  37.275  1.00  0.00     0.124 S 
ATOM     74  O   UNL A   1      48.615  26.803  36.694  1.00  0.00    -0.237 OA
ATOM     75  O   UNL A   1      47.246  26.357  38.702  1.00  0.00    -0.237 OA
ATOM     76  O   UNL A   1      47.225  24.766  36.820  1.00  0.00    -0.744 OA
ENDBRANCH  72  73
ENDBRANCH  51  65
BRANCH  52  77
ATOM     77  C   UNL A   1      36.477  33.318  30.897  1.00  0.00     0.058 A 
ATOM     78  C   UNL A   1      35.173  33.241  31.404  1.00  0.00     0.135 A 
ATOM     79  C   UNL A   1      36.694  34.107  29.757  1.00  0.00     0.135 A 
ATOM     80  F   UNL A   1      34.918  32.492  32.488  1.00  0.00    -0.206 F 
ATOM     81  C   UNL A   1      34.119  33.922  30.803  1.00  0.00     0.059 A 
ATOM     82  C   UNL A   1      35.662  34.814  29.150  1.00  0.00     0.059 A 
ATOM     83  F   UNL A   1      37.929  34.219  29.241  1.00  0.00    -0.206 F 
ATOM     84  C   UNL A   1      34.375  34.708  29.677  1.00  0.00     0.060 A 
BRANCH  84  85
ATOM     85  S   UNL A   1      33.017  35.645  28.941  1.00  0.00     0.124 S 
ATOM     86  O   UNL A   1      33.739  36.688  28.221  1.00  0.00    -0.237 OA
ATOM     87  O   UNL A   1      32.356  34.639  28.115  1.00  0.00    -0.237 OA
ATOM     88  O   UNL A   1      32.253  36.089  30.102  1.00  0.00    -0.744 OA
ENDBRANCH  84  85
ENDBRANCH  52  77
BRANCH  64  89
ATOM     89  C   UNL A   1      39.901  34.259  36.889  1.00  0.00     0.058 A 
ATOM     90  C   UNL A   1      40.494  35.528  36.790  1.00  0.00     0.135 A 
ATOM     91  C   UNL A   1      39.137  33.975  38.032  1.00  0.00     0.135 A 
ATOM     92  F   UNL A   1      41.240  35.843  35.720  1.00  0.00    -0.206 F 
ATOM     93  C   UNL A   1      40.349  36.476  37.798  1.00  0.00     0.059 A 
ATOM     94  C   UNL A   1      38.964  34.914  39.043  1.00  0.00     0.059 A 
ATOM     95  F   UNL A   1      38.547  32.778  38.170  1.00  0.00    -0.206 F 
ATOM     96  C   UNL A   1      39.584  36.159  38.922  1.00  0.00     0.060 A 
BRANCH  96  97
ATOM     97  S   UNL A   1      39.378  37.404  40.213  1.00  0.00     0.124 S 
ATOM     98  O   UNL A   1      40.758  37.813  40.449  1.00  0.00    -0.237 OA
ATOM     99  O   UNL A   1      38.525  38.396  39.564  1.00  0.00    -0.237 OA
ATOM    100  O   UNL A   1      38.746  36.662  41.300  1.00  0.00    -0.744 OA
ENDBRANCH  96  97
ENDBRANCH  64  89
ENDBRANCH  38  39
ENDBRANCH  31  33
ENDBRANCH  30  31
ENDBRANCH  29  30
ENDBRANCH   1  29
TORSDOF 20
ENDMDL
MODEL 2
REMARK VINA RESULT:     -11.2      4.645     10.628
REMARK SMILES O=C(C[C@@H]([NH2+]Cc1ccccc1)C(=O)OCCOC(=O)c1ccc(-c2c3nc(c(-c4c(F)cc(S(=O)(=O)[O-])cc4F)c4ccc([nH]4)c(-c4c(F)cc(S(=O)(=O)[O-])cc4F)c4nc(c(-c5c(F)cc(S(=O)(=O)[O-])cc5F)c5ccc2[nH]5)C=C4)C=C3)cc1)Nc1cccc(Cl)c1Cl
REMARK SMILES IDX 16 1 15 2 13 3 14 4 4 5 3 6 2 7 1 8 87 9 88 11 89 12 94 13
REMARK SMILES IDX 90 14 92 15 95 16 91 17 93 18 5 19 6 22 7 23 8 24 12 25 9 26
REMARK SMILES IDX 11 27 10 28 17 29 18 30 19 31 20 32 21 33 22 34 86 35 23 36
REMARK SMILES IDX 85 37 24 38 25 39 26 40 79 41 27 42 84 43 78 44 80 45 28 46
REMARK SMILES IDX 83 47 77 48 76 49 29 51 63 52 42 53 62 54 43 55 46 56 61 57
REMARK SMILES IDX 81 58 44 59 45 60 60 62 82 63 47 64 30 65 31 66 40 67 32 68
REMARK SMILES IDX 33 69 39 70 41 71 34 72 35 73 36 74 37 75 38 76 64 77 65 78
REMARK SMILES IDX 74 79 66 80 67 81 73 82 75 83 68 84 69 85 70 86 71 87 72 88
REMARK SMILES IDX 48 89 49 90 58 91 50 92 51 93 57 94 59 95 52 96 53 97 54 98
REMARK SMILES IDX 55 99 56 100
REMARK H PARENT 87 10 5 20 5 21 80 50 46 61
REMARK Flexibility Score: inf
ROOT
ATOM      1  C   UNL A   1      32.897  26.896  26.403  1.00  0.00     0.274 C 
ENDROOT
BRANCH   1   2
ATOM      2  O   UNL A   1      31.562  26.354  26.448  1.00  0.00    -0.458 OA
BRANCH   2   3
ATOM      3  C   UNL A   1      30.921  26.265  25.249  1.00  0.00     0.365 C 
ATOM      4  O   UNL A   1      29.707  26.123  25.145  1.00  0.00    -0.245 OA
BRANCH   3   5
ATOM      5  C   UNL A   1      31.863  26.415  24.034  1.00  0.00     0.303 C 
BRANCH   5   6
ATOM      6  C   UNL A   1      31.861  25.183  23.113  1.00  0.00     0.177 C 
BRANCH   6   7
ATOM      7  C   UNL A   1      33.226  24.526  23.140  1.00  0.00     0.231 C 
ATOM      8  O   UNL A   1      33.835  24.264  22.109  1.00  0.00    -0.274 OA
ATOM      9  N   UNL A   1      33.583  24.106  24.413  1.00  0.00    -0.325 N 
ATOM     10  H   UNL A   1      32.992  24.349  25.162  1.00  0.00     0.169 HD
BRANCH   9  11
ATOM     11  C   UNL A   1      34.743  23.352  24.703  1.00  0.00     0.061 A 
ATOM     12  C   UNL A   1      35.890  24.104  25.007  1.00  0.00     0.028 A 
ATOM     13  C   UNL A   1      34.820  21.943  24.685  1.00  0.00     0.083 A 
ATOM     14  C   UNL A   1      37.081  23.475  25.364  1.00  0.00     0.004 A 
ATOM     15  C   UNL A   1      36.031  21.321  25.034  1.00  0.00     0.061 A 
ATOM     16  Cl  UNL A   1      33.520  20.988  24.036  1.00  0.00    -0.080 Cl
ATOM     17  C   UNL A   1      37.149  22.085  25.386  1.00  0.00     0.022 A 
ATOM     18  Cl  UNL A   1      36.242  19.601  25.006  1.00  0.00    -0.083 Cl
ENDBRANCH   9  11
ENDBRANCH   6   7
ENDBRANCH   5   6
BRANCH   5  19
ATOM     19  N   UNL A   1      31.619  27.652  23.224  1.00  0.00    -0.330 N 
ATOM     20  H   UNL A   1      30.901  27.436  22.532  1.00  0.00     0.347 HD
ATOM     21  H   UNL A   1      32.522  27.902  22.823  1.00  0.00     0.347 HD
BRANCH  19  22
ATOM     22  C   UNL A   1      31.176  28.838  23.978  1.00  0.00     0.298 C 
BRANCH  22  23
ATOM     23  C   UNL A   1      29.864  29.488  23.585  1.00  0.00     0.006 A 
ATOM     24  C   UNL A   1      29.706  30.853  23.892  1.00  0.00     0.009 A 
ATOM     25  C   UNL A   1      28.774  28.822  23.002  1.00  0.00     0.009 A 
ATOM     26  C   UNL A   1      28.519  31.532  23.606  1.00  0.00     0.001 A 
ATOM     27  C   UNL A   1      27.591  29.507  22.702  1.00  0.00     0.001 A 
ATOM     28  C   UNL A   1      27.464  30.860  23.003  1.00  0.00     0.000 A 
ENDBRANCH  22  23
ENDBRANCH  19  22
ENDBRANCH   5  19
ENDBRANCH   3   5
ENDBRANCH   2   3
ENDBRANCH   1   2
BRANCH   1  29
ATOM     29  C   UNL A   1      33.033  28.194  27.213  1.00  0.00     0.275 C 
BRANCH  29  30
ATOM     30  O   UNL A   1      34.033  29.085  26.686  1.00  0.00    -0.458 OA
BRANCH  30  31
ATOM     31  C   UNL A   1      34.397  30.086  27.517  1.00  0.00     0.338 C 
ATOM     32  O   UNL A   1      33.667  30.980  27.943  1.00  0.00    -0.246 OA
BRANCH  31  33
ATOM     33  C   UNL A   1      35.776  29.904  27.991  1.00  0.00     0.060 A 
ATOM     34  C   UNL A   1      36.800  30.028  27.052  1.00  0.00     0.016 A 
ATOM     35  C   UNL A   1      36.068  29.514  29.298  1.00  0.00     0.016 A 
ATOM     36  C   UNL A   1      38.114  29.749  27.396  1.00  0.00     0.010 A 
ATOM     37  C   UNL A   1      37.399  29.245  29.652  1.00  0.00     0.010 A 
ATOM     38  C   UNL A   1      38.427  29.351  28.699  1.00  0.00    -0.014 A 
BRANCH  38  39
ATOM     39  C   UNL A   1      39.836  29.021  29.023  1.00  0.00     0.031 A 
ATOM     40  C   UNL A   1      40.702  30.023  29.730  1.00  0.00     0.074 A 
ATOM     41  C   UNL A   1      40.311  27.792  28.745  1.00  0.00     0.049 A 
ATOM     42  N   UNL A   1      41.971  29.942  30.041  1.00  0.00    -0.248 NA
ATOM     43  C   UNL A   1      40.057  31.277  30.148  1.00  0.00     0.031 C 
ATOM     44  C   UNL A   1      39.542  26.709  28.128  1.00  0.00     0.029 A 
ATOM     45  N   UNL A   1      41.551  27.244  28.954  1.00  0.00    -0.354 N 
ATOM     46  C   UNL A   1      42.284  31.141  30.671  1.00  0.00     0.074 A 
ATOM     47  C   UNL A   1      41.073  31.935  30.691  1.00  0.00     0.031 C 
ATOM     48  C   UNL A   1      40.327  25.625  28.015  1.00  0.00     0.029 A 
ATOM     49  C   UNL A   1      41.663  25.951  28.505  1.00  0.00     0.049 A 
ATOM     50  H   UNL A   1      42.290  27.731  29.386  1.00  0.00     0.167 HD
ATOM     51  C   UNL A   1      43.472  31.540  31.183  1.00  0.00     0.037 A 
ATOM     52  C   UNL A   1      42.731  25.131  28.462  1.00  0.00     0.037 A 
ATOM     53  C   UNL A   1      44.667  30.736  31.180  1.00  0.00     0.049 A 
ATOM     54  C   UNL A   1      44.055  25.620  28.978  1.00  0.00     0.074 A 
ATOM     55  C   UNL A   1      45.921  31.053  31.674  1.00  0.00     0.029 A 
ATOM     56  N   UNL A   1      44.757  29.452  30.664  1.00  0.00    -0.354 N 
ATOM     57  N   UNL A   1      44.348  26.773  29.529  1.00  0.00    -0.248 NA
ATOM     58  C   UNL A   1      45.196  24.704  28.851  1.00  0.00     0.031 C 
ATOM     59  C   UNL A   1      46.776  29.972  31.429  1.00  0.00     0.029 A 
ATOM     60  C   UNL A   1      46.046  28.969  30.811  1.00  0.00     0.049 A 
ATOM     61  H   UNL A   1      44.012  28.956  30.253  1.00  0.00     0.167 HD
ATOM     62  C   UNL A   1      45.705  26.720  29.820  1.00  0.00     0.074 A 
ATOM     63  C   UNL A   1      46.173  25.415  29.399  1.00  0.00     0.031 C 
ATOM     64  C   UNL A   1      46.495  27.669  30.379  1.00  0.00     0.037 A 
BRANCH  51  65
ATOM     65  C   UNL A   1      43.547  32.924  31.756  1.00  0.00     0.058 A 
ATOM     66  C   UNL A   1      43.381  33.167  33.129  1.00  0.00     0.135 A 
ATOM     67  C   UNL A   1      43.812  34.023  30.922  1.00  0.00     0.135 A 
ATOM     68  F   UNL A   1      43.111  32.153  33.966  1.00  0.00    -0.206 F 
ATOM     69  C   UNL A   1      43.454  34.454  33.652  1.00  0.00     0.059 A 
ATOM     70  C   UNL A   1      43.906  35.315  31.427  1.00  0.00     0.059 A 
ATOM     71  F   UNL A   1      43.975  33.844  29.602  1.00  0.00    -0.206 F 
ATOM     72  C   UNL A   1      43.712  35.523  32.791  1.00  0.00     0.060 A 
BRANCH  72  73
ATOM     73  S   UNL A   1      43.805  37.192  33.477  1.00  0.00     0.124 S 
ATOM     74  O   UNL A   1      45.067  37.135  34.208  1.00  0.00    -0.237 OA
ATOM     75  O   UNL A   1      43.804  38.026  32.280  1.00  0.00    -0.237 OA
ATOM     76  O   UNL A   1      42.604  37.285  34.302  1.00  0.00    -0.744 OA
ENDBRANCH  72  73
ENDBRANCH  51  65
BRANCH  52  77
ATOM     77  C   UNL A   1      42.595  23.776  27.871  1.00  0.00     0.058 A 
ATOM     78  C   UNL A   1      42.457  22.642  28.683  1.00  0.00     0.135 A 
ATOM     79  C   UNL A   1      42.577  23.594  26.479  1.00  0.00     0.135 A 
ATOM     80  F   UNL A   1      42.476  22.768  30.019  1.00  0.00    -0.206 F 
ATOM     81  C   UNL A   1      42.308  21.372  28.137  1.00  0.00     0.059 A 
ATOM     82  C   UNL A   1      42.408  22.337  25.909  1.00  0.00     0.059 A 
ATOM     83  F   UNL A   1      42.695  24.652  25.661  1.00  0.00    -0.206 F 
ATOM     84  C   UNL A   1      42.282  21.230  26.748  1.00  0.00     0.060 A 
BRANCH  84  85
ATOM     85  S   UNL A   1      42.019  19.588  26.042  1.00  0.00     0.124 S 
ATOM     86  O   UNL A   1      40.589  19.615  25.764  1.00  0.00    -0.237 OA
ATOM     87  O   UNL A   1      42.898  19.605  24.877  1.00  0.00    -0.237 OA
ATOM     88  O   UNL A   1      42.439  18.694  27.118  1.00  0.00    -0.744 OA
ENDBRANCH  84  85
ENDBRANCH  52  77
BRANCH  64  89
ATOM     89  C   UNL A   1      47.943  27.326  30.574  1.00  0.00     0.058 A 
ATOM     90  C   UNL A   1      48.885  27.531  29.554  1.00  0.00     0.135 A 
ATOM     91  C   UNL A   1      48.400  26.824  31.803  1.00  0.00     0.135 A 
ATOM     92  F   UNL A   1      48.494  28.001  28.359  1.00  0.00    -0.206 F 
ATOM     93  C   UNL A   1      50.230  27.231  29.739  1.00  0.00     0.059 A 
ATOM     94  C   UNL A   1      49.744  26.535  32.015  1.00  0.00     0.059 A 
ATOM     95  F   UNL A   1      47.539  26.616  32.810  1.00  0.00    -0.206 F 
ATOM     96  C   UNL A   1      50.650  26.731  30.973  1.00  0.00     0.060 A 
BRANCH  96  97
ATOM     97  S   UNL A   1      52.403  26.371  31.215  1.00  0.00     0.124 S 
ATOM     98  O   UNL A   1      52.761  27.337  32.248  1.00  0.00    -0.237 OA
ATOM     99  O   UNL A   1      52.385  24.973  31.633  1.00  0.00    -0.237 OA
ATOM    100  O   UNL A   1      52.982  26.615  29.897  1.00  0.00    -0.744 OA
ENDBRANCH  96  97
ENDBRANCH  64  89
ENDBRANCH  38  39
ENDBRANCH  31  33
ENDBRANCH  30  31
ENDBRANCH  29  30
ENDBRANCH   1  29
TORSDOF 20
ENDMDL
MODEL 3
REMARK VINA RESULT:     -11.1      3.404      9.876
REMARK SMILES O=C(C[C@@H]([NH2+]Cc1ccccc1)C(=O)OCCOC(=O)c1ccc(-c2c3nc(c(-c4c(F)cc(S(=O)(=O)[O-])cc4F)c4ccc([nH]4)c(-c4c(F)cc(S(=O)(=O)[O-])cc4F)c4nc(c(-c5c(F)cc(S(=O)(=O)[O-])cc5F)c5ccc2[nH]5)C=C4)C=C3)cc1)Nc1cccc(Cl)c1Cl
REMARK SMILES IDX 16 1 15 2 13 3 14 4 4 5 3 6 2 7 1 8 87 9 88 11 89 12 94 13
REMARK SMILES IDX 90 14 92 15 95 16 91 17 93 18 5 19 6 22 7 23 8 24 12 25 9 26
REMARK SMILES IDX 11 27 10 28 17 29 18 30 19 31 20 32 21 33 22 34 86 35 23 36
REMARK SMILES IDX 85 37 24 38 25 39 26 40 79 41 27 42 84 43 78 44 80 45 28 46
REMARK SMILES IDX 83 47 77 48 76 49 29 51 63 52 42 53 62 54 43 55 46 56 61 57
REMARK SMILES IDX 81 58 44 59 45 60 60 62 82 63 47 64 30 65 31 66 40 67 32 68
REMARK SMILES IDX 33 69 39 70 41 71 34 72 35 73 36 74 37 75 38 76 64 77 65 78
REMARK SMILES IDX 74 79 66 80 67 81 73 82 75 83 68 84 69 85 70 86 71 87 72 88
REMARK SMILES IDX 48 89 49 90 58 91 50 92 51 93 57 94 59 95 52 96 53 97 54 98
REMARK SMILES IDX 55 99 56 100
REMARK H PARENT 87 10 5 20 5 21 80 50 46 61
REMARK Flexibility Score: inf
ROOT
ATOM      1  C   UNL A   1      32.344  28.057  27.211  1.00  0.00     0.274 C 
ENDROOT
BRANCH   1   2
ATOM      2  O   UNL A   1      31.407  27.584  26.222  1.00  0.00    -0.458 OA
BRANCH   2   3
ATOM      3  C   UNL A   1      31.402  26.238  26.008  1.00  0.00     0.365 C 
ATOM      4  O   UNL A   1      31.482  25.415  26.914  1.00  0.00    -0.245 OA
BRANCH   3   5
ATOM      5  C   UNL A   1      31.229  25.851  24.524  1.00  0.00     0.303 C 
BRANCH   5   6
ATOM      6  C   UNL A   1      31.315  24.334  24.282  1.00  0.00     0.177 C 
BRANCH   6   7
ATOM      7  C   UNL A   1      32.753  23.945  24.006  1.00  0.00     0.231 C 
ATOM      8  O   UNL A   1      33.166  23.771  22.865  1.00  0.00    -0.274 OA
ATOM      9  N   UNL A   1      33.448  23.636  25.166  1.00  0.00    -0.325 N 
ATOM     10  H   UNL A   1      32.997  23.787  26.028  1.00  0.00     0.169 HD
BRANCH   9  11
ATOM     11  C   UNL A   1      34.764  23.122  25.190  1.00  0.00     0.061 A 
ATOM     12  C   UNL A   1      35.782  24.076  25.356  1.00  0.00     0.028 A 
ATOM     13  C   UNL A   1      35.105  21.761  25.041  1.00  0.00     0.083 A 
ATOM     14  C   UNL A   1      37.117  23.686  25.451  1.00  0.00     0.004 A 
ATOM     15  C   UNL A   1      36.456  21.382  25.125  1.00  0.00     0.061 A 
ATOM     16  Cl  UNL A   1      33.916  20.593  24.545  1.00  0.00    -0.080 Cl
ATOM     17  C   UNL A   1      37.453  22.340  25.344  1.00  0.00     0.022 A 
ATOM     18  Cl  UNL A   1      36.985  19.745  24.917  1.00  0.00    -0.083 Cl
ENDBRANCH   9  11
ENDBRANCH   6   7
ENDBRANCH   5   6
BRANCH   5  19
ATOM     19  N   UNL A   1      29.980  26.392  23.895  1.00  0.00    -0.330 N 
ATOM     20  H   UNL A   1      29.379  26.739  24.642  1.00  0.00     0.347 HD
ATOM     21  H   UNL A   1      29.581  25.618  23.365  1.00  0.00     0.347 HD
BRANCH  19  22
ATOM     22  C   UNL A   1      30.170  27.484  22.925  1.00  0.00     0.298 C 
BRANCH  22  23
ATOM     23  C   UNL A   1      29.335  28.739  23.087  1.00  0.00     0.006 A 
ATOM     24  C   UNL A   1      29.980  29.876  23.612  1.00  0.00     0.009 A 
ATOM     25  C   UNL A   1      27.961  28.836  22.818  1.00  0.00     0.009 A 
ATOM     26  C   UNL A   1      29.287  31.068  23.836  1.00  0.00     0.001 A 
ATOM     27  C   UNL A   1      27.271  30.036  23.027  1.00  0.00     0.001 A 
ATOM     28  C   UNL A   1      27.933  31.150  23.535  1.00  0.00     0.000 A 
ENDBRANCH  22  23
ENDBRANCH  19  22
ENDBRANCH   5  19
ENDBRANCH   3   5
ENDBRANCH   2   3
ENDBRANCH   1   2
BRANCH   1  29
ATOM     29  C   UNL A   1      33.742  28.305  26.626  1.00  0.00     0.275 C 
BRANCH  29  30
ATOM     30  O   UNL A   1      33.993  29.693  26.338  1.00  0.00    -0.458 OA
BRANCH  30  31
ATOM     31  C   UNL A   1      34.362  30.437  27.404  1.00  0.00     0.338 C 
ATOM     32  O   UNL A   1      33.676  31.287  27.970  1.00  0.00    -0.246 OA
BRANCH  31  33
ATOM     33  C   UNL A   1      35.665  30.004  27.925  1.00  0.00     0.060 A 
ATOM     34  C   UNL A   1      35.725  29.611  29.261  1.00  0.00     0.016 A 
ATOM     35  C   UNL A   1      36.833  30.078  27.164  1.00  0.00     0.016 A 
ATOM     36  C   UNL A   1      36.939  29.307  29.857  1.00  0.00     0.010 A 
ATOM     37  C   UNL A   1      38.061  29.757  27.761  1.00  0.00     0.010 A 
ATOM     38  C   UNL A   1      38.121  29.380  29.115  1.00  0.00    -0.014 A 
BRANCH  38  39
ATOM     39  C   UNL A   1      39.407  29.089  29.793  1.00  0.00     0.031 A 
ATOM     40  C   UNL A   1      39.805  29.857  31.019  1.00  0.00     0.074 A 
ATOM     41  C   UNL A   1      40.180  28.081  29.345  1.00  0.00     0.049 A 
ATOM     42  N   UNL A   1      40.914  29.790  31.711  1.00  0.00    -0.248 NA
ATOM     43  C   UNL A   1      38.828  30.825  31.540  1.00  0.00     0.031 C 
ATOM     44  C   UNL A   1      39.863  27.213  28.208  1.00  0.00     0.029 A 
ATOM     45  N   UNL A   1      41.387  27.610  29.797  1.00  0.00    -0.354 N 
ATOM     46  C   UNL A   1      40.779  30.719  32.735  1.00  0.00     0.074 A 
ATOM     47  C   UNL A   1      39.483  31.343  32.571  1.00  0.00     0.031 C 
ATOM     48  C   UNL A   1      40.846  26.312  28.057  1.00  0.00     0.029 A 
ATOM     49  C   UNL A   1      41.884  26.568  29.052  1.00  0.00     0.049 A 
ATOM     50  H   UNL A   1      41.851  27.981  30.582  1.00  0.00     0.167 HD
ATOM     51  C   UNL A   1      41.657  31.022  33.721  1.00  0.00     0.037 A 
ATOM     52  C   UNL A   1      43.059  25.916  29.140  1.00  0.00     0.037 A 
ATOM     53  C   UNL A   1      42.936  30.382  33.893  1.00  0.00     0.049 A 
ATOM     54  C   UNL A   1      44.044  26.314  30.202  1.00  0.00     0.074 A 
ATOM     55  C   UNL A   1      43.896  30.621  34.860  1.00  0.00     0.029 A 
ATOM     56  N   UNL A   1      43.430  29.370  33.083  1.00  0.00    -0.354 N 
ATOM     57  N   UNL A   1      43.923  27.226  31.137  1.00  0.00    -0.248 NA
ATOM     58  C   UNL A   1      45.332  25.607  30.212  1.00  0.00     0.031 C 
ATOM     59  C   UNL A   1      44.985  29.774  34.617  1.00  0.00     0.029 A 
ATOM     60  C   UNL A   1      44.688  28.986  33.517  1.00  0.00     0.049 A 
ATOM     61  H   UNL A   1      42.956  28.981  32.313  1.00  0.00     0.167 HD
ATOM     62  C   UNL A   1      45.115  27.199  31.849  1.00  0.00     0.074 A 
ATOM     63  C   UNL A   1      45.938  26.169  31.249  1.00  0.00     0.031 C 
ATOM     64  C   UNL A   1      45.496  27.963  32.902  1.00  0.00     0.037 A 
BRANCH  51  65
ATOM     65  C   UNL A   1      41.279  32.123  34.668  1.00  0.00     0.058 A 
ATOM     66  C   UNL A   1      41.610  33.463  34.415  1.00  0.00     0.135 A 
ATOM     67  C   UNL A   1      40.554  31.834  35.836  1.00  0.00     0.135 A 
ATOM     68  F   UNL A   1      42.316  33.789  33.320  1.00  0.00    -0.206 F 
ATOM     69  C   UNL A   1      41.254  34.478  35.297  1.00  0.00     0.059 A 
ATOM     70  C   UNL A   1      40.173  32.835  36.723  1.00  0.00     0.059 A 
ATOM     71  F   UNL A   1      40.216  30.568  36.125  1.00  0.00    -0.206 F 
ATOM     72  C   UNL A   1      40.539  34.152  36.453  1.00  0.00     0.060 A 
BRANCH  72  73
ATOM     73  S   UNL A   1      40.081  35.474  37.595  1.00  0.00     0.124 S 
ATOM     74  O   UNL A   1      39.898  36.597  36.681  1.00  0.00    -0.237 OA
ATOM     75  O   UNL A   1      38.864  34.953  38.210  1.00  0.00    -0.237 OA
ATOM     76  O   UNL A   1      41.235  35.569  38.483  1.00  0.00    -0.744 OA
ENDBRANCH  72  73
ENDBRANCH  51  65
BRANCH  52  77
ATOM     77  C   UNL A   1      43.379  24.843  28.164  1.00  0.00     0.058 A 
ATOM     78  C   UNL A   1      42.996  23.515  28.397  1.00  0.00     0.135 A 
ATOM     79  C   UNL A   1      44.055  25.133  26.969  1.00  0.00     0.135 A 
ATOM     80  F   UNL A   1      42.355  23.190  29.530  1.00  0.00    -0.206 F 
ATOM     81  C   UNL A   1      43.274  22.508  27.479  1.00  0.00     0.059 A 
ATOM     82  C   UNL A   1      44.325  24.148  26.025  1.00  0.00     0.059 A 
ATOM     83  F   UNL A   1      44.432  26.393  26.698  1.00  0.00    -0.206 F 
ATOM     84  C   UNL A   1      43.937  22.836  26.294  1.00  0.00     0.060 A 
BRANCH  84  85
ATOM     85  S   UNL A   1      44.235  21.539  25.072  1.00  0.00     0.124 S 
ATOM     86  O   UNL A   1      44.159  22.289  23.825  1.00  0.00    -0.237 OA
ATOM     87  O   UNL A   1      45.560  21.055  25.448  1.00  0.00    -0.237 OA
ATOM     88  O   UNL A   1      43.144  20.599  25.314  1.00  0.00    -0.744 OA
ENDBRANCH  84  85
ENDBRANCH  52  77
BRANCH  64  89
ATOM     89  C   UNL A   1      46.859  27.707  33.474  1.00  0.00     0.058 A 
ATOM     90  C   UNL A   1      47.974  28.458  33.068  1.00  0.00     0.135 A 
ATOM     91  C   UNL A   1      47.048  26.730  34.464  1.00  0.00     0.135 A 
ATOM     92  F   UNL A   1      47.845  29.398  32.119  1.00  0.00    -0.206 F 
ATOM     93  C   UNL A   1      49.235  28.235  33.611  1.00  0.00     0.059 A 
ATOM     94  C   UNL A   1      48.296  26.503  35.034  1.00  0.00     0.059 A 
ATOM     95  F   UNL A   1      46.012  25.990  34.889  1.00  0.00    -0.206 F 
ATOM     96  C   UNL A   1      49.387  27.253  34.593  1.00  0.00     0.060 A 
BRANCH  96  97
ATOM     97  S   UNL A   1      51.021  26.989  35.313  1.00  0.00     0.124 S 
ATOM     98  O   UNL A   1      51.834  27.930  34.549  1.00  0.00    -0.237 OA
ATOM     99  O   UNL A   1      50.808  27.330  36.717  1.00  0.00    -0.237 OA
ATOM    100  O   UNL A   1      51.281  25.577  35.051  1.00  0.00    -0.744 OA
ENDBRANCH  96  97
ENDBRANCH  64  89
ENDBRANCH  38  39
ENDBRANCH  31  33
ENDBRANCH  30  31
ENDBRANCH  29  30
ENDBRANCH   1  29
TORSDOF 20
ENDMDL
