MODEL 1
REMARK VINA RESULT:     -11.2      0.000      0.000
REMARK SMILES C[C@H](O)[C@H](C)[N@H+]1Cc2ccccc2C[C@@H]1C(=O)OCCOC(=O)c1ccc(-c2c3nc(c(-c4c(F)cc(S(=O)(=O)[O-])cc4F)c4ccc([nH]4)c(-c4c(F)cc(S(=O)(=O)[O-])cc4F)c4nc(c(-c5c(F)cc(S(=O)(=O)[O-])cc5F)c5ccc2[nH]5)C=C4)C=C3)cc1
REMARK SMILES IDX 19 1 18 2 16 3 17 4 15 5 6 6 7 7 8 9 14 10 9 11 13 12 10 13
REMARK SMILES IDX 12 14 11 15 4 16 5 17 2 18 1 19 3 20 20 22 21 23 22 24 23 25
REMARK SMILES IDX 24 26 25 27 89 28 26 29 88 30 27 31 28 32 29 33 82 34 30 35
REMARK SMILES IDX 87 36 81 37 83 38 31 39 86 40 80 41 79 42 32 44 66 45 45 46
REMARK SMILES IDX 65 47 46 48 49 49 64 50 84 51 47 52 48 53 63 55 85 56 50 57
REMARK SMILES IDX 33 58 34 59 43 60 35 61 36 62 42 63 44 64 37 65 38 66 39 67
REMARK SMILES IDX 40 68 41 69 67 70 68 71 77 72 69 73 70 74 76 75 78 76 71 77
REMARK SMILES IDX 72 78 73 79 74 80 75 81 51 82 52 83 61 84 53 85 54 86 60 87
REMARK SMILES IDX 62 88 55 89 56 90 57 91 58 92 59 93
REMARK H PARENT 6 8 3 21 83 43 49 54
REMARK Flexibility Score: inf
ROOT
ATOM      1  C   UNL A   1      31.979  28.491  26.931  1.00  0.00     0.274 C 
ENDROOT
BRANCH   1   2
ATOM      2  O   UNL A   1      31.603  27.103  27.132  1.00  0.00    -0.458 OA
BRANCH   2   3
ATOM      3  C   UNL A   1      31.574  26.315  26.013  1.00  0.00     0.365 C 
ATOM      4  O   UNL A   1      31.248  25.128  26.048  1.00  0.00    -0.245 OA
BRANCH   3   5
ATOM      5  C   UNL A   1      32.034  27.008  24.689  1.00  0.00     0.300 C 
ATOM      6  N   UNL A   1      31.229  26.570  23.490  1.00  0.00    -0.315 N 
ATOM      7  C   UNL A   1      31.997  25.851  22.439  1.00  0.00     0.300 C 
ATOM      8  H   UNL A   1      30.615  25.895  23.946  1.00  0.00     0.349 HD
ATOM      9  C   UNL A   1      32.937  24.857  23.029  1.00  0.00     0.010 A 
ATOM     10  C   UNL A   1      33.598  26.940  24.580  1.00  0.00     0.113 C 
ATOM     11  C   UNL A   1      32.767  23.077  22.917  1.00  0.00     0.010 A 
ATOM     12  C   UNL A   1      34.004  25.529  24.242  1.00  0.00    -0.033 A 
ATOM     13  C   UNL A   1      33.827  21.946  24.232  1.00  0.00     0.001 A 
ATOM     14  C   UNL A   1      34.961  24.554  25.368  1.00  0.00     0.004 A 
ATOM     15  C   UNL A   1      34.891  22.797  25.410  1.00  0.00     0.000 A 
BRANCH   6  16
ATOM     16  C   UNL A   1      30.311  27.579  22.869  1.00  0.00     0.210 C 
ATOM     17  C   UNL A   1      28.904  27.365  23.483  1.00  0.00     0.078 C 
BRANCH  16  18
ATOM     18  C   UNL A   1      30.736  29.092  22.949  1.00  0.00     0.169 C 
ATOM     19  C   UNL A   1      29.653  30.087  22.530  1.00  0.00     0.045 C 
BRANCH  18  20
ATOM     20  O   UNL A   1      31.811  29.391  22.041  1.00  0.00    -0.387 OA
ATOM     21  H   UNL A   1      32.617  29.580  22.547  1.00  0.00     0.211 HD
ENDBRANCH  18  20
ENDBRANCH  16  18
ENDBRANCH   6  16
ENDBRANCH   3   5
ENDBRANCH   2   3
ENDBRANCH   1   2
BRANCH   1  22
ATOM     22  C   UNL A   1      33.296  28.822  27.633  1.00  0.00     0.275 C 
BRANCH  22  23
ATOM     23  O   UNL A   1      33.643  30.172  27.308  1.00  0.00    -0.458 OA
BRANCH  23  24
ATOM     24  C   UNL A   1      34.458  30.747  28.208  1.00  0.00     0.338 C 
ATOM     25  O   UNL A   1      34.260  31.735  28.894  1.00  0.00    -0.246 OA
BRANCH  24  26
ATOM     26  C   UNL A   1      35.646  29.921  28.354  1.00  0.00     0.060 A 
ATOM     27  C   UNL A   1      36.148  29.523  30.020  1.00  0.00     0.016 A 
ATOM     28  C   UNL A   1      36.858  29.980  27.099  1.00  0.00     0.016 A 
ATOM     29  C   UNL A   1      38.120  29.204  30.387  1.00  0.00     0.010 A 
ATOM     30  C   UNL A   1      38.573  29.665  27.393  1.00  0.00     0.010 A 
ATOM     31  C   UNL A   1      39.255  29.297  28.984  1.00  0.00    -0.014 A 
BRANCH  31  32
ATOM     32  C   UNL A   1      40.703  28.977  29.047  1.00  0.00     0.031 A 
ATOM     33  C   UNL A   1      41.712  30.073  29.270  1.00  0.00     0.074 A 
ATOM     34  C   UNL A   1      41.089  27.732  28.712  1.00  0.00     0.049 A 
ATOM     35  N   UNL A   1      43.006  30.052  29.082  1.00  0.00    -0.248 NA
ATOM     36  C   UNL A   1      41.202  31.384  29.710  1.00  0.00     0.031 C 
ATOM     37  C   UNL A   1      40.178  26.645  28.378  1.00  0.00     0.029 A 
ATOM     38  N   UNL A   1      42.323  27.162  28.547  1.00  0.00    -0.354 N 
ATOM     39  C   UNL A   1      43.455  31.347  29.333  1.00  0.00     0.074 A 
ATOM     40  C   UNL A   1      42.289  32.143  29.642  1.00  0.00     0.031 C 
ATOM     41  C   UNL A   1      40.854  25.534  28.091  1.00  0.00     0.029 A 
ATOM     42  C   UNL A   1      42.264  25.853  28.116  1.00  0.00     0.049 A 
ATOM     43  H   UNL A   1      43.168  27.639  28.717  1.00  0.00     0.167 HD
ATOM     44  C   UNL A   1      44.731  31.808  29.315  1.00  0.00     0.037 A 
ATOM     45  C   UNL A   1      43.228  25.004  27.726  1.00  0.00     0.037 A 
ATOM     46  C   UNL A   1      45.857  30.951  29.029  1.00  0.00     0.049 A 
ATOM     47  C   UNL A   1      44.625  25.522  27.752  1.00  0.00     0.074 A 
ATOM     48  C   UNL A   1      47.205  31.254  29.049  1.00  0.00     0.029 A 
ATOM     49  N   UNL A   1      45.756  29.608  28.673  1.00  0.00    -0.354 N 
ATOM     50  N   UNL A   1      45.034  26.739  28.028  1.00  0.00    -0.248 NA
ATOM     51  C   UNL A   1      45.689  24.574  27.424  1.00  0.00     0.031 C 
ATOM     52  C   UNL A   1      47.914  30.114  28.657  1.00  0.00     0.029 A 
ATOM     53  C   UNL A   1      47.015  29.076  28.456  1.00  0.00     0.049 A 
ATOM     54  H   UNL A   1      44.912  29.109  28.587  1.00  0.00     0.167 HD
ATOM     55  C   UNL A   1      46.412  26.703  27.929  1.00  0.00     0.074 A 
ATOM     56  C   UNL A   1      46.763  25.334  27.586  1.00  0.00     0.031 C 
ATOM     57  C   UNL A   1      47.308  27.706  28.102  1.00  0.00     0.037 A 
BRANCH  44  58
ATOM     58  C   UNL A   1      44.978  33.272  29.609  1.00  0.00     0.058 A 
ATOM     59  C   UNL A   1      45.280  33.737  30.901  1.00  0.00     0.135 A 
ATOM     60  C   UNL A   1      44.960  34.228  28.576  1.00  0.00     0.135 A 
ATOM     61  F   UNL A   1      45.308  32.882  31.936  1.00  0.00    -0.206 F 
ATOM     62  C   UNL A   1      45.519  35.085  31.164  1.00  0.00     0.059 A 
ATOM     63  C   UNL A   1      45.230  35.577  28.809  1.00  0.00     0.059 A 
ATOM     64  F   UNL A   1      44.681  33.856  27.316  1.00  0.00    -0.206 F 
ATOM     65  C   UNL A   1      45.495  35.999  30.109  1.00  0.00     0.060 A 
BRANCH  65  66
ATOM     66  S   UNL A   1      45.827  37.738  30.468  1.00  0.00     0.124 S 
ATOM     67  O   UNL A   1      44.501  38.329  30.311  1.00  0.00    -0.237 OA
ATOM     68  O   UNL A   1      46.335  37.682  31.836  1.00  0.00    -0.237 OA
ATOM     69  O   UNL A   1      46.805  38.117  29.454  1.00  0.00    -0.744 OA
ENDBRANCH  65  66
ENDBRANCH  44  58
BRANCH  45  70
ATOM     70  C   UNL A   1      42.871  23.620  27.312  1.00  0.00     0.058 A 
ATOM     71  C   UNL A   1      42.910  23.242  25.963  1.00  0.00     0.135 A 
ATOM     72  C   UNL A   1      42.602  22.615  28.259  1.00  0.00     0.135 A 
ATOM     73  F   UNL A   1      43.177  24.157  25.019  1.00  0.00    -0.206 F 
ATOM     74  C   UNL A   1      42.687  21.927  25.566  1.00  0.00     0.059 A 
ATOM     75  C   UNL A   1      42.409  21.288  27.890  1.00  0.00     0.059 A 
ATOM     76  F   UNL A   1      42.594  22.911  29.569  1.00  0.00    -0.206 F 
ATOM     77  C   UNL A   1      42.443  20.954  26.538  1.00  0.00     0.060 A 
BRANCH  77  78
ATOM     78  S   UNL A   1      42.206  19.244  26.011  1.00  0.00     0.124 S 
ATOM     79  O   UNL A   1      42.663  18.509  27.185  1.00  0.00    -0.237 OA
ATOM     80  O   UNL A   1      40.770  19.200  25.750  1.00  0.00    -0.237 OA
ATOM     81  O   UNL A   1      43.054  19.134  24.828  1.00  0.00    -0.744 OA
ENDBRANCH  77  78
ENDBRANCH  45  70
BRANCH  57  82
ATOM     82  C   UNL A   1      48.748  27.323  27.954  1.00  0.00     0.058 A 
ATOM     83  C   UNL A   1      49.491  26.823  29.034  1.00  0.00     0.135 A 
ATOM     84  C   UNL A   1      49.383  27.455  26.711  1.00  0.00     0.135 A 
ATOM     85  F   UNL A   1      48.926  26.700  30.247  1.00  0.00    -0.206 F 
ATOM     86  C   UNL A   1      50.832  26.499  28.894  1.00  0.00     0.059 A 
ATOM     87  C   UNL A   1      50.713  27.101  26.539  1.00  0.00     0.059 A 
ATOM     88  F   UNL A   1      48.708  27.927  25.651  1.00  0.00    -0.206 F 
ATOM     89  C   UNL A   1      51.432  26.639  27.641  1.00  0.00     0.060 A 
BRANCH  89  90
ATOM     90  S   UNL A   1      53.169  26.189  27.467  1.00  0.00     0.124 S 
ATOM     91  O   UNL A   1      53.578  26.060  28.862  1.00  0.00    -0.237 OA
ATOM     92  O   UNL A   1      53.090  24.943  26.710  1.00  0.00    -0.237 OA
ATOM     93  O   UNL A   1      53.742  27.320  26.745  1.00  0.00    -0.744 OA
ENDBRANCH  89  90
ENDBRANCH  57  82
ENDBRANCH  31  32
ENDBRANCH  24  26
ENDBRANCH  23  24
ENDBRANCH  22  23
ENDBRANCH   1  22
TORSDOF 17
ENDMDL
MODEL 2
REMARK VINA RESULT:     -10.9      3.359      6.037
REMARK SMILES C[C@H](O)[C@H](C)[N@H+]1Cc2ccccc2C[C@@H]1C(=O)OCCOC(=O)c1ccc(-c2c3nc(c(-c4c(F)cc(S(=O)(=O)[O-])cc4F)c4ccc([nH]4)c(-c4c(F)cc(S(=O)(=O)[O-])cc4F)c4nc(c(-c5c(F)cc(S(=O)(=O)[O-])cc5F)c5ccc2[nH]5)C=C4)C=C3)cc1
REMARK SMILES IDX 19 1 18 2 16 3 17 4 15 5 6 6 7 7 8 9 14 10 9 11 13 12 10 13
REMARK SMILES IDX 12 14 11 15 4 16 5 17 2 18 1 19 3 20 20 22 21 23 22 24 23 25
REMARK SMILES IDX 24 26 25 27 89 28 26 29 88 30 27 31 28 32 29 33 82 34 30 35
REMARK SMILES IDX 87 36 81 37 83 38 31 39 86 40 80 41 79 42 32 44 66 45 45 46
REMARK SMILES IDX 65 47 46 48 49 49 64 50 84 51 47 52 48 53 63 55 85 56 50 57
REMARK SMILES IDX 33 58 34 59 43 60 35 61 36 62 42 63 44 64 37 65 38 66 39 67
REMARK SMILES IDX 40 68 41 69 67 70 68 71 77 72 69 73 70 74 76 75 78 76 71 77
REMARK SMILES IDX 72 78 73 79 74 80 75 81 51 82 52 83 61 84 53 85 54 86 60 87
REMARK SMILES IDX 62 88 55 89 56 90 57 91 58 92 59 93
REMARK H PARENT 6 8 3 21 83 43 49 54
REMARK Flexibility Score: inf
ROOT
ATOM      1  C   UNL A   1      35.513  34.174  29.181  1.00  0.00     0.274 C 
ENDROOT
BRANCH   1   2
ATOM      2  O   UNL A   1      36.800  33.955  29.818  1.00  0.00    -0.458 OA
BRANCH   2   3
ATOM      3  C   UNL A   1      36.847  34.156  31.171  1.00  0.00     0.365 C 
ATOM      4  O   UNL A   1      37.845  34.603  31.739  1.00  0.00    -0.245 OA
BRANCH   3   5
ATOM      5  C   UNL A   1      35.566  33.732  31.961  1.00  0.00     0.300 C 
ATOM      6  N   UNL A   1      35.154  34.749  32.997  1.00  0.00    -0.315 N 
ATOM      7  C   UNL A   1      35.207  34.276  34.406  1.00  0.00     0.300 C 
ATOM      8  H   UNL A   1      35.906  35.426  32.865  1.00  0.00     0.349 HD
ATOM      9  C   UNL A   1      36.444  33.492  34.676  1.00  0.00     0.010 A 
ATOM     10  C   UNL A   1      35.709  32.239  32.423  1.00  0.00     0.113 C 
ATOM     11  C   UNL A   1      37.809  34.030  35.705  1.00  0.00     0.010 A 
ATOM     12  C   UNL A   1      36.700  32.170  33.557  1.00  0.00    -0.033 A 
ATOM     13  C   UNL A   1      39.586  33.067  35.490  1.00  0.00     0.001 A 
ATOM     14  C   UNL A   1      38.231  31.299  33.387  1.00  0.00     0.004 A 
ATOM     15  C   UNL A   1      39.676  31.717  34.300  1.00  0.00     0.000 A 
BRANCH   6  16
ATOM     16  C   UNL A   1      33.890  35.514  32.748  1.00  0.00     0.210 C 
ATOM     17  C   UNL A   1      33.957  36.810  33.594  1.00  0.00     0.078 C 
BRANCH  16  18
ATOM     18  C   UNL A   1      33.520  35.836  31.253  1.00  0.00     0.169 C 
ATOM     19  C   UNL A   1      33.199  37.305  30.972  1.00  0.00     0.045 C 
BRANCH  18  20
ATOM     20  O   UNL A   1      32.315  35.164  30.846  1.00  0.00    -0.387 OA
ATOM     21  H   UNL A   1      31.545  35.651  31.180  1.00  0.00     0.211 HD
ENDBRANCH  18  20
ENDBRANCH  16  18
ENDBRANCH   6  16
ENDBRANCH   3   5
ENDBRANCH   2   3
ENDBRANCH   1   2
BRANCH   1  22
ATOM     22  C   UNL A   1      35.143  33.015  28.256  1.00  0.00     0.275 C 
BRANCH  22  23
ATOM     23  O   UNL A   1      34.713  31.920  29.072  1.00  0.00    -0.458 OA
BRANCH  23  24
ATOM     24  C   UNL A   1      34.522  30.781  28.384  1.00  0.00     0.338 C 
ATOM     25  O   UNL A   1      33.582  30.469  27.673  1.00  0.00    -0.246 OA
BRANCH  24  26
ATOM     26  C   UNL A   1      35.713  29.956  28.511  1.00  0.00     0.060 A 
ATOM     27  C   UNL A   1      36.248  29.567  30.170  1.00  0.00     0.016 A 
ATOM     28  C   UNL A   1      36.899  30.008  27.232  1.00  0.00     0.016 A 
ATOM     29  C   UNL A   1      38.227  29.251  30.499  1.00  0.00     0.010 A 
ATOM     30  C   UNL A   1      38.620  29.694  27.493  1.00  0.00     0.010 A 
ATOM     31  C   UNL A   1      39.334  29.336  29.072  1.00  0.00    -0.014 A 
BRANCH  31  32
ATOM     32  C   UNL A   1      40.782  29.016  29.108  1.00  0.00     0.031 A 
ATOM     33  C   UNL A   1      41.795  30.112  29.313  1.00  0.00     0.074 A 
ATOM     34  C   UNL A   1      41.163  27.772  28.765  1.00  0.00     0.049 A 
ATOM     35  N   UNL A   1      43.086  30.092  29.101  1.00  0.00    -0.248 NA
ATOM     36  C   UNL A   1      41.293  31.422  29.763  1.00  0.00     0.031 C 
ATOM     37  C   UNL A   1      40.246  26.685  28.447  1.00  0.00     0.029 A 
ATOM     38  N   UNL A   1      42.394  27.202  28.576  1.00  0.00    -0.354 N 
ATOM     39  C   UNL A   1      43.539  31.387  29.344  1.00  0.00     0.074 A 
ATOM     40  C   UNL A   1      42.379  32.182  29.675  1.00  0.00     0.031 C 
ATOM     41  C   UNL A   1      40.917  25.574  28.147  1.00  0.00     0.029 A 
ATOM     42  C   UNL A   1      42.327  25.893  28.146  1.00  0.00     0.049 A 
ATOM     43  H   UNL A   1      43.241  27.679  28.731  1.00  0.00     0.167 HD
ATOM     44  C   UNL A   1      44.814  31.849  29.302  1.00  0.00     0.037 A 
ATOM     45  C   UNL A   1      43.283  25.045  27.737  1.00  0.00     0.037 A 
ATOM     46  C   UNL A   1      45.935  30.992  28.995  1.00  0.00     0.049 A 
ATOM     47  C   UNL A   1      44.681  25.564  27.737  1.00  0.00     0.074 A 
ATOM     48  C   UNL A   1      47.283  31.296  28.990  1.00  0.00     0.029 A 
ATOM     49  N   UNL A   1      45.828  29.650  28.639  1.00  0.00    -0.354 N 
ATOM     50  N   UNL A   1      45.095  26.780  28.006  1.00  0.00    -0.248 NA
ATOM     51  C   UNL A   1      45.738  24.616  27.389  1.00  0.00     0.031 C 
ATOM     52  C   UNL A   1      47.985  30.156  28.583  1.00  0.00     0.029 A 
ATOM     53  C   UNL A   1      47.083  29.118  28.398  1.00  0.00     0.049 A 
ATOM     54  H   UNL A   1      44.982  29.150  28.569  1.00  0.00     0.167 HD
ATOM     55  C   UNL A   1      46.471  26.745  27.881  1.00  0.00     0.074 A 
ATOM     56  C   UNL A   1      46.816  25.376  27.531  1.00  0.00     0.031 C 
ATOM     57  C   UNL A   1      47.369  27.748  28.039  1.00  0.00     0.037 A 
BRANCH  44  58
ATOM     58  C   UNL A   1      45.066  33.312  29.593  1.00  0.00     0.058 A 
ATOM     59  C   UNL A   1      45.048  34.291  28.584  1.00  0.00     0.135 A 
ATOM     60  C   UNL A   1      45.286  33.758  30.910  1.00  0.00     0.135 A 
ATOM     61  F   UNL A   1      44.852  33.938  27.304  1.00  0.00    -0.206 F 
ATOM     62  C   UNL A   1      45.269  35.640  28.860  1.00  0.00     0.059 A 
ATOM     63  C   UNL A   1      45.476  35.107  31.215  1.00  0.00     0.059 A 
ATOM     64  F   UNL A   1      45.315  32.879  31.925  1.00  0.00    -0.206 F 
ATOM     65  C   UNL A   1      45.479  36.039  30.181  1.00  0.00     0.060 A 
BRANCH  65  66
ATOM     66  S   UNL A   1      45.745  37.794  30.519  1.00  0.00     0.124 S 
ATOM     67  O   UNL A   1      45.432  38.394  29.225  1.00  0.00    -0.237 OA
ATOM     68  O   UNL A   1      44.782  38.055  31.585  1.00  0.00    -0.237 OA
ATOM     69  O   UNL A   1      47.147  37.859  30.916  1.00  0.00    -0.744 OA
ENDBRANCH  65  66
ENDBRANCH  44  58
BRANCH  45  70
ATOM     70  C   UNL A   1      42.920  23.661  27.328  1.00  0.00     0.058 A 
ATOM     71  C   UNL A   1      42.783  23.325  25.974  1.00  0.00     0.135 A 
ATOM     72  C   UNL A   1      42.819  22.620  28.269  1.00  0.00     0.135 A 
ATOM     73  F   UNL A   1      42.885  24.277  25.035  1.00  0.00    -0.206 F 
ATOM     74  C   UNL A   1      42.551  22.014  25.567  1.00  0.00     0.059 A 
ATOM     75  C   UNL A   1      42.622  21.297  27.884  1.00  0.00     0.059 A 
ATOM     76  F   UNL A   1      42.984  22.876  29.577  1.00  0.00    -0.206 F 
ATOM     77  C   UNL A   1      42.478  21.005  26.530  1.00  0.00     0.060 A 
BRANCH  77  78
ATOM     78  S   UNL A   1      42.228  19.303  25.981  1.00  0.00     0.124 S 
ATOM     79  O   UNL A   1      43.108  19.237  24.820  1.00  0.00    -0.237 OA
ATOM     80  O   UNL A   1      42.655  18.539  27.150  1.00  0.00    -0.237 OA
ATOM     81  O   UNL A   1      40.798  19.248  25.693  1.00  0.00    -0.744 OA
ENDBRANCH  77  78
ENDBRANCH  45  70
BRANCH  57  82
ATOM     82  C   UNL A   1      48.806  27.366  27.863  1.00  0.00     0.058 A 
ATOM     83  C   UNL A   1      49.453  27.483  26.624  1.00  0.00     0.135 A 
ATOM     84  C   UNL A   1      49.540  26.881  28.957  1.00  0.00     0.135 A 
ATOM     85  F   UNL A   1      48.781  27.923  25.548  1.00  0.00    -0.206 F 
ATOM     86  C   UNL A   1      50.775  27.097  26.465  1.00  0.00     0.059 A 
ATOM     87  C   UNL A   1      50.875  26.526  28.829  1.00  0.00     0.059 A 
ATOM     88  F   UNL A   1      48.961  26.756  30.161  1.00  0.00    -0.206 F 
ATOM     89  C   UNL A   1      51.478  26.623  27.575  1.00  0.00     0.060 A 
BRANCH  89  90
ATOM     90  S   UNL A   1      53.204  26.151  27.360  1.00  0.00     0.124 S 
ATOM     91  O   UNL A   1      53.702  27.238  26.524  1.00  0.00    -0.237 OA
ATOM     92  O   UNL A   1      53.692  26.132  28.735  1.00  0.00    -0.237 OA
ATOM     93  O   UNL A   1      53.120  24.846  26.712  1.00  0.00    -0.744 OA
ENDBRANCH  89  90
ENDBRANCH  57  82
ENDBRANCH  31  32
ENDBRANCH  24  26
ENDBRANCH  23  24
ENDBRANCH  22  23
ENDBRANCH   1  22
TORSDOF 17
ENDMDL
MODEL 3
REMARK VINA RESULT:     -10.6      1.587      8.696
REMARK SMILES C[C@H](O)[C@H](C)[N@H+]1Cc2ccccc2C[C@@H]1C(=O)OCCOC(=O)c1ccc(-c2c3nc(c(-c4c(F)cc(S(=O)(=O)[O-])cc4F)c4ccc([nH]4)c(-c4c(F)cc(S(=O)(=O)[O-])cc4F)c4nc(c(-c5c(F)cc(S(=O)(=O)[O-])cc5F)c5ccc2[nH]5)C=C4)C=C3)cc1
REMARK SMILES IDX 19 1 18 2 16 3 17 4 15 5 6 6 7 7 8 9 14 10 9 11 13 12 10 13
REMARK SMILES IDX 12 14 11 15 4 16 5 17 2 18 1 19 3 20 20 22 21 23 22 24 23 25
REMARK SMILES IDX 24 26 25 27 89 28 26 29 88 30 27 31 28 32 29 33 82 34 30 35
REMARK SMILES IDX 87 36 81 37 83 38 31 39 86 40 80 41 79 42 32 44 66 45 45 46
REMARK SMILES IDX 65 47 46 48 49 49 64 50 84 51 47 52 48 53 63 55 85 56 50 57
REMARK SMILES IDX 33 58 34 59 43 60 35 61 36 62 42 63 44 64 37 65 38 66 39 67
REMARK SMILES IDX 40 68 41 69 67 70 68 71 77 72 69 73 70 74 76 75 78 76 71 77
REMARK SMILES IDX 72 78 73 79 74 80 75 81 51 82 52 83 61 84 53 85 54 86 60 87
REMARK SMILES IDX 62 88 55 89 56 90 57 91 58 92 59 93
REMARK H PARENT 6 8 3 21 83 43 49 54
REMARK Flexibility Score: inf
ROOT
ATOM      1  C   UNL A   1      32.313  29.073  26.067  1.00  0.00     0.274 C 
ENDROOT
BRANCH   1   2
ATOM      2  O   UNL A   1      31.567  29.440  24.877  1.00  0.00    -0.458 OA
BRANCH   2   3
ATOM      3  C   UNL A   1      32.092  29.031  23.682  1.00  0.00     0.365 C 
ATOM      4  O   UNL A   1      33.270  29.224  23.376  1.00  0.00    -0.245 OA
BRANCH   3   5
ATOM      5  C   UNL A   1      31.085  28.345  22.702  1.00  0.00     0.300 C 
ATOM      6  N   UNL A   1      29.669  28.345  23.225  1.00  0.00    -0.315 N 
ATOM      7  C   UNL A   1      29.090  27.000  23.489  1.00  0.00     0.300 C 
ATOM      8  H   UNL A   1      29.830  28.799  24.124  1.00  0.00     0.349 HD
ATOM      9  C   UNL A   1      30.068  26.106  24.169  1.00  0.00     0.010 A 
ATOM     10  C   UNL A   1      31.680  26.977  22.213  1.00  0.00     0.113 C 
ATOM     11  C   UNL A   1      29.953  25.546  25.867  1.00  0.00     0.010 A 
ATOM     12  C   UNL A   1      31.604  25.980  23.341  1.00  0.00    -0.033 A 
ATOM     13  C   UNL A   1      31.638  24.807  26.731  1.00  0.00     0.001 A 
ATOM     14  C   UNL A   1      33.069  25.304  24.069  1.00  0.00     0.004 A 
ATOM     15  C   UNL A   1      33.136  24.735  25.732  1.00  0.00     0.000 A 
BRANCH   6  16
ATOM     16  C   UNL A   1      28.673  29.214  22.520  1.00  0.00     0.210 C 
ATOM     17  C   UNL A   1      27.286  28.939  23.153  1.00  0.00     0.078 C 
BRANCH  16  18
ATOM     18  C   UNL A   1      28.970  30.759  22.464  1.00  0.00     0.169 C 
ATOM     19  C   UNL A   1      28.713  31.511  23.771  1.00  0.00     0.045 C 
BRANCH  18  20
ATOM     20  O   UNL A   1      28.106  31.434  21.533  1.00  0.00    -0.387 OA
ATOM     21  H   UNL A   1      27.567  32.086  22.008  1.00  0.00     0.211 HD
ENDBRANCH  18  20
ENDBRANCH  16  18
ENDBRANCH   6  16
ENDBRANCH   3   5
ENDBRANCH   2   3
ENDBRANCH   1   2
BRANCH   1  22
ATOM     22  C   UNL A   1      33.014  30.283  26.683  1.00  0.00     0.275 C 
BRANCH  22  23
ATOM     23  O   UNL A   1      33.534  29.890  27.958  1.00  0.00    -0.458 OA
BRANCH  23  24
ATOM     24  C   UNL A   1      34.526  30.682  28.400  1.00  0.00     0.338 C 
ATOM     25  O   UNL A   1      34.465  31.839  28.779  1.00  0.00    -0.246 OA
BRANCH  24  26
ATOM     26  C   UNL A   1      35.747  29.897  28.481  1.00  0.00     0.060 A 
ATOM     27  C   UNL A   1      36.382  29.566  30.117  1.00  0.00     0.016 A 
ATOM     28  C   UNL A   1      36.862  29.954  27.140  1.00  0.00     0.016 A 
ATOM     29  C   UNL A   1      38.384  29.318  30.347  1.00  0.00     0.010 A 
ATOM     30  C   UNL A   1      38.604  29.699  27.315  1.00  0.00     0.010 A 
ATOM     31  C   UNL A   1      39.411  29.402  28.861  1.00  0.00    -0.014 A 
BRANCH  31  32
ATOM     32  C   UNL A   1      40.869  29.128  28.827  1.00  0.00     0.031 A 
ATOM     33  C   UNL A   1      41.374  27.768  28.421  1.00  0.00     0.074 A 
ATOM     34  C   UNL A   1      41.698  30.053  29.344  1.00  0.00     0.049 A 
ATOM     35  N   UNL A   1      42.561  27.245  28.591  1.00  0.00    -0.248 NA
ATOM     36  C   UNL A   1      40.410  26.848  27.792  1.00  0.00     0.031 C 
ATOM     37  C   UNL A   1      41.274  31.349  29.856  1.00  0.00     0.029 A 
ATOM     38  N   UNL A   1      43.047  30.055  29.577  1.00  0.00    -0.354 N 
ATOM     39  C   UNL A   1      42.474  25.932  28.136  1.00  0.00     0.074 A 
ATOM     40  C   UNL A   1      41.106  25.719  27.725  1.00  0.00     0.031 C 
ATOM     41  C   UNL A   1      42.319  32.045  30.302  1.00  0.00     0.029 A 
ATOM     42  C   UNL A   1      43.489  31.201  30.206  1.00  0.00     0.049 A 
ATOM     43  H   UNL A   1      43.643  29.313  29.322  1.00  0.00     0.167 HD
ATOM     44  C   UNL A   1      43.463  25.005  28.063  1.00  0.00     0.037 A 
ATOM     45  C   UNL A   1      44.689  31.530  30.708  1.00  0.00     0.037 A 
ATOM     46  C   UNL A   1      44.821  25.292  28.461  1.00  0.00     0.049 A 
ATOM     47  C   UNL A   1      45.769  30.510  30.581  1.00  0.00     0.074 A 
ATOM     48  C   UNL A   1      45.940  24.486  28.373  1.00  0.00     0.029 A 
ATOM     49  N   UNL A   1      45.240  26.496  29.022  1.00  0.00    -0.354 N 
ATOM     50  N   UNL A   1      45.678  29.287  30.114  1.00  0.00    -0.248 NA
ATOM     51  C   UNL A   1      47.103  30.899  31.035  1.00  0.00     0.031 C 
ATOM     52  C   UNL A   1      47.021  25.180  28.927  1.00  0.00     0.029 A 
ATOM     53  C   UNL A   1      46.596  26.447  29.299  1.00  0.00     0.049 A 
ATOM     54  H   UNL A   1      44.658  27.271  29.196  1.00  0.00     0.167 HD
ATOM     55  C   UNL A   1      46.952  28.758  30.196  1.00  0.00     0.074 A 
ATOM     56  C   UNL A   1      47.797  29.808  30.742  1.00  0.00     0.031 C 
ATOM     57  C   UNL A   1      47.387  27.519  29.856  1.00  0.00     0.037 A 
BRANCH  44  58
ATOM     58  C   UNL A   1      43.127  23.624  27.542  1.00  0.00     0.058 A 
ATOM     59  C   UNL A   1      43.313  23.265  26.195  1.00  0.00     0.135 A 
ATOM     60  C   UNL A   1      42.653  22.622  28.409  1.00  0.00     0.135 A 
ATOM     61  F   UNL A   1      43.756  24.172  25.310  1.00  0.00    -0.206 F 
ATOM     62  C   UNL A   1      43.014  21.987  25.724  1.00  0.00     0.059 A 
ATOM     63  C   UNL A   1      42.379  21.327  27.967  1.00  0.00     0.059 A 
ATOM     64  F   UNL A   1      42.453  22.893  29.709  1.00  0.00    -0.206 F 
ATOM     65  C   UNL A   1      42.550  21.023  26.619  1.00  0.00     0.060 A 
BRANCH  65  66
ATOM     66  S   UNL A   1      42.186  19.368  25.991  1.00  0.00     0.124 S 
ATOM     67  O   UNL A   1      42.562  18.532  27.128  1.00  0.00    -0.237 OA
ATOM     68  O   UNL A   1      40.756  19.449  25.712  1.00  0.00    -0.237 OA
ATOM     69  O   UNL A   1      43.046  19.250  24.818  1.00  0.00    -0.744 OA
ENDBRANCH  65  66
ENDBRANCH  44  58
BRANCH  45  70
ATOM     70  C   UNL A   1      44.887  32.864  31.337  1.00  0.00     0.058 A 
ATOM     71  C   UNL A   1      44.801  33.022  32.727  1.00  0.00     0.135 A 
ATOM     72  C   UNL A   1      45.284  33.982  30.580  1.00  0.00     0.135 A 
ATOM     73  F   UNL A   1      44.443  31.985  33.497  1.00  0.00    -0.206 F 
ATOM     74  C   UNL A   1      45.091  34.236  33.343  1.00  0.00     0.059 A 
ATOM     75  C   UNL A   1      45.611  35.196  31.176  1.00  0.00     0.059 A 
ATOM     76  F   UNL A   1      45.424  33.878  29.249  1.00  0.00    -0.206 F 
ATOM     77  C   UNL A   1      45.501  35.317  32.559  1.00  0.00     0.060 A 
BRANCH  77  78
ATOM     78  S   UNL A   1      45.922  36.870  33.379  1.00  0.00     0.124 S 
ATOM     79  O   UNL A   1      45.253  36.712  34.666  1.00  0.00    -0.237 OA
ATOM     80  O   UNL A   1      47.381  36.816  33.407  1.00  0.00    -0.237 OA
ATOM     81  O   UNL A   1      45.355  37.883  32.494  1.00  0.00    -0.744 OA
ENDBRANCH  77  78
ENDBRANCH  45  70
BRANCH  57  82
ATOM     82  C   UNL A   1      48.853  27.274  30.040  1.00  0.00     0.058 A 
ATOM     83  C   UNL A   1      49.361  26.706  31.217  1.00  0.00     0.135 A 
ATOM     84  C   UNL A   1      49.752  27.610  29.017  1.00  0.00     0.135 A 
ATOM     85  F   UNL A   1      48.536  26.388  32.228  1.00  0.00    -0.206 F 
ATOM     86  C   UNL A   1      50.724  26.510  31.389  1.00  0.00     0.059 A 
ATOM     87  C   UNL A   1      51.115  27.387  29.153  1.00  0.00     0.059 A 
ATOM     88  F   UNL A   1      49.308  28.153  27.873  1.00  0.00    -0.206 F 
ATOM     89  C   UNL A   1      51.591  26.851  30.349  1.00  0.00     0.060 A 
BRANCH  89  90
ATOM     90  S   UNL A   1      53.356  26.566  30.577  1.00  0.00     0.124 S 
ATOM     91  O   UNL A   1      53.769  26.197  29.227  1.00  0.00    -0.237 OA
ATOM     92  O   UNL A   1      53.820  27.867  31.049  1.00  0.00    -0.237 OA
ATOM     93  O   UNL A   1      53.402  25.493  31.565  1.00  0.00    -0.744 OA
ENDBRANCH  89  90
ENDBRANCH  57  82
ENDBRANCH  31  32
ENDBRANCH  24  26
ENDBRANCH  23  24
ENDBRANCH  22  23
ENDBRANCH   1  22
TORSDOF 17
ENDMDL
