MODEL 1
REMARK VINA RESULT:     -10.5      0.000      0.000
REMARK SMILES O=C(OCCOC(=O)c1cncc(OCCCc2ccccc2)n1)c1ccc(-c2c3nc(c(-c4c(F)cc(S(=O)(=O)[O-])cc4F)c4ccc([nH]4)c(-c4c(F)cc(S(=O)(=O)[O-])cc4F)c4nc(c(-c5c(F)cc(S(=O)(=O)[O-])cc5F)c5ccc2[nH]5)C=C4)C=C3)cc1
REMARK SMILES IDX 5 1 4 2 3 3 2 4 1 5 25 6 26 7 90 8 27 9 89 10 28 11 29 12
REMARK SMILES IDX 30 13 83 14 31 15 88 16 82 17 84 18 32 19 87 20 81 21 80 22
REMARK SMILES IDX 33 24 67 25 46 26 66 27 47 28 50 29 65 30 85 31 48 32 49 33
REMARK SMILES IDX 64 35 86 36 51 37 34 38 35 39 44 40 36 41 37 42 43 43 45 44
REMARK SMILES IDX 38 45 39 46 40 47 41 48 42 49 68 50 69 51 78 52 70 53 71 54
REMARK SMILES IDX 77 55 79 56 72 57 73 58 74 59 75 60 76 61 52 62 53 63 62 64
REMARK SMILES IDX 54 65 55 66 61 67 63 68 56 69 57 70 58 71 59 72 60 73 6 74
REMARK SMILES IDX 7 75 8 76 9 77 10 78 24 79 11 80 13 81 12 82 14 83 15 84
REMARK SMILES IDX 16 85 17 86 18 87 19 88 23 89 20 90 22 91 21 92
REMARK H PARENT 84 23 50 34
REMARK Flexibility Score: inf
ROOT
ATOM      1  C   UNL A   1      40.569  19.718  26.311  1.00  0.00     0.275 C 
ENDROOT
BRANCH   1   2
ATOM      2  C   UNL A   1      40.003  21.088  25.893  1.00  0.00     0.275 C 
BRANCH   2   3
ATOM      3  O   UNL A   1      39.339  21.910  26.874  1.00  0.00    -0.458 OA
BRANCH   3   4
ATOM      4  C   UNL A   1      38.718  23.016  26.415  1.00  0.00     0.338 C 
ATOM      5  O   UNL A   1      37.816  22.996  25.600  1.00  0.00    -0.246 OA
BRANCH   4   6
ATOM      6  C   UNL A   1      39.386  24.248  26.915  1.00  0.00     0.060 A 
ATOM      7  C   UNL A   1      39.982  25.166  26.040  1.00  0.00     0.016 A 
ATOM      8  C   UNL A   1      39.278  24.556  28.272  1.00  0.00     0.016 A 
ATOM      9  C   UNL A   1      40.439  26.388  26.517  1.00  0.00     0.010 A 
ATOM     10  C   UNL A   1      39.736  25.782  28.756  1.00  0.00     0.010 A 
ATOM     11  C   UNL A   1      40.319  26.698  27.874  1.00  0.00    -0.014 A 
BRANCH  11  12
ATOM     12  C   UNL A   1      40.920  27.948  28.371  1.00  0.00     0.031 A 
ATOM     13  C   UNL A   1      42.402  28.108  28.254  1.00  0.00     0.074 A 
ATOM     14  C   UNL A   1      40.135  28.918  28.869  1.00  0.00     0.049 A 
ATOM     15  N   UNL A   1      43.134  29.168  28.450  1.00  0.00    -0.248 NA
ATOM     16  C   UNL A   1      43.162  26.913  27.846  1.00  0.00     0.031 C 
ATOM     17  C   UNL A   1      38.685  28.823  29.023  1.00  0.00     0.029 A 
ATOM     18  N   UNL A   1      40.435  30.168  29.338  1.00  0.00    -0.354 N 
ATOM     19  C   UNL A   1      44.434  28.783  28.152  1.00  0.00     0.074 A 
ATOM     20  C   UNL A   1      44.403  27.374  27.833  1.00  0.00     0.031 C 
ATOM     21  C   UNL A   1      38.220  29.954  29.580  1.00  0.00     0.029 A 
ATOM     22  C   UNL A   1      39.337  30.866  29.785  1.00  0.00     0.049 A 
ATOM     23  H   UNL A   1      41.350  30.532  29.355  1.00  0.00     0.167 HD
ATOM     24  C   UNL A   1      45.544  29.557  28.120  1.00  0.00     0.037 A 
ATOM     25  C   UNL A   1      39.251  32.118  30.272  1.00  0.00     0.037 A 
ATOM     26  C   UNL A   1      45.530  30.949  28.480  1.00  0.00     0.049 A 
ATOM     27  C   UNL A   1      40.498  32.958  30.247  1.00  0.00     0.074 A 
ATOM     28  C   UNL A   1      46.571  31.857  28.483  1.00  0.00     0.029 A 
ATOM     29  N   UNL A   1      44.399  31.632  28.916  1.00  0.00    -0.354 N 
ATOM     30  N   UNL A   1      41.711  32.613  29.876  1.00  0.00    -0.248 NA
ATOM     31  C   UNL A   1      40.364  34.361  30.650  1.00  0.00     0.031 C 
ATOM     32  C   UNL A   1      46.076  33.080  28.954  1.00  0.00     0.029 A 
ATOM     33  C   UNL A   1      44.716  32.946  29.203  1.00  0.00     0.049 A 
ATOM     34  H   UNL A   1      43.502  31.236  29.008  1.00  0.00     0.167 HD
ATOM     35  C   UNL A   1      42.476  33.768  29.953  1.00  0.00     0.074 A 
ATOM     36  C   UNL A   1      41.587  34.818  30.414  1.00  0.00     0.031 C 
ATOM     37  C   UNL A   1      43.787  33.954  29.655  1.00  0.00     0.037 A 
BRANCH  24  38
ATOM     38  C   UNL A   1      46.825  28.894  27.699  1.00  0.00     0.058 A 
ATOM     39  C   UNL A   1      47.190  28.796  26.345  1.00  0.00     0.135 A 
ATOM     40  C   UNL A   1      47.674  28.302  28.647  1.00  0.00     0.135 A 
ATOM     41  F   UNL A   1      46.404  29.322  25.393  1.00  0.00    -0.206 F 
ATOM     42  C   UNL A   1      48.323  28.095  25.942  1.00  0.00     0.059 A 
ATOM     43  C   UNL A   1      48.828  27.619  28.270  1.00  0.00     0.059 A 
ATOM     44  F   UNL A   1      47.373  28.359  29.953  1.00  0.00    -0.206 F 
ATOM     45  C   UNL A   1      49.131  27.500  26.913  1.00  0.00     0.060 A 
BRANCH  45  46
ATOM     46  S   UNL A   1      50.572  26.555  26.376  1.00  0.00     0.124 S 
ATOM     47  O   UNL A   1      50.193  26.197  25.013  1.00  0.00    -0.237 OA
ATOM     48  O   UNL A   1      51.651  27.531  26.498  1.00  0.00    -0.237 OA
ATOM     49  O   UNL A   1      50.624  25.447  27.325  1.00  0.00    -0.744 OA
ENDBRANCH  45  46
ENDBRANCH  24  38
BRANCH  25  50
ATOM     50  C   UNL A   1      37.936  32.658  30.710  1.00  0.00     0.058 A 
ATOM     51  C   UNL A   1      37.555  32.640  32.060  1.00  0.00     0.135 A 
ATOM     52  C   UNL A   1      37.055  33.260  29.796  1.00  0.00     0.135 A 
ATOM     53  F   UNL A   1      38.362  32.079  32.975  1.00  0.00    -0.206 F 
ATOM     54  C   UNL A   1      36.350  33.189  32.489  1.00  0.00     0.059 A 
ATOM     55  C   UNL A   1      35.852  33.833  30.203  1.00  0.00     0.059 A 
ATOM     56  F   UNL A   1      37.376  33.320  28.495  1.00  0.00    -0.206 F 
ATOM     57  C   UNL A   1      35.506  33.790  31.553  1.00  0.00     0.060 A 
BRANCH  57  58
ATOM     58  S   UNL A   1      33.978  34.558  32.136  1.00  0.00     0.124 S 
ATOM     59  O   UNL A   1      33.278  34.813  30.882  1.00  0.00    -0.237 OA
ATOM     60  O   UNL A   1      33.411  33.509  32.979  1.00  0.00    -0.237 OA
ATOM     61  O   UNL A   1      34.445  35.741  32.849  1.00  0.00    -0.744 OA
ENDBRANCH  57  58
ENDBRANCH  25  50
BRANCH  37  62
ATOM     62  C   UNL A   1      44.311  35.353  29.780  1.00  0.00     0.058 A 
ATOM     63  C   UNL A   1      44.262  36.254  28.707  1.00  0.00     0.135 A 
ATOM     64  C   UNL A   1      44.826  35.803  31.006  1.00  0.00     0.135 A 
ATOM     65  F   UNL A   1      43.783  35.863  27.516  1.00  0.00    -0.206 F 
ATOM     66  C   UNL A   1      44.734  37.554  28.837  1.00  0.00     0.059 A 
ATOM     67  C   UNL A   1      45.281  37.106  31.164  1.00  0.00     0.059 A 
ATOM     68  F   UNL A   1      44.881  34.976  32.062  1.00  0.00    -0.206 F 
ATOM     69  C   UNL A   1      45.244  37.970  30.070  1.00  0.00     0.060 A 
BRANCH  69  70
ATOM     70  S   UNL A   1      45.830  39.667  30.238  1.00  0.00     0.124 S 
ATOM     71  O   UNL A   1      47.235  39.528  29.870  1.00  0.00    -0.237 OA
ATOM     72  O   UNL A   1      44.992  40.385  29.281  1.00  0.00    -0.237 OA
ATOM     73  O   UNL A   1      45.573  39.976  31.641  1.00  0.00    -0.744 OA
ENDBRANCH  69  70
ENDBRANCH  37  62
ENDBRANCH  11  12
ENDBRANCH   4   6
ENDBRANCH   3   4
ENDBRANCH   2   3
ENDBRANCH   1   2
BRANCH   1  74
ATOM     74  O   UNL A   1      41.987  19.746  26.576  1.00  0.00    -0.457 OA
BRANCH  74  75
ATOM     75  C   UNL A   1      42.689  18.765  25.929  1.00  0.00     0.358 C 
ATOM     76  O   UNL A   1      42.313  17.617  25.751  1.00  0.00    -0.244 OA
BRANCH  75  77
ATOM     77  C   UNL A   1      43.987  19.285  25.442  1.00  0.00     0.170 A 
ATOM     78  C   UNL A   1      45.093  18.453  25.406  1.00  0.00     0.147 A 
ATOM     79  N   UNL A   1      44.014  20.558  24.954  1.00  0.00    -0.203 NA
ATOM     80  N   UNL A   1      46.278  18.854  24.879  1.00  0.00    -0.257 NA
ATOM     81  C   UNL A   1      45.202  20.960  24.455  1.00  0.00     0.233 A 
ATOM     82  C   UNL A   1      46.307  20.121  24.398  1.00  0.00     0.179 A 
BRANCH  81  83
ATOM     83  O   UNL A   1      45.258  22.191  23.850  1.00  0.00    -0.477 OA
BRANCH  83  84
ATOM     84  C   UNL A   1      46.347  22.988  24.331  1.00  0.00     0.232 C 
BRANCH  84  85
ATOM     85  C   UNL A   1      45.846  24.272  25.001  1.00  0.00     0.046 C 
BRANCH  85  86
ATOM     86  C   UNL A   1      44.379  24.242  25.447  1.00  0.00     0.039 C 
BRANCH  86  87
ATOM     87  C   UNL A   1      44.041  23.694  26.821  1.00  0.00    -0.048 A 
ATOM     88  C   UNL A   1      45.050  23.740  27.800  1.00  0.00     0.004 A 
ATOM     89  C   UNL A   1      42.779  23.220  27.201  1.00  0.00     0.004 A 
ATOM     90  C   UNL A   1      44.794  23.374  29.124  1.00  0.00     0.000 A 
ATOM     91  C   UNL A   1      42.518  22.867  28.530  1.00  0.00     0.000 A 
ATOM     92  C   UNL A   1      43.521  22.953  29.493  1.00  0.00     0.000 A 
ENDBRANCH  86  87
ENDBRANCH  85  86
ENDBRANCH  84  85
ENDBRANCH  83  84
ENDBRANCH  81  83
ENDBRANCH  75  77
ENDBRANCH  74  75
ENDBRANCH   1  74
TORSDOF 19
ENDMDL
MODEL 2
REMARK VINA RESULT:     -10.1      5.055      6.870
REMARK SMILES O=C(OCCOC(=O)c1cncc(OCCCc2ccccc2)n1)c1ccc(-c2c3nc(c(-c4c(F)cc(S(=O)(=O)[O-])cc4F)c4ccc([nH]4)c(-c4c(F)cc(S(=O)(=O)[O-])cc4F)c4nc(c(-c5c(F)cc(S(=O)(=O)[O-])cc5F)c5ccc2[nH]5)C=C4)C=C3)cc1
REMARK SMILES IDX 5 1 4 2 3 3 2 4 1 5 25 6 26 7 90 8 27 9 89 10 28 11 29 12
REMARK SMILES IDX 30 13 83 14 31 15 88 16 82 17 84 18 32 19 87 20 81 21 80 22
REMARK SMILES IDX 33 24 67 25 46 26 66 27 47 28 50 29 65 30 85 31 48 32 49 33
REMARK SMILES IDX 64 35 86 36 51 37 34 38 35 39 44 40 36 41 37 42 43 43 45 44
REMARK SMILES IDX 38 45 39 46 40 47 41 48 42 49 68 50 69 51 78 52 70 53 71 54
REMARK SMILES IDX 77 55 79 56 72 57 73 58 74 59 75 60 76 61 52 62 53 63 62 64
REMARK SMILES IDX 54 65 55 66 61 67 63 68 56 69 57 70 58 71 59 72 60 73 6 74
REMARK SMILES IDX 7 75 8 76 9 77 10 78 24 79 11 80 13 81 12 82 14 83 15 84
REMARK SMILES IDX 16 85 17 86 18 87 19 88 23 89 20 90 22 91 21 92
REMARK H PARENT 84 23 50 34
REMARK Flexibility Score: inf
ROOT
ATOM      1  C   UNL A   1      46.065  24.196  26.167  1.00  0.00     0.275 C 
ENDROOT
BRANCH   1   2
ATOM      2  C   UNL A   1      44.827  24.189  27.082  1.00  0.00     0.275 C 
BRANCH   2   3
ATOM      3  O   UNL A   1      43.522  24.414  26.511  1.00  0.00    -0.458 OA
BRANCH   3   4
ATOM      4  C   UNL A   1      43.206  25.691  26.213  1.00  0.00     0.338 C 
ATOM      5  O   UNL A   1      43.350  26.184  25.111  1.00  0.00    -0.246 OA
BRANCH   4   6
ATOM      6  C   UNL A   1      42.814  26.442  27.436  1.00  0.00     0.060 A 
ATOM      7  C   UNL A   1      43.427  27.653  27.782  1.00  0.00     0.016 A 
ATOM      8  C   UNL A   1      41.709  25.995  28.162  1.00  0.00     0.016 A 
ATOM      9  C   UNL A   1      42.922  28.418  28.826  1.00  0.00     0.010 A 
ATOM     10  C   UNL A   1      41.198  26.759  29.211  1.00  0.00     0.010 A 
ATOM     11  C   UNL A   1      41.809  27.972  29.544  1.00  0.00    -0.014 A 
BRANCH  11  12
ATOM     12  C   UNL A   1      41.370  28.743  30.720  1.00  0.00     0.031 A 
ATOM     13  C   UNL A   1      42.130  28.568  31.996  1.00  0.00     0.074 A 
ATOM     14  C   UNL A   1      40.345  29.605  30.613  1.00  0.00     0.049 A 
ATOM     15  N   UNL A   1      42.053  29.255  33.101  1.00  0.00    -0.248 NA
ATOM     16  C   UNL A   1      43.121  27.478  32.026  1.00  0.00     0.031 C 
ATOM     17  C   UNL A   1      39.553  29.815  29.403  1.00  0.00     0.029 A 
ATOM     18  N   UNL A   1      39.787  30.460  31.524  1.00  0.00    -0.354 N 
ATOM     19  C   UNL A   1      43.011  28.710  33.944  1.00  0.00     0.074 A 
ATOM     20  C   UNL A   1      43.607  27.590  33.253  1.00  0.00     0.031 C 
ATOM     21  C   UNL A   1      38.590  30.718  29.650  1.00  0.00     0.029 A 
ATOM     22  C   UNL A   1      38.722  31.175  31.027  1.00  0.00     0.049 A 
ATOM     23  H   UNL A   1      40.117  30.553  32.447  1.00  0.00     0.167 HD
ATOM     24  C   UNL A   1      43.376  29.138  35.175  1.00  0.00     0.037 A 
ATOM     25  C   UNL A   1      37.967  32.120  31.619  1.00  0.00     0.037 A 
ATOM     26  C   UNL A   1      42.730  30.240  35.837  1.00  0.00     0.049 A 
ATOM     27  C   UNL A   1      38.374  32.571  32.994  1.00  0.00     0.074 A 
ATOM     28  C   UNL A   1      42.999  30.790  37.075  1.00  0.00     0.029 A 
ATOM     29  N   UNL A   1      41.662  30.954  35.302  1.00  0.00    -0.354 N 
ATOM     30  N   UNL A   1      39.344  32.112  33.754  1.00  0.00    -0.248 NA
ATOM     31  C   UNL A   1      37.632  33.694  33.573  1.00  0.00     0.031 C 
ATOM     32  C   UNL A   1      42.072  31.816  37.302  1.00  0.00     0.029 A 
ATOM     33  C   UNL A   1      41.252  31.932  36.188  1.00  0.00     0.049 A 
ATOM     34  H   UNL A   1      41.256  30.786  34.421  1.00  0.00     0.167 HD
ATOM     35  C   UNL A   1      39.362  32.920  34.880  1.00  0.00     0.074 A 
ATOM     36  C   UNL A   1      38.298  33.893  34.704  1.00  0.00     0.031 C 
ATOM     37  C   UNL A   1      40.188  32.880  35.957  1.00  0.00     0.037 A 
BRANCH  24  38
ATOM     38  C   UNL A   1      44.496  28.399  35.850  1.00  0.00     0.058 A 
ATOM     39  C   UNL A   1      44.246  27.330  36.729  1.00  0.00     0.135 A 
ATOM     40  C   UNL A   1      45.832  28.789  35.663  1.00  0.00     0.135 A 
ATOM     41  F   UNL A   1      42.987  26.929  36.964  1.00  0.00    -0.206 F 
ATOM     42  C   UNL A   1      45.272  26.708  37.434  1.00  0.00     0.059 A 
ATOM     43  C   UNL A   1      46.877  28.163  36.338  1.00  0.00     0.059 A 
ATOM     44  F   UNL A   1      46.130  29.807  34.842  1.00  0.00    -0.206 F 
ATOM     45  C   UNL A   1      46.585  27.140  37.239  1.00  0.00     0.060 A 
BRANCH  45  46
ATOM     46  S   UNL A   1      47.902  26.357  38.194  1.00  0.00     0.124 S 
ATOM     47  O   UNL A   1      47.216  26.063  39.448  1.00  0.00    -0.237 OA
ATOM     48  O   UNL A   1      48.240  25.199  37.372  1.00  0.00    -0.237 OA
ATOM     49  O   UNL A   1      48.929  27.391  38.267  1.00  0.00    -0.744 OA
ENDBRANCH  45  46
ENDBRANCH  24  38
BRANCH  25  50
ATOM     50  C   UNL A   1      36.846  32.751  30.873  1.00  0.00     0.058 A 
ATOM     51  C   UNL A   1      35.521  32.327  31.055  1.00  0.00     0.135 A 
ATOM     52  C   UNL A   1      37.067  33.835  30.007  1.00  0.00     0.135 A 
ATOM     53  F   UNL A   1      35.255  31.298  31.874  1.00  0.00    -0.206 F 
ATOM     54  C   UNL A   1      34.458  32.945  30.402  1.00  0.00     0.059 A 
ATOM     55  C   UNL A   1      36.018  34.483  29.357  1.00  0.00     0.059 A 
ATOM     56  F   UNL A   1      38.312  34.294  29.809  1.00  0.00    -0.206 F 
ATOM     57  C   UNL A   1      34.715  34.027  29.558  1.00  0.00     0.060 A 
BRANCH  57  58
ATOM     58  S   UNL A   1      33.319  34.861  28.772  1.00  0.00     0.124 S 
ATOM     59  O   UNL A   1      32.808  33.817  27.891  1.00  0.00    -0.237 OA
ATOM     60  O   UNL A   1      32.477  35.195  29.917  1.00  0.00    -0.237 OA
ATOM     61  O   UNL A   1      33.938  36.002  28.105  1.00  0.00    -0.744 OA
ENDBRANCH  57  58
ENDBRANCH  25  50
BRANCH  37  62
ATOM     62  C   UNL A   1      39.992  33.947  36.992  1.00  0.00     0.058 A 
ATOM     63  C   UNL A   1      40.629  35.192  36.893  1.00  0.00     0.135 A 
ATOM     64  C   UNL A   1      39.120  33.728  38.070  1.00  0.00     0.135 A 
ATOM     65  F   UNL A   1      41.475  35.441  35.882  1.00  0.00    -0.206 F 
ATOM     66  C   UNL A   1      40.429  36.181  37.848  1.00  0.00     0.059 A 
ATOM     67  C   UNL A   1      38.887  34.712  39.022  1.00  0.00     0.059 A 
ATOM     68  F   UNL A   1      38.482  32.554  38.197  1.00  0.00    -0.206 F 
ATOM     69  C   UNL A   1      39.556  35.930  38.910  1.00  0.00     0.060 A 
BRANCH  69  70
ATOM     70  S   UNL A   1      39.281  37.228  40.132  1.00  0.00     0.124 S 
ATOM     71  O   UNL A   1      38.606  36.492  41.194  1.00  0.00    -0.237 OA
ATOM     72  O   UNL A   1      40.640  37.670  40.431  1.00  0.00    -0.237 OA
ATOM     73  O   UNL A   1      38.458  38.198  39.414  1.00  0.00    -0.744 OA
ENDBRANCH  69  70
ENDBRANCH  37  62
ENDBRANCH  11  12
ENDBRANCH   4   6
ENDBRANCH   3   4
ENDBRANCH   2   3
ENDBRANCH   1   2
BRANCH   1  74
ATOM     74  O   UNL A   1      46.425  22.884  25.686  1.00  0.00    -0.457 OA
BRANCH  74  75
ATOM     75  C   UNL A   1      45.761  22.512  24.548  1.00  0.00     0.358 C 
ATOM     76  O   UNL A   1      45.605  23.205  23.554  1.00  0.00    -0.244 OA
BRANCH  75  77
ATOM     77  C   UNL A   1      45.260  21.124  24.664  1.00  0.00     0.170 A 
ATOM     78  C   UNL A   1      46.151  20.065  24.636  1.00  0.00     0.147 A 
ATOM     79  N   UNL A   1      43.926  20.951  24.891  1.00  0.00    -0.203 NA
ATOM     80  N   UNL A   1      45.753  18.783  24.834  1.00  0.00    -0.257 NA
ATOM     81  C   UNL A   1      43.531  19.671  25.062  1.00  0.00     0.233 A 
ATOM     82  C   UNL A   1      44.426  18.610  25.055  1.00  0.00     0.179 A 
BRANCH  81  83
ATOM     83  O   UNL A   1      42.221  19.447  25.403  1.00  0.00    -0.477 OA
BRANCH  83  84
ATOM     84  C   UNL A   1      42.057  19.182  26.801  1.00  0.00     0.232 C 
BRANCH  84  85
ATOM     85  C   UNL A   1      41.062  20.156  27.442  1.00  0.00     0.046 C 
BRANCH  85  86
ATOM     86  C   UNL A   1      41.129  21.594  26.913  1.00  0.00     0.039 C 
BRANCH  86  87
ATOM     87  C   UNL A   1      39.844  22.283  26.495  1.00  0.00    -0.048 A 
ATOM     88  C   UNL A   1      38.919  21.527  25.750  1.00  0.00     0.004 A 
ATOM     89  C   UNL A   1      39.482  23.585  26.861  1.00  0.00     0.004 A 
ATOM     90  C   UNL A   1      37.659  22.035  25.427  1.00  0.00     0.000 A 
ATOM     91  C   UNL A   1      38.214  24.090  26.551  1.00  0.00     0.000 A 
ATOM     92  C   UNL A   1      37.299  23.313  25.843  1.00  0.00     0.000 A 
ENDBRANCH  86  87
ENDBRANCH  85  86
ENDBRANCH  84  85
ENDBRANCH  83  84
ENDBRANCH  81  83
ENDBRANCH  75  77
ENDBRANCH  74  75
ENDBRANCH   1  74
TORSDOF 19
ENDMDL
MODEL 3
REMARK VINA RESULT:      -9.9      4.937      6.613
REMARK SMILES O=C(OCCOC(=O)c1cncc(OCCCc2ccccc2)n1)c1ccc(-c2c3nc(c(-c4c(F)cc(S(=O)(=O)[O-])cc4F)c4ccc([nH]4)c(-c4c(F)cc(S(=O)(=O)[O-])cc4F)c4nc(c(-c5c(F)cc(S(=O)(=O)[O-])cc5F)c5ccc2[nH]5)C=C4)C=C3)cc1
REMARK SMILES IDX 5 1 4 2 3 3 2 4 1 5 25 6 26 7 90 8 27 9 89 10 28 11 29 12
REMARK SMILES IDX 30 13 83 14 31 15 88 16 82 17 84 18 32 19 87 20 81 21 80 22
REMARK SMILES IDX 33 24 67 25 46 26 66 27 47 28 50 29 65 30 85 31 48 32 49 33
REMARK SMILES IDX 64 35 86 36 51 37 34 38 35 39 44 40 36 41 37 42 43 43 45 44
REMARK SMILES IDX 38 45 39 46 40 47 41 48 42 49 68 50 69 51 78 52 70 53 71 54
REMARK SMILES IDX 77 55 79 56 72 57 73 58 74 59 75 60 76 61 52 62 53 63 62 64
REMARK SMILES IDX 54 65 55 66 61 67 63 68 56 69 57 70 58 71 59 72 60 73 6 74
REMARK SMILES IDX 7 75 8 76 9 77 10 78 24 79 11 80 13 81 12 82 14 83 15 84
REMARK SMILES IDX 16 85 17 86 18 87 19 88 23 89 20 90 22 91 21 92
REMARK H PARENT 84 23 50 34
REMARK Flexibility Score: inf
ROOT
ATOM      1  C   UNL A   1      45.676  23.557  24.958  1.00  0.00     0.275 C 
ENDROOT
BRANCH   1   2
ATOM      2  C   UNL A   1      44.791  24.815  25.038  1.00  0.00     0.275 C 
BRANCH   2   3
ATOM      3  O   UNL A   1      43.925  25.002  26.175  1.00  0.00    -0.458 OA
BRANCH   3   4
ATOM      4  C   UNL A   1      42.828  25.762  25.980  1.00  0.00     0.338 C 
ATOM      5  O   UNL A   1      42.298  25.918  24.897  1.00  0.00    -0.246 OA
BRANCH   4   6
ATOM      6  C   UNL A   1      42.461  26.496  27.221  1.00  0.00     0.060 A 
ATOM      7  C   UNL A   1      43.129  27.665  27.608  1.00  0.00     0.016 A 
ATOM      8  C   UNL A   1      41.328  26.082  27.924  1.00  0.00     0.016 A 
ATOM      9  C   UNL A   1      42.651  28.424  28.669  1.00  0.00     0.010 A 
ATOM     10  C   UNL A   1      40.845  26.839  28.991  1.00  0.00     0.010 A 
ATOM     11  C   UNL A   1      41.510  28.012  29.364  1.00  0.00    -0.014 A 
BRANCH  11  12
ATOM     12  C   UNL A   1      41.097  28.769  30.559  1.00  0.00     0.031 A 
ATOM     13  C   UNL A   1      41.854  28.542  31.828  1.00  0.00     0.074 A 
ATOM     14  C   UNL A   1      40.099  29.664  30.473  1.00  0.00     0.049 A 
ATOM     15  N   UNL A   1      41.800  29.206  32.949  1.00  0.00    -0.248 NA
ATOM     16  C   UNL A   1      42.811  27.422  31.831  1.00  0.00     0.031 C 
ATOM     17  C   UNL A   1      39.312  29.926  29.270  1.00  0.00     0.029 A 
ATOM     18  N   UNL A   1      39.569  30.515  31.405  1.00  0.00    -0.354 N 
ATOM     19  C   UNL A   1      42.742  28.613  33.777  1.00  0.00     0.074 A 
ATOM     20  C   UNL A   1      43.302  27.490  33.059  1.00  0.00     0.031 C 
ATOM     21  C   UNL A   1      38.377  30.852  29.540  1.00  0.00     0.029 A 
ATOM     22  C   UNL A   1      38.526  31.274  30.927  1.00  0.00     0.049 A 
ATOM     23  H   UNL A   1      39.903  30.577  32.329  1.00  0.00     0.167 HD
ATOM     24  C   UNL A   1      43.122  29.002  35.017  1.00  0.00     0.037 A 
ATOM     25  C   UNL A   1      37.801  32.228  31.542  1.00  0.00     0.037 A 
ATOM     26  C   UNL A   1      42.511  30.107  35.705  1.00  0.00     0.049 A 
ATOM     27  C   UNL A   1      38.224  32.634  32.926  1.00  0.00     0.074 A 
ATOM     28  C   UNL A   1      42.800  30.620  36.954  1.00  0.00     0.029 A 
ATOM     29  N   UNL A   1      41.465  30.866  35.188  1.00  0.00    -0.354 N 
ATOM     30  N   UNL A   1      39.181  32.128  33.672  1.00  0.00    -0.248 NA
ATOM     31  C   UNL A   1      37.517  33.766  33.532  1.00  0.00     0.031 C 
ATOM     32  C   UNL A   1      41.905  31.669  37.207  1.00  0.00     0.029 A 
ATOM     33  C   UNL A   1      41.087  31.836  36.097  1.00  0.00     0.049 A 
ATOM     34  H   UNL A   1      41.053  30.730  34.304  1.00  0.00     0.167 HD
ATOM     35  C   UNL A   1      39.226  32.910  34.817  1.00  0.00     0.074 A 
ATOM     36  C   UNL A   1      38.192  33.919  34.665  1.00  0.00     0.031 C 
ATOM     37  C   UNL A   1      40.052  32.821  35.890  1.00  0.00     0.037 A 
BRANCH  24  38
ATOM     38  C   UNL A   1      44.221  28.213  35.672  1.00  0.00     0.058 A 
ATOM     39  C   UNL A   1      45.576  28.515  35.447  1.00  0.00     0.135 A 
ATOM     40  C   UNL A   1      43.926  27.112  36.491  1.00  0.00     0.135 A 
ATOM     41  F   UNL A   1      45.916  29.542  34.653  1.00  0.00    -0.206 F 
ATOM     42  C   UNL A   1      46.596  27.727  35.970  1.00  0.00     0.059 A 
ATOM     43  C   UNL A   1      44.931  26.324  37.046  1.00  0.00     0.059 A 
ATOM     44  F   UNL A   1      42.651  26.773  36.735  1.00  0.00    -0.206 F 
ATOM     45  C   UNL A   1      46.263  26.625  36.761  1.00  0.00     0.060 A 
BRANCH  45  46
ATOM     46  S   UNL A   1      47.594  25.583  37.394  1.00  0.00     0.124 S 
ATOM     47  O   UNL A   1      46.949  24.275  37.426  1.00  0.00    -0.237 OA
ATOM     48  O   UNL A   1      48.633  25.751  36.383  1.00  0.00    -0.237 OA
ATOM     49  O   UNL A   1      47.892  26.169  38.697  1.00  0.00    -0.744 OA
ENDBRANCH  45  46
ENDBRANCH  24  38
BRANCH  25  50
ATOM     50  C   UNL A   1      36.699  32.910  30.813  1.00  0.00     0.058 A 
ATOM     51  C   UNL A   1      35.358  32.716  31.176  1.00  0.00     0.135 A 
ATOM     52  C   UNL A   1      36.965  33.820  29.776  1.00  0.00     0.135 A 
ATOM     53  F   UNL A   1      35.049  31.859  32.162  1.00  0.00    -0.206 F 
ATOM     54  C   UNL A   1      34.321  33.388  30.535  1.00  0.00     0.059 A 
ATOM     55  C   UNL A   1      35.946  34.520  29.133  1.00  0.00     0.059 A 
ATOM     56  F   UNL A   1      38.231  34.057  29.400  1.00  0.00    -0.206 F 
ATOM     57  C   UNL A   1      34.625  34.295  29.518  1.00  0.00     0.060 A 
BRANCH  57  58
ATOM     58  S   UNL A   1      33.273  35.210  28.743  1.00  0.00     0.124 S 
ATOM     59  O   UNL A   1      32.524  35.673  29.906  1.00  0.00    -0.237 OA
ATOM     60  O   UNL A   1      33.990  36.241  27.997  1.00  0.00    -0.237 OA
ATOM     61  O   UNL A   1      32.608  34.203  27.924  1.00  0.00    -0.744 OA
ENDBRANCH  57  58
ENDBRANCH  25  50
BRANCH  37  62
ATOM     62  C   UNL A   1      39.891  33.869  36.950  1.00  0.00     0.058 A 
ATOM     63  C   UNL A   1      40.443  35.149  36.806  1.00  0.00     0.135 A 
ATOM     64  C   UNL A   1      39.135  33.595  38.101  1.00  0.00     0.135 A 
ATOM     65  F   UNL A   1      41.177  35.452  35.724  1.00  0.00    -0.206 F 
ATOM     66  C   UNL A   1      40.275  36.120  37.785  1.00  0.00     0.059 A 
ATOM     67  C   UNL A   1      38.934  34.559  39.080  1.00  0.00     0.059 A 
ATOM     68  F   UNL A   1      38.580  32.385  38.273  1.00  0.00    -0.206 F 
ATOM     69  C   UNL A   1      39.519  35.814  38.920  1.00  0.00     0.060 A 
BRANCH  69  70
ATOM     70  S   UNL A   1      39.283  37.088  40.174  1.00  0.00     0.124 S 
ATOM     71  O   UNL A   1      38.333  36.442  41.072  1.00  0.00    -0.237 OA
ATOM     72  O   UNL A   1      40.633  37.265  40.700  1.00  0.00    -0.237 OA
ATOM     73  O   UNL A   1      38.762  38.219  39.412  1.00  0.00    -0.744 OA
ENDBRANCH  69  70
ENDBRANCH  37  62
ENDBRANCH  11  12
ENDBRANCH   4   6
ENDBRANCH   3   4
ENDBRANCH   2   3
ENDBRANCH   1   2
BRANCH   1  74
ATOM     74  O   UNL A   1      45.083  22.494  24.182  1.00  0.00    -0.457 OA
BRANCH  74  75
ATOM     75  C   UNL A   1      45.479  21.241  24.568  1.00  0.00     0.358 C 
ATOM     76  O   UNL A   1      46.623  20.815  24.543  1.00  0.00    -0.244 OA
BRANCH  75  77
ATOM     77  C   UNL A   1      44.322  20.452  25.050  1.00  0.00     0.170 A 
ATOM     78  C   UNL A   1      44.351  19.070  24.973  1.00  0.00     0.147 A 
ATOM     79  N   UNL A   1      43.299  21.131  25.644  1.00  0.00    -0.203 NA
ATOM     80  N   UNL A   1      43.359  18.300  25.488  1.00  0.00    -0.257 NA
ATOM     81  C   UNL A   1      42.303  20.361  26.131  1.00  0.00     0.233 A 
ATOM     82  C   UNL A   1      42.339  18.974  26.075  1.00  0.00     0.179 A 
BRANCH  81  83
ATOM     83  O   UNL A   1      41.302  20.982  26.837  1.00  0.00    -0.477 OA
BRANCH  83  84
ATOM     84  C   UNL A   1      41.532  22.386  26.993  1.00  0.00     0.232 C 
BRANCH  84  85
ATOM     85  C   UNL A   1      41.916  22.734  28.436  1.00  0.00     0.046 C 
BRANCH  85  86
ATOM     86  C   UNL A   1      43.404  22.568  28.769  1.00  0.00     0.039 C 
BRANCH  86  87
ATOM     87  C   UNL A   1      44.055  23.548  29.727  1.00  0.00    -0.048 A 
ATOM     88  C   UNL A   1      43.864  23.328  31.104  1.00  0.00     0.004 A 
ATOM     89  C   UNL A   1      44.889  24.605  29.341  1.00  0.00     0.004 A 
ATOM     90  C   UNL A   1      44.523  24.103  32.061  1.00  0.00     0.000 A 
ATOM     91  C   UNL A   1      45.562  25.372  30.299  1.00  0.00     0.000 A 
ATOM     92  C   UNL A   1      45.387  25.116  31.658  1.00  0.00     0.000 A 
ENDBRANCH  86  87
ENDBRANCH  85  86
ENDBRANCH  84  85
ENDBRANCH  83  84
ENDBRANCH  81  83
ENDBRANCH  75  77
ENDBRANCH  74  75
ENDBRANCH   1  74
TORSDOF 19
ENDMDL
