MODEL 1
REMARK VINA RESULT:     -12.3      0.000      0.000
REMARK SMILES C[C@H]1C[N@H+]2CCCC[C@@H]2CN1c1ccc(C(=O)OCCOC(=O)c2ccc(-c3c4nc(c(-c5c(F)cc(S(=O)(=O)[O-])cc5F)c5ccc([nH]5)c(-c5c(F)cc(S(=O)(=O)[O-])cc5F)c5nc(c(-c6c(F)cc(S(=O)(=O)[O-])cc6F)c6ccc3[nH]6)C=C5)C=C4)cc2)cc1Cl
REMARK SMILES IDX 20 1 19 2 18 3 16 4 17 5 15 6 12 7 13 8 91 9 14 10 90 11
REMARK SMILES IDX 92 12 11 13 1 14 2 15 3 16 4 17 10 18 5 19 9 20 6 22 8 23
REMARK SMILES IDX 7 24 21 25 22 26 23 27 24 28 25 29 89 30 26 31 88 32 27 33
REMARK SMILES IDX 28 34 29 35 82 36 30 37 87 38 81 39 83 40 31 41 86 42 80 43
REMARK SMILES IDX 79 44 32 46 66 47 45 48 65 49 46 50 49 51 64 52 84 53 47 54
REMARK SMILES IDX 48 55 63 57 85 58 50 59 33 60 34 61 43 62 35 63 36 64 42 65
REMARK SMILES IDX 44 66 37 67 38 68 39 69 40 70 41 71 67 72 68 73 77 74 69 75
REMARK SMILES IDX 70 76 76 77 78 78 71 79 72 80 73 81 74 82 75 83 51 84 52 85
REMARK SMILES IDX 61 86 53 87 54 88 60 89 62 90 55 91 56 92 57 93 58 94 59 95
REMARK H PARENT 4 21 83 45 49 56
REMARK Flexibility Score: inf
ROOT
ATOM      1  C   UNL A   1      40.867  21.962  27.038  1.00  0.00     0.275 C 
ENDROOT
BRANCH   1   2
ATOM      2  C   UNL A   1      39.883  21.083  26.264  1.00  0.00     0.275 C 
BRANCH   2   3
ATOM      3  O   UNL A   1      38.800  21.861  25.714  1.00  0.00    -0.458 OA
BRANCH   3   4
ATOM      4  C   UNL A   1      37.813  21.153  25.102  1.00  0.00     0.338 C 
ATOM      5  O   UNL A   1      37.798  19.956  24.904  1.00  0.00    -0.246 OA
BRANCH   4   6
ATOM      6  C   UNL A   1      36.665  22.037  24.775  1.00  0.00     0.061 A 
ATOM      7  C   UNL A   1      34.495  23.702  24.040  1.00  0.00     0.056 A 
ATOM      8  C   UNL A   1      35.487  23.370  23.116  1.00  0.00     0.028 A 
ATOM      9  C   UNL A   1      34.636  23.196  25.359  1.00  0.00     0.065 A 
ATOM     10  C   UNL A   1      36.575  22.579  23.488  1.00  0.00     0.018 A 
ATOM     11  C   UNL A   1      35.697  22.359  25.720  1.00  0.00     0.038 A 
ATOM     12  Cl  UNL A   1      33.490  23.575  26.607  1.00  0.00    -0.082 Cl
BRANCH   7  13
ATOM     13  N   UNL A   1      33.461  24.550  23.687  1.00  0.00    -0.356 N 
ATOM     14  C   UNL A   1      31.772  22.741  23.207  1.00  0.00     0.037 C 
ATOM     15  C   UNL A   1      32.241  24.173  22.937  1.00  0.00     0.134 C 
ATOM     16  C   UNL A   1      31.085  25.151  23.355  1.00  0.00     0.287 C 
ATOM     17  N   UNL A   1      31.414  26.603  23.350  1.00  0.00    -0.329 N 
ATOM     18  C   UNL A   1      33.840  25.957  23.482  1.00  0.00     0.182 C 
ATOM     19  C   UNL A   1      30.347  27.358  24.028  1.00  0.00     0.262 C 
ATOM     20  C   UNL A   1      32.710  26.843  24.039  1.00  0.00     0.203 C 
ATOM     21  H   UNL A   1      31.491  26.918  22.383  1.00  0.00     0.348 HD
ATOM     22  C   UNL A   1      30.635  28.862  24.031  1.00  0.00     0.062 C 
ATOM     23  C   UNL A   1      33.086  28.324  23.926  1.00  0.00     0.067 C 
ATOM     24  C   UNL A   1      32.018  29.185  24.590  1.00  0.00     0.012 C 
ENDBRANCH   7  13
ENDBRANCH   4   6
ENDBRANCH   3   4
ENDBRANCH   2   3
ENDBRANCH   1   2
BRANCH   1  25
ATOM     25  O   UNL A   1      40.383  23.315  27.126  1.00  0.00    -0.458 OA
BRANCH  25  26
ATOM     26  C   UNL A   1      41.309  24.272  26.892  1.00  0.00     0.338 C 
ATOM     27  O   UNL A   1      42.221  24.238  26.082  1.00  0.00    -0.246 OA
BRANCH  26  28
ATOM     28  C   UNL A   1      41.024  25.464  27.703  1.00  0.00     0.060 A 
ATOM     29  C   UNL A   1      42.030  26.414  27.827  1.00  0.00     0.016 A 
ATOM     30  C   UNL A   1      39.875  25.561  28.482  1.00  0.00     0.016 A 
ATOM     31  C   UNL A   1      41.957  27.396  28.810  1.00  0.00     0.010 A 
ATOM     32  C   UNL A   1      39.748  26.624  29.390  1.00  0.00     0.010 A 
ATOM     33  C   UNL A   1      40.806  27.531  29.598  1.00  0.00    -0.014 A 
BRANCH  33  34
ATOM     34  C   UNL A   1      40.728  28.599  30.642  1.00  0.00     0.031 A 
ATOM     35  C   UNL A   1      41.651  28.564  31.839  1.00  0.00     0.074 A 
ATOM     36  C   UNL A   1      39.839  29.608  30.522  1.00  0.00     0.049 A 
ATOM     37  N   UNL A   1      41.614  29.285  32.932  1.00  0.00    -0.248 NA
ATOM     38  C   UNL A   1      42.748  27.583  31.814  1.00  0.00     0.031 C 
ATOM     39  C   UNL A   1      38.908  29.793  29.405  1.00  0.00     0.029 A 
ATOM     40  N   UNL A   1      39.565  30.672  31.349  1.00  0.00    -0.354 N 
ATOM     41  C   UNL A   1      42.635  28.803  33.746  1.00  0.00     0.074 A 
ATOM     42  C   UNL A   1      43.277  27.729  33.021  1.00  0.00     0.031 C 
ATOM     43  C   UNL A   1      38.193  30.910  29.599  1.00  0.00     0.029 A 
ATOM     44  C   UNL A   1      38.534  31.468  30.900  1.00  0.00     0.049 A 
ATOM     45  H   UNL A   1      40.059  30.850  32.182  1.00  0.00     0.167 HD
ATOM     46  C   UNL A   1      42.999  29.218  34.983  1.00  0.00     0.037 A 
ATOM     47  C   UNL A   1      37.888  32.495  31.488  1.00  0.00     0.037 A 
ATOM     48  C   UNL A   1      42.399  30.337  35.669  1.00  0.00     0.049 A 
ATOM     49  C   UNL A   1      38.298  32.921  32.870  1.00  0.00     0.074 A 
ATOM     50  C   UNL A   1      42.732  30.862  36.907  1.00  0.00     0.029 A 
ATOM     51  N   UNL A   1      41.356  31.106  35.177  1.00  0.00    -0.354 N 
ATOM     52  N   UNL A   1      39.250  32.437  33.632  1.00  0.00    -0.248 NA
ATOM     53  C   UNL A   1      37.539  34.021  33.481  1.00  0.00     0.031 C 
ATOM     54  C   UNL A   1      41.858  31.916  37.185  1.00  0.00     0.029 A 
ATOM     55  C   UNL A   1      41.019  32.087  36.096  1.00  0.00     0.049 A 
ATOM     56  H   UNL A   1      40.920  30.976  34.304  1.00  0.00     0.167 HD
ATOM     57  C   UNL A   1      39.216  33.188  34.802  1.00  0.00     0.074 A 
ATOM     58  C   UNL A   1      38.166  34.171  34.638  1.00  0.00     0.031 C 
ATOM     59  C   UNL A   1      39.983  33.071  35.913  1.00  0.00     0.037 A 
BRANCH  46  60
ATOM     60  C   UNL A   1      44.077  28.459  35.709  1.00  0.00     0.058 A 
ATOM     61  C   UNL A   1      45.436  28.785  35.587  1.00  0.00     0.135 A 
ATOM     62  C   UNL A   1      43.728  27.448  36.622  1.00  0.00     0.135 A 
ATOM     63  F   UNL A   1      45.830  29.729  34.718  1.00  0.00    -0.206 F 
ATOM     64  C   UNL A   1      46.410  28.135  36.342  1.00  0.00     0.059 A 
ATOM     65  C   UNL A   1      44.681  26.805  37.407  1.00  0.00     0.059 A 
ATOM     66  F   UNL A   1      42.442  27.096  36.780  1.00  0.00    -0.206 F 
ATOM     67  C   UNL A   1      46.022  27.154  37.256  1.00  0.00     0.060 A 
BRANCH  67  68
ATOM     68  S   UNL A   1      47.292  26.360  38.266  1.00  0.00     0.124 S 
ATOM     69  O   UNL A   1      46.604  25.149  38.701  1.00  0.00    -0.237 OA
ATOM     70  O   UNL A   1      48.373  26.164  37.306  1.00  0.00    -0.237 OA
ATOM     71  O   UNL A   1      47.558  27.341  39.314  1.00  0.00    -0.744 OA
ENDBRANCH  67  68
ENDBRANCH  46  60
BRANCH  47  72
ATOM     72  C   UNL A   1      36.734  33.146  30.803  1.00  0.00     0.058 A 
ATOM     73  C   UNL A   1      36.927  34.061  29.759  1.00  0.00     0.135 A 
ATOM     74  C   UNL A   1      35.413  32.880  31.201  1.00  0.00     0.135 A 
ATOM     75  F   UNL A   1      38.169  34.358  29.347  1.00  0.00    -0.206 F 
ATOM     76  C   UNL A   1      35.856  34.711  29.153  1.00  0.00     0.059 A 
ATOM     77  C   UNL A   1      34.325  33.488  30.585  1.00  0.00     0.059 A 
ATOM     78  F   UNL A   1      35.169  32.002  32.186  1.00  0.00    -0.206 F 
ATOM     79  C   UNL A   1      34.558  34.420  29.575  1.00  0.00     0.060 A 
BRANCH  79  80
ATOM     80  S   UNL A   1      33.173  35.258  28.777  1.00  0.00     0.124 S 
ATOM     81  O   UNL A   1      33.858  36.307  28.030  1.00  0.00    -0.237 OA
ATOM     82  O   UNL A   1      32.583  34.187  27.980  1.00  0.00    -0.237 OA
ATOM     83  O   UNL A   1      32.362  35.711  29.903  1.00  0.00    -0.744 OA
ENDBRANCH  79  80
ENDBRANCH  47  72
BRANCH  59  84
ATOM     84  C   UNL A   1      39.750  34.061  37.021  1.00  0.00     0.058 A 
ATOM     85  C   UNL A   1      38.983  33.742  38.150  1.00  0.00     0.135 A 
ATOM     86  C   UNL A   1      40.343  35.334  36.967  1.00  0.00     0.135 A 
ATOM     87  F   UNL A   1      38.388  32.542  38.247  1.00  0.00    -0.206 F 
ATOM     88  C   UNL A   1      38.788  34.660  39.177  1.00  0.00     0.059 A 
ATOM     89  C   UNL A   1      40.186  36.256  37.996  1.00  0.00     0.059 A 
ATOM     90  F   UNL A   1      41.095  35.686  35.911  1.00  0.00    -0.206 F 
ATOM     91  C   UNL A   1      39.396  35.914  39.091  1.00  0.00     0.060 A 
BRANCH  91  92
ATOM     92  S   UNL A   1      39.160  37.084  40.445  1.00  0.00     0.124 S 
ATOM     93  O   UNL A   1      38.496  36.250  41.442  1.00  0.00    -0.237 OA
ATOM     94  O   UNL A   1      40.530  37.478  40.760  1.00  0.00    -0.237 OA
ATOM     95  O   UNL A   1      38.334  38.129  39.851  1.00  0.00    -0.744 OA
ENDBRANCH  91  92
ENDBRANCH  59  84
ENDBRANCH  33  34
ENDBRANCH  26  28
ENDBRANCH  25  26
ENDBRANCH   1  25
TORSDOF 15
ENDMDL
MODEL 2
REMARK VINA RESULT:     -12.2      0.652      8.344
REMARK SMILES C[C@H]1C[N@H+]2CCCC[C@@H]2CN1c1ccc(C(=O)OCCOC(=O)c2ccc(-c3c4nc(c(-c5c(F)cc(S(=O)(=O)[O-])cc5F)c5ccc([nH]5)c(-c5c(F)cc(S(=O)(=O)[O-])cc5F)c5nc(c(-c6c(F)cc(S(=O)(=O)[O-])cc6F)c6ccc3[nH]6)C=C5)C=C4)cc2)cc1Cl
REMARK SMILES IDX 20 1 19 2 18 3 16 4 17 5 15 6 12 7 13 8 91 9 14 10 90 11
REMARK SMILES IDX 92 12 11 13 1 14 2 15 3 16 4 17 10 18 5 19 9 20 6 22 8 23
REMARK SMILES IDX 7 24 21 25 22 26 23 27 24 28 25 29 89 30 26 31 88 32 27 33
REMARK SMILES IDX 28 34 29 35 82 36 30 37 87 38 81 39 83 40 31 41 86 42 80 43
REMARK SMILES IDX 79 44 32 46 66 47 45 48 65 49 46 50 49 51 64 52 84 53 47 54
REMARK SMILES IDX 48 55 63 57 85 58 50 59 33 60 34 61 43 62 35 63 36 64 42 65
REMARK SMILES IDX 44 66 37 67 38 68 39 69 40 70 41 71 67 72 68 73 77 74 69 75
REMARK SMILES IDX 70 76 76 77 78 78 71 79 72 80 73 81 74 82 75 83 51 84 52 85
REMARK SMILES IDX 61 86 53 87 54 88 60 89 62 90 55 91 56 92 57 93 58 94 59 95
REMARK H PARENT 4 21 83 45 49 56
REMARK Flexibility Score: inf
ROOT
ATOM      1  C   UNL A   1      40.997  23.103  26.507  1.00  0.00     0.275 C 
ENDROOT
BRANCH   1   2
ATOM      2  C   UNL A   1      40.172  21.848  26.215  1.00  0.00     0.275 C 
BRANCH   2   3
ATOM      3  O   UNL A   1      38.758  22.133  26.214  1.00  0.00    -0.458 OA
BRANCH   3   4
ATOM      4  C   UNL A   1      38.001  21.375  25.377  1.00  0.00     0.338 C 
ATOM      5  O   UNL A   1      38.211  20.224  25.055  1.00  0.00    -0.246 OA
BRANCH   4   6
ATOM      6  C   UNL A   1      36.785  22.119  24.959  1.00  0.00     0.061 A 
ATOM      7  C   UNL A   1      34.489  23.508  24.052  1.00  0.00     0.056 A 
ATOM      8  C   UNL A   1      35.528  23.192  23.174  1.00  0.00     0.028 A 
ATOM      9  C   UNL A   1      34.647  23.131  25.412  1.00  0.00     0.065 A 
ATOM     10  C   UNL A   1      36.675  22.539  23.628  1.00  0.00     0.018 A 
ATOM     11  C   UNL A   1      35.771  22.429  25.859  1.00  0.00     0.038 A 
ATOM     12  Cl  UNL A   1      33.445  23.507  26.606  1.00  0.00    -0.082 Cl
BRANCH   7  13
ATOM     13  N   UNL A   1      33.391  24.224  23.612  1.00  0.00    -0.356 N 
ATOM     14  C   UNL A   1      31.949  22.224  23.091  1.00  0.00     0.037 C 
ATOM     15  C   UNL A   1      32.270  23.693  22.804  1.00  0.00     0.134 C 
ATOM     16  C   UNL A   1      30.988  24.543  23.123  1.00  0.00     0.287 C 
ATOM     17  N   UNL A   1      31.152  26.023  23.091  1.00  0.00    -0.329 N 
ATOM     18  C   UNL A   1      33.623  25.660  23.386  1.00  0.00     0.182 C 
ATOM     19  C   UNL A   1      29.968  26.668  23.682  1.00  0.00     0.262 C 
ATOM     20  C   UNL A   1      32.368  26.425  23.848  1.00  0.00     0.203 C 
ATOM     21  H   UNL A   1      31.253  26.321  22.121  1.00  0.00     0.348 HD
ATOM     22  C   UNL A   1      30.084  28.194  23.655  1.00  0.00     0.062 C 
ATOM     23  C   UNL A   1      32.582  27.936  23.711  1.00  0.00     0.067 C 
ATOM     24  C   UNL A   1      31.385  28.686  24.284  1.00  0.00     0.012 C 
ENDBRANCH   7  13
ENDBRANCH   4   6
ENDBRANCH   3   4
ENDBRANCH   2   3
ENDBRANCH   1   2
BRANCH   1  25
ATOM     25  O   UNL A   1      40.174  24.282  26.438  1.00  0.00    -0.458 OA
BRANCH  25  26
ATOM     26  C   UNL A   1      40.850  25.446  26.313  1.00  0.00     0.338 C 
ATOM     27  O   UNL A   1      41.298  25.938  25.290  1.00  0.00    -0.246 OA
BRANCH  26  28
ATOM     28  C   UNL A   1      40.910  26.140  27.607  1.00  0.00     0.060 A 
ATOM     29  C   UNL A   1      39.882  25.906  28.512  1.00  0.00     0.016 A 
ATOM     30  C   UNL A   1      41.841  27.144  27.856  1.00  0.00     0.016 A 
ATOM     31  C   UNL A   1      39.700  26.744  29.607  1.00  0.00     0.010 A 
ATOM     32  C   UNL A   1      41.727  27.912  29.026  1.00  0.00     0.010 A 
ATOM     33  C   UNL A   1      40.630  27.752  29.896  1.00  0.00    -0.014 A 
BRANCH  33  34
ATOM     34  C   UNL A   1      40.436  28.640  31.084  1.00  0.00     0.031 A 
ATOM     35  C   UNL A   1      39.348  29.689  31.083  1.00  0.00     0.074 A 
ATOM     36  C   UNL A   1      41.226  28.506  32.171  1.00  0.00     0.049 A 
ATOM     37  N   UNL A   1      39.143  30.666  31.931  1.00  0.00    -0.248 NA
ATOM     38  C   UNL A   1      38.374  29.646  29.980  1.00  0.00     0.031 C 
ATOM     39  C   UNL A   1      42.295  27.516  32.331  1.00  0.00     0.029 A 
ATOM     40  N   UNL A   1      41.259  29.208  33.353  1.00  0.00    -0.354 N 
ATOM     41  C   UNL A   1      38.063  31.387  31.430  1.00  0.00     0.074 A 
ATOM     42  C   UNL A   1      37.653  30.735  30.206  1.00  0.00     0.031 C 
ATOM     43  C   UNL A   1      42.854  27.652  33.541  1.00  0.00     0.029 A 
ATOM     44  C   UNL A   1      42.261  28.803  34.208  1.00  0.00     0.049 A 
ATOM     45  H   UNL A   1      40.627  29.932  33.569  1.00  0.00     0.167 HD
ATOM     46  C   UNL A   1      37.471  32.493  31.946  1.00  0.00     0.037 A 
ATOM     47  C   UNL A   1      42.700  29.328  35.369  1.00  0.00     0.037 A 
ATOM     48  C   UNL A   1      37.841  33.095  33.203  1.00  0.00     0.049 A 
ATOM     49  C   UNL A   1      42.040  30.567  35.907  1.00  0.00     0.074 A 
ATOM     50  C   UNL A   1      37.269  34.189  33.831  1.00  0.00     0.029 A 
ATOM     51  N   UNL A   1      38.863  32.652  34.028  1.00  0.00    -0.354 N 
ATOM     52  N   UNL A   1      41.037  31.248  35.408  1.00  0.00    -0.248 NA
ATOM     53  C   UNL A   1      42.580  31.120  37.157  1.00  0.00     0.031 C 
ATOM     54  C   UNL A   1      37.978  34.439  35.009  1.00  0.00     0.029 A 
ATOM     55  C   UNL A   1      38.953  33.464  35.147  1.00  0.00     0.049 A 
ATOM     56  H   UNL A   1      39.440  31.874  33.847  1.00  0.00     0.167 HD
ATOM     57  C   UNL A   1      40.812  32.296  36.293  1.00  0.00     0.074 A 
ATOM     58  C   UNL A   1      41.770  32.147  37.369  1.00  0.00     0.031 C 
ATOM     59  C   UNL A   1      39.899  33.294  36.220  1.00  0.00     0.037 A 
BRANCH  46  60
ATOM     60  C   UNL A   1      36.377  33.158  31.155  1.00  0.00     0.058 A 
ATOM     61  C   UNL A   1      35.035  33.134  31.563  1.00  0.00     0.135 A 
ATOM     62  C   UNL A   1      36.700  33.921  30.018  1.00  0.00     0.135 A 
ATOM     63  F   UNL A   1      34.666  32.409  32.631  1.00  0.00    -0.206 F 
ATOM     64  C   UNL A   1      34.052  33.838  30.872  1.00  0.00     0.059 A 
ATOM     65  C   UNL A   1      35.738  34.654  29.329  1.00  0.00     0.059 A 
ATOM     66  F   UNL A   1      37.968  33.980  29.583  1.00  0.00    -0.206 F 
ATOM     67  C   UNL A   1      34.415  34.604  29.762  1.00  0.00     0.060 A 
BRANCH  67  68
ATOM     68  S   UNL A   1      33.137  35.554  28.910  1.00  0.00     0.124 S 
ATOM     69  O   UNL A   1      33.940  36.502  28.144  1.00  0.00    -0.237 OA
ATOM     70  O   UNL A   1      32.454  34.526  28.130  1.00  0.00    -0.237 OA
ATOM     71  O   UNL A   1      32.356  36.131  30.000  1.00  0.00    -0.744 OA
ENDBRANCH  67  68
ENDBRANCH  46  60
BRANCH  47  72
ATOM     72  C   UNL A   1      43.874  28.728  36.067  1.00  0.00     0.058 A 
ATOM     73  C   UNL A   1      43.726  27.639  36.938  1.00  0.00     0.135 A 
ATOM     74  C   UNL A   1      45.165  29.252  35.892  1.00  0.00     0.135 A 
ATOM     75  F   UNL A   1      42.512  27.107  37.148  1.00  0.00    -0.206 F 
ATOM     76  C   UNL A   1      44.810  27.110  37.633  1.00  0.00     0.059 A 
ATOM     77  C   UNL A   1      46.269  28.716  36.546  1.00  0.00     0.059 A 
ATOM     78  F   UNL A   1      45.367  30.285  35.060  1.00  0.00    -0.206 F 
ATOM     79  C   UNL A   1      46.077  27.658  37.432  1.00  0.00     0.060 A 
BRANCH  79  80
ATOM     80  S   UNL A   1      47.481  26.959  38.327  1.00  0.00     0.124 S 
ATOM     81  O   UNL A   1      47.457  25.574  37.871  1.00  0.00    -0.237 OA
ATOM     82  O   UNL A   1      48.591  27.773  37.842  1.00  0.00    -0.237 OA
ATOM     83  O   UNL A   1      47.123  27.170  39.727  1.00  0.00    -0.744 OA
ENDBRANCH  79  80
ENDBRANCH  47  72
BRANCH  59  84
ATOM     84  C   UNL A   1      39.856  34.276  37.358  1.00  0.00     0.058 A 
ATOM     85  C   UNL A   1      40.529  35.505  37.301  1.00  0.00     0.135 A 
ATOM     86  C   UNL A   1      39.091  33.997  38.503  1.00  0.00     0.135 A 
ATOM     87  F   UNL A   1      41.280  35.817  36.233  1.00  0.00    -0.206 F 
ATOM     88  C   UNL A   1      40.468  36.413  38.353  1.00  0.00     0.059 A 
ATOM     89  C   UNL A   1      38.993  34.903  39.553  1.00  0.00     0.059 A 
ATOM     90  F   UNL A   1      38.420  32.838  38.603  1.00  0.00    -0.206 F 
ATOM     91  C   UNL A   1      39.695  36.104  39.474  1.00  0.00     0.060 A 
BRANCH  91  92
ATOM     92  S   UNL A   1      39.600  37.305  40.818  1.00  0.00     0.124 S 
ATOM     93  O   UNL A   1      38.660  38.280  40.275  1.00  0.00    -0.237 OA
ATOM     94  O   UNL A   1      39.104  36.496  41.927  1.00  0.00    -0.237 OA
ATOM     95  O   UNL A   1      40.977  37.770  40.956  1.00  0.00    -0.744 OA
ENDBRANCH  91  92
ENDBRANCH  59  84
ENDBRANCH  33  34
ENDBRANCH  26  28
ENDBRANCH  25  26
ENDBRANCH   1  25
TORSDOF 15
ENDMDL
MODEL 3
REMARK VINA RESULT:     -12.2      6.503     12.301
REMARK SMILES C[C@H]1C[N@H+]2CCCC[C@@H]2CN1c1ccc(C(=O)OCCOC(=O)c2ccc(-c3c4nc(c(-c5c(F)cc(S(=O)(=O)[O-])cc5F)c5ccc([nH]5)c(-c5c(F)cc(S(=O)(=O)[O-])cc5F)c5nc(c(-c6c(F)cc(S(=O)(=O)[O-])cc6F)c6ccc3[nH]6)C=C5)C=C4)cc2)cc1Cl
REMARK SMILES IDX 20 1 19 2 18 3 16 4 17 5 15 6 12 7 13 8 91 9 14 10 90 11
REMARK SMILES IDX 92 12 11 13 1 14 2 15 3 16 4 17 10 18 5 19 9 20 6 22 8 23
REMARK SMILES IDX 7 24 21 25 22 26 23 27 24 28 25 29 89 30 26 31 88 32 27 33
REMARK SMILES IDX 28 34 29 35 82 36 30 37 87 38 81 39 83 40 31 41 86 42 80 43
REMARK SMILES IDX 79 44 32 46 66 47 45 48 65 49 46 50 49 51 64 52 84 53 47 54
REMARK SMILES IDX 48 55 63 57 85 58 50 59 33 60 34 61 43 62 35 63 36 64 42 65
REMARK SMILES IDX 44 66 37 67 38 68 39 69 40 70 41 71 67 72 68 73 77 74 69 75
REMARK SMILES IDX 70 76 76 77 78 78 71 79 72 80 73 81 74 82 75 83 51 84 52 85
REMARK SMILES IDX 61 86 53 87 54 88 60 89 62 90 55 91 56 92 57 93 58 94 59 95
REMARK H PARENT 4 21 83 45 49 56
REMARK Flexibility Score: inf
ROOT
ATOM      1  C   UNL A   1      34.817  32.218  29.232  1.00  0.00     0.275 C 
ENDROOT
BRANCH   1   2
ATOM      2  C   UNL A   1      33.931  32.485  28.014  1.00  0.00     0.275 C 
BRANCH   2   3
ATOM      3  O   UNL A   1      33.768  31.298  27.210  1.00  0.00    -0.458 OA
BRANCH   3   4
ATOM      4  C   UNL A   1      32.489  30.979  26.877  1.00  0.00     0.338 C 
ATOM      5  O   UNL A   1      31.549  31.743  26.806  1.00  0.00    -0.246 OA
BRANCH   4   6
ATOM      6  C   UNL A   1      32.392  29.545  26.502  1.00  0.00     0.061 A 
ATOM      7  C   UNL A   1      32.114  26.802  25.854  1.00  0.00     0.056 A 
ATOM      8  C   UNL A   1      31.517  27.331  27.000  1.00  0.00     0.028 A 
ATOM      9  C   UNL A   1      32.882  27.685  25.051  1.00  0.00     0.065 A 
ATOM     10  C   UNL A   1      31.684  28.675  27.338  1.00  0.00     0.018 A 
ATOM     11  C   UNL A   1      33.006  29.044  25.359  1.00  0.00     0.038 A 
ATOM     12  Cl  UNL A   1      33.707  27.136  23.627  1.00  0.00    -0.082 Cl
BRANCH   7  13
ATOM     13  N   UNL A   1      32.010  25.453  25.567  1.00  0.00    -0.356 N 
ATOM     14  C   UNL A   1      30.022  25.651  24.030  1.00  0.00     0.037 C 
ATOM     15  C   UNL A   1      30.828  24.772  24.990  1.00  0.00     0.134 C 
ATOM     16  C   UNL A   1      31.327  23.512  24.196  1.00  0.00     0.287 C 
ATOM     17  N   UNL A   1      32.292  22.625  24.902  1.00  0.00    -0.329 N 
ATOM     18  C   UNL A   1      32.819  24.563  26.415  1.00  0.00     0.182 C 
ATOM     19  C   UNL A   1      32.879  21.668  23.949  1.00  0.00     0.262 C 
ATOM     20  C   UNL A   1      33.373  23.431  25.528  1.00  0.00     0.203 C 
ATOM     21  H   UNL A   1      31.795  22.116  25.633  1.00  0.00     0.348 HD
ATOM     22  C   UNL A   1      33.867  20.722  24.636  1.00  0.00     0.062 C 
ATOM     23  C   UNL A   1      34.292  22.515  26.342  1.00  0.00     0.067 C 
ATOM     24  C   UNL A   1      34.931  21.474  25.430  1.00  0.00     0.012 C 
ENDBRANCH   7  13
ENDBRANCH   4   6
ENDBRANCH   3   4
ENDBRANCH   2   3
ENDBRANCH   1   2
BRANCH   1  25
ATOM     25  O   UNL A   1      35.736  31.142  28.971  1.00  0.00    -0.458 OA
BRANCH  25  26
ATOM     26  C   UNL A   1      36.364  30.647  30.061  1.00  0.00     0.338 C 
ATOM     27  O   UNL A   1      35.970  30.665  31.216  1.00  0.00    -0.246 OA
BRANCH  26  28
ATOM     28  C   UNL A   1      37.603  29.963  29.667  1.00  0.00     0.060 A 
ATOM     29  C   UNL A   1      38.480  29.585  30.675  1.00  0.00     0.016 A 
ATOM     30  C   UNL A   1      37.993  29.867  28.334  1.00  0.00     0.016 A 
ATOM     31  C   UNL A   1      39.790  29.224  30.375  1.00  0.00     0.010 A 
ATOM     32  C   UNL A   1      39.276  29.387  28.026  1.00  0.00     0.010 A 
ATOM     33  C   UNL A   1      40.207  29.100  29.044  1.00  0.00    -0.014 A 
BRANCH  33  34
ATOM     34  C   UNL A   1      41.613  28.697  28.729  1.00  0.00     0.031 A 
ATOM     35  C   UNL A   1      42.723  29.723  28.746  1.00  0.00     0.074 A 
ATOM     36  C   UNL A   1      41.904  27.412  28.433  1.00  0.00     0.049 A 
ATOM     37  N   UNL A   1      43.958  29.610  28.327  1.00  0.00    -0.248 NA
ATOM     38  C   UNL A   1      42.402  31.052  29.292  1.00  0.00     0.031 C 
ATOM     39  C   UNL A   1      40.944  26.305  28.411  1.00  0.00     0.029 A 
ATOM     40  N   UNL A   1      43.094  26.813  28.090  1.00  0.00    -0.354 N 
ATOM     41  C   UNL A   1      44.538  30.865  28.496  1.00  0.00     0.074 A 
ATOM     42  C   UNL A   1      43.520  31.724  29.060  1.00  0.00     0.031 C 
ATOM     43  C   UNL A   1      41.581  25.166  28.105  1.00  0.00     0.029 A 
ATOM     44  C   UNL A   1      42.974  25.471  27.805  1.00  0.00     0.049 A 
ATOM     45  H   UNL A   1      43.951  27.297  28.053  1.00  0.00     0.167 HD
ATOM     46  C   UNL A   1      45.801  31.260  28.205  1.00  0.00     0.037 A 
ATOM     47  C   UNL A   1      43.860  24.590  27.300  1.00  0.00     0.037 A 
ATOM     48  C   UNL A   1      46.830  30.378  27.709  1.00  0.00     0.049 A 
ATOM     49  C   UNL A   1      45.248  25.060  26.967  1.00  0.00     0.074 A 
ATOM     50  C   UNL A   1      48.152  30.677  27.429  1.00  0.00     0.029 A 
ATOM     51  N   UNL A   1      46.658  29.031  27.431  1.00  0.00    -0.354 N 
ATOM     52  N   UNL A   1      45.770  26.255  27.112  1.00  0.00    -0.248 NA
ATOM     53  C   UNL A   1      46.166  24.070  26.386  1.00  0.00     0.031 C 
ATOM     54  C   UNL A   1      48.767  29.524  26.934  1.00  0.00     0.029 A 
ATOM     55  C   UNL A   1      47.844  28.491  26.962  1.00  0.00     0.049 A 
ATOM     56  H   UNL A   1      45.817  28.532  27.551  1.00  0.00     0.167 HD
ATOM     57  C   UNL A   1      47.081  26.153  26.661  1.00  0.00     0.074 A 
ATOM     58  C   UNL A   1      47.279  24.777  26.258  1.00  0.00     0.031 C 
ATOM     59  C   UNL A   1      48.033  27.114  26.582  1.00  0.00     0.037 A 
BRANCH  46  60
ATOM     60  C   UNL A   1      46.159  32.711  28.381  1.00  0.00     0.058 A 
ATOM     61  C   UNL A   1      45.974  33.659  27.363  1.00  0.00     0.135 A 
ATOM     62  C   UNL A   1      46.602  33.176  29.632  1.00  0.00     0.135 A 
ATOM     63  F   UNL A   1      45.570  33.271  26.143  1.00  0.00    -0.206 F 
ATOM     64  C   UNL A   1      46.218  35.014  27.577  1.00  0.00     0.059 A 
ATOM     65  C   UNL A   1      46.825  34.528  29.876  1.00  0.00     0.059 A 
ATOM     66  F   UNL A   1      46.795  32.313  30.643  1.00  0.00    -0.206 F 
ATOM     67  C   UNL A   1      46.634  35.440  28.840  1.00  0.00     0.060 A 
BRANCH  67  68
ATOM     68  S   UNL A   1      46.893  37.206  29.116  1.00  0.00     0.124 S 
ATOM     69  O   UNL A   1      46.054  37.444  30.286  1.00  0.00    -0.237 OA
ATOM     70  O   UNL A   1      48.333  37.276  29.344  1.00  0.00    -0.237 OA
ATOM     71  O   UNL A   1      46.428  37.818  27.876  1.00  0.00    -0.744 OA
ENDBRANCH  67  68
ENDBRANCH  46  60
BRANCH  47  72
ATOM     72  C   UNL A   1      43.443  23.188  27.010  1.00  0.00     0.058 A 
ATOM     73  C   UNL A   1      43.244  22.257  28.039  1.00  0.00     0.135 A 
ATOM     74  C   UNL A   1      43.258  22.747  25.689  1.00  0.00     0.135 A 
ATOM     75  F   UNL A   1      43.417  22.624  29.319  1.00  0.00    -0.206 F 
ATOM     76  C   UNL A   1      42.907  20.934  27.770  1.00  0.00     0.059 A 
ATOM     77  C   UNL A   1      42.884  21.440  25.397  1.00  0.00     0.059 A 
ATOM     78  F   UNL A   1      43.421  23.599  24.665  1.00  0.00    -0.206 F 
ATOM     79  C   UNL A   1      42.731  20.535  26.445  1.00  0.00     0.060 A 
BRANCH  79  80
ATOM     80  S   UNL A   1      42.282  18.820  26.103  1.00  0.00     0.124 S 
ATOM     81  O   UNL A   1      40.882  18.956  25.718  1.00  0.00    -0.237 OA
ATOM     82  O   UNL A   1      43.208  18.467  25.032  1.00  0.00    -0.237 OA
ATOM     83  O   UNL A   1      42.524  18.150  27.377  1.00  0.00    -0.744 OA
ENDBRANCH  79  80
ENDBRANCH  47  72
BRANCH  59  84
ATOM     84  C   UNL A   1      49.393  26.701  26.088  1.00  0.00     0.058 A 
ATOM     85  C   UNL A   1      49.789  26.901  24.758  1.00  0.00     0.135 A 
ATOM     86  C   UNL A   1      50.325  26.138  26.975  1.00  0.00     0.135 A 
ATOM     87  F   UNL A   1      48.933  27.427  23.868  1.00  0.00    -0.206 F 
ATOM     88  C   UNL A   1      51.055  26.530  24.316  1.00  0.00     0.059 A 
ATOM     89  C   UNL A   1      51.606  25.789  26.562  1.00  0.00     0.059 A 
ATOM     90  F   UNL A   1      49.998  25.935  28.262  1.00  0.00    -0.206 F 
ATOM     91  C   UNL A   1      51.957  25.977  25.227  1.00  0.00     0.060 A 
BRANCH  91  92
ATOM     92  S   UNL A   1      53.607  25.530  24.647  1.00  0.00     0.124 S 
ATOM     93  O   UNL A   1      54.455  26.204  25.625  1.00  0.00    -0.237 OA
ATOM     94  O   UNL A   1      53.582  24.073  24.727  1.00  0.00    -0.237 OA
ATOM     95  O   UNL A   1      53.652  26.077  23.295  1.00  0.00    -0.744 OA
ENDBRANCH  91  92
ENDBRANCH  59  84
ENDBRANCH  33  34
ENDBRANCH  26  28
ENDBRANCH  25  26
ENDBRANCH   1  25
TORSDOF 15
ENDMDL
