MODEL 1
REMARK VINA RESULT:     -10.3      0.000      0.000
REMARK SMILES Cn1cncc1COc1c(F)cc(C(=O)OCCOC(=O)c2ccc(-c3c4nc(c(-c5c(F)cc(S(=O)(=O)[O-])cc5F)c5ccc([nH]5)c(-c5c(F)cc(S(=O)(=O)[O-])cc5F)c5nc(c(-c6c(F)cc(S(=O)(=O)[O-])cc6F)c6ccc3[nH]6)C=C5)C=C4)cc2)cc1F
REMARK SMILES IDX 17 1 16 2 14 3 15 4 13 5 9 6 10 7 89 8 11 9 12 10 88 11
REMARK SMILES IDX 90 12 8 13 7 14 6 15 1 16 2 17 3 18 4 19 5 20 18 21 19 22
REMARK SMILES IDX 20 23 21 24 22 25 23 26 87 27 24 28 86 29 25 30 26 31 27 32
REMARK SMILES IDX 80 33 28 34 85 35 79 36 81 37 29 38 84 39 78 40 77 41 30 43
REMARK SMILES IDX 64 44 43 45 63 46 44 47 47 48 62 49 82 50 45 51 46 52 61 54
REMARK SMILES IDX 83 55 48 56 31 57 32 58 41 59 33 60 34 61 40 62 42 63 35 64
REMARK SMILES IDX 36 65 37 66 38 67 39 68 65 69 66 70 75 71 67 72 68 73 74 74
REMARK SMILES IDX 76 75 69 76 70 77 71 78 72 79 73 80 49 81 50 82 59 83 51 84
REMARK SMILES IDX 52 85 58 86 60 87 53 88 54 89 55 90 56 91 57 92
REMARK H PARENT 81 42 47 53
REMARK Flexibility Score: inf
ROOT
ATOM      1  C   UNL A   1      33.415  33.506  27.810  1.00  0.00     0.275 C 
ENDROOT
BRANCH   1   2
ATOM      2  O   UNL A   1      34.293  33.755  28.924  1.00  0.00    -0.458 OA
BRANCH   2   3
ATOM      3  C   UNL A   1      33.827  34.577  29.897  1.00  0.00     0.338 C 
ATOM      4  O   UNL A   1      33.001  35.459  29.772  1.00  0.00    -0.246 OA
BRANCH   3   5
ATOM      5  C   UNL A   1      34.407  34.191  31.211  1.00  0.00     0.066 A 
ATOM      6  C   UNL A   1      35.344  33.486  33.753  1.00  0.00     0.191 A 
ATOM      7  C   UNL A   1      35.420  32.585  32.692  1.00  0.00     0.169 A 
ATOM      8  C   UNL A   1      34.785  34.740  33.535  1.00  0.00     0.169 A 
ATOM      9  F   UNL A   1      35.940  31.364  32.872  1.00  0.00    -0.203 F 
ATOM     10  C   UNL A   1      34.970  32.930  31.423  1.00  0.00     0.059 A 
ATOM     11  C   UNL A   1      34.338  35.108  32.270  1.00  0.00     0.059 A 
ATOM     12  F   UNL A   1      34.673  35.613  34.546  1.00  0.00    -0.203 F 
BRANCH   6  13
ATOM     13  O   UNL A   1      35.755  33.113  35.003  1.00  0.00    -0.481 OA
BRANCH  13  14
ATOM     14  C   UNL A   1      37.109  33.512  35.261  1.00  0.00     0.285 C 
BRANCH  14  15
ATOM     15  C   UNL A   1      37.920  32.277  35.430  1.00  0.00     0.075 A 
ATOM     16  C   UNL A   1      39.180  32.353  33.245  1.00  0.00     0.151 C 
ATOM     17  N   UNL A   1      38.807  31.772  34.510  1.00  0.00    -0.335 N 
ATOM     18  C   UNL A   1      39.280  30.587  34.997  1.00  0.00     0.199 A 
ATOM     19  N   UNL A   1      38.792  30.320  36.185  1.00  0.00    -0.245 NA
ATOM     20  C   UNL A   1      37.934  31.353  36.458  1.00  0.00     0.138 A 
ENDBRANCH  14  15
ENDBRANCH  13  14
ENDBRANCH   6  13
ENDBRANCH   3   5
ENDBRANCH   2   3
ENDBRANCH   1   2
BRANCH   1  21
ATOM     21  C   UNL A   1      33.446  32.026  27.423  1.00  0.00     0.275 C 
BRANCH  21  22
ATOM     22  O   UNL A   1      34.038  31.231  28.468  1.00  0.00    -0.458 OA
BRANCH  22  23
ATOM     23  C   UNL A   1      34.447  29.997  28.096  1.00  0.00     0.338 C 
ATOM     24  O   UNL A   1      33.800  29.147  27.507  1.00  0.00    -0.246 OA
BRANCH  23  25
ATOM     25  C   UNL A   1      35.882  29.854  28.382  1.00  0.00     0.060 A 
ATOM     26  C   UNL A   1      36.769  30.039  27.325  1.00  0.00     0.016 A 
ATOM     27  C   UNL A   1      36.349  29.444  29.631  1.00  0.00     0.016 A 
ATOM     28  C   UNL A   1      38.125  29.778  27.489  1.00  0.00     0.010 A 
ATOM     29  C   UNL A   1      37.723  29.231  29.809  1.00  0.00     0.010 A 
ATOM     30  C   UNL A   1      38.623  29.379  28.736  1.00  0.00    -0.014 A 
BRANCH  30  31
ATOM     31  C   UNL A   1      40.074  29.089  28.891  1.00  0.00     0.031 A 
ATOM     32  C   UNL A   1      41.002  30.142  29.438  1.00  0.00     0.074 A 
ATOM     33  C   UNL A   1      40.559  27.870  28.579  1.00  0.00     0.049 A 
ATOM     34  N   UNL A   1      42.307  30.130  29.522  1.00  0.00    -0.248 NA
ATOM     35  C   UNL A   1      40.378  31.372  29.951  1.00  0.00     0.031 C 
ATOM     36  C   UNL A   1      39.761  26.742  28.091  1.00  0.00     0.029 A 
ATOM     37  N   UNL A   1      41.836  27.367  28.639  1.00  0.00    -0.354 N 
ATOM     38  C   UNL A   1      42.665  31.365  30.052  1.00  0.00     0.074 A 
ATOM     39  C   UNL A   1      41.439  32.103  30.267  1.00  0.00     0.031 C 
ATOM     40  C   UNL A   1      40.558  25.675  27.932  1.00  0.00     0.029 A 
ATOM     41  C   UNL A   1      41.934  26.058  28.227  1.00  0.00     0.049 A 
ATOM     42  H   UNL A   1      42.608  27.895  28.946  1.00  0.00     0.167 HD
ATOM     43  C   UNL A   1      43.904  31.837  30.332  1.00  0.00     0.037 A 
ATOM     44  C   UNL A   1      43.012  25.264  28.069  1.00  0.00     0.037 A 
ATOM     45  C   UNL A   1      45.117  31.077  30.162  1.00  0.00     0.049 A 
ATOM     46  C   UNL A   1      44.379  25.819  28.357  1.00  0.00     0.074 A 
ATOM     47  C   UNL A   1      46.419  31.465  30.420  1.00  0.00     0.029 A 
ATOM     48  N   UNL A   1      45.174  29.767  29.707  1.00  0.00    -0.354 N 
ATOM     49  N   UNL A   1      44.706  27.012  28.794  1.00  0.00    -0.248 NA
ATOM     50  C   UNL A   1      45.523  24.932  28.111  1.00  0.00     0.031 C 
ATOM     51  C   UNL A   1      47.268  30.403  30.091  1.00  0.00     0.029 A 
ATOM     52  C   UNL A   1      46.490  29.336  29.667  1.00  0.00     0.049 A 
ATOM     53  H   UNL A   1      44.394  29.223  29.451  1.00  0.00     0.167 HD
ATOM     54  C   UNL A   1      46.093  27.017  28.878  1.00  0.00     0.074 A 
ATOM     55  C   UNL A   1      46.543  25.703  28.467  1.00  0.00     0.031 C 
ATOM     56  C   UNL A   1      46.920  28.024  29.255  1.00  0.00     0.037 A 
BRANCH  43  57
ATOM     57  C   UNL A   1      44.020  33.254  30.823  1.00  0.00     0.058 A 
ATOM     58  C   UNL A   1      44.186  34.307  29.907  1.00  0.00     0.135 A 
ATOM     59  C   UNL A   1      44.014  33.572  32.190  1.00  0.00     0.135 A 
ATOM     60  F   UNL A   1      44.198  34.058  28.588  1.00  0.00    -0.206 F 
ATOM     61  C   UNL A   1      44.344  35.624  30.326  1.00  0.00     0.059 A 
ATOM     62  C   UNL A   1      44.146  34.886  32.631  1.00  0.00     0.059 A 
ATOM     63  F   UNL A   1      43.842  32.607  33.107  1.00  0.00    -0.206 F 
ATOM     64  C   UNL A   1      44.310  35.905  31.691  1.00  0.00     0.060 A 
BRANCH  64  65
ATOM     65  S   UNL A   1      44.487  37.603  32.279  1.00  0.00     0.124 S 
ATOM     66  O   UNL A   1      43.564  37.617  33.411  1.00  0.00    -0.237 OA
ATOM     67  O   UNL A   1      45.904  37.670  32.618  1.00  0.00    -0.237 OA
ATOM     68  O   UNL A   1      44.081  38.407  31.130  1.00  0.00    -0.744 OA
ENDBRANCH  64  65
ENDBRANCH  43  57
BRANCH  44  69
ATOM     69  C   UNL A   1      42.836  23.869  27.583  1.00  0.00     0.058 A 
ATOM     70  C   UNL A   1      42.777  23.582  26.209  1.00  0.00     0.135 A 
ATOM     71  C   UNL A   1      42.687  22.803  28.479  1.00  0.00     0.135 A 
ATOM     72  F   UNL A   1      42.906  24.570  25.309  1.00  0.00    -0.206 F 
ATOM     73  C   UNL A   1      42.545  22.293  25.740  1.00  0.00     0.059 A 
ATOM     74  C   UNL A   1      42.481  21.500  28.034  1.00  0.00     0.059 A 
ATOM     75  F   UNL A   1      42.752  23.024  29.801  1.00  0.00    -0.206 F 
ATOM     76  C   UNL A   1      42.402  21.257  26.661  1.00  0.00     0.060 A 
BRANCH  76  77
ATOM     77  S   UNL A   1      42.055  19.577  26.097  1.00  0.00     0.124 S 
ATOM     78  O   UNL A   1      42.431  18.791  27.265  1.00  0.00    -0.237 OA
ATOM     79  O   UNL A   1      40.627  19.641  25.803  1.00  0.00    -0.237 OA
ATOM     80  O   UNL A   1      42.921  19.429  24.930  1.00  0.00    -0.744 OA
ENDBRANCH  76  77
ENDBRANCH  44  69
BRANCH  56  81
ATOM     81  C   UNL A   1      48.395  27.741  29.258  1.00  0.00     0.058 A 
ATOM     82  C   UNL A   1      49.158  27.926  28.094  1.00  0.00     0.135 A 
ATOM     83  C   UNL A   1      49.041  27.232  30.394  1.00  0.00     0.135 A 
ATOM     84  F   UNL A   1      48.584  28.404  26.978  1.00  0.00    -0.206 F 
ATOM     85  C   UNL A   1      50.512  27.608  28.051  1.00  0.00     0.059 A 
ATOM     86  C   UNL A   1      50.398  26.927  30.380  1.00  0.00     0.059 A 
ATOM     87  F   UNL A   1      48.357  27.045  31.534  1.00  0.00    -0.206 F 
ATOM     88  C   UNL A   1      51.124  27.116  29.203  1.00  0.00     0.060 A 
BRANCH  88  89
ATOM     89  S   UNL A   1      52.877  26.680  29.191  1.00  0.00     0.124 S 
ATOM     90  O   UNL A   1      52.992  25.959  27.927  1.00  0.00    -0.237 OA
ATOM     91  O   UNL A   1      53.524  27.987  29.237  1.00  0.00    -0.237 OA
ATOM     92  O   UNL A   1      53.034  25.866  30.393  1.00  0.00    -0.744 OA
ENDBRANCH  88  89
ENDBRANCH  56  81
ENDBRANCH  30  31
ENDBRANCH  23  25
ENDBRANCH  22  23
ENDBRANCH  21  22
ENDBRANCH   1  21
TORSDOF 17
ENDMDL
MODEL 2
REMARK VINA RESULT:     -10.1      4.083      6.698
REMARK SMILES Cn1cncc1COc1c(F)cc(C(=O)OCCOC(=O)c2ccc(-c3c4nc(c(-c5c(F)cc(S(=O)(=O)[O-])cc5F)c5ccc([nH]5)c(-c5c(F)cc(S(=O)(=O)[O-])cc5F)c5nc(c(-c6c(F)cc(S(=O)(=O)[O-])cc6F)c6ccc3[nH]6)C=C5)C=C4)cc2)cc1F
REMARK SMILES IDX 17 1 16 2 14 3 15 4 13 5 9 6 10 7 89 8 11 9 12 10 88 11
REMARK SMILES IDX 90 12 8 13 7 14 6 15 1 16 2 17 3 18 4 19 5 20 18 21 19 22
REMARK SMILES IDX 20 23 21 24 22 25 23 26 87 27 24 28 86 29 25 30 26 31 27 32
REMARK SMILES IDX 80 33 28 34 85 35 79 36 81 37 29 38 84 39 78 40 77 41 30 43
REMARK SMILES IDX 64 44 43 45 63 46 44 47 47 48 62 49 82 50 45 51 46 52 61 54
REMARK SMILES IDX 83 55 48 56 31 57 32 58 41 59 33 60 34 61 40 62 42 63 35 64
REMARK SMILES IDX 36 65 37 66 38 67 39 68 65 69 66 70 75 71 67 72 68 73 74 74
REMARK SMILES IDX 76 75 69 76 70 77 71 78 72 79 73 80 49 81 50 82 59 83 51 84
REMARK SMILES IDX 52 85 58 86 60 87 53 88 54 89 55 90 56 91 57 92
REMARK H PARENT 81 42 47 53
REMARK Flexibility Score: inf
ROOT
ATOM      1  C   UNL A   1      33.066  29.998  27.426  1.00  0.00     0.275 C 
ENDROOT
BRANCH   1   2
ATOM      2  O   UNL A   1      32.628  28.981  26.507  1.00  0.00    -0.458 OA
BRANCH   2   3
ATOM      3  C   UNL A   1      32.000  27.905  27.041  1.00  0.00     0.338 C 
ATOM      4  O   UNL A   1      31.228  27.902  27.980  1.00  0.00    -0.246 OA
BRANCH   3   5
ATOM      5  C   UNL A   1      32.312  26.686  26.247  1.00  0.00     0.066 A 
ATOM      6  C   UNL A   1      32.736  24.392  24.699  1.00  0.00     0.191 A 
ATOM      7  C   UNL A   1      33.459  25.559  24.455  1.00  0.00     0.169 A 
ATOM      8  C   UNL A   1      31.789  24.385  25.717  1.00  0.00     0.169 A 
ATOM      9  F   UNL A   1      34.369  25.604  23.473  1.00  0.00    -0.203 F 
ATOM     10  C   UNL A   1      33.265  26.699  25.226  1.00  0.00     0.059 A 
ATOM     11  C   UNL A   1      31.588  25.513  26.507  1.00  0.00     0.059 A 
ATOM     12  F   UNL A   1      31.060  23.285  25.951  1.00  0.00    -0.203 F 
BRANCH   6  13
ATOM     13  O   UNL A   1      32.913  23.294  23.902  1.00  0.00    -0.481 OA
BRANCH  13  14
ATOM     14  C   UNL A   1      34.048  22.517  24.309  1.00  0.00     0.285 C 
BRANCH  14  15
ATOM     15  C   UNL A   1      33.575  21.134  24.581  1.00  0.00     0.075 A 
ATOM     16  C   UNL A   1      35.813  20.044  24.995  1.00  0.00     0.151 C 
ATOM     17  N   UNL A   1      34.378  20.054  24.853  1.00  0.00    -0.335 N 
ATOM     18  C   UNL A   1      33.575  18.953  24.955  1.00  0.00     0.199 A 
ATOM     19  N   UNL A   1      32.308  19.262  24.811  1.00  0.00    -0.245 NA
ATOM     20  C   UNL A   1      32.296  20.609  24.563  1.00  0.00     0.138 A 
ENDBRANCH  14  15
ENDBRANCH  13  14
ENDBRANCH   6  13
ENDBRANCH   3   5
ENDBRANCH   2   3
ENDBRANCH   1   2
BRANCH   1  21
ATOM     21  C   UNL A   1      34.541  30.332  27.193  1.00  0.00     0.275 C 
BRANCH  21  22
ATOM     22  O   UNL A   1      35.390  29.550  28.054  1.00  0.00    -0.458 OA
BRANCH  22  23
ATOM     23  C   UNL A   1      36.057  30.249  29.001  1.00  0.00     0.338 C 
ATOM     24  O   UNL A   1      35.581  30.917  29.903  1.00  0.00    -0.246 OA
BRANCH  23  25
ATOM     25  C   UNL A   1      37.496  29.976  28.882  1.00  0.00     0.060 A 
ATOM     26  C   UNL A   1      38.021  29.840  27.599  1.00  0.00     0.016 A 
ATOM     27  C   UNL A   1      38.300  29.752  29.999  1.00  0.00     0.016 A 
ATOM     28  C   UNL A   1      39.339  29.439  27.416  1.00  0.00     0.010 A 
ATOM     29  C   UNL A   1      39.644  29.398  29.813  1.00  0.00     0.010 A 
ATOM     30  C   UNL A   1      40.173  29.221  28.520  1.00  0.00    -0.014 A 
BRANCH  30  31
ATOM     31  C   UNL A   1      41.577  28.778  28.307  1.00  0.00     0.031 A 
ATOM     32  C   UNL A   1      42.711  29.757  28.457  1.00  0.00     0.074 A 
ATOM     33  C   UNL A   1      41.845  27.488  28.017  1.00  0.00     0.049 A 
ATOM     34  N   UNL A   1      43.981  29.601  28.183  1.00  0.00    -0.248 NA
ATOM     35  C   UNL A   1      42.369  31.092  28.975  1.00  0.00     0.031 C 
ATOM     36  C   UNL A   1      40.844  26.424  27.897  1.00  0.00     0.029 A 
ATOM     37  N   UNL A   1      43.037  26.846  27.784  1.00  0.00    -0.354 N 
ATOM     38  C   UNL A   1      44.582  30.826  28.451  1.00  0.00     0.074 A 
ATOM     39  C   UNL A   1      43.536  31.718  28.905  1.00  0.00     0.031 C 
ATOM     40  C   UNL A   1      41.466  25.261  27.650  1.00  0.00     0.029 A 
ATOM     41  C   UNL A   1      42.898  25.504  27.514  1.00  0.00     0.049 A 
ATOM     42  H   UNL A   1      43.908  27.304  27.807  1.00  0.00     0.167 HD
ATOM     43  C   UNL A   1      45.886  31.172  28.327  1.00  0.00     0.037 A 
ATOM     44  C   UNL A   1      43.812  24.580  27.161  1.00  0.00     0.037 A 
ATOM     45  C   UNL A   1      46.929  30.263  27.922  1.00  0.00     0.049 A 
ATOM     46  C   UNL A   1      45.249  24.993  27.001  1.00  0.00     0.074 A 
ATOM     47  C   UNL A   1      48.280  30.517  27.770  1.00  0.00     0.029 A 
ATOM     48  N   UNL A   1      46.740  28.922  27.622  1.00  0.00    -0.354 N 
ATOM     49  N   UNL A   1      45.790  26.173  27.192  1.00  0.00    -0.248 NA
ATOM     50  C   UNL A   1      46.194  23.961  26.556  1.00  0.00     0.031 C 
ATOM     51  C   UNL A   1      48.904  29.339  27.346  1.00  0.00     0.029 A 
ATOM     52  C   UNL A   1      47.946  28.338  27.275  1.00  0.00     0.049 A 
ATOM     53  H   UNL A   1      45.873  28.453  27.652  1.00  0.00     0.167 HD
ATOM     54  C   UNL A   1      47.140  26.023  26.895  1.00  0.00     0.074 A 
ATOM     55  C   UNL A   1      47.336  24.634  26.531  1.00  0.00     0.031 C 
ATOM     56  C   UNL A   1      48.125  26.954  26.915  1.00  0.00     0.037 A 
BRANCH  43  57
ATOM     57  C   UNL A   1      46.261  32.602  28.602  1.00  0.00     0.058 A 
ATOM     58  C   UNL A   1      46.254  33.546  27.561  1.00  0.00     0.135 A 
ATOM     59  C   UNL A   1      46.668  33.035  29.874  1.00  0.00     0.135 A 
ATOM     60  F   UNL A   1      45.873  33.186  26.325  1.00  0.00    -0.206 F 
ATOM     61  C   UNL A   1      46.641  34.867  27.767  1.00  0.00     0.059 A 
ATOM     62  C   UNL A   1      47.035  34.357  30.108  1.00  0.00     0.059 A 
ATOM     63  F   UNL A   1      46.676  32.178  30.908  1.00  0.00    -0.206 F 
ATOM     64  C   UNL A   1      47.018  35.266  29.049  1.00  0.00     0.060 A 
BRANCH  64  65
ATOM     65  S   UNL A   1      47.503  36.976  29.369  1.00  0.00     0.124 S 
ATOM     66  O   UNL A   1      48.172  36.852  30.660  1.00  0.00    -0.237 OA
ATOM     67  O   UNL A   1      48.368  37.272  28.232  1.00  0.00    -0.237 OA
ATOM     68  O   UNL A   1      46.231  37.693  29.389  1.00  0.00    -0.744 OA
ENDBRANCH  64  65
ENDBRANCH  43  57
BRANCH  44  69
ATOM     69  C   UNL A   1      43.384  23.178  26.904  1.00  0.00     0.058 A 
ATOM     70  C   UNL A   1      43.039  22.319  27.960  1.00  0.00     0.135 A 
ATOM     71  C   UNL A   1      43.348  22.660  25.603  1.00  0.00     0.135 A 
ATOM     72  F   UNL A   1      43.066  22.765  29.226  1.00  0.00    -0.206 F 
ATOM     73  C   UNL A   1      42.703  20.987  27.740  1.00  0.00     0.059 A 
ATOM     74  C   UNL A   1      42.988  21.338  25.355  1.00  0.00     0.059 A 
ATOM     75  F   UNL A   1      43.654  23.445  24.559  1.00  0.00    -0.206 F 
ATOM     76  C   UNL A   1      42.677  20.506  26.432  1.00  0.00     0.060 A 
BRANCH  76  77
ATOM     77  S   UNL A   1      42.290  18.773  26.106  1.00  0.00     0.124 S 
ATOM     78  O   UNL A   1      43.230  18.457  25.037  1.00  0.00    -0.237 OA
ATOM     79  O   UNL A   1      42.561  18.150  27.398  1.00  0.00    -0.237 OA
ATOM     80  O   UNL A   1      40.883  18.810  25.720  1.00  0.00    -0.744 OA
ENDBRANCH  76  77
ENDBRANCH  44  69
BRANCH  56  81
ATOM     81  C   UNL A   1      49.509  26.502  26.549  1.00  0.00     0.058 A 
ATOM     82  C   UNL A   1      50.366  25.969  27.525  1.00  0.00     0.135 A 
ATOM     83  C   UNL A   1      50.008  26.652  25.247  1.00  0.00     0.135 A 
ATOM     84  F   UNL A   1      49.938  25.812  28.787  1.00  0.00    -0.206 F 
ATOM     85  C   UNL A   1      51.676  25.605  27.226  1.00  0.00     0.059 A 
ATOM     86  C   UNL A   1      51.307  26.276  24.920  1.00  0.00     0.059 A 
ATOM     87  F   UNL A   1      49.226  27.150  24.276  1.00  0.00    -0.206 F 
ATOM     88  C   UNL A   1      52.134  25.757  25.918  1.00  0.00     0.060 A 
BRANCH  88  89
ATOM     89  S   UNL A   1      53.830  25.308  25.487  1.00  0.00     0.124 S 
ATOM     90  O   UNL A   1      53.624  24.087  24.716  1.00  0.00    -0.237 OA
ATOM     91  O   UNL A   1      54.276  26.471  24.727  1.00  0.00    -0.237 OA
ATOM     92  O   UNL A   1      54.475  25.129  26.785  1.00  0.00    -0.744 OA
ENDBRANCH  88  89
ENDBRANCH  56  81
ENDBRANCH  30  31
ENDBRANCH  23  25
ENDBRANCH  22  23
ENDBRANCH  21  22
ENDBRANCH   1  21
TORSDOF 17
ENDMDL
MODEL 3
REMARK VINA RESULT:     -10.0      4.055      6.828
REMARK SMILES Cn1cncc1COc1c(F)cc(C(=O)OCCOC(=O)c2ccc(-c3c4nc(c(-c5c(F)cc(S(=O)(=O)[O-])cc5F)c5ccc([nH]5)c(-c5c(F)cc(S(=O)(=O)[O-])cc5F)c5nc(c(-c6c(F)cc(S(=O)(=O)[O-])cc6F)c6ccc3[nH]6)C=C5)C=C4)cc2)cc1F
REMARK SMILES IDX 17 1 16 2 14 3 15 4 13 5 9 6 10 7 89 8 11 9 12 10 88 11
REMARK SMILES IDX 90 12 8 13 7 14 6 15 1 16 2 17 3 18 4 19 5 20 18 21 19 22
REMARK SMILES IDX 20 23 21 24 22 25 23 26 87 27 24 28 86 29 25 30 26 31 27 32
REMARK SMILES IDX 80 33 28 34 85 35 79 36 81 37 29 38 84 39 78 40 77 41 30 43
REMARK SMILES IDX 64 44 43 45 63 46 44 47 47 48 62 49 82 50 45 51 46 52 61 54
REMARK SMILES IDX 83 55 48 56 31 57 32 58 41 59 33 60 34 61 40 62 42 63 35 64
REMARK SMILES IDX 36 65 37 66 38 67 39 68 65 69 66 70 75 71 67 72 68 73 74 74
REMARK SMILES IDX 76 75 69 76 70 77 71 78 72 79 73 80 49 81 50 82 59 83 51 84
REMARK SMILES IDX 52 85 58 86 60 87 53 88 54 89 55 90 56 91 57 92
REMARK H PARENT 81 42 47 53
REMARK Flexibility Score: inf
ROOT
ATOM      1  C   UNL A   1      32.036  28.594  25.786  1.00  0.00     0.275 C 
ENDROOT
BRANCH   1   2
ATOM      2  O   UNL A   1      32.225  27.216  25.415  1.00  0.00    -0.458 OA
BRANCH   2   3
ATOM      3  C   UNL A   1      31.418  26.306  26.014  1.00  0.00     0.338 C 
ATOM      4  O   UNL A   1      30.267  26.473  26.367  1.00  0.00    -0.246 OA
BRANCH   3   5
ATOM      5  C   UNL A   1      32.111  24.994  26.108  1.00  0.00     0.066 A 
ATOM      6  C   UNL A   1      33.356  22.486  26.130  1.00  0.00     0.191 A 
ATOM      7  C   UNL A   1      34.108  23.655  26.243  1.00  0.00     0.169 A 
ATOM      8  C   UNL A   1      31.976  22.582  25.993  1.00  0.00     0.169 A 
ATOM      9  F   UNL A   1      35.441  23.598  26.362  1.00  0.00    -0.203 F 
ATOM     10  C   UNL A   1      33.498  24.904  26.247  1.00  0.00     0.059 A 
ATOM     11  C   UNL A   1      31.346  23.822  26.005  1.00  0.00     0.059 A 
ATOM     12  F   UNL A   1      31.234  21.474  25.851  1.00  0.00    -0.203 F 
BRANCH   6  13
ATOM     13  O   UNL A   1      33.980  21.269  26.087  1.00  0.00    -0.481 OA
BRANCH  13  14
ATOM     14  C   UNL A   1      34.375  20.918  24.753  1.00  0.00     0.285 C 
BRANCH  14  15
ATOM     15  C   UNL A   1      33.628  19.691  24.368  1.00  0.00     0.075 A 
ATOM     16  C   UNL A   1      32.139  20.698  22.596  1.00  0.00     0.151 C 
ATOM     17  N   UNL A   1      32.624  19.628  23.432  1.00  0.00    -0.335 N 
ATOM     18  C   UNL A   1      32.135  18.352  23.433  1.00  0.00     0.199 A 
ATOM     19  N   UNL A   1      32.787  17.583  24.273  1.00  0.00    -0.245 NA
ATOM     20  C   UNL A   1      33.705  18.406  24.871  1.00  0.00     0.138 A 
ENDBRANCH  14  15
ENDBRANCH  13  14
ENDBRANCH   6  13
ENDBRANCH   3   5
ENDBRANCH   2   3
ENDBRANCH   1   2
BRANCH   1  21
ATOM     21  C   UNL A   1      32.302  28.790  27.280  1.00  0.00     0.275 C 
BRANCH  21  22
ATOM     22  O   UNL A   1      33.714  28.780  27.559  1.00  0.00    -0.458 OA
BRANCH  22  23
ATOM     23  C   UNL A   1      34.251  29.981  27.875  1.00  0.00     0.338 C 
ATOM     24  O   UNL A   1      33.668  31.046  27.994  1.00  0.00    -0.246 OA
BRANCH  23  25
ATOM     25  C   UNL A   1      35.672  29.806  28.207  1.00  0.00     0.060 A 
ATOM     26  C   UNL A   1      36.601  30.024  27.193  1.00  0.00     0.016 A 
ATOM     27  C   UNL A   1      36.086  29.336  29.453  1.00  0.00     0.016 A 
ATOM     28  C   UNL A   1      37.946  29.738  27.395  1.00  0.00     0.010 A 
ATOM     29  C   UNL A   1      37.450  29.096  29.673  1.00  0.00     0.010 A 
ATOM     30  C   UNL A   1      38.392  29.278  28.641  1.00  0.00    -0.014 A 
BRANCH  30  31
ATOM     31  C   UNL A   1      39.833  28.961  28.837  1.00  0.00     0.031 A 
ATOM     32  C   UNL A   1      40.760  29.991  29.426  1.00  0.00     0.074 A 
ATOM     33  C   UNL A   1      40.306  27.738  28.525  1.00  0.00     0.049 A 
ATOM     34  N   UNL A   1      42.062  29.956  29.550  1.00  0.00    -0.248 NA
ATOM     35  C   UNL A   1      40.142  31.225  29.935  1.00  0.00     0.031 C 
ATOM     36  C   UNL A   1      39.505  26.630  27.997  1.00  0.00     0.029 A 
ATOM     37  N   UNL A   1      41.572  27.212  28.617  1.00  0.00    -0.354 N 
ATOM     38  C   UNL A   1      42.424  31.178  30.107  1.00  0.00     0.074 A 
ATOM     39  C   UNL A   1      41.204  31.934  30.293  1.00  0.00     0.031 C 
ATOM     40  C   UNL A   1      40.288  25.551  27.849  1.00  0.00     0.029 A 
ATOM     41  C   UNL A   1      41.661  25.907  28.191  1.00  0.00     0.049 A 
ATOM     42  H   UNL A   1      42.343  27.723  28.954  1.00  0.00     0.167 HD
ATOM     43  C   UNL A   1      43.662  31.625  30.431  1.00  0.00     0.037 A 
ATOM     44  C   UNL A   1      42.729  25.097  28.057  1.00  0.00     0.037 A 
ATOM     45  C   UNL A   1      44.866  30.846  30.288  1.00  0.00     0.049 A 
ATOM     46  C   UNL A   1      44.096  25.624  28.393  1.00  0.00     0.074 A 
ATOM     47  C   UNL A   1      46.166  31.209  30.591  1.00  0.00     0.029 A 
ATOM     48  N   UNL A   1      44.916  29.541  29.818  1.00  0.00    -0.354 N 
ATOM     49  N   UNL A   1      44.430  26.806  28.855  1.00  0.00    -0.248 NA
ATOM     50  C   UNL A   1      45.232  24.721  28.171  1.00  0.00     0.031 C 
ATOM     51  C   UNL A   1      47.007  30.136  30.274  1.00  0.00     0.029 A 
ATOM     52  C   UNL A   1      46.224  29.088  29.813  1.00  0.00     0.049 A 
ATOM     53  H   UNL A   1      44.134  29.014  29.531  1.00  0.00     0.167 HD
ATOM     54  C   UNL A   1      45.814  26.787  28.982  1.00  0.00     0.074 A 
ATOM     55  C   UNL A   1      46.253  25.469  28.568  1.00  0.00     0.031 C 
ATOM     56  C   UNL A   1      46.645  27.774  29.397  1.00  0.00     0.037 A 
BRANCH  43  57
ATOM     57  C   UNL A   1      43.786  33.033  30.943  1.00  0.00     0.058 A 
ATOM     58  C   UNL A   1      43.948  34.100  30.043  1.00  0.00     0.135 A 
ATOM     59  C   UNL A   1      43.791  33.330  32.315  1.00  0.00     0.135 A 
ATOM     60  F   UNL A   1      43.950  33.873  28.720  1.00  0.00    -0.206 F 
ATOM     61  C   UNL A   1      44.114  35.410  30.481  1.00  0.00     0.059 A 
ATOM     62  C   UNL A   1      43.931  34.636  32.776  1.00  0.00     0.059 A 
ATOM     63  F   UNL A   1      43.623  32.350  33.218  1.00  0.00    -0.206 F 
ATOM     64  C   UNL A   1      44.092  35.669  31.851  1.00  0.00     0.060 A 
BRANCH  64  65
ATOM     65  S   UNL A   1      44.278  37.357  32.465  1.00  0.00     0.124 S 
ATOM     66  O   UNL A   1      44.014  38.137  31.260  1.00  0.00    -0.237 OA
ATOM     67  O   UNL A   1      43.254  37.427  33.502  1.00  0.00    -0.237 OA
ATOM     68  O   UNL A   1      45.656  37.395  32.946  1.00  0.00    -0.744 OA
ENDBRANCH  64  65
ENDBRANCH  43  57
BRANCH  44  69
ATOM     69  C   UNL A   1      42.546  23.711  27.547  1.00  0.00     0.058 A 
ATOM     70  C   UNL A   1      42.376  22.630  28.427  1.00  0.00     0.135 A 
ATOM     71  C   UNL A   1      42.574  23.435  26.174  1.00  0.00     0.135 A 
ATOM     72  F   UNL A   1      42.350  22.841  29.753  1.00  0.00    -0.206 F 
ATOM     73  C   UNL A   1      42.272  21.322  27.968  1.00  0.00     0.059 A 
ATOM     74  C   UNL A   1      42.445  22.137  25.688  1.00  0.00     0.059 A 
ATOM     75  F   UNL A   1      42.718  24.436  25.291  1.00  0.00    -0.206 F 
ATOM     76  C   UNL A   1      42.304  21.085  26.595  1.00  0.00     0.060 A 
BRANCH  76  77
ATOM     77  S   UNL A   1      42.218  19.397  25.959  1.00  0.00     0.124 S 
ATOM     78  O   UNL A   1      40.796  19.268  25.661  1.00  0.00    -0.237 OA
ATOM     79  O   UNL A   1      43.109  19.459  24.805  1.00  0.00    -0.237 OA
ATOM     80  O   UNL A   1      42.705  18.592  27.075  1.00  0.00    -0.744 OA
ENDBRANCH  76  77
ENDBRANCH  44  69
BRANCH  56  81
ATOM     81  C   UNL A   1      48.114  27.466  29.442  1.00  0.00     0.058 A 
ATOM     82  C   UNL A   1      48.680  26.853  30.572  1.00  0.00     0.135 A 
ATOM     83  C   UNL A   1      48.971  27.830  28.393  1.00  0.00     0.135 A 
ATOM     84  F   UNL A   1      47.903  26.492  31.605  1.00  0.00    -0.206 F 
ATOM     85  C   UNL A   1      50.048  26.619  30.666  1.00  0.00     0.059 A 
ATOM     86  C   UNL A   1      50.339  27.586  28.457  1.00  0.00     0.059 A 
ATOM     87  F   UNL A   1      48.477  28.412  27.288  1.00  0.00    -0.206 F 
ATOM     88  C   UNL A   1      50.868  26.983  29.598  1.00  0.00     0.060 A 
BRANCH  88  89
ATOM     89  S   UNL A   1      52.651  26.707  29.681  1.00  0.00     0.124 S 
ATOM     90  O   UNL A   1      52.766  25.881  30.879  1.00  0.00    -0.237 OA
ATOM     91  O   UNL A   1      52.921  26.030  28.416  1.00  0.00    -0.237 OA
ATOM     92  O   UNL A   1      53.200  28.056  29.794  1.00  0.00    -0.744 OA
ENDBRANCH  88  89
ENDBRANCH  56  81
ENDBRANCH  30  31
ENDBRANCH  23  25
ENDBRANCH  22  23
ENDBRANCH  21  22
ENDBRANCH   1  21
TORSDOF 17
ENDMDL
