MODEL 1
REMARK VINA RESULT:     -11.5      0.000      0.000
REMARK SMILES Cc1cc(OC(F)(F)F)cc2c1O[C@H](C(F)(F)F)C(C(=O)OCCOC(=O)c1ccc(-c3c4nc(c(-c5c(F)cc(S(=O)(=O)[O-])cc5F)c5ccc([nH]5)c(-c5c(F)cc(S(=O)(=O)[O-])cc5F)c5nc(c(-c6c(F)cc(S(=O)(=O)[O-])cc6F)c6ccc3[nH]6)C=C5)C=C4)cc1)=C2
REMARK SMILES IDX 24 1 23 2 22 3 20 4 21 5 19 6 1 7 2 8 3 9 12 10 4 11 11 12
REMARK SMILES IDX 13 13 10 14 94 15 14 16 5 17 6 18 7 19 8 20 9 21 15 22 16 23
REMARK SMILES IDX 17 24 18 25 25 26 26 27 27 28 28 29 29 30 93 31 30 32 92 33
REMARK SMILES IDX 31 34 32 35 33 36 86 37 34 38 91 39 85 40 87 41 35 42 90 43
REMARK SMILES IDX 84 44 83 45 36 47 70 48 49 49 69 50 50 51 53 52 68 53 88 54
REMARK SMILES IDX 51 55 52 56 67 58 89 59 54 60 37 61 38 62 47 63 39 64 40 65
REMARK SMILES IDX 46 66 48 67 41 68 42 69 43 70 44 71 45 72 71 73 72 74 81 75
REMARK SMILES IDX 73 76 74 77 80 78 82 79 75 80 76 81 77 82 78 83 79 84 55 85
REMARK SMILES IDX 56 86 65 87 57 88 58 89 64 90 66 91 59 92 60 93 61 94 62 95
REMARK SMILES IDX 63 96
REMARK H PARENT 87 46 53 57
REMARK Flexibility Score: inf
ROOT
ATOM      1  C   UNL A   1      32.854  30.661  26.780  1.00  0.00     0.275 C 
ENDROOT
BRANCH   1   2
ATOM      2  C   UNL A   1      31.778  29.725  26.227  1.00  0.00     0.275 C 
BRANCH   2   3
ATOM      3  O   UNL A   1      32.327  28.426  25.921  1.00  0.00    -0.459 OA
BRANCH   3   4
ATOM      4  C   UNL A   1      31.775  27.384  26.593  1.00  0.00     0.338 C 
ATOM      5  O   UNL A   1      31.007  27.452  27.533  1.00  0.00    -0.246 OA
BRANCH   4   6
ATOM      6  C   UNL A   1      32.208  26.107  25.987  1.00  0.00     0.087 C 
ATOM      7  C   UNL A   1      32.545  21.651  23.435  1.00  0.00     0.048 C 
ATOM      8  C   UNL A   1      33.502  22.597  24.104  1.00  0.00    -0.005 A 
ATOM      9  C   UNL A   1      34.887  22.353  23.999  1.00  0.00     0.054 A 
ATOM     10  C   UNL A   1      33.051  23.756  24.754  1.00  0.00     0.131 A 
ATOM     11  C   UNL A   1      35.813  23.236  24.556  1.00  0.00     0.130 A 
ATOM     12  C   UNL A   1      33.977  24.654  25.281  1.00  0.00     0.021 A 
ATOM     13  O   UNL A   1      31.700  23.945  24.842  1.00  0.00    -0.475 OA
ATOM     14  C   UNL A   1      35.349  24.384  25.198  1.00  0.00     0.058 A 
ATOM     15  C   UNL A   1      33.524  25.888  25.890  1.00  0.00     0.027 C 
ATOM     16  C   UNL A   1      31.177  25.161  25.445  1.00  0.00     0.316 C 
BRANCH  11  17
ATOM     17  O   UNL A   1      37.172  23.113  24.543  1.00  0.00    -0.406 OA
BRANCH  17  18
ATOM     18  C   UNL A   1      37.785  22.380  25.588  1.00  0.00     0.573 C 
ATOM     19  F   UNL A   1      36.905  21.547  26.182  1.00  0.00    -0.132 F 
ATOM     20  F   UNL A   1      38.832  21.662  25.123  1.00  0.00    -0.132 F 
ATOM     21  F   UNL A   1      38.250  23.241  26.518  1.00  0.00    -0.132 F 
ENDBRANCH  17  18
ENDBRANCH  11  17
BRANCH  16  22
ATOM     22  C   UNL A   1      30.278  25.849  24.405  1.00  0.00     0.430 C 
ATOM     23  F   UNL A   1      29.888  24.979  23.439  1.00  0.00    -0.167 F 
ATOM     24  F   UNL A   1      29.141  26.337  24.958  1.00  0.00    -0.167 F 
ATOM     25  F   UNL A   1      30.901  26.879  23.790  1.00  0.00    -0.167 F 
ENDBRANCH  16  22
ENDBRANCH   4   6
ENDBRANCH   3   4
ENDBRANCH   2   3
ENDBRANCH   1   2
BRANCH   1  26
ATOM     26  O   UNL A   1      33.765  29.936  27.623  1.00  0.00    -0.458 OA
BRANCH  26  27
ATOM     27  C   UNL A   1      34.591  30.704  28.366  1.00  0.00     0.338 C 
ATOM     28  O   UNL A   1      34.318  31.744  28.943  1.00  0.00    -0.246 OA
BRANCH  27  29
ATOM     29  C   UNL A   1      35.917  30.077  28.448  1.00  0.00     0.060 A 
ATOM     30  C   UNL A   1      36.376  29.632  29.684  1.00  0.00     0.016 A 
ATOM     31  C   UNL A   1      36.766  30.084  27.343  1.00  0.00     0.016 A 
ATOM     32  C   UNL A   1      37.722  29.322  29.858  1.00  0.00     0.010 A 
ATOM     33  C   UNL A   1      38.088  29.656  27.493  1.00  0.00     0.010 A 
ATOM     34  C   UNL A   1      38.595  29.317  28.761  1.00  0.00    -0.014 A 
BRANCH  34  35
ATOM     35  C   UNL A   1      40.035  28.987  28.940  1.00  0.00     0.031 A 
ATOM     36  C   UNL A   1      40.992  30.036  29.448  1.00  0.00     0.074 A 
ATOM     37  C   UNL A   1      40.487  27.749  28.653  1.00  0.00     0.049 A 
ATOM     38  N   UNL A   1      42.298  30.012  29.493  1.00  0.00    -0.248 NA
ATOM     39  C   UNL A   1      40.400  31.281  29.969  1.00  0.00     0.031 C 
ATOM     40  C   UNL A   1      39.658  26.625  28.210  1.00  0.00     0.029 A 
ATOM     41  N   UNL A   1      41.755  27.226  28.688  1.00  0.00    -0.354 N 
ATOM     42  C   UNL A   1      42.688  31.245  30.006  1.00  0.00     0.074 A 
ATOM     43  C   UNL A   1      41.478  32.001  30.247  1.00  0.00     0.031 C 
ATOM     44  C   UNL A   1      40.433  25.544  28.041  1.00  0.00     0.029 A 
ATOM     45  C   UNL A   1      41.822  25.916  28.272  1.00  0.00     0.049 A 
ATOM     46  H   UNL A   1      42.543  27.739  28.983  1.00  0.00     0.167 HD
ATOM     47  C   UNL A   1      43.939  31.700  30.253  1.00  0.00     0.037 A 
ATOM     48  C   UNL A   1      42.884  25.116  28.053  1.00  0.00     0.037 A 
ATOM     49  C   UNL A   1      45.134  30.921  30.043  1.00  0.00     0.049 A 
ATOM     50  C   UNL A   1      44.266  25.666  28.272  1.00  0.00     0.074 A 
ATOM     51  C   UNL A   1      46.450  31.292  30.255  1.00  0.00     0.029 A 
ATOM     52  N   UNL A   1      45.157  29.612  29.585  1.00  0.00    -0.354 N 
ATOM     53  N   UNL A   1      44.620  26.856  28.694  1.00  0.00    -0.248 NA
ATOM     54  C   UNL A   1      45.391  24.771  27.972  1.00  0.00     0.031 C 
ATOM     55  C   UNL A   1      47.271  30.219  29.890  1.00  0.00     0.029 A 
ATOM     56  C   UNL A   1      46.464  29.163  29.497  1.00  0.00     0.049 A 
ATOM     57  H   UNL A   1      44.360  29.079  29.358  1.00  0.00     0.167 HD
ATOM     58  C   UNL A   1      46.009  26.849  28.725  1.00  0.00     0.074 A 
ATOM     59  C   UNL A   1      46.429  25.530  28.297  1.00  0.00     0.031 C 
ATOM     60  C   UNL A   1      46.862  27.845  29.072  1.00  0.00     0.037 A 
BRANCH  47  61
ATOM     61  C   UNL A   1      44.097  33.109  30.758  1.00  0.00     0.058 A 
ATOM     62  C   UNL A   1      44.198  33.399  32.127  1.00  0.00     0.135 A 
ATOM     63  C   UNL A   1      44.221  34.177  29.853  1.00  0.00     0.135 A 
ATOM     64  F   UNL A   1      44.065  32.421  33.037  1.00  0.00    -0.206 F 
ATOM     65  C   UNL A   1      44.411  34.697  32.582  1.00  0.00     0.059 A 
ATOM     66  C   UNL A   1      44.458  35.479  30.284  1.00  0.00     0.059 A 
ATOM     67  F   UNL A   1      44.128  33.956  28.532  1.00  0.00    -0.206 F 
ATOM     68  C   UNL A   1      44.546  35.731  31.652  1.00  0.00     0.060 A 
BRANCH  68  69
ATOM     69  S   UNL A   1      44.857  37.403  32.258  1.00  0.00     0.124 S 
ATOM     70  O   UNL A   1      44.336  37.321  33.620  1.00  0.00    -0.237 OA
ATOM     71  O   UNL A   1      46.308  37.511  32.141  1.00  0.00    -0.237 OA
ATOM     72  O   UNL A   1      44.093  38.246  31.346  1.00  0.00    -0.744 OA
ENDBRANCH  68  69
ENDBRANCH  47  61
BRANCH  48  73
ATOM     73  C   UNL A   1      42.678  23.728  27.558  1.00  0.00     0.058 A 
ATOM     74  C   UNL A   1      42.732  23.434  26.188  1.00  0.00     0.135 A 
ATOM     75  C   UNL A   1      42.445  22.665  28.446  1.00  0.00     0.135 A 
ATOM     76  F   UNL A   1      42.941  24.416  25.299  1.00  0.00    -0.206 F 
ATOM     77  C   UNL A   1      42.554  22.138  25.714  1.00  0.00     0.059 A 
ATOM     78  C   UNL A   1      42.293  21.356  27.999  1.00  0.00     0.059 A 
ATOM     79  F   UNL A   1      42.395  22.890  29.768  1.00  0.00    -0.206 F 
ATOM     80  C   UNL A   1      42.340  21.105  26.628  1.00  0.00     0.060 A 
BRANCH  80  81
ATOM     81  S   UNL A   1      42.161  19.419  26.004  1.00  0.00     0.124 S 
ATOM     82  O   UNL A   1      40.728  19.355  25.738  1.00  0.00    -0.237 OA
ATOM     83  O   UNL A   1      43.029  19.434  24.832  1.00  0.00    -0.237 OA
ATOM     84  O   UNL A   1      42.634  18.598  27.115  1.00  0.00    -0.744 OA
ENDBRANCH  80  81
ENDBRANCH  48  73
BRANCH  60  85
ATOM     85  C   UNL A   1      48.331  27.537  29.032  1.00  0.00     0.058 A 
ATOM     86  C   UNL A   1      49.106  27.797  27.892  1.00  0.00     0.135 A 
ATOM     87  C   UNL A   1      48.980  27.017  30.164  1.00  0.00     0.135 A 
ATOM     88  F   UNL A   1      48.533  28.288  26.781  1.00  0.00    -0.206 F 
ATOM     89  C   UNL A   1      50.471  27.528  27.866  1.00  0.00     0.059 A 
ATOM     90  C   UNL A   1      50.348  26.767  30.170  1.00  0.00     0.059 A 
ATOM     91  F   UNL A   1      48.284  26.761  31.283  1.00  0.00    -0.206 F 
ATOM     92  C   UNL A   1      51.083  27.015  29.011  1.00  0.00     0.060 A 
BRANCH  92  93
ATOM     93  S   UNL A   1      52.859  26.693  28.971  1.00  0.00     0.124 S 
ATOM     94  O   UNL A   1      53.402  28.048  28.951  1.00  0.00    -0.237 OA
ATOM     95  O   UNL A   1      53.068  25.945  30.206  1.00  0.00    -0.237 OA
ATOM     96  O   UNL A   1      53.039  25.926  27.741  1.00  0.00    -0.744 OA
ENDBRANCH  92  93
ENDBRANCH  60  85
ENDBRANCH  34  35
ENDBRANCH  27  29
ENDBRANCH  26  27
ENDBRANCH   1  26
TORSDOF 17
ENDMDL
MODEL 2
REMARK VINA RESULT:     -11.3      3.643      6.258
REMARK SMILES Cc1cc(OC(F)(F)F)cc2c1O[C@H](C(F)(F)F)C(C(=O)OCCOC(=O)c1ccc(-c3c4nc(c(-c5c(F)cc(S(=O)(=O)[O-])cc5F)c5ccc([nH]5)c(-c5c(F)cc(S(=O)(=O)[O-])cc5F)c5nc(c(-c6c(F)cc(S(=O)(=O)[O-])cc6F)c6ccc3[nH]6)C=C5)C=C4)cc1)=C2
REMARK SMILES IDX 24 1 23 2 22 3 20 4 21 5 19 6 1 7 2 8 3 9 12 10 4 11 11 12
REMARK SMILES IDX 13 13 10 14 94 15 14 16 5 17 6 18 7 19 8 20 9 21 15 22 16 23
REMARK SMILES IDX 17 24 18 25 25 26 26 27 27 28 28 29 29 30 93 31 30 32 92 33
REMARK SMILES IDX 31 34 32 35 33 36 86 37 34 38 91 39 85 40 87 41 35 42 90 43
REMARK SMILES IDX 84 44 83 45 36 47 70 48 49 49 69 50 50 51 53 52 68 53 88 54
REMARK SMILES IDX 51 55 52 56 67 58 89 59 54 60 37 61 38 62 47 63 39 64 40 65
REMARK SMILES IDX 46 66 48 67 41 68 42 69 43 70 44 71 45 72 71 73 72 74 81 75
REMARK SMILES IDX 73 76 74 77 80 78 82 79 75 80 76 81 77 82 78 83 79 84 55 85
REMARK SMILES IDX 56 86 65 87 57 88 58 89 64 90 66 91 59 92 60 93 61 94 62 95
REMARK SMILES IDX 63 96
REMARK H PARENT 87 46 53 57
REMARK Flexibility Score: inf
ROOT
ATOM      1  C   UNL A   1      33.850  32.929  27.726  1.00  0.00     0.275 C 
ENDROOT
BRANCH   1   2
ATOM      2  C   UNL A   1      34.479  34.255  28.153  1.00  0.00     0.275 C 
BRANCH   2   3
ATOM      3  O   UNL A   1      35.274  34.094  29.346  1.00  0.00    -0.459 OA
BRANCH   3   4
ATOM      4  C   UNL A   1      34.609  34.247  30.519  1.00  0.00     0.338 C 
ATOM      5  O   UNL A   1      33.441  34.558  30.655  1.00  0.00    -0.246 OA
BRANCH   4   6
ATOM      6  C   UNL A   1      35.505  33.935  31.652  1.00  0.00     0.087 C 
ATOM      7  C   UNL A   1      38.117  33.879  36.086  1.00  0.00     0.048 C 
ATOM      8  C   UNL A   1      37.892  32.929  34.943  1.00  0.00    -0.005 A 
ATOM      9  C   UNL A   1      38.408  31.620  35.034  1.00  0.00     0.054 A 
ATOM     10  C   UNL A   1      37.111  33.290  33.835  1.00  0.00     0.131 A 
ATOM     11  C   UNL A   1      38.174  30.688  34.022  1.00  0.00     0.130 A 
ATOM     12  C   UNL A   1      36.850  32.348  32.841  1.00  0.00     0.021 A 
ATOM     13  O   UNL A   1      36.642  34.573  33.784  1.00  0.00    -0.475 OA
ATOM     14  C   UNL A   1      37.396  31.062  32.928  1.00  0.00     0.058 A 
ATOM     15  C   UNL A   1      35.986  32.689  31.729  1.00  0.00     0.027 C 
ATOM     16  C   UNL A   1      35.771  34.982  32.692  1.00  0.00     0.316 C 
BRANCH  11  17
ATOM     17  O   UNL A   1      38.626  29.402  33.974  1.00  0.00    -0.406 OA
BRANCH  17  18
ATOM     18  C   UNL A   1      39.847  29.148  33.302  1.00  0.00     0.573 C 
ATOM     19  F   UNL A   1      40.484  30.298  32.996  1.00  0.00    -0.132 F 
ATOM     20  F   UNL A   1      40.662  28.378  34.058  1.00  0.00    -0.132 F 
ATOM     21  F   UNL A   1      39.591  28.485  32.155  1.00  0.00    -0.132 F 
ENDBRANCH  17  18
ENDBRANCH  11  17
BRANCH  16  22
ATOM     22  C   UNL A   1      34.463  35.505  33.309  1.00  0.00     0.430 C 
ATOM     23  F   UNL A   1      33.482  34.570  33.248  1.00  0.00    -0.167 F 
ATOM     24  F   UNL A   1      34.608  35.819  34.619  1.00  0.00    -0.167 F 
ATOM     25  F   UNL A   1      34.006  36.610  32.678  1.00  0.00    -0.167 F 
ENDBRANCH  16  22
ENDBRANCH   4   6
ENDBRANCH   3   4
ENDBRANCH   2   3
ENDBRANCH   1   2
BRANCH   1  26
ATOM     26  O   UNL A   1      34.229  31.878  28.631  1.00  0.00    -0.458 OA
BRANCH  26  27
ATOM     27  C   UNL A   1      34.234  30.637  28.098  1.00  0.00     0.338 C 
ATOM     28  O   UNL A   1      33.314  30.068  27.533  1.00  0.00    -0.246 OA
BRANCH  27  29
ATOM     29  C   UNL A   1      35.569  30.040  28.237  1.00  0.00     0.060 A 
ATOM     30  C   UNL A   1      35.974  29.582  29.487  1.00  0.00     0.016 A 
ATOM     31  C   UNL A   1      36.473  30.087  27.177  1.00  0.00     0.016 A 
ATOM     32  C   UNL A   1      37.316  29.300  29.725  1.00  0.00     0.010 A 
ATOM     33  C   UNL A   1      37.796  29.687  27.388  1.00  0.00     0.010 A 
ATOM     34  C   UNL A   1      38.244  29.337  28.675  1.00  0.00    -0.014 A 
BRANCH  34  35
ATOM     35  C   UNL A   1      39.682  29.037  28.922  1.00  0.00     0.031 A 
ATOM     36  C   UNL A   1      40.589  30.104  29.480  1.00  0.00     0.074 A 
ATOM     37  C   UNL A   1      40.174  27.811  28.653  1.00  0.00     0.049 A 
ATOM     38  N   UNL A   1      41.892  30.108  29.589  1.00  0.00    -0.248 NA
ATOM     39  C   UNL A   1      39.946  31.333  29.976  1.00  0.00     0.031 C 
ATOM     40  C   UNL A   1      39.392  26.671  28.167  1.00  0.00     0.029 A 
ATOM     41  N   UNL A   1      41.450  27.315  28.749  1.00  0.00    -0.354 N 
ATOM     42  C   UNL A   1      42.229  31.348  30.124  1.00  0.00     0.074 A 
ATOM     43  C   UNL A   1      40.992  32.076  30.309  1.00  0.00     0.031 C 
ATOM     44  C   UNL A   1      40.198  25.607  28.032  1.00  0.00     0.029 A 
ATOM     45  C   UNL A   1      41.566  26.009  28.332  1.00  0.00     0.049 A 
ATOM     46  H   UNL A   1      42.211  27.844  29.084  1.00  0.00     0.167 HD
ATOM     47  C   UNL A   1      43.456  31.828  30.433  1.00  0.00     0.037 A 
ATOM     48  C   UNL A   1      42.654  25.234  28.161  1.00  0.00     0.037 A 
ATOM     49  C   UNL A   1      44.677  31.077  30.279  1.00  0.00     0.049 A 
ATOM     50  C   UNL A   1      44.011  25.812  28.450  1.00  0.00     0.074 A 
ATOM     51  C   UNL A   1      45.973  31.475  30.557  1.00  0.00     0.029 A 
ATOM     52  N   UNL A   1      44.751  29.771  29.819  1.00  0.00    -0.354 N 
ATOM     53  N   UNL A   1      44.319  27.007  28.893  1.00  0.00    -0.248 NA
ATOM     54  C   UNL A   1      45.169  24.943  28.202  1.00  0.00     0.031 C 
ATOM     55  C   UNL A   1      46.834  30.422  30.228  1.00  0.00     0.029 A 
ATOM     56  C   UNL A   1      46.070  29.350  29.793  1.00  0.00     0.049 A 
ATOM     57  H   UNL A   1      43.978  29.221  29.551  1.00  0.00     0.167 HD
ATOM     58  C   UNL A   1      45.704  27.031  28.991  1.00  0.00     0.074 A 
ATOM     59  C   UNL A   1      46.174  25.723  28.580  1.00  0.00     0.031 C 
ATOM     60  C   UNL A   1      46.517  28.043  29.383  1.00  0.00     0.037 A 
BRANCH  47  61
ATOM     61  C   UNL A   1      43.559  33.238  30.951  1.00  0.00     0.058 A 
ATOM     62  C   UNL A   1      43.563  33.526  32.324  1.00  0.00     0.135 A 
ATOM     63  C   UNL A   1      43.728  34.310  30.058  1.00  0.00     0.135 A 
ATOM     64  F   UNL A   1      43.384  32.543  33.221  1.00  0.00    -0.206 F 
ATOM     65  C   UNL A   1      43.725  34.826  32.794  1.00  0.00     0.059 A 
ATOM     66  C   UNL A   1      43.915  35.615  30.506  1.00  0.00     0.059 A 
ATOM     67  F   UNL A   1      43.726  34.092  28.734  1.00  0.00    -0.206 F 
ATOM     68  C   UNL A   1      43.907  35.864  31.877  1.00  0.00     0.060 A 
BRANCH  68  69
ATOM     69  S   UNL A   1      44.152  37.538  32.507  1.00  0.00     0.124 S 
ATOM     70  O   UNL A   1      45.549  37.492  32.927  1.00  0.00    -0.237 OA
ATOM     71  O   UNL A   1      43.870  38.356  31.332  1.00  0.00    -0.237 OA
ATOM     72  O   UNL A   1      43.177  37.643  33.588  1.00  0.00    -0.744 OA
ENDBRANCH  68  69
ENDBRANCH  47  61
BRANCH  48  73
ATOM     73  C   UNL A   1      42.504  23.843  27.653  1.00  0.00     0.058 A 
ATOM     74  C   UNL A   1      42.458  23.579  26.276  1.00  0.00     0.135 A 
ATOM     75  C   UNL A   1      42.422  22.750  28.530  1.00  0.00     0.135 A 
ATOM     76  F   UNL A   1      42.520  24.589  25.397  1.00  0.00    -0.206 F 
ATOM     77  C   UNL A   1      42.329  22.282  25.787  1.00  0.00     0.059 A 
ATOM     78  C   UNL A   1      42.323  21.442  28.066  1.00  0.00     0.059 A 
ATOM     79  F   UNL A   1      42.473  22.947  29.858  1.00  0.00    -0.206 F 
ATOM     80  C   UNL A   1      42.268  21.220  26.691  1.00  0.00     0.060 A 
BRANCH  80  81
ATOM     81  S   UNL A   1      42.153  19.538  26.044  1.00  0.00     0.124 S 
ATOM     82  O   UNL A   1      43.058  19.600  24.902  1.00  0.00    -0.237 OA
ATOM     83  O   UNL A   1      42.610  18.742  27.179  1.00  0.00    -0.237 OA
ATOM     84  O   UNL A   1      40.737  19.398  25.720  1.00  0.00    -0.744 OA
ENDBRANCH  80  81
ENDBRANCH  48  73
BRANCH  60  85
ATOM     85  C   UNL A   1      47.993  27.768  29.413  1.00  0.00     0.058 A 
ATOM     86  C   UNL A   1      48.602  27.141  30.510  1.00  0.00     0.135 A 
ATOM     87  C   UNL A   1      48.800  28.096  28.312  1.00  0.00     0.135 A 
ATOM     88  F   UNL A   1      47.877  26.814  31.591  1.00  0.00    -0.206 F 
ATOM     89  C   UNL A   1      49.967  26.871  30.526  1.00  0.00     0.059 A 
ATOM     90  C   UNL A   1      50.162  27.810  28.294  1.00  0.00     0.059 A 
ATOM     91  F   UNL A   1      48.263  28.687  27.233  1.00  0.00    -0.206 F 
ATOM     92  C   UNL A   1      50.738  27.209  29.412  1.00  0.00     0.060 A 
BRANCH  92  93
ATOM     93  S   UNL A   1      52.503  26.831  29.436  1.00  0.00     0.124 S 
ATOM     94  O   UNL A   1      52.670  26.126  28.169  1.00  0.00    -0.237 OA
ATOM     95  O   UNL A   1      53.104  28.159  29.507  1.00  0.00    -0.237 OA
ATOM     96  O   UNL A   1      52.660  26.013  30.635  1.00  0.00    -0.744 OA
ENDBRANCH  92  93
ENDBRANCH  60  85
ENDBRANCH  34  35
ENDBRANCH  27  29
ENDBRANCH  26  27
ENDBRANCH   1  26
TORSDOF 17
ENDMDL
MODEL 3
REMARK VINA RESULT:     -11.3      5.144     10.725
REMARK SMILES Cc1cc(OC(F)(F)F)cc2c1O[C@H](C(F)(F)F)C(C(=O)OCCOC(=O)c1ccc(-c3c4nc(c(-c5c(F)cc(S(=O)(=O)[O-])cc5F)c5ccc([nH]5)c(-c5c(F)cc(S(=O)(=O)[O-])cc5F)c5nc(c(-c6c(F)cc(S(=O)(=O)[O-])cc6F)c6ccc3[nH]6)C=C5)C=C4)cc1)=C2
REMARK SMILES IDX 24 1 23 2 22 3 20 4 21 5 19 6 1 7 2 8 3 9 12 10 4 11 11 12
REMARK SMILES IDX 13 13 10 14 94 15 14 16 5 17 6 18 7 19 8 20 9 21 15 22 16 23
REMARK SMILES IDX 17 24 18 25 25 26 26 27 27 28 28 29 29 30 93 31 30 32 92 33
REMARK SMILES IDX 31 34 32 35 33 36 86 37 34 38 91 39 85 40 87 41 35 42 90 43
REMARK SMILES IDX 84 44 83 45 36 47 70 48 49 49 69 50 50 51 53 52 68 53 88 54
REMARK SMILES IDX 51 55 52 56 67 58 89 59 54 60 37 61 38 62 47 63 39 64 40 65
REMARK SMILES IDX 46 66 48 67 41 68 42 69 43 70 44 71 45 72 71 73 72 74 81 75
REMARK SMILES IDX 73 76 74 77 80 78 82 79 75 80 76 81 77 82 78 83 79 84 55 85
REMARK SMILES IDX 56 86 65 87 57 88 58 89 64 90 66 91 59 92 60 93 61 94 62 95
REMARK SMILES IDX 63 96
REMARK H PARENT 87 46 53 57
REMARK Flexibility Score: inf
ROOT
ATOM      1  C   UNL A   1      39.247  22.295  26.255  1.00  0.00     0.275 C 
ENDROOT
BRANCH   1   2
ATOM      2  C   UNL A   1      37.846  21.983  25.729  1.00  0.00     0.275 C 
BRANCH   2   3
ATOM      3  O   UNL A   1      37.105  23.196  25.474  1.00  0.00    -0.459 OA
BRANCH   3   4
ATOM      4  C   UNL A   1      35.791  23.162  25.809  1.00  0.00     0.338 C 
ATOM      5  O   UNL A   1      35.296  22.558  26.742  1.00  0.00    -0.246 OA
BRANCH   4   6
ATOM      6  C   UNL A   1      35.013  24.018  24.890  1.00  0.00     0.087 C 
ATOM      7  C   UNL A   1      32.006  25.906  21.164  1.00  0.00     0.048 C 
ATOM      8  C   UNL A   1      32.646  26.433  22.418  1.00  0.00    -0.005 A 
ATOM      9  C   UNL A   1      32.352  27.748  22.833  1.00  0.00     0.054 A 
ATOM     10  C   UNL A   1      33.458  25.619  23.222  1.00  0.00     0.131 A 
ATOM     11  C   UNL A   1      32.880  28.258  24.019  1.00  0.00     0.130 A 
ATOM     12  C   UNL A   1      33.958  26.118  24.424  1.00  0.00     0.021 A 
ATOM     13  O   UNL A   1      33.727  24.356  22.774  1.00  0.00    -0.475 OA
ATOM     14  C   UNL A   1      33.684  27.436  24.808  1.00  0.00     0.058 A 
ATOM     15  C   UNL A   1      34.737  25.263  25.295  1.00  0.00     0.027 C 
ATOM     16  C   UNL A   1      34.507  23.446  23.599  1.00  0.00     0.316 C 
BRANCH  11  17
ATOM     17  O   UNL A   1      32.691  29.511  24.527  1.00  0.00    -0.406 OA
BRANCH  17  18
ATOM     18  C   UNL A   1      31.514  29.757  25.275  1.00  0.00     0.573 C 
ATOM     19  F   UNL A   1      31.095  28.640  25.907  1.00  0.00    -0.132 F 
ATOM     20  F   UNL A   1      31.719  30.733  26.188  1.00  0.00    -0.132 F 
ATOM     21  F   UNL A   1      30.536  30.166  24.440  1.00  0.00    -0.132 F 
ENDBRANCH  17  18
ENDBRANCH  11  17
BRANCH  16  22
ATOM     22  C   UNL A   1      33.656  22.188  23.839  1.00  0.00     0.430 C 
ATOM     23  F   UNL A   1      32.793  22.367  24.871  1.00  0.00    -0.167 F 
ATOM     24  F   UNL A   1      32.898  21.872  22.762  1.00  0.00    -0.167 F 
ATOM     25  F   UNL A   1      34.412  21.106  24.130  1.00  0.00    -0.167 F 
ENDBRANCH  16  22
ENDBRANCH   4   6
ENDBRANCH   3   4
ENDBRANCH   2   3
ENDBRANCH   1   2
BRANCH   1  26
ATOM     26  O   UNL A   1      39.379  23.699  26.534  1.00  0.00    -0.458 OA
BRANCH  26  27
ATOM     27  C   UNL A   1      40.563  24.067  27.072  1.00  0.00     0.338 C 
ATOM     28  O   UNL A   1      41.642  23.514  26.938  1.00  0.00    -0.246 OA
BRANCH  27  29
ATOM     29  C   UNL A   1      40.398  25.310  27.836  1.00  0.00     0.060 A 
ATOM     30  C   UNL A   1      41.415  26.260  27.803  1.00  0.00     0.016 A 
ATOM     31  C   UNL A   1      39.323  25.460  28.710  1.00  0.00     0.016 A 
ATOM     32  C   UNL A   1      41.436  27.291  28.738  1.00  0.00     0.010 A 
ATOM     33  C   UNL A   1      39.286  26.564  29.567  1.00  0.00     0.010 A 
ATOM     34  C   UNL A   1      40.366  27.465  29.625  1.00  0.00    -0.014 A 
BRANCH  34  35
ATOM     35  C   UNL A   1      40.382  28.565  30.629  1.00  0.00     0.031 A 
ATOM     36  C   UNL A   1      41.372  28.533  31.765  1.00  0.00     0.074 A 
ATOM     37  C   UNL A   1      39.517  29.593  30.520  1.00  0.00     0.049 A 
ATOM     38  N   UNL A   1      41.426  29.282  32.836  1.00  0.00    -0.248 NA
ATOM     39  C   UNL A   1      42.440  27.521  31.692  1.00  0.00     0.031 C 
ATOM     40  C   UNL A   1      38.548  29.777  29.436  1.00  0.00     0.029 A 
ATOM     41  N   UNL A   1      39.309  30.680  31.332  1.00  0.00    -0.354 N 
ATOM     42  C   UNL A   1      42.502  28.809  33.582  1.00  0.00     0.074 A 
ATOM     43  C   UNL A   1      43.067  27.699  32.846  1.00  0.00     0.031 C 
ATOM     44  C   UNL A   1      37.870  30.916  29.637  1.00  0.00     0.029 A 
ATOM     45  C   UNL A   1      38.288  31.499  30.905  1.00  0.00     0.049 A 
ATOM     46  H   UNL A   1      39.840  30.859  32.142  1.00  0.00     0.167 HD
ATOM     47  C   UNL A   1      42.971  29.262  34.768  1.00  0.00     0.037 A 
ATOM     48  C   UNL A   1      37.715  32.568  31.490  1.00  0.00     0.037 A 
ATOM     49  C   UNL A   1      42.421  30.394  35.472  1.00  0.00     0.049 A 
ATOM     50  C   UNL A   1      38.213  33.013  32.838  1.00  0.00     0.074 A 
ATOM     51  C   UNL A   1      42.819  30.930  36.684  1.00  0.00     0.029 A 
ATOM     52  N   UNL A   1      41.363  31.169  35.021  1.00  0.00    -0.354 N 
ATOM     53  N   UNL A   1      39.187  32.515  33.560  1.00  0.00    -0.248 NA
ATOM     54  C   UNL A   1      37.524  34.153  33.456  1.00  0.00     0.031 C 
ATOM     55  C   UNL A   1      41.978  32.007  36.983  1.00  0.00     0.029 A 
ATOM     56  C   UNL A   1      41.087  32.173  35.935  1.00  0.00     0.049 A 
ATOM     57  H   UNL A   1      40.880  31.029  34.174  1.00  0.00     0.167 HD
ATOM     58  C   UNL A   1      39.239  33.289  34.712  1.00  0.00     0.074 A 
ATOM     59  C   UNL A   1      38.210  34.302  34.581  1.00  0.00     0.031 C 
ATOM     60  C   UNL A   1      40.061  33.173  35.785  1.00  0.00     0.037 A 
BRANCH  47  61
ATOM     61  C   UNL A   1      44.124  28.532  35.402  1.00  0.00     0.058 A 
ATOM     62  C   UNL A   1      45.458  28.882  35.142  1.00  0.00     0.135 A 
ATOM     63  C   UNL A   1      43.888  27.514  36.342  1.00  0.00     0.135 A 
ATOM     64  F   UNL A   1      45.743  29.833  34.238  1.00  0.00    -0.206 F 
ATOM     65  C   UNL A   1      46.516  28.245  35.784  1.00  0.00     0.059 A 
ATOM     66  C   UNL A   1      44.929  26.880  37.013  1.00  0.00     0.059 A 
ATOM     67  F   UNL A   1      42.632  27.136  36.625  1.00  0.00    -0.206 F 
ATOM     68  C   UNL A   1      46.242  27.249  36.724  1.00  0.00     0.060 A 
BRANCH  68  69
ATOM     69  S   UNL A   1      47.625  26.459  37.573  1.00  0.00     0.124 S 
ATOM     70  O   UNL A   1      48.764  27.179  37.010  1.00  0.00    -0.237 OA
ATOM     71  O   UNL A   1      47.330  26.737  38.974  1.00  0.00    -0.237 OA
ATOM     72  O   UNL A   1      47.515  25.059  37.178  1.00  0.00    -0.744 OA
ENDBRANCH  68  69
ENDBRANCH  47  61
BRANCH  48  73
ATOM     73  C   UNL A   1      36.581  33.262  30.822  1.00  0.00     0.058 A 
ATOM     74  C   UNL A   1      35.265  33.100  31.279  1.00  0.00     0.135 A 
ATOM     75  C   UNL A   1      36.792  34.117  29.728  1.00  0.00     0.135 A 
ATOM     76  F   UNL A   1      35.010  32.286  32.314  1.00  0.00    -0.206 F 
ATOM     77  C   UNL A   1      34.197  33.752  30.671  1.00  0.00     0.059 A 
ATOM     78  C   UNL A   1      35.744  34.804  29.121  1.00  0.00     0.059 A 
ATOM     79  F   UNL A   1      38.033  34.317  29.258  1.00  0.00    -0.206 F 
ATOM     80  C   UNL A   1      34.449  34.606  29.596  1.00  0.00     0.060 A 
BRANCH  80  81
ATOM     81  S   UNL A   1      33.060  35.488  28.847  1.00  0.00     0.124 S 
ATOM     82  O   UNL A   1      33.748  36.510  28.067  1.00  0.00    -0.237 OA
ATOM     83  O   UNL A   1      32.406  34.432  28.082  1.00  0.00    -0.237 OA
ATOM     84  O   UNL A   1      32.309  35.973  30.001  1.00  0.00    -0.744 OA
ENDBRANCH  80  81
ENDBRANCH  48  73
BRANCH  60  85
ATOM     85  C   UNL A   1      39.901  34.181  36.886  1.00  0.00     0.058 A 
ATOM     86  C   UNL A   1      40.467  35.462  36.798  1.00  0.00     0.135 A 
ATOM     87  C   UNL A   1      39.136  33.877  38.024  1.00  0.00     0.135 A 
ATOM     88  F   UNL A   1      41.213  35.802  35.735  1.00  0.00    -0.206 F 
ATOM     89  C   UNL A   1      40.301  36.400  37.813  1.00  0.00     0.059 A 
ATOM     90  C   UNL A   1      38.934  34.808  39.037  1.00  0.00     0.059 A 
ATOM     91  F   UNL A   1      38.566  32.668  38.150  1.00  0.00    -0.206 F 
ATOM     92  C   UNL A   1      39.530  36.063  38.928  1.00  0.00     0.060 A 
BRANCH  92  93
ATOM     93  S   UNL A   1      39.304  37.297  40.226  1.00  0.00     0.124 S 
ATOM     94  O   UNL A   1      38.595  36.526  41.243  1.00  0.00    -0.237 OA
ATOM     95  O   UNL A   1      40.679  37.662  40.551  1.00  0.00    -0.237 OA
ATOM     96  O   UNL A   1      38.521  38.341  39.571  1.00  0.00    -0.744 OA
ENDBRANCH  92  93
ENDBRANCH  60  85
ENDBRANCH  34  35
ENDBRANCH  27  29
ENDBRANCH  26  27
ENDBRANCH   1  26
TORSDOF 17
ENDMDL
