MODEL 1
REMARK VINA RESULT:     -11.5      0.000      0.000
REMARK SMILES O=C(OCCOC(=O)c1ccc2nc(C3CCCCC3)[nH]c2c1)c1ccc(-c2c3nc(c(-c4c(F)cc(S(=O)(=O)[O-])cc4F)c4ccc([nH]4)c(-c4c(F)cc(S(=O)(=O)[O-])cc4F)c4nc(c(-c5c(F)cc(S(=O)(=O)[O-])cc5F)c5ccc2[nH]5)C=C4)C=C3)cc1
REMARK SMILES IDX 4 1 3 2 2 3 1 4 24 5 25 6 89 7 26 8 88 9 27 10 28 11 29 12
REMARK SMILES IDX 82 13 30 14 87 15 81 16 83 17 31 18 86 19 80 20 79 21 32 23
REMARK SMILES IDX 66 24 45 25 65 26 46 27 49 28 64 29 84 30 47 31 48 32 63 34
REMARK SMILES IDX 85 35 50 36 33 37 34 38 43 39 35 40 36 41 42 42 44 43 37 44
REMARK SMILES IDX 38 45 39 46 40 47 41 48 67 49 68 50 77 51 69 52 70 53 76 54
REMARK SMILES IDX 78 55 71 56 72 57 73 58 74 59 75 60 51 61 52 62 61 63 53 64
REMARK SMILES IDX 54 65 60 66 62 67 55 68 56 69 57 70 58 71 59 72 5 73 6 74
REMARK SMILES IDX 7 75 8 76 9 77 10 78 23 79 11 80 22 81 12 82 21 83 13 84
REMARK SMILES IDX 14 85 15 87 16 88 20 89 17 90 19 91 18 92
REMARK H PARENT 83 22 49 33 21 86
REMARK Flexibility Score: inf
ROOT
ATOM      1  C   UNL A   1      43.066  23.221  27.198  1.00  0.00     0.275 C 
ENDROOT
BRANCH   1   2
ATOM      2  O   UNL A   1      42.896  24.240  26.198  1.00  0.00    -0.458 OA
BRANCH   2   3
ATOM      3  C   UNL A   1      42.080  25.320  26.178  1.00  0.00     0.338 C 
ATOM      4  O   UNL A   1      41.646  25.708  25.093  1.00  0.00    -0.246 OA
BRANCH   3   5
ATOM      5  C   UNL A   1      41.774  26.156  27.382  1.00  0.00     0.060 A 
ATOM      6  C   UNL A   1      40.679  26.005  28.235  1.00  0.00     0.016 A 
ATOM      7  C   UNL A   1      42.674  27.206  27.649  1.00  0.00     0.016 A 
ATOM      8  C   UNL A   1      40.520  26.823  29.359  1.00  0.00     0.010 A 
ATOM      9  C   UNL A   1      42.526  28.022  28.772  1.00  0.00     0.010 A 
ATOM     10  C   UNL A   1      41.439  27.835  29.631  1.00  0.00    -0.014 A 
BRANCH  10  11
ATOM     11  C   UNL A   1      41.176  28.804  30.716  1.00  0.00     0.031 A 
ATOM     12  C   UNL A   1      41.910  28.635  32.009  1.00  0.00     0.074 A 
ATOM     13  C   UNL A   1      40.301  29.811  30.545  1.00  0.00     0.049 A 
ATOM     14  N   UNL A   1      41.831  29.346  33.101  1.00  0.00    -0.248 NA
ATOM     15  C   UNL A   1      42.882  27.531  32.073  1.00  0.00     0.031 C 
ATOM     16  C   UNL A   1      39.586  30.100  29.306  1.00  0.00     0.029 A 
ATOM     17  N   UNL A   1      39.833  30.751  31.426  1.00  0.00    -0.354 N 
ATOM     18  C   UNL A   1      42.770  28.802  33.966  1.00  0.00     0.074 A 
ATOM     19  C   UNL A   1      43.357  27.659  33.302  1.00  0.00     0.031 C 
ATOM     20  C   UNL A   1      38.690  31.075  29.531  1.00  0.00     0.029 A 
ATOM     21  C   UNL A   1      38.783  31.486  30.927  1.00  0.00     0.049 A 
ATOM     22  H   UNL A   1      40.210  30.886  32.325  1.00  0.00     0.167 HD
ATOM     23  C   UNL A   1      43.132  29.244  35.192  1.00  0.00     0.037 A 
ATOM     24  C   UNL A   1      37.973  32.369  31.542  1.00  0.00     0.037 A 
ATOM     25  C   UNL A   1      42.504  30.355  35.849  1.00  0.00     0.049 A 
ATOM     26  C   UNL A   1      38.283  32.751  32.963  1.00  0.00     0.074 A 
ATOM     27  C   UNL A   1      42.793  30.907  37.083  1.00  0.00     0.029 A 
ATOM     28  N   UNL A   1      41.432  31.070  35.329  1.00  0.00    -0.354 N 
ATOM     29  N   UNL A   1      39.230  32.290  33.747  1.00  0.00    -0.248 NA
ATOM     30  C   UNL A   1      37.452  33.796  33.573  1.00  0.00     0.031 C 
ATOM     31  C   UNL A   1      41.861  31.923  37.330  1.00  0.00     0.029 A 
ATOM     32  C   UNL A   1      41.023  32.036  36.230  1.00  0.00     0.049 A 
ATOM     33  H   UNL A   1      41.023  30.911  34.448  1.00  0.00     0.167 HD
ATOM     34  C   UNL A   1      39.144  33.022  34.922  1.00  0.00     0.074 A 
ATOM     35  C   UNL A   1      38.038  33.945  34.755  1.00  0.00     0.031 C 
ATOM     36  C   UNL A   1      39.924  32.953  36.029  1.00  0.00     0.037 A 
BRANCH  23  37
ATOM     37  C   UNL A   1      44.237  28.493  35.878  1.00  0.00     0.058 A 
ATOM     38  C   UNL A   1      43.963  27.454  36.783  1.00  0.00     0.135 A 
ATOM     39  C   UNL A   1      45.578  28.856  35.683  1.00  0.00     0.135 A 
ATOM     40  F   UNL A   1      42.696  27.082  37.024  1.00  0.00    -0.206 F 
ATOM     41  C   UNL A   1      44.975  26.838  37.512  1.00  0.00     0.059 A 
ATOM     42  C   UNL A   1      46.609  28.237  36.383  1.00  0.00     0.059 A 
ATOM     43  F   UNL A   1      45.894  29.847  34.834  1.00  0.00    -0.206 F 
ATOM     44  C   UNL A   1      46.295  27.248  37.315  1.00  0.00     0.060 A 
BRANCH  44  45
ATOM     45  S   UNL A   1      47.592  26.490  38.315  1.00  0.00     0.124 S 
ATOM     46  O   UNL A   1      46.808  25.835  39.358  1.00  0.00    -0.237 OA
ATOM     47  O   UNL A   1      48.245  25.599  37.361  1.00  0.00    -0.237 OA
ATOM     48  O   UNL A   1      48.392  27.629  38.753  1.00  0.00    -0.744 OA
ENDBRANCH  44  45
ENDBRANCH  23  37
BRANCH  24  49
ATOM     49  C   UNL A   1      36.808  32.934  30.811  1.00  0.00     0.058 A 
ATOM     50  C   UNL A   1      35.497  32.527  31.085  1.00  0.00     0.135 A 
ATOM     51  C   UNL A   1      36.990  33.938  29.845  1.00  0.00     0.135 A 
ATOM     52  F   UNL A   1      35.269  31.568  31.995  1.00  0.00    -0.206 F 
ATOM     53  C   UNL A   1      34.405  33.092  30.430  1.00  0.00     0.059 A 
ATOM     54  C   UNL A   1      35.915  34.532  29.189  1.00  0.00     0.059 A 
ATOM     55  F   UNL A   1      38.226  34.369  29.550  1.00  0.00    -0.206 F 
ATOM     56  C   UNL A   1      34.624  34.100  29.486  1.00  0.00     0.060 A 
BRANCH  56  57
ATOM     57  S   UNL A   1      33.193  34.867  28.693  1.00  0.00     0.124 S 
ATOM     58  O   UNL A   1      32.352  35.183  29.842  1.00  0.00    -0.237 OA
ATOM     59  O   UNL A   1      33.799  36.009  28.014  1.00  0.00    -0.237 OA
ATOM     60  O   UNL A   1      32.690  33.819  27.812  1.00  0.00    -0.744 OA
ENDBRANCH  56  57
ENDBRANCH  24  49
BRANCH  36  61
ATOM     61  C   UNL A   1      39.649  33.934  37.131  1.00  0.00     0.058 A 
ATOM     62  C   UNL A   1      38.980  33.557  38.303  1.00  0.00     0.135 A 
ATOM     63  C   UNL A   1      40.152  35.242  37.047  1.00  0.00     0.135 A 
ATOM     64  F   UNL A   1      38.472  32.320  38.426  1.00  0.00    -0.206 F 
ATOM     65  C   UNL A   1      38.818  34.447  39.359  1.00  0.00     0.059 A 
ATOM     66  C   UNL A   1      40.023  36.140  38.099  1.00  0.00     0.059 A 
ATOM     67  F   UNL A   1      40.807  35.646  35.946  1.00  0.00    -0.206 F 
ATOM     68  C   UNL A   1      39.352  35.733  39.251  1.00  0.00     0.060 A 
BRANCH  68  69
ATOM     69  S   UNL A   1      39.207  36.853  40.660  1.00  0.00     0.124 S 
ATOM     70  O   UNL A   1      38.564  35.997  41.651  1.00  0.00    -0.237 OA
ATOM     71  O   UNL A   1      40.600  37.199  40.929  1.00  0.00    -0.237 OA
ATOM     72  O   UNL A   1      38.386  37.945  40.143  1.00  0.00    -0.744 OA
ENDBRANCH  68  69
ENDBRANCH  36  61
ENDBRANCH  10  11
ENDBRANCH   3   5
ENDBRANCH   2   3
ENDBRANCH   1   2
BRANCH   1  73
ATOM     73  C   UNL A   1      42.912  21.784  26.695  1.00  0.00     0.275 C 
BRANCH  73  74
ATOM     74  O   UNL A   1      41.724  21.564  25.925  1.00  0.00    -0.458 OA
BRANCH  74  75
ATOM     75  C   UNL A   1      40.640  21.169  26.643  1.00  0.00     0.338 C 
ATOM     76  O   UNL A   1      40.621  20.348  27.545  1.00  0.00    -0.246 OA
BRANCH  75  77
ATOM     77  C   UNL A   1      39.470  21.984  26.260  1.00  0.00     0.062 A 
ATOM     78  C   UNL A   1      39.272  23.256  26.807  1.00  0.00     0.018 A 
ATOM     79  C   UNL A   1      38.566  21.430  25.336  1.00  0.00     0.044 A 
ATOM     80  C   UNL A   1      38.145  24.010  26.451  1.00  0.00     0.031 A 
ATOM     81  C   UNL A   1      37.422  22.182  25.056  1.00  0.00     0.066 A 
ATOM     82  C   UNL A   1      37.196  23.447  25.585  1.00  0.00     0.089 A 
ATOM     83  N   UNL A   1      36.312  21.937  24.288  1.00  0.00    -0.342 N 
ATOM     84  N   UNL A   1      36.015  23.962  25.128  1.00  0.00    -0.233 NA
ATOM     85  C   UNL A   1      35.502  23.048  24.333  1.00  0.00     0.110 A 
ATOM     86  H   UNL A   1      36.126  21.107  23.791  1.00  0.00     0.168 HD
BRANCH  85  87
ATOM     87  C   UNL A   1      34.268  23.216  23.496  1.00  0.00     0.055 C 
ATOM     88  C   UNL A   1      33.138  22.330  24.041  1.00  0.00     0.011 C 
ATOM     89  C   UNL A   1      33.821  24.679  23.370  1.00  0.00     0.011 C 
ATOM     90  C   UNL A   1      31.869  22.457  23.207  1.00  0.00     0.001 C 
ATOM     91  C   UNL A   1      32.540  24.797  22.540  1.00  0.00     0.001 C 
ATOM     92  C   UNL A   1      31.424  23.910  23.089  1.00  0.00     0.000 C 
ENDBRANCH  85  87
ENDBRANCH  75  77
ENDBRANCH  74  75
ENDBRANCH  73  74
ENDBRANCH   1  73
TORSDOF 15
ENDMDL
MODEL 2
REMARK VINA RESULT:     -11.5      4.778     12.028
REMARK SMILES O=C(OCCOC(=O)c1ccc2nc(C3CCCCC3)[nH]c2c1)c1ccc(-c2c3nc(c(-c4c(F)cc(S(=O)(=O)[O-])cc4F)c4ccc([nH]4)c(-c4c(F)cc(S(=O)(=O)[O-])cc4F)c4nc(c(-c5c(F)cc(S(=O)(=O)[O-])cc5F)c5ccc2[nH]5)C=C4)C=C3)cc1
REMARK SMILES IDX 4 1 3 2 2 3 1 4 24 5 25 6 89 7 26 8 88 9 27 10 28 11 29 12
REMARK SMILES IDX 82 13 30 14 87 15 81 16 83 17 31 18 86 19 80 20 79 21 32 23
REMARK SMILES IDX 66 24 45 25 65 26 46 27 49 28 64 29 84 30 47 31 48 32 63 34
REMARK SMILES IDX 85 35 50 36 33 37 34 38 43 39 35 40 36 41 42 42 44 43 37 44
REMARK SMILES IDX 38 45 39 46 40 47 41 48 67 49 68 50 77 51 69 52 70 53 76 54
REMARK SMILES IDX 78 55 71 56 72 57 73 58 74 59 75 60 51 61 52 62 61 63 53 64
REMARK SMILES IDX 54 65 60 66 62 67 55 68 56 69 57 70 58 71 59 72 5 73 6 74
REMARK SMILES IDX 7 75 8 76 9 77 10 78 23 79 11 80 22 81 12 82 21 83 13 84
REMARK SMILES IDX 14 85 15 87 16 88 20 89 17 90 19 91 18 92
REMARK H PARENT 83 22 49 33 21 86
REMARK Flexibility Score: inf
ROOT
ATOM      1  C   UNL A   1      34.644  33.010  28.668  1.00  0.00     0.275 C 
ENDROOT
BRANCH   1   2
ATOM      2  O   UNL A   1      34.038  31.723  28.456  1.00  0.00    -0.458 OA
BRANCH   2   3
ATOM      3  C   UNL A   1      34.576  30.566  28.008  1.00  0.00     0.338 C 
ATOM      4  O   UNL A   1      33.877  29.821  27.320  1.00  0.00    -0.246 OA
BRANCH   3   5
ATOM      5  C   UNL A   1      35.932  30.067  28.403  1.00  0.00     0.060 A 
ATOM      6  C   UNL A   1      36.299  29.584  29.661  1.00  0.00     0.016 A 
ATOM      7  C   UNL A   1      36.924  30.122  27.406  1.00  0.00     0.016 A 
ATOM      8  C   UNL A   1      37.591  29.102  29.901  1.00  0.00     0.010 A 
ATOM      9  C   UNL A   1      38.213  29.636  27.635  1.00  0.00     0.010 A 
ATOM     10  C   UNL A   1      38.553  29.128  28.892  1.00  0.00    -0.014 A 
BRANCH  10  11
ATOM     11  C   UNL A   1      39.957  28.782  29.198  1.00  0.00     0.031 A 
ATOM     12  C   UNL A   1      40.851  29.857  29.730  1.00  0.00     0.074 A 
ATOM     13  C   UNL A   1      40.417  27.534  29.004  1.00  0.00     0.049 A 
ATOM     14  N   UNL A   1      42.114  29.795  30.052  1.00  0.00    -0.248 NA
ATOM     15  C   UNL A   1      40.233  31.175  29.953  1.00  0.00     0.031 C 
ATOM     16  C   UNL A   1      39.613  26.402  28.553  1.00  0.00     0.029 A 
ATOM     17  N   UNL A   1      41.682  27.017  29.121  1.00  0.00    -0.354 N 
ATOM     18  C   UNL A   1      42.432  31.050  30.553  1.00  0.00     0.074 A 
ATOM     19  C   UNL A   1      41.251  31.875  30.427  1.00  0.00     0.031 C 
ATOM     20  C   UNL A   1      40.418  25.352  28.326  1.00  0.00     0.029 A 
ATOM     21  C   UNL A   1      41.791  25.736  28.632  1.00  0.00     0.049 A 
ATOM     22  H   UNL A   1      42.436  27.512  29.515  1.00  0.00     0.167 HD
ATOM     23  C   UNL A   1      43.598  31.461  31.101  1.00  0.00     0.037 A 
ATOM     24  C   UNL A   1      42.885  24.975  28.429  1.00  0.00     0.037 A 
ATOM     25  C   UNL A   1      44.771  30.636  31.175  1.00  0.00     0.049 A 
ATOM     26  C   UNL A   1      44.213  25.497  28.902  1.00  0.00     0.074 A 
ATOM     27  C   UNL A   1      46.005  30.933  31.721  1.00  0.00     0.029 A 
ATOM     28  N   UNL A   1      44.860  29.350  30.655  1.00  0.00    -0.354 N 
ATOM     29  N   UNL A   1      44.489  26.656  29.454  1.00  0.00    -0.248 NA
ATOM     30  C   UNL A   1      45.370  24.603  28.770  1.00  0.00     0.031 C 
ATOM     31  C   UNL A   1      46.855  29.845  31.486  1.00  0.00     0.029 A 
ATOM     32  C   UNL A   1      46.136  28.851  30.837  1.00  0.00     0.049 A 
ATOM     33  H   UNL A   1      44.120  28.866  30.222  1.00  0.00     0.167 HD
ATOM     34  C   UNL A   1      45.836  26.613  29.781  1.00  0.00     0.074 A 
ATOM     35  C   UNL A   1      46.327  25.319  29.348  1.00  0.00     0.031 C 
ATOM     36  C   UNL A   1      46.593  27.550  30.406  1.00  0.00     0.037 A 
BRANCH  23  37
ATOM     37  C   UNL A   1      43.634  32.866  31.629  1.00  0.00     0.058 A 
ATOM     38  C   UNL A   1      43.968  33.951  30.799  1.00  0.00     0.135 A 
ATOM     39  C   UNL A   1      43.400  33.127  32.987  1.00  0.00     0.135 A 
ATOM     40  F   UNL A   1      44.224  33.753  29.496  1.00  0.00    -0.206 F 
ATOM     41  C   UNL A   1      44.122  35.236  31.309  1.00  0.00     0.059 A 
ATOM     42  C   UNL A   1      43.525  34.409  33.514  1.00  0.00     0.059 A 
ATOM     43  F   UNL A   1      43.085  32.126  33.823  1.00  0.00    -0.206 F 
ATOM     44  C   UNL A   1      43.912  35.452  32.672  1.00  0.00     0.060 A 
BRANCH  44  45
ATOM     45  S   UNL A   1      44.181  37.109  33.333  1.00  0.00     0.124 S 
ATOM     46  O   UNL A   1      42.864  37.421  33.879  1.00  0.00    -0.237 OA
ATOM     47  O   UNL A   1      45.237  36.887  34.316  1.00  0.00    -0.237 OA
ATOM     48  O   UNL A   1      44.574  37.883  32.160  1.00  0.00    -0.744 OA
ENDBRANCH  44  45
ENDBRANCH  23  37
BRANCH  24  49
ATOM     49  C   UNL A   1      42.751  23.659  27.751  1.00  0.00     0.058 A 
ATOM     50  C   UNL A   1      42.930  23.520  26.369  1.00  0.00     0.135 A 
ATOM     51  C   UNL A   1      42.485  22.497  28.494  1.00  0.00     0.135 A 
ATOM     52  F   UNL A   1      43.181  24.600  25.613  1.00  0.00    -0.206 F 
ATOM     53  C   UNL A   1      42.849  22.277  25.744  1.00  0.00     0.059 A 
ATOM     54  C   UNL A   1      42.417  21.241  27.896  1.00  0.00     0.059 A 
ATOM     55  F   UNL A   1      42.312  22.574  29.822  1.00  0.00    -0.206 F 
ATOM     56  C   UNL A   1      42.598  21.142  26.518  1.00  0.00     0.060 A 
BRANCH  56  57
ATOM     57  S   UNL A   1      42.561  19.530  25.701  1.00  0.00     0.124 S 
ATOM     58  O   UNL A   1      43.482  19.740  24.590  1.00  0.00    -0.237 OA
ATOM     59  O   UNL A   1      43.031  18.642  26.760  1.00  0.00    -0.237 OA
ATOM     60  O   UNL A   1      41.158  19.366  25.335  1.00  0.00    -0.744 OA
ENDBRANCH  56  57
ENDBRANCH  24  49
BRANCH  36  61
ATOM     61  C   UNL A   1      48.020  27.196  30.709  1.00  0.00     0.058 A 
ATOM     62  C   UNL A   1      49.060  27.513  29.825  1.00  0.00     0.135 A 
ATOM     63  C   UNL A   1      48.353  26.622  31.945  1.00  0.00     0.135 A 
ATOM     64  F   UNL A   1      48.790  28.053  28.626  1.00  0.00    -0.206 F 
ATOM     65  C   UNL A   1      50.388  27.272  30.159  1.00  0.00     0.059 A 
ATOM     66  C   UNL A   1      49.674  26.394  32.309  1.00  0.00     0.059 A 
ATOM     67  F   UNL A   1      47.390  26.309  32.828  1.00  0.00    -0.206 F 
ATOM     68  C   UNL A   1      50.686  26.721  31.407  1.00  0.00     0.060 A 
BRANCH  68  69
ATOM     69  S   UNL A   1      52.417  26.488  31.862  1.00  0.00     0.124 S 
ATOM     70  O   UNL A   1      52.321  25.405  32.836  1.00  0.00    -0.237 OA
ATOM     71  O   UNL A   1      53.032  26.139  30.585  1.00  0.00    -0.237 OA
ATOM     72  O   UNL A   1      52.804  27.787  32.403  1.00  0.00    -0.744 OA
ENDBRANCH  68  69
ENDBRANCH  36  61
ENDBRANCH  10  11
ENDBRANCH   3   5
ENDBRANCH   2   3
ENDBRANCH   1   2
BRANCH   1  73
ATOM     73  C   UNL A   1      34.397  33.627  30.047  1.00  0.00     0.275 C 
BRANCH  73  74
ATOM     74  O   UNL A   1      34.323  32.667  31.107  1.00  0.00    -0.458 OA
BRANCH  74  75
ATOM     75  C   UNL A   1      34.277  33.196  32.358  1.00  0.00     0.338 C 
ATOM     76  O   UNL A   1      33.339  33.786  32.866  1.00  0.00    -0.246 OA
BRANCH  75  77
ATOM     77  C   UNL A   1      35.509  32.841  33.091  1.00  0.00     0.062 A 
ATOM     78  C   UNL A   1      35.844  33.486  34.286  1.00  0.00     0.018 A 
ATOM     79  C   UNL A   1      36.329  31.841  32.538  1.00  0.00     0.044 A 
ATOM     80  C   UNL A   1      37.028  33.155  34.959  1.00  0.00     0.031 A 
ATOM     81  C   UNL A   1      37.531  31.585  33.201  1.00  0.00     0.066 A 
ATOM     82  C   UNL A   1      37.893  32.211  34.388  1.00  0.00     0.089 A 
ATOM     83  N   UNL A   1      38.591  30.759  32.921  1.00  0.00    -0.342 N 
ATOM     84  N   UNL A   1      39.105  31.756  34.829  1.00  0.00    -0.233 NA
ATOM     85  C   UNL A   1      39.505  30.868  33.944  1.00  0.00     0.110 A 
ATOM     86  H   UNL A   1      38.682  30.188  32.125  1.00  0.00     0.168 HD
BRANCH  85  87
ATOM     87  C   UNL A   1      40.725  30.004  34.068  1.00  0.00     0.055 C 
ATOM     88  C   UNL A   1      40.975  29.655  35.544  1.00  0.00     0.011 C 
ATOM     89  C   UNL A   1      40.660  28.742  33.198  1.00  0.00     0.011 C 
ATOM     90  C   UNL A   1      42.219  28.792  35.716  1.00  0.00     0.001 C 
ATOM     91  C   UNL A   1      41.907  27.874  33.385  1.00  0.00     0.001 C 
ATOM     92  C   UNL A   1      42.148  27.536  34.855  1.00  0.00     0.000 C 
ENDBRANCH  85  87
ENDBRANCH  75  77
ENDBRANCH  74  75
ENDBRANCH  73  74
ENDBRANCH   1  73
TORSDOF 15
ENDMDL
MODEL 3
REMARK VINA RESULT:     -11.4      6.635     12.358
REMARK SMILES O=C(OCCOC(=O)c1ccc2nc(C3CCCCC3)[nH]c2c1)c1ccc(-c2c3nc(c(-c4c(F)cc(S(=O)(=O)[O-])cc4F)c4ccc([nH]4)c(-c4c(F)cc(S(=O)(=O)[O-])cc4F)c4nc(c(-c5c(F)cc(S(=O)(=O)[O-])cc5F)c5ccc2[nH]5)C=C4)C=C3)cc1
REMARK SMILES IDX 4 1 3 2 2 3 1 4 24 5 25 6 89 7 26 8 88 9 27 10 28 11 29 12
REMARK SMILES IDX 82 13 30 14 87 15 81 16 83 17 31 18 86 19 80 20 79 21 32 23
REMARK SMILES IDX 66 24 45 25 65 26 46 27 49 28 64 29 84 30 47 31 48 32 63 34
REMARK SMILES IDX 85 35 50 36 33 37 34 38 43 39 35 40 36 41 42 42 44 43 37 44
REMARK SMILES IDX 38 45 39 46 40 47 41 48 67 49 68 50 77 51 69 52 70 53 76 54
REMARK SMILES IDX 78 55 71 56 72 57 73 58 74 59 75 60 51 61 52 62 61 63 53 64
REMARK SMILES IDX 54 65 60 66 62 67 55 68 56 69 57 70 58 71 59 72 5 73 6 74
REMARK SMILES IDX 7 75 8 76 9 77 10 78 23 79 11 80 22 81 12 82 21 83 13 84
REMARK SMILES IDX 14 85 15 87 16 88 20 89 17 90 19 91 18 92
REMARK H PARENT 83 22 49 33 21 86
REMARK Flexibility Score: inf
ROOT
ATOM      1  C   UNL A   1      34.833  32.128  29.172  1.00  0.00     0.275 C 
ENDROOT
BRANCH   1   2
ATOM      2  O   UNL A   1      35.925  31.737  30.021  1.00  0.00    -0.458 OA
BRANCH   2   3
ATOM      3  C   UNL A   1      36.501  30.526  30.206  1.00  0.00     0.338 C 
ATOM      4  O   UNL A   1      35.918  29.700  30.909  1.00  0.00    -0.246 OA
BRANCH   3   5
ATOM      5  C   UNL A   1      37.869  30.168  29.714  1.00  0.00     0.060 A 
ATOM      6  C   UNL A   1      38.219  29.857  28.399  1.00  0.00     0.016 A 
ATOM      7  C   UNL A   1      38.883  30.122  30.690  1.00  0.00     0.016 A 
ATOM      8  C   UNL A   1      39.545  29.581  28.049  1.00  0.00     0.010 A 
ATOM      9  C   UNL A   1      40.210  29.854  30.349  1.00  0.00     0.010 A 
ATOM     10  C   UNL A   1      40.545  29.575  29.021  1.00  0.00    -0.014 A 
BRANCH  10  11
ATOM     11  C   UNL A   1      41.907  29.115  28.680  1.00  0.00     0.031 A 
ATOM     12  C   UNL A   1      42.986  30.141  28.535  1.00  0.00     0.074 A 
ATOM     13  C   UNL A   1      42.170  27.808  28.506  1.00  0.00     0.049 A 
ATOM     14  N   UNL A   1      44.243  29.979  28.227  1.00  0.00    -0.248 NA
ATOM     15  C   UNL A   1      42.601  31.539  28.797  1.00  0.00     0.031 C 
ATOM     16  C   UNL A   1      41.207  26.725  28.687  1.00  0.00     0.029 A 
ATOM     17  N   UNL A   1      43.313  27.170  28.097  1.00  0.00    -0.354 N 
ATOM     18  C   UNL A   1      44.809  31.244  28.298  1.00  0.00     0.074 A 
ATOM     19  C   UNL A   1      43.746  32.174  28.607  1.00  0.00     0.031 C 
ATOM     20  C   UNL A   1      41.763  25.570  28.289  1.00  0.00     0.029 A 
ATOM     21  C   UNL A   1      43.125  25.832  27.840  1.00  0.00     0.049 A 
ATOM     22  H   UNL A   1      44.181  27.624  27.998  1.00  0.00     0.167 HD
ATOM     23  C   UNL A   1      46.109  31.588  28.151  1.00  0.00     0.037 A 
ATOM     24  C   UNL A   1      43.954  24.932  27.276  1.00  0.00     0.037 A 
ATOM     25  C   UNL A   1      47.140  30.652  27.800  1.00  0.00     0.049 A 
ATOM     26  C   UNL A   1      45.363  25.356  26.969  1.00  0.00     0.074 A 
ATOM     27  C   UNL A   1      48.494  30.876  27.639  1.00  0.00     0.029 A 
ATOM     28  N   UNL A   1      46.919  29.307  27.527  1.00  0.00    -0.354 N 
ATOM     29  N   UNL A   1      45.914  26.539  27.120  1.00  0.00    -0.248 NA
ATOM     30  C   UNL A   1      46.277  24.327  26.459  1.00  0.00     0.031 C 
ATOM     31  C   UNL A   1      49.083  29.676  27.219  1.00  0.00     0.029 A 
ATOM     32  C   UNL A   1      48.104  28.695  27.165  1.00  0.00     0.049 A 
ATOM     33  H   UNL A   1      46.044  28.858  27.584  1.00  0.00     0.167 HD
ATOM     34  C   UNL A   1      47.248  26.386  26.773  1.00  0.00     0.074 A 
ATOM     35  C   UNL A   1      47.420  24.999  26.385  1.00  0.00     0.031 C 
ATOM     36  C   UNL A   1      48.246  27.304  26.797  1.00  0.00     0.037 A 
BRANCH  23  37
ATOM     37  C   UNL A   1      46.448  33.037  28.353  1.00  0.00     0.058 A 
ATOM     38  C   UNL A   1      46.771  33.542  29.624  1.00  0.00     0.135 A 
ATOM     39  C   UNL A   1      46.384  33.943  27.285  1.00  0.00     0.135 A 
ATOM     40  F   UNL A   1      46.824  32.721  30.686  1.00  0.00    -0.206 F 
ATOM     41  C   UNL A   1      46.966  34.902  29.839  1.00  0.00     0.059 A 
ATOM     42  C   UNL A   1      46.598  35.305  27.471  1.00  0.00     0.059 A 
ATOM     43  F   UNL A   1      46.072  33.514  26.052  1.00  0.00    -0.206 F 
ATOM     44  C   UNL A   1      46.863  35.778  28.757  1.00  0.00     0.060 A 
BRANCH  44  45
ATOM     45  S   UNL A   1      47.049  37.547  29.059  1.00  0.00     0.124 S 
ATOM     46  O   UNL A   1      48.493  37.661  29.237  1.00  0.00    -0.237 OA
ATOM     47  O   UNL A   1      46.514  38.134  27.834  1.00  0.00    -0.237 OA
ATOM     48  O   UNL A   1      46.249  37.772  30.260  1.00  0.00    -0.744 OA
ENDBRANCH  44  45
ENDBRANCH  23  37
BRANCH  24  49
ATOM     49  C   UNL A   1      43.460  23.562  26.975  1.00  0.00     0.058 A 
ATOM     50  C   UNL A   1      43.219  23.137  25.664  1.00  0.00     0.135 A 
ATOM     51  C   UNL A   1      43.264  22.631  28.009  1.00  0.00     0.135 A 
ATOM     52  F   UNL A   1      43.386  23.989  24.641  1.00  0.00    -0.206 F 
ATOM     53  C   UNL A   1      42.800  21.838  25.383  1.00  0.00     0.059 A 
ATOM     54  C   UNL A   1      42.864  21.322  27.754  1.00  0.00     0.059 A 
ATOM     55  F   UNL A   1      43.487  22.986  29.284  1.00  0.00    -0.206 F 
ATOM     56  C   UNL A   1      42.631  20.935  26.436  1.00  0.00     0.060 A 
BRANCH  56  57
ATOM     57  S   UNL A   1      42.151  19.236  26.049  1.00  0.00     0.124 S 
ATOM     58  O   UNL A   1      42.577  18.527  27.250  1.00  0.00    -0.237 OA
ATOM     59  O   UNL A   1      40.709  19.364  25.861  1.00  0.00    -0.237 OA
ATOM     60  O   UNL A   1      42.908  18.936  24.838  1.00  0.00    -0.744 OA
ENDBRANCH  56  57
ENDBRANCH  24  49
BRANCH  36  61
ATOM     61  C   UNL A   1      49.627  26.834  26.444  1.00  0.00     0.058 A 
ATOM     62  C   UNL A   1      50.440  26.172  27.375  1.00  0.00     0.135 A 
ATOM     63  C   UNL A   1      50.098  26.963  25.128  1.00  0.00     0.135 A 
ATOM     64  F   UNL A   1      50.038  26.034  28.649  1.00  0.00    -0.206 F 
ATOM     65  C   UNL A   1      51.677  25.652  27.011  1.00  0.00     0.059 A 
ATOM     66  C   UNL A   1      51.319  26.429  24.737  1.00  0.00     0.059 A 
ATOM     67  F   UNL A   1      49.350  27.582  24.200  1.00  0.00    -0.206 F 
ATOM     68  C   UNL A   1      52.104  25.777  25.687  1.00  0.00     0.060 A 
BRANCH  68  69
ATOM     69  S   UNL A   1      53.674  25.027  25.206  1.00  0.00     0.124 S 
ATOM     70  O   UNL A   1      53.355  23.605  25.284  1.00  0.00    -0.237 OA
ATOM     71  O   UNL A   1      53.876  25.559  23.862  1.00  0.00    -0.237 OA
ATOM     72  O   UNL A   1      54.608  25.518  26.215  1.00  0.00    -0.744 OA
ENDBRANCH  68  69
ENDBRANCH  36  61
ENDBRANCH  10  11
ENDBRANCH   3   5
ENDBRANCH   2   3
ENDBRANCH   1   2
BRANCH   1  73
ATOM     73  C   UNL A   1      34.761  31.401  27.827  1.00  0.00     0.275 C 
BRANCH  73  74
ATOM     74  O   UNL A   1      33.970  30.207  27.855  1.00  0.00    -0.458 OA
BRANCH  74  75
ATOM     75  C   UNL A   1      32.965  30.164  26.940  1.00  0.00     0.338 C 
ATOM     76  O   UNL A   1      32.037  30.948  26.839  1.00  0.00    -0.246 OA
BRANCH  75  77
ATOM     77  C   UNL A   1      33.223  29.078  25.974  1.00  0.00     0.062 A 
ATOM     78  C   UNL A   1      33.026  29.276  24.603  1.00  0.00     0.018 A 
ATOM     79  C   UNL A   1      33.666  27.844  26.485  1.00  0.00     0.044 A 
ATOM     80  C   UNL A   1      33.254  28.229  23.699  1.00  0.00     0.031 A 
ATOM     81  C   UNL A   1      33.819  26.807  25.561  1.00  0.00     0.066 A 
ATOM     82  C   UNL A   1      33.627  26.972  24.195  1.00  0.00     0.089 A 
ATOM     83  N   UNL A   1      34.148  25.482  25.697  1.00  0.00    -0.342 N 
ATOM     84  N   UNL A   1      33.866  25.803  23.526  1.00  0.00    -0.233 NA
ATOM     85  C   UNL A   1      34.197  24.918  24.442  1.00  0.00     0.110 A 
ATOM     86  H   UNL A   1      34.318  25.014  26.546  1.00  0.00     0.168 HD
BRANCH  85  87
ATOM     87  C   UNL A   1      34.671  23.522  24.172  1.00  0.00     0.055 C 
ATOM     88  C   UNL A   1      36.174  23.409  24.471  1.00  0.00     0.011 C 
ATOM     89  C   UNL A   1      33.868  22.456  24.931  1.00  0.00     0.011 C 
ATOM     90  C   UNL A   1      36.702  22.007  24.192  1.00  0.00     0.001 C 
ATOM     91  C   UNL A   1      34.411  21.052  24.654  1.00  0.00     0.001 C 
ATOM     92  C   UNL A   1      35.905  20.952  24.952  1.00  0.00     0.000 C 
ENDBRANCH  85  87
ENDBRANCH  75  77
ENDBRANCH  74  75
ENDBRANCH  73  74
ENDBRANCH   1  73
TORSDOF 15
ENDMDL
