MODEL 1
REMARK VINA RESULT:     -11.8      0.000      0.000
REMARK SMILES CCc1cc(S(F)(F)(F)(F)F)cc2c1O[C@@H](C(F)(F)F)C(C(=O)OCCOC(=O)c1ccc(-c3c4nc(c(-c5c(F)cc(S(=O)(=O)[O-])cc5F)c5ccc([nH]5)c(-c5c(F)cc(S(=O)(=O)[O-])cc5F)c5nc(c(-c6c(F)cc(S(=O)(=O)[O-])cc6F)c6ccc3[nH]6)C=C5)C=C4)cc1)=C2
REMARK SMILES IDX 26 1 25 2 24 3 22 4 23 5 21 6 3 7 4 8 14 9 5 10 13 11 15 12
REMARK SMILES IDX 12 13 96 14 16 15 2 16 1 17 6 18 7 19 8 20 9 21 10 22 11 23
REMARK SMILES IDX 17 24 18 25 19 26 20 27 27 28 28 29 29 30 30 31 31 32 95 33
REMARK SMILES IDX 32 34 94 35 33 36 34 37 35 38 88 39 36 40 93 41 87 42 89 43
REMARK SMILES IDX 37 44 92 45 86 46 85 47 38 49 72 50 51 51 71 52 52 53 55 54
REMARK SMILES IDX 70 55 90 56 53 57 54 58 69 60 91 61 56 62 39 63 40 64 49 65
REMARK SMILES IDX 41 66 42 67 48 68 50 69 43 70 44 71 45 72 46 73 47 74 73 75
REMARK SMILES IDX 74 76 83 77 75 78 76 79 82 80 84 81 77 82 78 83 79 84 80 85
REMARK SMILES IDX 81 86 57 87 58 88 67 89 59 90 60 91 66 92 68 93 61 94 62 95
REMARK SMILES IDX 63 96 64 97 65 98
REMARK H PARENT 89 48 55 59
REMARK Flexibility Score: inf
ROOT
ATOM      1  C   UNL A   1      33.458  29.754  25.908  1.00  0.00     0.275 C 
ENDROOT
BRANCH   1   2
ATOM      2  C   UNL A   1      31.968  30.044  25.983  1.00  0.00     0.275 C 
BRANCH   2   3
ATOM      3  O   UNL A   1      31.241  28.902  25.555  1.00  0.00    -0.459 OA
BRANCH   3   4
ATOM      4  C   UNL A   1      31.422  27.658  26.215  1.00  0.00     0.338 C 
ATOM      5  O   UNL A   1      31.062  27.522  27.426  1.00  0.00    -0.246 OA
BRANCH   4   6
ATOM      6  C   UNL A   1      32.046  26.486  25.473  1.00  0.00     0.087 C 
ATOM      7  C   UNL A   1      33.439  22.970  23.699  1.00  0.00    -0.004 A 
ATOM      8  C   UNL A   1      34.723  22.528  23.959  1.00  0.00     0.032 A 
ATOM      9  C   UNL A   1      32.989  24.100  24.338  1.00  0.00     0.131 A 
ATOM     10  C   UNL A   1      35.534  23.196  24.840  1.00  0.00     0.108 A 
ATOM     11  C   UNL A   1      33.784  24.811  25.218  1.00  0.00     0.019 A 
ATOM     12  O   UNL A   1      31.676  24.463  24.156  1.00  0.00    -0.475 OA
ATOM     13  C   UNL A   1      35.069  24.337  25.461  1.00  0.00     0.036 A 
ATOM     14  C   UNL A   1      33.202  25.971  25.872  1.00  0.00     0.027 C 
ATOM     15  C   UNL A   1      31.358  25.879  24.258  1.00  0.00     0.316 C 
BRANCH   7  16
ATOM     16  C   UNL A   1      32.598  22.202  22.693  1.00  0.00     0.036 C 
ATOM     17  C   UNL A   1      32.265  20.829  23.256  1.00  0.00     0.009 C 
ENDBRANCH   7  16
BRANCH  10  18
ATOM     18  S   UNL A   1      37.203  22.587  25.184  1.00  0.00     0.310 S 
ATOM     19  F   UNL A   1      37.333  23.561  26.429  1.00  0.00    -0.094 F 
ATOM     20  F   UNL A   1      37.724  23.774  24.288  1.00  0.00    -0.094 F 
ATOM     21  F   UNL A   1      38.660  22.126  25.469  1.00  0.00    -0.094 F 
ATOM     22  F   UNL A   1      36.668  21.492  26.189  1.00  0.00    -0.094 F 
ATOM     23  F   UNL A   1      35.725  23.113  24.994  1.00  0.00    -0.094 F 
ENDBRANCH  10  18
BRANCH  15  24
ATOM     24  C   UNL A   1      29.855  26.041  24.406  1.00  0.00     0.430 C 
ATOM     25  F   UNL A   1      29.235  25.215  23.567  1.00  0.00    -0.167 F 
ATOM     26  F   UNL A   1      29.499  25.752  25.655  1.00  0.00    -0.167 F 
ATOM     27  F   UNL A   1      29.513  27.296  24.126  1.00  0.00    -0.167 F 
ENDBRANCH  15  24
ENDBRANCH   4   6
ENDBRANCH   3   4
ENDBRANCH   2   3
ENDBRANCH   1   2
BRANCH   1  28
ATOM     28  O   UNL A   1      33.927  29.349  27.186  1.00  0.00    -0.458 OA
BRANCH  28  29
ATOM     29  C   UNL A   1      34.742  30.223  27.952  1.00  0.00     0.338 C 
ATOM     30  O   UNL A   1      34.270  31.326  28.374  1.00  0.00    -0.246 OA
BRANCH  29  31
ATOM     31  C   UNL A   1      36.179  29.840  28.269  1.00  0.00     0.060 A 
ATOM     32  C   UNL A   1      36.522  29.424  29.545  1.00  0.00     0.016 A 
ATOM     33  C   UNL A   1      37.084  29.912  27.301  1.00  0.00     0.016 A 
ATOM     34  C   UNL A   1      37.918  29.379  29.776  1.00  0.00     0.010 A 
ATOM     35  C   UNL A   1      38.417  29.723  27.574  1.00  0.00     0.010 A 
ATOM     36  C   UNL A   1      38.835  29.368  28.826  1.00  0.00    -0.014 A 
BRANCH  36  37
ATOM     37  C   UNL A   1      40.277  28.980  29.109  1.00  0.00     0.031 A 
ATOM     38  C   UNL A   1      40.699  27.692  28.771  1.00  0.00     0.074 A 
ATOM     39  C   UNL A   1      41.092  29.934  29.694  1.00  0.00     0.049 A 
ATOM     40  N   UNL A   1      41.921  27.175  28.910  1.00  0.00    -0.248 NA
ATOM     41  C   UNL A   1      39.826  26.667  28.181  1.00  0.00     0.031 C 
ATOM     42  C   UNL A   1      40.675  31.237  30.030  1.00  0.00     0.029 A 
ATOM     43  N   UNL A   1      42.416  29.809  30.051  1.00  0.00    -0.354 N 
ATOM     44  C   UNL A   1      41.944  25.920  28.456  1.00  0.00     0.074 A 
ATOM     45  C   UNL A   1      40.595  25.573  27.987  1.00  0.00     0.031 C 
ATOM     46  C   UNL A   1      41.729  31.884  30.592  1.00  0.00     0.029 A 
ATOM     47  C   UNL A   1      42.823  30.997  30.616  1.00  0.00     0.049 A 
ATOM     48  H   UNL A   1      42.976  29.009  29.924  1.00  0.00     0.167 HD
ATOM     49  C   UNL A   1      43.036  25.052  28.415  1.00  0.00     0.037 A 
ATOM     50  C   UNL A   1      44.071  31.309  31.131  1.00  0.00     0.037 A 
ATOM     51  C   UNL A   1      44.296  25.378  28.890  1.00  0.00     0.049 A 
ATOM     52  C   UNL A   1      45.149  30.420  31.143  1.00  0.00     0.074 A 
ATOM     53  C   UNL A   1      45.409  24.518  28.848  1.00  0.00     0.029 A 
ATOM     54  N   UNL A   1      44.696  26.558  29.477  1.00  0.00    -0.354 N 
ATOM     55  N   UNL A   1      45.182  29.180  30.653  1.00  0.00    -0.248 NA
ATOM     56  C   UNL A   1      46.467  30.728  31.715  1.00  0.00     0.031 C 
ATOM     57  C   UNL A   1      46.464  25.166  29.411  1.00  0.00     0.029 A 
ATOM     58  C   UNL A   1      46.026  26.442  29.814  1.00  0.00     0.049 A 
ATOM     59  H   UNL A   1      44.129  27.349  29.630  1.00  0.00     0.167 HD
ATOM     60  C   UNL A   1      46.393  28.648  30.830  1.00  0.00     0.074 A 
ATOM     61  C   UNL A   1      47.235  29.634  31.522  1.00  0.00     0.031 C 
ATOM     62  C   UNL A   1      46.831  27.382  30.439  1.00  0.00     0.037 A 
BRANCH  49  63
ATOM     63  C   UNL A   1      42.832  23.670  27.813  1.00  0.00     0.058 A 
ATOM     64  C   UNL A   1      42.976  23.490  26.447  1.00  0.00     0.135 A 
ATOM     65  C   UNL A   1      42.544  22.653  28.617  1.00  0.00     0.135 A 
ATOM     66  F   UNL A   1      43.504  24.409  25.645  1.00  0.00    -0.206 F 
ATOM     67  C   UNL A   1      42.509  22.237  25.983  1.00  0.00     0.059 A 
ATOM     68  C   UNL A   1      42.230  21.420  28.098  1.00  0.00     0.059 A 
ATOM     69  F   UNL A   1      42.562  22.828  29.934  1.00  0.00    -0.206 F 
ATOM     70  C   UNL A   1      42.293  21.186  26.752  1.00  0.00     0.060 A 
BRANCH  70  71
ATOM     71  S   UNL A   1      42.092  19.524  26.064  1.00  0.00     0.124 S 
ATOM     72  O   UNL A   1      40.618  19.287  25.726  1.00  0.00    -0.237 OA
ATOM     73  O   UNL A   1      42.934  19.394  24.792  1.00  0.00    -0.237 OA
ATOM     74  O   UNL A   1      42.607  18.366  27.210  1.00  0.00    -0.744 OA
ENDBRANCH  70  71
ENDBRANCH  49  63
BRANCH  50  75
ATOM     75  C   UNL A   1      44.279  32.696  31.717  1.00  0.00     0.058 A 
ATOM     76  C   UNL A   1      44.703  33.729  30.898  1.00  0.00     0.135 A 
ATOM     77  C   UNL A   1      44.075  32.886  33.015  1.00  0.00     0.135 A 
ATOM     78  F   UNL A   1      44.678  33.659  29.570  1.00  0.00    -0.206 F 
ATOM     79  C   UNL A   1      45.166  34.866  31.602  1.00  0.00     0.059 A 
ATOM     80  C   UNL A   1      44.426  34.072  33.613  1.00  0.00     0.059 A 
ATOM     81  F   UNL A   1      43.526  31.918  33.744  1.00  0.00    -0.206 F 
ATOM     82  C   UNL A   1      44.907  35.117  32.872  1.00  0.00     0.060 A 
BRANCH  82  83
ATOM     83  S   UNL A   1      45.176  36.754  33.595  1.00  0.00     0.124 S 
ATOM     84  O   UNL A   1      46.666  36.948  33.880  1.00  0.00    -0.237 OA
ATOM     85  O   UNL A   1      44.699  37.829  32.615  1.00  0.00    -0.237 OA
ATOM     86  O   UNL A   1      44.295  36.884  35.056  1.00  0.00    -0.744 OA
ENDBRANCH  82  83
ENDBRANCH  50  75
BRANCH  62  87
ATOM     87  C   UNL A   1      48.279  27.010  30.716  1.00  0.00     0.058 A 
ATOM     88  C   UNL A   1      48.614  26.337  31.879  1.00  0.00     0.135 A 
ATOM     89  C   UNL A   1      49.202  27.341  29.821  1.00  0.00     0.135 A 
ATOM     90  F   UNL A   1      47.712  25.767  32.673  1.00  0.00    -0.206 F 
ATOM     91  C   UNL A   1      50.003  26.312  32.147  1.00  0.00     0.059 A 
ATOM     92  C   UNL A   1      50.537  27.163  30.096  1.00  0.00     0.059 A 
ATOM     93  F   UNL A   1      48.832  27.850  28.650  1.00  0.00    -0.206 F 
ATOM     94  C   UNL A   1      50.943  26.559  31.253  1.00  0.00     0.060 A 
BRANCH  94  95
ATOM     95  S   UNL A   1      52.675  26.121  31.543  1.00  0.00     0.124 S 
ATOM     96  O   UNL A   1      53.438  26.151  30.217  1.00  0.00    -0.237 OA
ATOM     97  O   UNL A   1      53.299  27.128  32.513  1.00  0.00    -0.237 OA
ATOM     98  O   UNL A   1      52.763  24.552  32.217  1.00  0.00    -0.744 OA
ENDBRANCH  94  95
ENDBRANCH  62  87
ENDBRANCH  36  37
ENDBRANCH  29  31
ENDBRANCH  28  29
ENDBRANCH   1  28
TORSDOF 17
ENDMDL
MODEL 2
REMARK VINA RESULT:     -11.6      3.294      9.169
REMARK SMILES CCc1cc(S(F)(F)(F)(F)F)cc2c1O[C@@H](C(F)(F)F)C(C(=O)OCCOC(=O)c1ccc(-c3c4nc(c(-c5c(F)cc(S(=O)(=O)[O-])cc5F)c5ccc([nH]5)c(-c5c(F)cc(S(=O)(=O)[O-])cc5F)c5nc(c(-c6c(F)cc(S(=O)(=O)[O-])cc6F)c6ccc3[nH]6)C=C5)C=C4)cc1)=C2
REMARK SMILES IDX 26 1 25 2 24 3 22 4 23 5 21 6 3 7 4 8 14 9 5 10 13 11 15 12
REMARK SMILES IDX 12 13 96 14 16 15 2 16 1 17 6 18 7 19 8 20 9 21 10 22 11 23
REMARK SMILES IDX 17 24 18 25 19 26 20 27 27 28 28 29 29 30 30 31 31 32 95 33
REMARK SMILES IDX 32 34 94 35 33 36 34 37 35 38 88 39 36 40 93 41 87 42 89 43
REMARK SMILES IDX 37 44 92 45 86 46 85 47 38 49 72 50 51 51 71 52 52 53 55 54
REMARK SMILES IDX 70 55 90 56 53 57 54 58 69 60 91 61 56 62 39 63 40 64 49 65
REMARK SMILES IDX 41 66 42 67 48 68 50 69 43 70 44 71 45 72 46 73 47 74 73 75
REMARK SMILES IDX 74 76 83 77 75 78 76 79 82 80 84 81 77 82 78 83 79 84 80 85
REMARK SMILES IDX 81 86 57 87 58 88 67 89 59 90 60 91 66 92 68 93 61 94 62 95
REMARK SMILES IDX 63 96 64 97 65 98
REMARK H PARENT 89 48 55 59
REMARK Flexibility Score: inf
ROOT
ATOM      1  C   UNL A   1      37.468  21.673  25.411  1.00  0.00     0.275 C 
ENDROOT
BRANCH   1   2
ATOM      2  C   UNL A   1      35.968  21.508  25.590  1.00  0.00     0.275 C 
BRANCH   2   3
ATOM      3  O   UNL A   1      35.332  21.559  24.320  1.00  0.00    -0.459 OA
BRANCH   3   4
ATOM      4  C   UNL A   1      35.164  22.805  23.661  1.00  0.00     0.338 C 
ATOM      5  O   UNL A   1      35.876  23.089  22.647  1.00  0.00    -0.246 OA
BRANCH   4   6
ATOM      6  C   UNL A   1      34.133  23.801  24.167  1.00  0.00     0.087 C 
ATOM      7  C   UNL A   1      31.232  26.669  25.068  1.00  0.00    -0.004 A 
ATOM      8  C   UNL A   1      31.584  27.813  25.760  1.00  0.00     0.032 A 
ATOM      9  C   UNL A   1      32.215  25.768  24.738  1.00  0.00     0.131 A 
ATOM     10  C   UNL A   1      32.888  28.053  26.108  1.00  0.00     0.108 A 
ATOM     11  C   UNL A   1      33.538  25.967  25.089  1.00  0.00     0.019 A 
ATOM     12  O   UNL A   1      31.869  24.693  23.955  1.00  0.00    -0.475 OA
ATOM     13  C   UNL A   1      33.859  27.130  25.780  1.00  0.00     0.036 A 
ATOM     14  C   UNL A   1      34.510  24.975  24.660  1.00  0.00     0.027 C 
ATOM     15  C   UNL A   1      32.646  23.474  24.119  1.00  0.00     0.316 C 
BRANCH   7  16
ATOM     16  C   UNL A   1      29.765  26.446  24.733  1.00  0.00     0.036 C 
ATOM     17  C   UNL A   1      29.401  27.252  23.497  1.00  0.00     0.009 C 
ENDBRANCH   7  16
BRANCH  10  18
ATOM     18  S   UNL A   1      33.331  29.569  26.992  1.00  0.00     0.310 S 
ATOM     19  F   UNL A   1      34.845  29.423  26.542  1.00  0.00    -0.094 F 
ATOM     20  F   UNL A   1      33.678  28.644  28.220  1.00  0.00    -0.094 F 
ATOM     21  F   UNL A   1      33.753  30.834  27.790  1.00  0.00    -0.094 F 
ATOM     22  F   UNL A   1      33.111  30.462  25.708  1.00  0.00    -0.094 F 
ATOM     23  F   UNL A   1      33.007  28.281  26.134  1.00  0.00    -0.094 F 
ENDBRANCH  10  18
BRANCH  15  24
ATOM     24  C   UNL A   1      32.378  22.554  22.941  1.00  0.00     0.430 C 
ATOM     25  F   UNL A   1      31.082  22.578  22.645  1.00  0.00    -0.167 F 
ATOM     26  F   UNL A   1      33.081  22.964  21.888  1.00  0.00    -0.167 F 
ATOM     27  F   UNL A   1      32.737  21.312  23.257  1.00  0.00    -0.167 F 
ENDBRANCH  15  24
ENDBRANCH   4   6
ENDBRANCH   3   4
ENDBRANCH   2   3
ENDBRANCH   1   2
BRANCH   1  28
ATOM     28  O   UNL A   1      37.874  22.925  25.945  1.00  0.00    -0.458 OA
BRANCH  28  29
ATOM     29  C   UNL A   1      39.235  23.144  26.284  1.00  0.00     0.338 C 
ATOM     30  O   UNL A   1      40.123  22.310  25.921  1.00  0.00    -0.246 OA
BRANCH  29  31
ATOM     31  C   UNL A   1      39.630  24.377  27.081  1.00  0.00     0.060 A 
ATOM     32  C   UNL A   1      39.228  24.511  28.400  1.00  0.00     0.016 A 
ATOM     33  C   UNL A   1      40.366  25.309  26.488  1.00  0.00     0.016 A 
ATOM     34  C   UNL A   1      39.412  25.812  28.926  1.00  0.00     0.010 A 
ATOM     35  C   UNL A   1      40.621  26.504  27.115  1.00  0.00     0.010 A 
ATOM     36  C   UNL A   1      40.202  26.728  28.397  1.00  0.00    -0.014 A 
BRANCH  36  37
ATOM     37  C   UNL A   1      40.624  27.966  29.172  1.00  0.00     0.031 A 
ATOM     38  C   UNL A   1      39.732  29.038  29.254  1.00  0.00     0.074 A 
ATOM     39  C   UNL A   1      41.880  27.958  29.754  1.00  0.00     0.049 A 
ATOM     40  N   UNL A   1      39.901  30.189  29.906  1.00  0.00    -0.248 NA
ATOM     41  C   UNL A   1      38.411  29.061  28.609  1.00  0.00     0.031 C 
ATOM     42  C   UNL A   1      42.781  26.878  29.683  1.00  0.00     0.029 A 
ATOM     43  N   UNL A   1      42.478  28.959  30.486  1.00  0.00    -0.354 N 
ATOM     44  C   UNL A   1      38.821  30.959  29.770  1.00  0.00     0.074 A 
ATOM     45  C   UNL A   1      37.849  30.248  28.927  1.00  0.00     0.031 C 
ATOM     46  C   UNL A   1      43.911  27.227  30.353  1.00  0.00     0.029 A 
ATOM     47  C   UNL A   1      43.734  28.530  30.854  1.00  0.00     0.049 A 
ATOM     48  H   UNL A   1      42.077  29.830  30.709  1.00  0.00     0.167 HD
ATOM     49  C   UNL A   1      38.607  32.226  30.315  1.00  0.00     0.037 A 
ATOM     50  C   UNL A   1      44.687  29.223  31.584  1.00  0.00     0.037 A 
ATOM     51  C   UNL A   1      39.543  32.901  31.081  1.00  0.00     0.049 A 
ATOM     52  C   UNL A   1      44.496  30.515  32.081  1.00  0.00     0.074 A 
ATOM     53  C   UNL A   1      39.340  34.175  31.646  1.00  0.00     0.029 A 
ATOM     54  N   UNL A   1      40.808  32.482  31.429  1.00  0.00    -0.354 N 
ATOM     55  N   UNL A   1      43.400  31.269  31.978  1.00  0.00    -0.248 NA
ATOM     56  C   UNL A   1      45.510  31.271  32.828  1.00  0.00     0.031 C 
ATOM     57  C   UNL A   1      40.470  34.525  32.316  1.00  0.00     0.029 A 
ATOM     58  C   UNL A   1      41.399  33.474  32.181  1.00  0.00     0.049 A 
ATOM     59  H   UNL A   1      41.220  31.623  31.183  1.00  0.00     0.167 HD
ATOM     60  C   UNL A   1      43.586  32.437  32.596  1.00  0.00     0.074 A 
ATOM     61  C   UNL A   1      44.948  32.458  33.145  1.00  0.00     0.031 C 
ATOM     62  C   UNL A   1      42.673  33.484  32.726  1.00  0.00     0.037 A 
BRANCH  49  63
ATOM     63  C   UNL A   1      37.270  32.903  30.054  1.00  0.00     0.058 A 
ATOM     64  C   UNL A   1      36.195  32.639  30.886  1.00  0.00     0.135 A 
ATOM     65  C   UNL A   1      37.168  33.759  29.045  1.00  0.00     0.135 A 
ATOM     66  F   UNL A   1      36.313  31.996  32.043  1.00  0.00    -0.206 F 
ATOM     67  C   UNL A   1      34.958  33.116  30.391  1.00  0.00     0.059 A 
ATOM     68  C   UNL A   1      35.949  34.293  28.702  1.00  0.00     0.059 A 
ATOM     69  F   UNL A   1      38.254  34.105  28.360  1.00  0.00    -0.206 F 
ATOM     70  C   UNL A   1      34.831  34.027  29.443  1.00  0.00     0.060 A 
BRANCH  70  71
ATOM     71  S   UNL A   1      33.263  34.880  29.143  1.00  0.00     0.124 S 
ATOM     72  O   UNL A   1      32.453  34.107  28.099  1.00  0.00    -0.237 OA
ATOM     73  O   UNL A   1      32.468  34.960  30.449  1.00  0.00    -0.237 OA
ATOM     74  O   UNL A   1      33.574  36.459  28.567  1.00  0.00    -0.744 OA
ENDBRANCH  70  71
ENDBRANCH  49  63
BRANCH  50  75
ATOM     75  C   UNL A   1      46.017  28.539  31.859  1.00  0.00     0.058 A 
ATOM     76  C   UNL A   1      46.172  27.780  33.007  1.00  0.00     0.135 A 
ATOM     77  C   UNL A   1      47.017  28.705  31.002  1.00  0.00     0.135 A 
ATOM     78  F   UNL A   1      45.148  27.379  33.755  1.00  0.00    -0.206 F 
ATOM     79  C   UNL A   1      47.519  27.471  33.312  1.00  0.00     0.059 A 
ATOM     80  C   UNL A   1      48.280  28.256  31.306  1.00  0.00     0.059 A 
ATOM     81  F   UNL A   1      46.796  29.311  29.839  1.00  0.00    -0.206 F 
ATOM     82  C   UNL A   1      48.518  27.549  32.452  1.00  0.00     0.060 A 
BRANCH  82  83
ATOM     83  S   UNL A   1      50.118  26.767  32.775  1.00  0.00     0.124 S 
ATOM     84  O   UNL A   1      50.738  26.309  31.454  1.00  0.00    -0.237 OA
ATOM     85  O   UNL A   1      51.049  27.773  33.455  1.00  0.00    -0.237 OA
ATOM     86  O   UNL A   1      49.895  25.415  33.800  1.00  0.00    -0.744 OA
ENDBRANCH  82  83
ENDBRANCH  50  75
BRANCH  62  87
ATOM     87  C   UNL A   1      43.102  34.710  33.516  1.00  0.00     0.058 A 
ATOM     88  C   UNL A   1      43.721  35.769  32.873  1.00  0.00     0.135 A 
ATOM     89  C   UNL A   1      42.866  34.741  34.822  1.00  0.00     0.135 A 
ATOM     90  F   UNL A   1      43.750  35.898  31.549  1.00  0.00    -0.206 F 
ATOM     91  C   UNL A   1      44.321  36.702  33.752  1.00  0.00     0.059 A 
ATOM     92  C   UNL A   1      43.369  35.756  35.600  1.00  0.00     0.059 A 
ATOM     93  F   UNL A   1      42.138  33.780  35.382  1.00  0.00    -0.206 F 
ATOM     94  C   UNL A   1      44.043  36.805  35.038  1.00  0.00     0.060 A 
BRANCH  94  95
ATOM     95  S   UNL A   1      44.528  38.254  36.007  1.00  0.00     0.124 S 
ATOM     96  O   UNL A   1      43.859  38.197  37.382  1.00  0.00    -0.237 OA
ATOM     97  O   UNL A   1      46.050  38.264  36.182  1.00  0.00    -0.237 OA
ATOM     98  O   UNL A   1      44.039  39.676  35.193  1.00  0.00    -0.744 OA
ENDBRANCH  94  95
ENDBRANCH  62  87
ENDBRANCH  36  37
ENDBRANCH  29  31
ENDBRANCH  28  29
ENDBRANCH   1  28
TORSDOF 17
ENDMDL
MODEL 3
REMARK VINA RESULT:     -11.6      5.009      9.828
REMARK SMILES CCc1cc(S(F)(F)(F)(F)F)cc2c1O[C@@H](C(F)(F)F)C(C(=O)OCCOC(=O)c1ccc(-c3c4nc(c(-c5c(F)cc(S(=O)(=O)[O-])cc5F)c5ccc([nH]5)c(-c5c(F)cc(S(=O)(=O)[O-])cc5F)c5nc(c(-c6c(F)cc(S(=O)(=O)[O-])cc6F)c6ccc3[nH]6)C=C5)C=C4)cc1)=C2
REMARK SMILES IDX 26 1 25 2 24 3 22 4 23 5 21 6 3 7 4 8 14 9 5 10 13 11 15 12
REMARK SMILES IDX 12 13 96 14 16 15 2 16 1 17 6 18 7 19 8 20 9 21 10 22 11 23
REMARK SMILES IDX 17 24 18 25 19 26 20 27 27 28 28 29 29 30 30 31 31 32 95 33
REMARK SMILES IDX 32 34 94 35 33 36 34 37 35 38 88 39 36 40 93 41 87 42 89 43
REMARK SMILES IDX 37 44 92 45 86 46 85 47 38 49 72 50 51 51 71 52 52 53 55 54
REMARK SMILES IDX 70 55 90 56 53 57 54 58 69 60 91 61 56 62 39 63 40 64 49 65
REMARK SMILES IDX 41 66 42 67 48 68 50 69 43 70 44 71 45 72 46 73 47 74 73 75
REMARK SMILES IDX 74 76 83 77 75 78 76 79 82 80 84 81 77 82 78 83 79 84 80 85
REMARK SMILES IDX 81 86 57 87 58 88 67 89 59 90 60 91 66 92 68 93 61 94 62 95
REMARK SMILES IDX 63 96 64 97 65 98
REMARK H PARENT 89 48 55 59
REMARK Flexibility Score: inf
ROOT
ATOM      1  C   UNL A   1      38.191  23.835  25.781  1.00  0.00     0.275 C 
ENDROOT
BRANCH   1   2
ATOM      2  C   UNL A   1      37.944  22.377  25.431  1.00  0.00     0.275 C 
BRANCH   2   3
ATOM      3  O   UNL A   1      36.561  22.178  25.179  1.00  0.00    -0.459 OA
BRANCH   3   4
ATOM      4  C   UNL A   1      35.870  23.046  24.292  1.00  0.00     0.338 C 
ATOM      5  O   UNL A   1      36.242  23.146  23.081  1.00  0.00    -0.246 OA
BRANCH   4   6
ATOM      6  C   UNL A   1      34.684  23.856  24.792  1.00  0.00     0.087 C 
ATOM      7  C   UNL A   1      31.293  26.131  25.671  1.00  0.00    -0.004 A 
ATOM      8  C   UNL A   1      31.432  27.403  26.196  1.00  0.00     0.032 A 
ATOM      9  C   UNL A   1      32.425  25.426  25.341  1.00  0.00     0.131 A 
ATOM     10  C   UNL A   1      32.672  27.957  26.380  1.00  0.00     0.108 A 
ATOM     11  C   UNL A   1      33.692  25.945  25.531  1.00  0.00     0.019 A 
ATOM     12  O   UNL A   1      32.268  24.211  24.718  1.00  0.00    -0.475 OA
ATOM     13  C   UNL A   1      33.797  27.228  26.056  1.00  0.00     0.036 A 
ATOM     14  C   UNL A   1      34.825  25.136  25.114  1.00  0.00     0.027 C 
ATOM     15  C   UNL A   1      33.309  23.217  24.932  1.00  0.00     0.316 C 
BRANCH   7  16
ATOM     16  C   UNL A   1      29.892  25.561  25.515  1.00  0.00     0.036 C 
ATOM     17  C   UNL A   1      29.186  26.261  24.365  1.00  0.00     0.009 C 
ENDBRANCH   7  16
BRANCH  10  18
ATOM     18  S   UNL A   1      32.831  29.633  27.046  1.00  0.00     0.310 S 
ATOM     19  F   UNL A   1      33.961  29.977  25.987  1.00  0.00    -0.094 F 
ATOM     20  F   UNL A   1      33.970  29.060  27.972  1.00  0.00    -0.094 F 
ATOM     21  F   UNL A   1      33.033  31.058  27.633  1.00  0.00    -0.094 F 
ATOM     22  F   UNL A   1      31.787  30.214  26.013  1.00  0.00    -0.094 F 
ATOM     23  F   UNL A   1      32.696  28.214  26.362  1.00  0.00    -0.094 F 
ENDBRANCH  10  18
BRANCH  15  24
ATOM     24  C   UNL A   1      33.164  22.117  23.894  1.00  0.00     0.430 C 
ATOM     25  F   UNL A   1      33.997  21.122  24.183  1.00  0.00    -0.167 F 
ATOM     26  F   UNL A   1      31.914  21.664  23.898  1.00  0.00    -0.167 F 
ATOM     27  F   UNL A   1      33.456  22.602  22.690  1.00  0.00    -0.167 F 
ENDBRANCH  15  24
ENDBRANCH   4   6
ENDBRANCH   3   4
ENDBRANCH   2   3
ENDBRANCH   1   2
BRANCH   1  28
ATOM     28  O   UNL A   1      39.400  23.948  26.518  1.00  0.00    -0.458 OA
BRANCH  28  29
ATOM     29  C   UNL A   1      40.173  25.135  26.435  1.00  0.00     0.338 C 
ATOM     30  O   UNL A   1      40.850  25.381  25.387  1.00  0.00    -0.246 OA
BRANCH  29  31
ATOM     31  C   UNL A   1      40.193  26.113  27.599  1.00  0.00     0.060 A 
ATOM     32  C   UNL A   1      41.076  27.181  27.595  1.00  0.00     0.016 A 
ATOM     33  C   UNL A   1      39.350  25.920  28.606  1.00  0.00     0.016 A 
ATOM     34  C   UNL A   1      41.192  27.832  28.846  1.00  0.00     0.010 A 
ATOM     35  C   UNL A   1      39.433  26.684  29.744  1.00  0.00     0.010 A 
ATOM     36  C   UNL A   1      40.323  27.718  29.833  1.00  0.00    -0.014 A 
BRANCH  36  37
ATOM     37  C   UNL A   1      40.310  28.687  31.005  1.00  0.00     0.031 A 
ATOM     38  C   UNL A   1      41.199  28.468  32.060  1.00  0.00     0.074 A 
ATOM     39  C   UNL A   1      39.408  29.735  30.958  1.00  0.00     0.049 A 
ATOM     40  N   UNL A   1      41.363  29.213  33.154  1.00  0.00    -0.248 NA
ATOM     41  C   UNL A   1      42.135  27.336  32.127  1.00  0.00     0.031 C 
ATOM     42  C   UNL A   1      38.514  29.967  29.894  1.00  0.00     0.029 A 
ATOM     43  N   UNL A   1      39.208  30.720  31.899  1.00  0.00    -0.354 N 
ATOM     44  C   UNL A   1      42.321  28.696  33.925  1.00  0.00     0.074 A 
ATOM     45  C   UNL A   1      42.827  27.477  33.279  1.00  0.00     0.031 C 
ATOM     46  C   UNL A   1      37.778  31.069  30.195  1.00  0.00     0.029 A 
ATOM     47  C   UNL A   1      38.200  31.545  31.451  1.00  0.00     0.049 A 
ATOM     48  H   UNL A   1      39.701  30.819  32.746  1.00  0.00     0.167 HD
ATOM     49  C   UNL A   1      42.793  29.193  35.140  1.00  0.00     0.037 A 
ATOM     50  C   UNL A   1      37.664  32.653  32.088  1.00  0.00     0.037 A 
ATOM     51  C   UNL A   1      42.287  30.326  35.757  1.00  0.00     0.049 A 
ATOM     52  C   UNL A   1      38.097  33.117  33.332  1.00  0.00     0.074 A 
ATOM     53  C   UNL A   1      42.757  30.846  36.978  1.00  0.00     0.029 A 
ATOM     54  N   UNL A   1      41.262  31.137  35.320  1.00  0.00    -0.354 N 
ATOM     55  N   UNL A   1      39.082  32.623  34.084  1.00  0.00    -0.248 NA
ATOM     56  C   UNL A   1      37.514  34.271  34.031  1.00  0.00     0.031 C 
ATOM     57  C   UNL A   1      42.021  31.948  37.279  1.00  0.00     0.029 A 
ATOM     58  C   UNL A   1      41.077  32.135  36.250  1.00  0.00     0.049 A 
ATOM     59  H   UNL A   1      40.750  31.022  34.487  1.00  0.00     0.167 HD
ATOM     60  C   UNL A   1      39.217  33.345  35.198  1.00  0.00     0.074 A 
ATOM     61  C   UNL A   1      38.205  34.411  35.184  1.00  0.00     0.031 C 
ATOM     62  C   UNL A   1      40.144  33.160  36.224  1.00  0.00     0.037 A 
BRANCH  49  63
ATOM     63  C   UNL A   1      43.929  28.450  35.827  1.00  0.00     0.058 A 
ATOM     64  C   UNL A   1      43.640  27.453  36.743  1.00  0.00     0.135 A 
ATOM     65  C   UNL A   1      45.182  28.756  35.513  1.00  0.00     0.135 A 
ATOM     66  F   UNL A   1      42.422  26.943  36.901  1.00  0.00    -0.206 F 
ATOM     67  C   UNL A   1      44.758  27.026  37.497  1.00  0.00     0.059 A 
ATOM     68  C   UNL A   1      46.231  28.197  36.202  1.00  0.00     0.059 A 
ATOM     69  F   UNL A   1      45.425  29.610  34.523  1.00  0.00    -0.206 F 
ATOM     70  C   UNL A   1      46.016  27.248  37.163  1.00  0.00     0.060 A 
BRANCH  70  71
ATOM     71  S   UNL A   1      47.383  26.345  37.933  1.00  0.00     0.124 S 
ATOM     72  O   UNL A   1      48.699  27.070  37.646  1.00  0.00    -0.237 OA
ATOM     73  O   UNL A   1      47.158  26.273  39.445  1.00  0.00    -0.237 OA
ATOM     74  O   UNL A   1      47.453  24.762  37.291  1.00  0.00    -0.744 OA
ENDBRANCH  70  71
ENDBRANCH  49  63
BRANCH  50  75
ATOM     75  C   UNL A   1      36.540  33.405  31.393  1.00  0.00     0.058 A 
ATOM     76  C   UNL A   1      35.232  33.220  31.811  1.00  0.00     0.135 A 
ATOM     77  C   UNL A   1      36.832  34.209  30.378  1.00  0.00     0.135 A 
ATOM     78  F   UNL A   1      34.914  32.636  32.962  1.00  0.00    -0.206 F 
ATOM     79  C   UNL A   1      34.265  33.708  30.900  1.00  0.00     0.059 A 
ATOM     80  C   UNL A   1      35.832  34.760  29.613  1.00  0.00     0.059 A 
ATOM     81  F   UNL A   1      38.103  34.482  30.098  1.00  0.00    -0.206 F 
ATOM     82  C   UNL A   1      34.516  34.571  29.933  1.00  0.00     0.060 A 
BRANCH  82  83
ATOM     83  S   UNL A   1      33.190  35.454  29.075  1.00  0.00     0.124 S 
ATOM     84  O   UNL A   1      32.221  36.043  30.101  1.00  0.00    -0.237 OA
ATOM     85  O   UNL A   1      33.790  36.583  28.233  1.00  0.00    -0.237 OA
ATOM     86  O   UNL A   1      32.349  34.369  28.054  1.00  0.00    -0.744 OA
ENDBRANCH  82  83
ENDBRANCH  50  75
BRANCH  62  87
ATOM     87  C   UNL A   1      40.131  34.143  37.384  1.00  0.00     0.058 A 
ATOM     88  C   UNL A   1      39.391  33.866  38.521  1.00  0.00     0.135 A 
ATOM     89  C   UNL A   1      40.842  35.260  37.280  1.00  0.00     0.135 A 
ATOM     90  F   UNL A   1      38.876  32.667  38.778  1.00  0.00    -0.206 F 
ATOM     91  C   UNL A   1      39.234  34.974  39.387  1.00  0.00     0.059 A 
ATOM     92  C   UNL A   1      40.741  36.244  38.234  1.00  0.00     0.059 A 
ATOM     93  F   UNL A   1      41.658  35.427  36.244  1.00  0.00    -0.206 F 
ATOM     94  C   UNL A   1      39.982  36.062  39.355  1.00  0.00     0.060 A 
BRANCH  94  95
ATOM     95  S   UNL A   1      39.999  37.248  40.721  1.00  0.00     0.124 S 
ATOM     96  O   UNL A   1      41.414  37.341  41.299  1.00  0.00    -0.237 OA
ATOM     97  O   UNL A   1      39.568  38.625  40.207  1.00  0.00    -0.237 OA
ATOM     98  O   UNL A   1      38.917  36.732  41.940  1.00  0.00    -0.744 OA
ENDBRANCH  94  95
ENDBRANCH  62  87
ENDBRANCH  36  37
ENDBRANCH  29  31
ENDBRANCH  28  29
ENDBRANCH   1  28
TORSDOF 17
ENDMDL
