MODEL 1
REMARK VINA RESULT:     -10.1      0.000      0.000
REMARK SMILES C[C@@H](C(=O)OCCOC(=O)c1ccc(-c2c3nc(c(-c4c(F)cc(S(=O)(=O)[O-])cc4F)c4ccc([nH]4)c(-c4c(F)cc(S(=O)(=O)[O-])cc4F)c4nc(c(-c5c(F)cc(S(=O)(=O)[O-])cc5F)c5ccc2[nH]5)C=C4)C=C3)cc1)c1ccn(C(F)F)c(=O)c1
REMARK SMILES IDX 7 1 6 2 5 3 3 4 4 5 2 6 1 7 77 8 78 9 86 10 79 11 84 12
REMARK SMILES IDX 80 13 85 14 81 15 82 16 83 17 8 18 9 19 10 20 11 21 12 22
REMARK SMILES IDX 76 23 13 24 75 25 14 26 15 27 16 28 69 29 17 30 74 31 68 32
REMARK SMILES IDX 70 33 18 34 73 35 67 36 66 37 19 39 53 40 32 41 52 42 33 43
REMARK SMILES IDX 36 44 51 45 71 46 34 47 35 48 50 50 72 51 37 52 20 53 21 54
REMARK SMILES IDX 30 55 22 56 23 57 29 58 31 59 24 60 25 61 26 62 27 63 28 64
REMARK SMILES IDX 54 65 55 66 64 67 56 68 57 69 63 70 65 71 58 72 59 73 60 74
REMARK SMILES IDX 61 75 62 76 38 77 39 78 48 79 40 80 41 81 47 82 49 83 42 84
REMARK SMILES IDX 43 85 44 86 45 87 46 88
REMARK H PARENT 70 38 36 49
REMARK Flexibility Score: inf
ROOT
ATOM      1  C   UNL A   1      34.951  32.951  29.031  1.00  0.00     0.275 C 
ENDROOT
BRANCH   1   2
ATOM      2  C   UNL A   1      33.846  34.004  28.990  1.00  0.00     0.274 C 
BRANCH   2   3
ATOM      3  O   UNL A   1      34.159  35.118  29.852  1.00  0.00    -0.462 OA
BRANCH   3   4
ATOM      4  C   UNL A   1      33.104  35.714  30.483  1.00  0.00     0.313 C 
ATOM      5  O   UNL A   1      32.314  36.449  29.905  1.00  0.00    -0.252 OA
BRANCH   4   6
ATOM      6  C   UNL A   1      33.113  35.453  32.019  1.00  0.00     0.126 C 
ATOM      7  C   UNL A   1      32.932  36.782  32.782  1.00  0.00     0.025 C 
BRANCH   6   8
ATOM      8  C   UNL A   1      34.324  34.635  32.521  1.00  0.00    -0.027 A 
ATOM      9  C   UNL A   1      34.233  33.181  32.597  1.00  0.00     0.023 A 
ATOM     10  C   UNL A   1      35.494  35.186  32.902  1.00  0.00     0.076 A 
ATOM     11  C   UNL A   1      35.313  32.427  32.843  1.00  0.00     0.095 A 
ATOM     12  C   UNL A   1      36.672  34.365  33.313  1.00  0.00     0.255 A 
ATOM     13  N   UNL A   1      36.535  33.001  33.136  1.00  0.00    -0.258 N 
ATOM     14  O   UNL A   1      37.662  34.950  33.738  1.00  0.00    -0.269 OA
BRANCH  13  15
ATOM     15  C   UNL A   1      37.692  32.174  33.390  1.00  0.00     0.451 C 
ATOM     16  F   UNL A   1      37.347  30.867  33.461  1.00  0.00    -0.185 F 
ATOM     17  F   UNL A   1      38.596  32.318  32.391  1.00  0.00    -0.185 F 
ENDBRANCH  13  15
ENDBRANCH   6   8
ENDBRANCH   4   6
ENDBRANCH   3   4
ENDBRANCH   2   3
ENDBRANCH   1   2
BRANCH   1  18
ATOM     18  O   UNL A   1      34.394  31.669  29.366  1.00  0.00    -0.458 OA
BRANCH  18  19
ATOM     19  C   UNL A   1      34.528  30.704  28.429  1.00  0.00     0.338 C 
ATOM     20  O   UNL A   1      33.703  30.335  27.614  1.00  0.00    -0.246 OA
BRANCH  19  21
ATOM     21  C   UNL A   1      35.906  30.198  28.475  1.00  0.00     0.060 A 
ATOM     22  C   UNL A   1      36.435  29.846  29.715  1.00  0.00     0.016 A 
ATOM     23  C   UNL A   1      36.697  30.156  27.327  1.00  0.00     0.016 A 
ATOM     24  C   UNL A   1      37.766  29.455  29.818  1.00  0.00     0.010 A 
ATOM     25  C   UNL A   1      38.032  29.740  27.429  1.00  0.00     0.010 A 
ATOM     26  C   UNL A   1      38.577  29.397  28.678  1.00  0.00    -0.014 A 
BRANCH  26  27
ATOM     27  C   UNL A   1      40.015  29.061  28.831  1.00  0.00     0.031 A 
ATOM     28  C   UNL A   1      40.958  30.083  29.399  1.00  0.00     0.074 A 
ATOM     29  C   UNL A   1      40.461  27.825  28.536  1.00  0.00     0.049 A 
ATOM     30  N   UNL A   1      42.257  30.024  29.533  1.00  0.00    -0.248 NA
ATOM     31  C   UNL A   1      40.357  31.336  29.880  1.00  0.00     0.031 C 
ATOM     32  C   UNL A   1      39.635  26.719  28.052  1.00  0.00     0.029 A 
ATOM     33  N   UNL A   1      41.722  27.291  28.612  1.00  0.00    -0.354 N 
ATOM     34  C   UNL A   1      42.635  31.239  30.090  1.00  0.00     0.074 A 
ATOM     35  C   UNL A   1      41.427  32.017  30.267  1.00  0.00     0.031 C 
ATOM     36  C   UNL A   1      40.409  25.632  27.890  1.00  0.00     0.029 A 
ATOM     37  C   UNL A   1      41.793  25.980  28.205  1.00  0.00     0.049 A 
ATOM     38  H   UNL A   1      42.504  27.799  28.929  1.00  0.00     0.167 HD
ATOM     39  C   UNL A   1      43.876  31.672  30.417  1.00  0.00     0.037 A 
ATOM     40  C   UNL A   1      42.858  25.163  28.075  1.00  0.00     0.037 A 
ATOM     41  C   UNL A   1      45.075  30.892  30.261  1.00  0.00     0.049 A 
ATOM     42  C   UNL A   1      44.236  25.684  28.386  1.00  0.00     0.074 A 
ATOM     43  C   UNL A   1      46.383  31.256  30.531  1.00  0.00     0.029 A 
ATOM     44  N   UNL A   1      45.111  29.582  29.806  1.00  0.00    -0.354 N 
ATOM     45  N   UNL A   1      44.587  26.862  28.844  1.00  0.00    -0.248 NA
ATOM     46  C   UNL A   1      45.364  24.774  28.141  1.00  0.00     0.031 C 
ATOM     47  C   UNL A   1      47.213  30.175  30.208  1.00  0.00     0.029 A 
ATOM     48  C   UNL A   1      46.419  29.129  29.770  1.00  0.00     0.049 A 
ATOM     49  H   UNL A   1      44.322  29.053  29.545  1.00  0.00     0.167 HD
ATOM     50  C   UNL A   1      45.974  26.833  28.946  1.00  0.00     0.074 A 
ATOM     51  C   UNL A   1      46.397  25.514  28.521  1.00  0.00     0.031 C 
ATOM     52  C   UNL A   1      46.822  27.813  29.345  1.00  0.00     0.037 A 
BRANCH  39  53
ATOM     53  C   UNL A   1      43.998  33.078  30.925  1.00  0.00     0.058 A 
ATOM     54  C   UNL A   1      43.989  33.376  32.295  1.00  0.00     0.135 A 
ATOM     55  C   UNL A   1      44.127  34.144  30.019  1.00  0.00     0.135 A 
ATOM     56  F   UNL A   1      43.849  32.395  33.200  1.00  0.00    -0.206 F 
ATOM     57  C   UNL A   1      44.076  34.688  32.752  1.00  0.00     0.059 A 
ATOM     58  C   UNL A   1      44.233  35.460  30.454  1.00  0.00     0.059 A 
ATOM     59  F   UNL A   1      44.136  33.909  28.698  1.00  0.00    -0.206 F 
ATOM     60  C   UNL A   1      44.189  35.724  31.822  1.00  0.00     0.060 A 
BRANCH  60  61
ATOM     61  S   UNL A   1      44.278  37.426  32.418  1.00  0.00     0.124 S 
ATOM     62  O   UNL A   1      43.999  38.177  31.198  1.00  0.00    -0.237 OA
ATOM     63  O   UNL A   1      43.232  37.461  33.436  1.00  0.00    -0.237 OA
ATOM     64  O   UNL A   1      45.643  37.537  32.924  1.00  0.00    -0.744 OA
ENDBRANCH  60  61
ENDBRANCH  39  53
BRANCH  40  65
ATOM     65  C   UNL A   1      42.672  23.769  27.592  1.00  0.00     0.058 A 
ATOM     66  C   UNL A   1      42.620  23.482  26.221  1.00  0.00     0.135 A 
ATOM     67  C   UNL A   1      42.537  22.700  28.492  1.00  0.00     0.135 A 
ATOM     68  F   UNL A   1      42.735  24.473  25.324  1.00  0.00    -0.206 F 
ATOM     69  C   UNL A   1      42.433  22.185  25.756  1.00  0.00     0.059 A 
ATOM     70  C   UNL A   1      42.373  21.391  28.050  1.00  0.00     0.059 A 
ATOM     71  F   UNL A   1      42.590  22.923  29.814  1.00  0.00    -0.206 F 
ATOM     72  C   UNL A   1      42.313  21.145  26.679  1.00  0.00     0.060 A 
BRANCH  72  73
ATOM     73  S   UNL A   1      42.132  19.453  26.073  1.00  0.00     0.124 S 
ATOM     74  O   UNL A   1      43.041  19.452  24.934  1.00  0.00    -0.237 OA
ATOM     75  O   UNL A   1      42.552  18.664  27.227  1.00  0.00    -0.237 OA
ATOM     76  O   UNL A   1      40.710  19.368  25.753  1.00  0.00    -0.744 OA
ENDBRANCH  72  73
ENDBRANCH  40  65
BRANCH  52  77
ATOM     77  C   UNL A   1      48.290  27.496  29.349  1.00  0.00     0.058 A 
ATOM     78  C   UNL A   1      49.072  27.650  28.194  1.00  0.00     0.135 A 
ATOM     79  C   UNL A   1      48.931  27.090  30.530  1.00  0.00     0.135 A 
ATOM     80  F   UNL A   1      48.504  28.029  27.039  1.00  0.00    -0.206 F 
ATOM     81  C   UNL A   1      50.440  27.399  28.206  1.00  0.00     0.059 A 
ATOM     82  C   UNL A   1      50.302  26.852  30.570  1.00  0.00     0.059 A 
ATOM     83  F   UNL A   1      48.228  26.936  31.663  1.00  0.00    -0.206 F 
ATOM     84  C   UNL A   1      51.047  27.000  29.399  1.00  0.00     0.060 A 
BRANCH  84  85
ATOM     85  S   UNL A   1      52.831  26.717  29.416  1.00  0.00     0.124 S 
ATOM     86  O   UNL A   1      53.045  26.120  28.101  1.00  0.00    -0.237 OA
ATOM     87  O   UNL A   1      53.364  28.064  29.594  1.00  0.00    -0.237 OA
ATOM     88  O   UNL A   1      53.020  25.820  30.553  1.00  0.00    -0.744 OA
ENDBRANCH  84  85
ENDBRANCH  52  77
ENDBRANCH  26  27
ENDBRANCH  19  21
ENDBRANCH  18  19
ENDBRANCH   1  18
TORSDOF 16
ENDMDL
MODEL 2
REMARK VINA RESULT:     -10.1      5.713     12.790
REMARK SMILES C[C@@H](C(=O)OCCOC(=O)c1ccc(-c2c3nc(c(-c4c(F)cc(S(=O)(=O)[O-])cc4F)c4ccc([nH]4)c(-c4c(F)cc(S(=O)(=O)[O-])cc4F)c4nc(c(-c5c(F)cc(S(=O)(=O)[O-])cc5F)c5ccc2[nH]5)C=C4)C=C3)cc1)c1ccn(C(F)F)c(=O)c1
REMARK SMILES IDX 7 1 6 2 5 3 3 4 4 5 2 6 1 7 77 8 78 9 86 10 79 11 84 12
REMARK SMILES IDX 80 13 85 14 81 15 82 16 83 17 8 18 9 19 10 20 11 21 12 22
REMARK SMILES IDX 76 23 13 24 75 25 14 26 15 27 16 28 69 29 17 30 74 31 68 32
REMARK SMILES IDX 70 33 18 34 73 35 67 36 66 37 19 39 53 40 32 41 52 42 33 43
REMARK SMILES IDX 36 44 51 45 71 46 34 47 35 48 50 50 72 51 37 52 20 53 21 54
REMARK SMILES IDX 30 55 22 56 23 57 29 58 31 59 24 60 25 61 26 62 27 63 28 64
REMARK SMILES IDX 54 65 55 66 64 67 56 68 57 69 63 70 65 71 58 72 59 73 60 74
REMARK SMILES IDX 61 75 62 76 38 77 39 78 48 79 40 80 41 81 47 82 49 83 42 84
REMARK SMILES IDX 43 85 44 86 45 87 46 88
REMARK H PARENT 70 38 36 49
REMARK Flexibility Score: inf
ROOT
ATOM      1  C   UNL A   1      39.470  22.324  26.379  1.00  0.00     0.275 C 
ENDROOT
BRANCH   1   2
ATOM      2  C   UNL A   1      38.246  21.857  25.595  1.00  0.00     0.274 C 
BRANCH   2   3
ATOM      3  O   UNL A   1      37.092  22.666  25.903  1.00  0.00    -0.462 OA
BRANCH   3   4
ATOM      4  C   UNL A   1      36.096  22.687  24.968  1.00  0.00     0.313 C 
ATOM      5  O   UNL A   1      36.219  23.233  23.880  1.00  0.00    -0.252 OA
BRANCH   4   6
ATOM      6  C   UNL A   1      34.774  22.060  25.502  1.00  0.00     0.126 C 
ATOM      7  C   UNL A   1      34.671  22.262  27.028  1.00  0.00     0.025 C 
BRANCH   6   8
ATOM      8  C   UNL A   1      34.545  20.593  25.077  1.00  0.00    -0.027 A 
ATOM      9  C   UNL A   1      35.690  19.730  24.806  1.00  0.00     0.023 A 
ATOM     10  C   UNL A   1      33.325  20.035  24.938  1.00  0.00     0.076 A 
ATOM     11  C   UNL A   1      35.541  18.411  24.622  1.00  0.00     0.095 A 
ATOM     12  C   UNL A   1      33.134  18.593  24.598  1.00  0.00     0.255 A 
ATOM     13  N   UNL A   1      34.288  17.832  24.579  1.00  0.00    -0.258 N 
ATOM     14  O   UNL A   1      31.993  18.195  24.395  1.00  0.00    -0.269 OA
BRANCH  13  15
ATOM     15  C   UNL A   1      34.144  16.406  24.389  1.00  0.00     0.451 C 
ATOM     16  F   UNL A   1      34.067  16.099  23.073  1.00  0.00    -0.185 F 
ATOM     17  F   UNL A   1      35.212  15.756  24.912  1.00  0.00    -0.185 F 
ENDBRANCH  13  15
ENDBRANCH   6   8
ENDBRANCH   4   6
ENDBRANCH   3   4
ENDBRANCH   2   3
ENDBRANCH   1   2
BRANCH   1  18
ATOM     18  O   UNL A   1      39.460  23.756  26.494  1.00  0.00    -0.458 OA
BRANCH  18  19
ATOM     19  C   UNL A   1      40.657  24.336  26.741  1.00  0.00     0.338 C 
ATOM     20  O   UNL A   1      41.733  24.072  26.236  1.00  0.00    -0.246 OA
BRANCH  19  21
ATOM     21  C   UNL A   1      40.453  25.442  27.685  1.00  0.00     0.060 A 
ATOM     22  C   UNL A   1      41.378  26.484  27.685  1.00  0.00     0.016 A 
ATOM     23  C   UNL A   1      39.418  25.411  28.619  1.00  0.00     0.016 A 
ATOM     24  C   UNL A   1      41.279  27.503  28.628  1.00  0.00     0.010 A 
ATOM     25  C   UNL A   1      39.307  26.449  29.554  1.00  0.00     0.010 A 
ATOM     26  C   UNL A   1      40.244  27.496  29.570  1.00  0.00    -0.014 A 
BRANCH  26  27
ATOM     27  C   UNL A   1      40.214  28.548  30.617  1.00  0.00     0.031 A 
ATOM     28  C   UNL A   1      41.223  28.514  31.729  1.00  0.00     0.074 A 
ATOM     29  C   UNL A   1      39.340  29.569  30.533  1.00  0.00     0.049 A 
ATOM     30  N   UNL A   1      41.315  29.280  32.785  1.00  0.00    -0.248 NA
ATOM     31  C   UNL A   1      42.266  27.480  31.640  1.00  0.00     0.031 C 
ATOM     32  C   UNL A   1      38.362  29.762  29.462  1.00  0.00     0.029 A 
ATOM     33  N   UNL A   1      39.144  30.645  31.362  1.00  0.00    -0.354 N 
ATOM     34  C   UNL A   1      42.409  28.809  33.500  1.00  0.00     0.074 A 
ATOM     35  C   UNL A   1      42.947  27.687  32.758  1.00  0.00     0.031 C 
ATOM     36  C   UNL A   1      37.680  30.897  29.691  1.00  0.00     0.029 A 
ATOM     37  C   UNL A   1      38.134  31.482  30.951  1.00  0.00     0.049 A 
ATOM     38  H   UNL A   1      39.677  30.803  32.175  1.00  0.00     0.167 HD
ATOM     39  C   UNL A   1      42.916  29.262  34.671  1.00  0.00     0.037 A 
ATOM     40  C   UNL A   1      37.616  32.579  31.540  1.00  0.00     0.037 A 
ATOM     41  C   UNL A   1      42.395  30.389  35.398  1.00  0.00     0.049 A 
ATOM     42  C   UNL A   1      38.154  33.030  32.872  1.00  0.00     0.074 A 
ATOM     43  C   UNL A   1      42.817  30.903  36.612  1.00  0.00     0.029 A 
ATOM     44  N   UNL A   1      41.343  31.186  34.971  1.00  0.00    -0.354 N 
ATOM     45  N   UNL A   1      39.143  32.530  33.573  1.00  0.00    -0.248 NA
ATOM     46  C   UNL A   1      37.491  34.180  33.504  1.00  0.00     0.031 C 
ATOM     47  C   UNL A   1      42.000  31.994  36.933  1.00  0.00     0.029 A 
ATOM     48  C   UNL A   1      41.091  32.178  35.904  1.00  0.00     0.049 A 
ATOM     49  H   UNL A   1      40.849  31.065  34.128  1.00  0.00     0.167 HD
ATOM     50  C   UNL A   1      39.223  33.305  34.726  1.00  0.00     0.074 A 
ATOM     51  C   UNL A   1      38.196  34.321  34.619  1.00  0.00     0.031 C 
ATOM     52  C   UNL A   1      40.064  33.181  35.781  1.00  0.00     0.037 A 
BRANCH  39  53
ATOM     53  C   UNL A   1      44.061  28.497  35.263  1.00  0.00     0.058 A 
ATOM     54  C   UNL A   1      45.396  28.806  34.963  1.00  0.00     0.135 A 
ATOM     55  C   UNL A   1      43.814  27.433  36.147  1.00  0.00     0.135 A 
ATOM     56  F   UNL A   1      45.683  29.801  34.109  1.00  0.00    -0.206 F 
ATOM     57  C   UNL A   1      46.448  28.069  35.499  1.00  0.00     0.059 A 
ATOM     58  C   UNL A   1      44.851  26.696  36.707  1.00  0.00     0.059 A 
ATOM     59  F   UNL A   1      42.553  27.096  36.461  1.00  0.00    -0.206 F 
ATOM     60  C   UNL A   1      46.165  27.010  36.363  1.00  0.00     0.060 A 
BRANCH  60  61
ATOM     61  S   UNL A   1      47.533  26.043  37.037  1.00  0.00     0.124 S 
ATOM     62  O   UNL A   1      46.905  25.422  38.199  1.00  0.00    -0.237 OA
ATOM     63  O   UNL A   1      47.857  25.142  35.935  1.00  0.00    -0.237 OA
ATOM     64  O   UNL A   1      48.546  27.052  37.335  1.00  0.00    -0.744 OA
ENDBRANCH  60  61
ENDBRANCH  39  53
BRANCH  40  65
ATOM     65  C   UNL A   1      36.498  33.314  30.892  1.00  0.00     0.058 A 
ATOM     66  C   UNL A   1      36.728  34.152  29.792  1.00  0.00     0.135 A 
ATOM     67  C   UNL A   1      35.182  33.199  31.365  1.00  0.00     0.135 A 
ATOM     68  F   UNL A   1      37.972  34.301  29.312  1.00  0.00    -0.206 F 
ATOM     69  C   UNL A   1      35.694  34.856  29.185  1.00  0.00     0.059 A 
ATOM     70  C   UNL A   1      34.127  33.874  30.760  1.00  0.00     0.059 A 
ATOM     71  F   UNL A   1      34.909  32.402  32.410  1.00  0.00    -0.206 F 
ATOM     72  C   UNL A   1      34.395  34.709  29.676  1.00  0.00     0.060 A 
BRANCH  72  73
ATOM     73  S   UNL A   1      33.044  35.576  28.848  1.00  0.00     0.124 S 
ATOM     74  O   UNL A   1      33.771  36.533  28.024  1.00  0.00    -0.237 OA
ATOM     75  O   UNL A   1      32.374  34.495  28.133  1.00  0.00    -0.237 OA
ATOM     76  O   UNL A   1      32.285  36.142  29.960  1.00  0.00    -0.744 OA
ENDBRANCH  72  73
ENDBRANCH  40  65
BRANCH  52  77
ATOM     77  C   UNL A   1      39.916  34.170  36.902  1.00  0.00     0.058 A 
ATOM     78  C   UNL A   1      40.555  35.420  36.860  1.00  0.00     0.135 A 
ATOM     79  C   UNL A   1      39.086  33.892  37.998  1.00  0.00     0.135 A 
ATOM     80  F   UNL A   1      41.364  35.730  35.836  1.00  0.00    -0.206 F 
ATOM     81  C   UNL A   1      40.385  36.355  37.875  1.00  0.00     0.059 A 
ATOM     82  C   UNL A   1      38.887  34.820  39.017  1.00  0.00     0.059 A 
ATOM     83  F   UNL A   1      38.447  32.714  38.081  1.00  0.00    -0.206 F 
ATOM     84  C   UNL A   1      39.549  36.046  38.950  1.00  0.00     0.060 A 
BRANCH  84  85
ATOM     85  S   UNL A   1      39.303  37.283  40.244  1.00  0.00     0.124 S 
ATOM     86  O   UNL A   1      38.651  36.494  41.284  1.00  0.00    -0.237 OA
ATOM     87  O   UNL A   1      40.667  37.713  40.535  1.00  0.00    -0.237 OA
ATOM     88  O   UNL A   1      38.462  38.286  39.595  1.00  0.00    -0.744 OA
ENDBRANCH  84  85
ENDBRANCH  52  77
ENDBRANCH  26  27
ENDBRANCH  19  21
ENDBRANCH  18  19
ENDBRANCH   1  18
TORSDOF 16
ENDMDL
MODEL 3
REMARK VINA RESULT:     -10.0      3.507      5.663
REMARK SMILES C[C@@H](C(=O)OCCOC(=O)c1ccc(-c2c3nc(c(-c4c(F)cc(S(=O)(=O)[O-])cc4F)c4ccc([nH]4)c(-c4c(F)cc(S(=O)(=O)[O-])cc4F)c4nc(c(-c5c(F)cc(S(=O)(=O)[O-])cc5F)c5ccc2[nH]5)C=C4)C=C3)cc1)c1ccn(C(F)F)c(=O)c1
REMARK SMILES IDX 7 1 6 2 5 3 3 4 4 5 2 6 1 7 77 8 78 9 86 10 79 11 84 12
REMARK SMILES IDX 80 13 85 14 81 15 82 16 83 17 8 18 9 19 10 20 11 21 12 22
REMARK SMILES IDX 76 23 13 24 75 25 14 26 15 27 16 28 69 29 17 30 74 31 68 32
REMARK SMILES IDX 70 33 18 34 73 35 67 36 66 37 19 39 53 40 32 41 52 42 33 43
REMARK SMILES IDX 36 44 51 45 71 46 34 47 35 48 50 50 72 51 37 52 20 53 21 54
REMARK SMILES IDX 30 55 22 56 23 57 29 58 31 59 24 60 25 61 26 62 27 63 28 64
REMARK SMILES IDX 54 65 55 66 64 67 56 68 57 69 63 70 65 71 58 72 59 73 60 74
REMARK SMILES IDX 61 75 62 76 38 77 39 78 48 79 40 80 41 81 47 82 49 83 42 84
REMARK SMILES IDX 43 85 44 86 45 87 46 88
REMARK H PARENT 70 38 36 49
REMARK Flexibility Score: inf
ROOT
ATOM      1  C   UNL A   1      34.184  30.874  28.006  1.00  0.00     0.275 C 
ENDROOT
BRANCH   1   2
ATOM      2  C   UNL A   1      33.747  29.834  26.977  1.00  0.00     0.274 C 
BRANCH   2   3
ATOM      3  O   UNL A   1      33.422  28.580  27.611  1.00  0.00    -0.462 OA
BRANCH   3   4
ATOM      4  C   UNL A   1      32.230  28.011  27.262  1.00  0.00     0.313 C 
ATOM      5  O   UNL A   1      31.247  28.033  27.991  1.00  0.00    -0.252 OA
BRANCH   4   6
ATOM      6  C   UNL A   1      32.319  27.238  25.914  1.00  0.00     0.126 C 
ATOM      7  C   UNL A   1      31.104  27.580  25.027  1.00  0.00     0.025 C 
BRANCH   6   8
ATOM      8  C   UNL A   1      32.542  25.716  26.063  1.00  0.00    -0.027 A 
ATOM      9  C   UNL A   1      33.787  25.118  25.594  1.00  0.00     0.023 A 
ATOM     10  C   UNL A   1      31.642  24.878  26.616  1.00  0.00     0.076 A 
ATOM     11  C   UNL A   1      34.097  23.844  25.875  1.00  0.00     0.095 A 
ATOM     12  C   UNL A   1      31.914  23.423  26.814  1.00  0.00     0.255 A 
ATOM     13  N   UNL A   1      33.205  23.019  26.531  1.00  0.00    -0.258 N 
ATOM     14  O   UNL A   1      31.003  22.718  27.233  1.00  0.00    -0.269 OA
BRANCH  13  15
ATOM     15  C   UNL A   1      33.559  21.651  26.834  1.00  0.00     0.451 C 
ATOM     16  F   UNL A   1      34.224  21.082  25.801  1.00  0.00    -0.185 F 
ATOM     17  F   UNL A   1      34.360  21.607  27.926  1.00  0.00    -0.185 F 
ENDBRANCH  13  15
ENDBRANCH   6   8
ENDBRANCH   4   6
ENDBRANCH   3   4
ENDBRANCH   2   3
ENDBRANCH   1   2
BRANCH   1  18
ATOM     18  O   UNL A   1      35.612  31.034  27.964  1.00  0.00    -0.458 OA
BRANCH  18  19
ATOM     19  C   UNL A   1      36.258  30.875  29.141  1.00  0.00     0.338 C 
ATOM     20  O   UNL A   1      35.843  31.119  30.260  1.00  0.00    -0.246 OA
BRANCH  19  21
ATOM     21  C   UNL A   1      37.561  30.254  28.877  1.00  0.00     0.060 A 
ATOM     22  C   UNL A   1      38.471  30.163  29.929  1.00  0.00     0.016 A 
ATOM     23  C   UNL A   1      37.920  29.849  27.592  1.00  0.00     0.016 A 
ATOM     24  C   UNL A   1      39.753  29.671  29.700  1.00  0.00     0.010 A 
ATOM     25  C   UNL A   1      39.204  29.333  27.368  1.00  0.00     0.010 A 
ATOM     26  C   UNL A   1      40.131  29.252  28.420  1.00  0.00    -0.014 A 
BRANCH  26  27
ATOM     27  C   UNL A   1      41.531  28.814  28.189  1.00  0.00     0.031 A 
ATOM     28  C   UNL A   1      42.650  29.806  28.332  1.00  0.00     0.074 A 
ATOM     29  C   UNL A   1      41.807  27.522  27.926  1.00  0.00     0.049 A 
ATOM     30  N   UNL A   1      43.926  29.652  28.090  1.00  0.00    -0.248 NA
ATOM     31  C   UNL A   1      42.283  31.146  28.814  1.00  0.00     0.031 C 
ATOM     32  C   UNL A   1      40.820  26.446  27.838  1.00  0.00     0.029 A 
ATOM     33  N   UNL A   1      43.005  26.895  27.697  1.00  0.00    -0.354 N 
ATOM     34  C   UNL A   1      44.512  30.881  28.364  1.00  0.00     0.074 A 
ATOM     35  C   UNL A   1      43.452  31.771  28.790  1.00  0.00     0.031 C 
ATOM     36  C   UNL A   1      41.455  25.288  27.589  1.00  0.00     0.029 A 
ATOM     37  C   UNL A   1      42.886  25.549  27.446  1.00  0.00     0.049 A 
ATOM     38  H   UNL A   1      43.870  27.366  27.710  1.00  0.00     0.167 HD
ATOM     39  C   UNL A   1      45.815  31.240  28.263  1.00  0.00     0.037 A 
ATOM     40  C   UNL A   1      43.822  24.638  27.110  1.00  0.00     0.037 A 
ATOM     41  C   UNL A   1      46.872  30.351  27.861  1.00  0.00     0.049 A 
ATOM     42  C   UNL A   1      45.254  25.071  26.945  1.00  0.00     0.074 A 
ATOM     43  C   UNL A   1      48.218  30.631  27.694  1.00  0.00     0.029 A 
ATOM     44  N   UNL A   1      46.705  29.005  27.574  1.00  0.00    -0.354 N 
ATOM     45  N   UNL A   1      45.784  26.255  27.137  1.00  0.00    -0.248 NA
ATOM     46  C   UNL A   1      46.211  24.051  26.493  1.00  0.00     0.031 C 
ATOM     47  C   UNL A   1      48.859  29.459  27.276  1.00  0.00     0.029 A 
ATOM     48  C   UNL A   1      47.919  28.443  27.214  1.00  0.00     0.049 A 
ATOM     49  H   UNL A   1      45.849  28.520  27.618  1.00  0.00     0.167 HD
ATOM     50  C   UNL A   1      47.136  26.121  26.835  1.00  0.00     0.074 A 
ATOM     51  C   UNL A   1      47.346  24.737  26.466  1.00  0.00     0.031 C 
ATOM     52  C   UNL A   1      48.111  27.062  26.851  1.00  0.00     0.037 A 
BRANCH  39  53
ATOM     53  C   UNL A   1      46.153  32.674  28.542  1.00  0.00     0.058 A 
ATOM     54  C   UNL A   1      46.121  33.654  27.540  1.00  0.00     0.135 A 
ATOM     55  C   UNL A   1      46.516  33.071  29.840  1.00  0.00     0.135 A 
ATOM     56  F   UNL A   1      45.799  33.321  26.280  1.00  0.00    -0.206 F 
ATOM     57  C   UNL A   1      46.463  34.976  27.807  1.00  0.00     0.059 A 
ATOM     58  C   UNL A   1      46.845  34.390  30.133  1.00  0.00     0.059 A 
ATOM     59  F   UNL A   1      46.566  32.169  30.833  1.00  0.00    -0.206 F 
ATOM     60  C   UNL A   1      46.833  35.332  29.106  1.00  0.00     0.060 A 
BRANCH  60  61
ATOM     61  S   UNL A   1      47.299  37.044  29.442  1.00  0.00     0.124 S 
ATOM     62  O   UNL A   1      48.124  37.354  28.279  1.00  0.00    -0.237 OA
ATOM     63  O   UNL A   1      46.006  37.720  29.499  1.00  0.00    -0.237 OA
ATOM     64  O   UNL A   1      48.013  36.957  30.713  1.00  0.00    -0.744 OA
ENDBRANCH  60  61
ENDBRANCH  39  53
BRANCH  40  65
ATOM     65  C   UNL A   1      43.432  23.223  26.872  1.00  0.00     0.058 A 
ATOM     66  C   UNL A   1      43.359  22.704  25.572  1.00  0.00     0.135 A 
ATOM     67  C   UNL A   1      43.118  22.366  27.938  1.00  0.00     0.135 A 
ATOM     68  F   UNL A   1      43.641  23.490  24.521  1.00  0.00    -0.206 F 
ATOM     69  C   UNL A   1      42.983  21.387  25.333  1.00  0.00     0.059 A 
ATOM     70  C   UNL A   1      42.762  21.038  27.726  1.00  0.00     0.059 A 
ATOM     71  F   UNL A   1      43.181  22.813  29.202  1.00  0.00    -0.206 F 
ATOM     72  C   UNL A   1      42.687  20.560  26.419  1.00  0.00     0.060 A 
BRANCH  72  73
ATOM     73  S   UNL A   1      42.258  18.833  26.112  1.00  0.00     0.124 S 
ATOM     74  O   UNL A   1      40.850  18.941  25.751  1.00  0.00    -0.237 OA
ATOM     75  O   UNL A   1      43.170  18.475  25.030  1.00  0.00    -0.237 OA
ATOM     76  O   UNL A   1      42.539  18.191  27.392  1.00  0.00    -0.744 OA
ENDBRANCH  72  73
ENDBRANCH  40  65
BRANCH  52  77
ATOM     77  C   UNL A   1      49.497  26.627  26.467  1.00  0.00     0.058 A 
ATOM     78  C   UNL A   1      50.351  26.015  27.397  1.00  0.00     0.135 A 
ATOM     79  C   UNL A   1      49.953  26.770  25.148  1.00  0.00     0.135 A 
ATOM     80  F   UNL A   1      49.963  25.861  28.673  1.00  0.00    -0.206 F 
ATOM     81  C   UNL A   1      51.619  25.571  27.034  1.00  0.00     0.059 A 
ATOM     82  C   UNL A   1      51.210  26.317  24.758  1.00  0.00     0.059 A 
ATOM     83  F   UNL A   1      49.170  27.342  24.220  1.00  0.00    -0.206 F 
ATOM     84  C   UNL A   1      52.040  25.727  25.712  1.00  0.00     0.060 A 
BRANCH  84  85
ATOM     85  S   UNL A   1      53.671  25.110  25.241  1.00  0.00     0.124 S 
ATOM     86  O   UNL A   1      53.796  25.623  23.880  1.00  0.00    -0.237 OA
ATOM     87  O   UNL A   1      54.543  25.729  26.234  1.00  0.00    -0.237 OA
ATOM     88  O   UNL A   1      53.531  23.661  25.357  1.00  0.00    -0.744 OA
ENDBRANCH  84  85
ENDBRANCH  52  77
ENDBRANCH  26  27
ENDBRANCH  19  21
ENDBRANCH  18  19
ENDBRANCH   1  18
TORSDOF 16
ENDMDL
