MODEL 1
REMARK VINA RESULT:     -11.9      0.000      0.000
REMARK SMILES C[C@H](Nc1ncccc1C(=O)OCCOC(=O)c1ccc(-c2c3nc(c(-c4c(F)cc(S(=O)(=O)[O-])cc4F)c4ccc([nH]4)c(-c4c(F)cc(S(=O)(=O)[O-])cc4F)c4nc(c(-c5c(F)cc(S(=O)(=O)[O-])cc5F)c5ccc2[nH]5)C=C4)C=C3)cc1)c1ccc(Cl)cc1
REMARK SMILES IDX 13 1 12 2 10 3 11 4 9 5 4 6 5 7 6 8 8 9 7 10 3 11 2 13 1 14
REMARK SMILES IDX 84 15 85 16 90 17 86 18 89 19 87 20 88 21 14 22 15 23 16 24
REMARK SMILES IDX 17 25 18 26 19 27 83 28 20 29 82 30 21 31 22 32 23 33 76 34
REMARK SMILES IDX 24 35 81 36 75 37 77 38 25 39 80 40 74 41 73 42 26 44 60 45
REMARK SMILES IDX 39 46 59 47 40 48 43 49 58 50 78 51 41 52 42 53 57 55 79 56
REMARK SMILES IDX 44 57 27 58 28 59 37 60 29 61 30 62 36 63 38 64 31 65 32 66
REMARK SMILES IDX 33 67 34 68 35 69 61 70 62 71 71 72 63 73 64 74 70 75 72 76
REMARK SMILES IDX 65 77 66 78 67 79 68 80 69 81 45 82 46 83 55 84 47 85 48 86
REMARK SMILES IDX 54 87 56 88 49 89 50 90 51 91 52 92 53 93
REMARK H PARENT 3 12 77 43 43 54
REMARK Flexibility Score: inf
ROOT
ATOM      1  C   UNL A   1      45.627  25.326  26.548  1.00  0.00     0.275 C 
ENDROOT
BRANCH   1   2
ATOM      2  O   UNL A   1      45.774  23.945  26.113  1.00  0.00    -0.458 OA
BRANCH   2   3
ATOM      3  C   UNL A   1      44.836  23.071  26.578  1.00  0.00     0.342 C 
ATOM      4  O   UNL A   1      44.381  23.081  27.711  1.00  0.00    -0.246 OA
BRANCH   3   5
ATOM      5  C   UNL A   1      44.616  21.941  25.646  1.00  0.00     0.102 A 
ATOM      6  C   UNL A   1      43.417  21.219  25.481  1.00  0.00     0.141 A 
ATOM      7  N   UNL A   1      43.455  19.945  25.014  1.00  0.00    -0.239 NA
ATOM      8  C   UNL A   1      44.636  19.414  24.623  1.00  0.00     0.113 A 
ATOM      9  C   UNL A   1      45.816  21.388  25.160  1.00  0.00     0.021 A 
ATOM     10  C   UNL A   1      45.824  20.112  24.622  1.00  0.00     0.021 A 
BRANCH   6  11
ATOM     11  N   UNL A   1      42.112  21.641  25.660  1.00  0.00    -0.363 N 
ATOM     12  H   UNL A   1      41.892  22.565  25.402  1.00  0.00     0.162 HD
BRANCH  11  13
ATOM     13  C   UNL A   1      41.022  20.801  26.214  1.00  0.00     0.108 C 
ATOM     14  C   UNL A   1      41.447  20.448  27.651  1.00  0.00     0.036 C 
BRANCH  13  15
ATOM     15  C   UNL A   1      39.378  21.356  26.023  1.00  0.00    -0.026 A 
ATOM     16  C   UNL A   1      37.714  20.682  25.056  1.00  0.00     0.007 A 
ATOM     17  C   UNL A   1      39.312  23.075  26.595  1.00  0.00     0.007 A 
ATOM     18  C   UNL A   1      36.335  21.807  24.756  1.00  0.00     0.021 A 
ATOM     19  C   UNL A   1      37.871  24.052  26.248  1.00  0.00     0.021 A 
ATOM     20  C   UNL A   1      36.467  23.450  25.343  1.00  0.00     0.041 A 
ATOM     21  Cl  UNL A   1      35.135  24.517  25.107  1.00  0.00    -0.084 Cl
ENDBRANCH  13  15
ENDBRANCH  11  13
ENDBRANCH   6  11
ENDBRANCH   3   5
ENDBRANCH   2   3
ENDBRANCH   1   2
BRANCH   1  22
ATOM     22  C   UNL A   1      44.812  26.160  25.565  1.00  0.00     0.275 C 
BRANCH  22  23
ATOM     23  O   UNL A   1      43.425  26.003  25.910  1.00  0.00    -0.458 OA
BRANCH  23  24
ATOM     24  C   UNL A   1      42.713  27.023  25.416  1.00  0.00     0.338 C 
ATOM     25  O   UNL A   1      42.832  27.476  24.280  1.00  0.00    -0.246 OA
BRANCH  24  26
ATOM     26  C   UNL A   1      41.795  27.693  26.350  1.00  0.00     0.060 A 
ATOM     27  C   UNL A   1      42.231  29.127  27.327  1.00  0.00     0.016 A 
ATOM     28  C   UNL A   1      40.818  26.416  26.936  1.00  0.00     0.016 A 
ATOM     29  C   UNL A   1      41.770  29.319  29.052  1.00  0.00     0.010 A 
ATOM     30  C   UNL A   1      40.253  26.487  28.592  1.00  0.00     0.010 A 
ATOM     31  C   UNL A   1      40.737  28.030  29.823  1.00  0.00    -0.014 A 
BRANCH  31  32
ATOM     32  C   UNL A   1      40.289  28.645  31.242  1.00  0.00     0.031 A 
ATOM     33  C   UNL A   1      39.133  29.612  31.423  1.00  0.00     0.074 A 
ATOM     34  C   UNL A   1      41.077  28.423  32.323  1.00  0.00     0.049 A 
ATOM     35  N   UNL A   1      39.084  30.716  32.126  1.00  0.00    -0.248 NA
ATOM     36  C   UNL A   1      37.929  29.380  30.614  1.00  0.00     0.031 C 
ATOM     37  C   UNL A   1      42.141  27.422  32.443  1.00  0.00     0.029 A 
ATOM     38  N   UNL A   1      41.151  29.096  33.522  1.00  0.00    -0.354 N 
ATOM     39  C   UNL A   1      37.961  31.406  31.670  1.00  0.00     0.074 A 
ATOM     40  C   UNL A   1      37.388  30.594  30.620  1.00  0.00     0.031 C 
ATOM     41  C   UNL A   1      42.777  27.559  33.608  1.00  0.00     0.029 A 
ATOM     42  C   UNL A   1      42.244  28.724  34.277  1.00  0.00     0.049 A 
ATOM     43  H   UNL A   1      40.494  29.770  33.811  1.00  0.00     0.167 HD
ATOM     44  C   UNL A   1      37.471  32.599  32.102  1.00  0.00     0.037 A 
ATOM     45  C   UNL A   1      42.825  29.287  35.349  1.00  0.00     0.037 A 
ATOM     46  C   UNL A   1      37.944  33.218  33.321  1.00  0.00     0.049 A 
ATOM     47  C   UNL A   1      42.211  30.528  35.903  1.00  0.00     0.074 A 
ATOM     48  C   UNL A   1      37.432  34.311  33.996  1.00  0.00     0.029 A 
ATOM     49  N   UNL A   1      39.001  32.737  34.089  1.00  0.00    -0.354 N 
ATOM     50  N   UNL A   1      41.237  31.251  35.405  1.00  0.00    -0.248 NA
ATOM     51  C   UNL A   1      42.745  31.008  37.178  1.00  0.00     0.031 C 
ATOM     52  C   UNL A   1      38.188  34.503  35.158  1.00  0.00     0.029 A 
ATOM     53  C   UNL A   1      39.136  33.494  35.241  1.00  0.00     0.049 A 
ATOM     54  H   UNL A   1      39.570  31.971  33.848  1.00  0.00     0.167 HD
ATOM     55  C   UNL A   1      40.997  32.245  36.338  1.00  0.00     0.074 A 
ATOM     56  C   UNL A   1      41.932  32.024  37.427  1.00  0.00     0.031 C 
ATOM     57  C   UNL A   1      40.076  33.239  36.308  1.00  0.00     0.037 A 
BRANCH  44  58
ATOM     58  C   UNL A   1      36.375  33.287  31.304  1.00  0.00     0.058 A 
ATOM     59  C   UNL A   1      36.595  33.887  30.053  1.00  0.00     0.135 A 
ATOM     60  C   UNL A   1      35.054  33.345  31.801  1.00  0.00     0.135 A 
ATOM     61  F   UNL A   1      37.808  33.839  29.479  1.00  0.00    -0.206 F 
ATOM     62  C   UNL A   1      35.600  34.597  29.383  1.00  0.00     0.059 A 
ATOM     63  C   UNL A   1      34.024  33.993  31.115  1.00  0.00     0.059 A 
ATOM     64  F   UNL A   1      34.743  32.769  32.973  1.00  0.00    -0.206 F 
ATOM     65  C   UNL A   1      34.317  34.648  29.923  1.00  0.00     0.060 A 
BRANCH  65  66
ATOM     66  S   UNL A   1      33.047  35.574  29.033  1.00  0.00     0.124 S 
ATOM     67  O   UNL A   1      32.470  34.534  28.183  1.00  0.00    -0.237 OA
ATOM     68  O   UNL A   1      32.193  36.051  30.115  1.00  0.00    -0.237 OA
ATOM     69  O   UNL A   1      33.803  36.608  28.332  1.00  0.00    -0.744 OA
ENDBRANCH  65  66
ENDBRANCH  44  58
BRANCH  45  70
ATOM     70  C   UNL A   1      43.985  28.612  35.990  1.00  0.00     0.058 A 
ATOM     71  C   UNL A   1      45.278  29.099  35.759  1.00  0.00     0.135 A 
ATOM     72  C   UNL A   1      43.834  27.573  36.926  1.00  0.00     0.135 A 
ATOM     73  F   UNL A   1      45.469  30.101  34.888  1.00  0.00    -0.206 F 
ATOM     74  C   UNL A   1      46.384  28.578  36.418  1.00  0.00     0.059 A 
ATOM     75  C   UNL A   1      44.926  27.051  37.619  1.00  0.00     0.059 A 
ATOM     76  F   UNL A   1      42.613  27.101  37.219  1.00  0.00    -0.206 F 
ATOM     77  C   UNL A   1      46.197  27.560  37.353  1.00  0.00     0.060 A 
BRANCH  77  78
ATOM     78  S   UNL A   1      47.643  26.951  38.248  1.00  0.00     0.124 S 
ATOM     79  O   UNL A   1      47.064  25.880  39.050  1.00  0.00    -0.237 OA
ATOM     80  O   UNL A   1      48.517  26.529  37.157  1.00  0.00    -0.237 OA
ATOM     81  O   UNL A   1      48.099  28.121  38.992  1.00  0.00    -0.744 OA
ENDBRANCH  77  78
ENDBRANCH  45  70
BRANCH  57  82
ATOM     82  C   UNL A   1      39.996  34.109  37.527  1.00  0.00     0.058 A 
ATOM     83  C   UNL A   1      40.815  35.237  37.689  1.00  0.00     0.135 A 
ATOM     84  C   UNL A   1      39.073  33.810  38.541  1.00  0.00     0.135 A 
ATOM     85  F   UNL A   1      41.727  35.552  36.755  1.00  0.00    -0.206 F 
ATOM     86  C   UNL A   1      40.744  36.020  38.833  1.00  0.00     0.059 A 
ATOM     87  C   UNL A   1      38.955  34.605  39.673  1.00  0.00     0.059 A 
ATOM     88  F   UNL A   1      38.266  32.742  38.431  1.00  0.00    -0.206 F 
ATOM     89  C   UNL A   1      39.804  35.701  39.816  1.00  0.00     0.060 A 
BRANCH  89  90
ATOM     90  S   UNL A   1      39.698  36.753  41.274  1.00  0.00     0.124 S 
ATOM     91  O   UNL A   1      38.982  35.892  42.209  1.00  0.00    -0.237 OA
ATOM     92  O   UNL A   1      41.106  36.994  41.581  1.00  0.00    -0.237 OA
ATOM     93  O   UNL A   1      38.958  37.919  40.800  1.00  0.00    -0.744 OA
ENDBRANCH  89  90
ENDBRANCH  57  82
ENDBRANCH  31  32
ENDBRANCH  24  26
ENDBRANCH  23  24
ENDBRANCH  22  23
ENDBRANCH   1  22
TORSDOF 17
ENDMDL
MODEL 2
REMARK VINA RESULT:     -11.4      3.311      9.802
REMARK SMILES C[C@H](Nc1ncccc1C(=O)OCCOC(=O)c1ccc(-c2c3nc(c(-c4c(F)cc(S(=O)(=O)[O-])cc4F)c4ccc([nH]4)c(-c4c(F)cc(S(=O)(=O)[O-])cc4F)c4nc(c(-c5c(F)cc(S(=O)(=O)[O-])cc5F)c5ccc2[nH]5)C=C4)C=C3)cc1)c1ccc(Cl)cc1
REMARK SMILES IDX 13 1 12 2 10 3 11 4 9 5 4 6 5 7 6 8 8 9 7 10 3 11 2 13 1 14
REMARK SMILES IDX 84 15 85 16 90 17 86 18 89 19 87 20 88 21 14 22 15 23 16 24
REMARK SMILES IDX 17 25 18 26 19 27 83 28 20 29 82 30 21 31 22 32 23 33 76 34
REMARK SMILES IDX 24 35 81 36 75 37 77 38 25 39 80 40 74 41 73 42 26 44 60 45
REMARK SMILES IDX 39 46 59 47 40 48 43 49 58 50 78 51 41 52 42 53 57 55 79 56
REMARK SMILES IDX 44 57 27 58 28 59 37 60 29 61 30 62 36 63 38 64 31 65 32 66
REMARK SMILES IDX 33 67 34 68 35 69 61 70 62 71 71 72 63 73 64 74 70 75 72 76
REMARK SMILES IDX 65 77 66 78 67 79 68 80 69 81 45 82 46 83 55 84 47 85 48 86
REMARK SMILES IDX 54 87 56 88 49 89 50 90 51 91 52 92 53 93
REMARK H PARENT 3 12 77 43 43 54
REMARK Flexibility Score: inf
ROOT
ATOM      1  C   UNL A   1      37.694  20.140  25.030  1.00  0.00     0.275 C 
ENDROOT
BRANCH   1   2
ATOM      2  O   UNL A   1      36.537  20.844  24.495  1.00  0.00    -0.458 OA
BRANCH   2   3
ATOM      3  C   UNL A   1      35.444  20.894  25.309  1.00  0.00     0.342 C 
ATOM      4  O   UNL A   1      35.406  21.469  26.385  1.00  0.00    -0.246 OA
BRANCH   3   5
ATOM      5  C   UNL A   1      34.382  19.956  24.874  1.00  0.00     0.102 A 
ATOM      6  C   UNL A   1      32.992  20.161  24.988  1.00  0.00     0.141 A 
ATOM      7  N   UNL A   1      32.155  19.094  25.041  1.00  0.00    -0.239 NA
ATOM      8  C   UNL A   1      32.656  17.846  24.887  1.00  0.00     0.113 A 
ATOM      9  C   UNL A   1      34.862  18.654  24.642  1.00  0.00     0.021 A 
ATOM     10  C   UNL A   1      33.983  17.583  24.629  1.00  0.00     0.021 A 
BRANCH   6  11
ATOM     11  N   UNL A   1      32.282  21.347  24.985  1.00  0.00    -0.363 N 
ATOM     12  H   UNL A   1      31.551  21.443  25.637  1.00  0.00     0.162 HD
BRANCH  11  13
ATOM     13  C   UNL A   1      32.543  22.485  24.069  1.00  0.00     0.108 C 
ATOM     14  C   UNL A   1      32.180  21.987  22.659  1.00  0.00     0.036 C 
BRANCH  13  15
ATOM     15  C   UNL A   1      31.913  24.053  24.507  1.00  0.00    -0.026 A 
ATOM     16  C   UNL A   1      30.274  25.158  24.006  1.00  0.00     0.007 A 
ATOM     17  C   UNL A   1      33.231  24.949  25.370  1.00  0.00     0.007 A 
ATOM     18  C   UNL A   1      30.244  26.927  24.362  1.00  0.00     0.021 A 
ATOM     19  C   UNL A   1      33.045  26.688  25.675  1.00  0.00     0.021 A 
ATOM     20  C   UNL A   1      31.631  27.632  25.164  1.00  0.00     0.041 A 
ATOM     21  Cl  UNL A   1      31.590  29.310  25.555  1.00  0.00    -0.084 Cl
ENDBRANCH  13  15
ENDBRANCH  11  13
ENDBRANCH   6  11
ENDBRANCH   3   5
ENDBRANCH   2   3
ENDBRANCH   1   2
BRANCH   1  22
ATOM     22  C   UNL A   1      38.452  20.972  26.059  1.00  0.00     0.275 C 
BRANCH  22  23
ATOM     23  O   UNL A   1      39.105  22.042  25.356  1.00  0.00    -0.458 OA
BRANCH  23  24
ATOM     24  C   UNL A   1      38.631  23.221  25.775  1.00  0.00     0.338 C 
ATOM     25  O   UNL A   1      37.639  23.782  25.314  1.00  0.00    -0.246 OA
BRANCH  24  26
ATOM     26  C   UNL A   1      39.426  23.920  26.798  1.00  0.00     0.060 A 
ATOM     27  C   UNL A   1      38.774  24.465  28.372  1.00  0.00     0.016 A 
ATOM     28  C   UNL A   1      40.552  24.825  25.880  1.00  0.00     0.016 A 
ATOM     29  C   UNL A   1      39.160  26.063  29.096  1.00  0.00     0.010 A 
ATOM     30  C   UNL A   1      41.059  26.389  26.484  1.00  0.00     0.010 A 
ATOM     31  C   UNL A   1      40.339  27.148  28.225  1.00  0.00    -0.014 A 
BRANCH  31  32
ATOM     32  C   UNL A   1      40.662  28.334  29.266  1.00  0.00     0.031 A 
ATOM     33  C   UNL A   1      41.738  28.259  30.334  1.00  0.00     0.074 A 
ATOM     34  C   UNL A   1      39.831  29.404  29.308  1.00  0.00     0.049 A 
ATOM     35  N   UNL A   1      41.672  28.603  31.596  1.00  0.00    -0.248 NA
ATOM     36  C   UNL A   1      42.999  27.598  29.973  1.00  0.00     0.031 C 
ATOM     37  C   UNL A   1      38.831  29.780  28.303  1.00  0.00     0.029 A 
ATOM     38  N   UNL A   1      39.643  30.346  30.296  1.00  0.00    -0.354 N 
ATOM     39  C   UNL A   1      42.770  28.001  32.210  1.00  0.00     0.074 A 
ATOM     40  C   UNL A   1      43.456  27.261  31.174  1.00  0.00     0.031 C 
ATOM     41  C   UNL A   1      38.122  30.829  28.725  1.00  0.00     0.029 A 
ATOM     42  C   UNL A   1      38.536  31.138  30.074  1.00  0.00     0.049 A 
ATOM     43  H   UNL A   1      40.236  30.443  31.077  1.00  0.00     0.167 HD
ATOM     44  C   UNL A   1      43.154  28.074  33.513  1.00  0.00     0.037 A 
ATOM     45  C   UNL A   1      37.858  31.974  30.879  1.00  0.00     0.037 A 
ATOM     46  C   UNL A   1      42.571  29.037  34.423  1.00  0.00     0.049 A 
ATOM     47  C   UNL A   1      38.354  32.154  32.274  1.00  0.00     0.074 A 
ATOM     48  C   UNL A   1      42.968  29.373  35.704  1.00  0.00     0.029 A 
ATOM     49  N   UNL A   1      41.507  29.876  34.105  1.00  0.00    -0.354 N 
ATOM     50  N   UNL A   1      39.304  31.497  32.895  1.00  0.00    -0.248 NA
ATOM     51  C   UNL A   1      37.718  33.209  33.062  1.00  0.00     0.031 C 
ATOM     52  C   UNL A   1      42.136  30.399  36.167  1.00  0.00     0.029 A 
ATOM     53  C   UNL A   1      41.255  30.745  35.153  1.00  0.00     0.049 A 
ATOM     54  H   UNL A   1      41.005  29.855  33.258  1.00  0.00     0.167 HD
ATOM     55  C   UNL A   1      39.423  32.100  34.136  1.00  0.00     0.074 A 
ATOM     56  C   UNL A   1      38.445  33.172  34.169  1.00  0.00     0.031 C 
ATOM     57  C   UNL A   1      40.275  31.807  35.148  1.00  0.00     0.037 A 
BRANCH  44  58
ATOM     58  C   UNL A   1      44.244  27.146  34.023  1.00  0.00     0.058 A 
ATOM     59  C   UNL A   1      43.984  25.870  34.550  1.00  0.00     0.135 A 
ATOM     60  C   UNL A   1      45.599  27.539  33.978  1.00  0.00     0.135 A 
ATOM     61  F   UNL A   1      42.730  25.392  34.588  1.00  0.00    -0.206 F 
ATOM     62  C   UNL A   1      44.986  25.074  35.102  1.00  0.00     0.059 A 
ATOM     63  C   UNL A   1      46.630  26.730  34.464  1.00  0.00     0.059 A 
ATOM     64  F   UNL A   1      45.946  28.728  33.460  1.00  0.00    -0.206 F 
ATOM     65  C   UNL A   1      46.308  25.514  35.058  1.00  0.00     0.060 A 
BRANCH  65  66
ATOM     66  S   UNL A   1      47.587  24.461  35.778  1.00  0.00     0.124 S 
ATOM     67  O   UNL A   1      48.334  25.421  36.588  1.00  0.00    -0.237 OA
ATOM     68  O   UNL A   1      46.802  23.484  36.524  1.00  0.00    -0.237 OA
ATOM     69  O   UNL A   1      48.296  23.936  34.616  1.00  0.00    -0.744 OA
ENDBRANCH  65  66
ENDBRANCH  44  58
BRANCH  45  70
ATOM     70  C   UNL A   1      36.712  32.747  30.330  1.00  0.00     0.058 A 
ATOM     71  C   UNL A   1      35.413  32.455  30.768  1.00  0.00     0.135 A 
ATOM     72  C   UNL A   1      36.882  33.851  29.476  1.00  0.00     0.135 A 
ATOM     73  F   UNL A   1      35.205  31.421  31.598  1.00  0.00    -0.206 F 
ATOM     74  C   UNL A   1      34.321  33.217  30.374  1.00  0.00     0.059 A 
ATOM     75  C   UNL A   1      35.805  34.646  29.088  1.00  0.00     0.059 A 
ATOM     76  F   UNL A   1      38.110  34.202  29.065  1.00  0.00    -0.206 F 
ATOM     77  C   UNL A   1      34.528  34.316  29.541  1.00  0.00     0.060 A 
BRANCH  77  78
ATOM     78  S   UNL A   1      33.099  35.331  29.103  1.00  0.00     0.124 S 
ATOM     79  O   UNL A   1      32.426  35.462  30.391  1.00  0.00    -0.237 OA
ATOM     80  O   UNL A   1      33.733  36.540  28.589  1.00  0.00    -0.237 OA
ATOM     81  O   UNL A   1      32.401  34.523  28.108  1.00  0.00    -0.744 OA
ENDBRANCH  77  78
ENDBRANCH  45  70
BRANCH  57  82
ATOM     82  C   UNL A   1      40.226  32.713  36.342  1.00  0.00     0.058 A 
ATOM     83  C   UNL A   1      39.281  32.544  37.364  1.00  0.00     0.135 A 
ATOM     84  C   UNL A   1      41.153  33.760  36.464  1.00  0.00     0.135 A 
ATOM     85  F   UNL A   1      38.361  31.569  37.282  1.00  0.00    -0.206 F 
ATOM     86  C   UNL A   1      39.234  33.405  38.452  1.00  0.00     0.059 A 
ATOM     87  C   UNL A   1      41.153  34.605  37.566  1.00  0.00     0.059 A 
ATOM     88  F   UNL A   1      42.079  33.962  35.512  1.00  0.00    -0.206 F 
ATOM     89  C   UNL A   1      40.181  34.427  38.548  1.00  0.00     0.060 A 
BRANCH  89  90
ATOM     90  S   UNL A   1      40.132  35.508  39.989  1.00  0.00     0.124 S 
ATOM     91  O   UNL A   1      40.395  36.812  39.389  1.00  0.00    -0.237 OA
ATOM     92  O   UNL A   1      38.774  35.298  40.483  1.00  0.00    -0.237 OA
ATOM     93  O   UNL A   1      41.192  34.984  40.844  1.00  0.00    -0.744 OA
ENDBRANCH  89  90
ENDBRANCH  57  82
ENDBRANCH  31  32
ENDBRANCH  24  26
ENDBRANCH  23  24
ENDBRANCH  22  23
ENDBRANCH   1  22
TORSDOF 17
ENDMDL
MODEL 3
REMARK VINA RESULT:     -11.4      3.938     10.265
REMARK SMILES C[C@H](Nc1ncccc1C(=O)OCCOC(=O)c1ccc(-c2c3nc(c(-c4c(F)cc(S(=O)(=O)[O-])cc4F)c4ccc([nH]4)c(-c4c(F)cc(S(=O)(=O)[O-])cc4F)c4nc(c(-c5c(F)cc(S(=O)(=O)[O-])cc5F)c5ccc2[nH]5)C=C4)C=C3)cc1)c1ccc(Cl)cc1
REMARK SMILES IDX 13 1 12 2 10 3 11 4 9 5 4 6 5 7 6 8 8 9 7 10 3 11 2 13 1 14
REMARK SMILES IDX 84 15 85 16 90 17 86 18 89 19 87 20 88 21 14 22 15 23 16 24
REMARK SMILES IDX 17 25 18 26 19 27 83 28 20 29 82 30 21 31 22 32 23 33 76 34
REMARK SMILES IDX 24 35 81 36 75 37 77 38 25 39 80 40 74 41 73 42 26 44 60 45
REMARK SMILES IDX 39 46 59 47 40 48 43 49 58 50 78 51 41 52 42 53 57 55 79 56
REMARK SMILES IDX 44 57 27 58 28 59 37 60 29 61 30 62 36 63 38 64 31 65 32 66
REMARK SMILES IDX 33 67 34 68 35 69 61 70 62 71 71 72 63 73 64 74 70 75 72 76
REMARK SMILES IDX 65 77 66 78 67 79 68 80 69 81 45 82 46 83 55 84 47 85 48 86
REMARK SMILES IDX 54 87 56 88 49 89 50 90 51 91 52 92 53 93
REMARK H PARENT 3 12 77 43 43 54
REMARK Flexibility Score: inf
ROOT
ATOM      1  C   UNL A   1      35.518  23.682  24.391  1.00  0.00     0.275 C 
ENDROOT
BRANCH   1   2
ATOM      2  O   UNL A   1      34.946  22.899  23.305  1.00  0.00    -0.458 OA
BRANCH   2   3
ATOM      3  C   UNL A   1      33.765  23.356  22.800  1.00  0.00     0.342 C 
ATOM      4  O   UNL A   1      33.665  24.193  21.918  1.00  0.00    -0.246 OA
BRANCH   3   5
ATOM      5  C   UNL A   1      32.606  22.924  23.617  1.00  0.00     0.102 A 
ATOM      6  C   UNL A   1      31.719  23.767  24.315  1.00  0.00     0.141 A 
ATOM      7  N   UNL A   1      31.044  23.294  25.393  1.00  0.00    -0.239 NA
ATOM      8  C   UNL A   1      31.159  21.989  25.730  1.00  0.00     0.113 A 
ATOM      9  C   UNL A   1      32.646  21.556  23.947  1.00  0.00     0.021 A 
ATOM     10  C   UNL A   1      31.896  21.076  25.007  1.00  0.00     0.021 A 
BRANCH   6  11
ATOM     11  N   UNL A   1      31.339  25.065  24.025  1.00  0.00    -0.363 N 
ATOM     12  H   UNL A   1      30.916  25.234  23.153  1.00  0.00     0.162 HD
BRANCH  11  13
ATOM     13  C   UNL A   1      31.526  26.222  24.936  1.00  0.00     0.108 C 
ATOM     14  C   UNL A   1      32.996  26.175  25.387  1.00  0.00     0.036 C 
BRANCH  13  15
ATOM     15  C   UNL A   1      30.940  27.782  24.413  1.00  0.00    -0.026 A 
ATOM     16  C   UNL A   1      31.317  29.723  24.913  1.00  0.00     0.007 A 
ATOM     17  C   UNL A   1      29.453  27.501  23.417  1.00  0.00     0.007 A 
ATOM     18  C   UNL A   1      30.155  31.014  24.425  1.00  0.00     0.021 A 
ATOM     19  C   UNL A   1      28.419  28.880  22.991  1.00  0.00     0.021 A 
ATOM     20  C   UNL A   1      28.743  30.550  23.501  1.00  0.00     0.041 A 
ATOM     21  Cl  UNL A   1      27.654  31.782  22.987  1.00  0.00    -0.084 Cl
ENDBRANCH  13  15
ENDBRANCH  11  13
ENDBRANCH   6  11
ENDBRANCH   3   5
ENDBRANCH   2   3
ENDBRANCH   1   2
BRANCH   1  22
ATOM     22  C   UNL A   1      37.024  23.480  24.520  1.00  0.00     0.275 C 
BRANCH  22  23
ATOM     23  O   UNL A   1      37.376  23.706  25.895  1.00  0.00    -0.458 OA
BRANCH  23  24
ATOM     24  C   UNL A   1      38.601  23.228  26.138  1.00  0.00     0.338 C 
ATOM     25  O   UNL A   1      39.044  22.173  25.689  1.00  0.00    -0.246 OA
BRANCH  24  26
ATOM     26  C   UNL A   1      39.425  23.991  27.090  1.00  0.00     0.060 A 
ATOM     27  C   UNL A   1      38.882  24.465  28.727  1.00  0.00     0.016 A 
ATOM     28  C   UNL A   1      40.370  25.000  26.081  1.00  0.00     0.016 A 
ATOM     29  C   UNL A   1      39.190  26.088  29.433  1.00  0.00     0.010 A 
ATOM     30  C   UNL A   1      40.790  26.600  26.656  1.00  0.00     0.010 A 
ATOM     31  C   UNL A   1      40.176  27.281  28.469  1.00  0.00    -0.014 A 
BRANCH  31  32
ATOM     32  C   UNL A   1      40.489  28.486  29.491  1.00  0.00     0.031 A 
ATOM     33  C   UNL A   1      41.553  28.429  30.572  1.00  0.00     0.074 A 
ATOM     34  C   UNL A   1      39.660  29.558  29.504  1.00  0.00     0.049 A 
ATOM     35  N   UNL A   1      41.474  28.797  31.826  1.00  0.00    -0.248 NA
ATOM     36  C   UNL A   1      42.817  27.759  30.238  1.00  0.00     0.031 C 
ATOM     37  C   UNL A   1      38.672  29.916  28.481  1.00  0.00     0.029 A 
ATOM     38  N   UNL A   1      39.463  30.518  30.471  1.00  0.00    -0.354 N 
ATOM     39  C   UNL A   1      42.564  28.205  32.464  1.00  0.00     0.074 A 
ATOM     40  C   UNL A   1      43.260  27.444  31.450  1.00  0.00     0.031 C 
ATOM     41  C   UNL A   1      37.961  30.974  28.874  1.00  0.00     0.029 A 
ATOM     42  C   UNL A   1      38.360  31.308  30.223  1.00  0.00     0.049 A 
ATOM     43  H   UNL A   1      40.047  30.629  31.257  1.00  0.00     0.167 HD
ATOM     44  C   UNL A   1      42.933  28.302  33.770  1.00  0.00     0.037 A 
ATOM     45  C   UNL A   1      37.675  32.160  31.003  1.00  0.00     0.037 A 
ATOM     46  C   UNL A   1      42.342  29.283  34.655  1.00  0.00     0.049 A 
ATOM     47  C   UNL A   1      38.155  32.366  32.400  1.00  0.00     0.074 A 
ATOM     48  C   UNL A   1      42.725  29.642  35.934  1.00  0.00     0.029 A 
ATOM     49  N   UNL A   1      41.283  30.117  34.309  1.00  0.00    -0.354 N 
ATOM     50  N   UNL A   1      39.097  31.719  33.044  1.00  0.00    -0.248 NA
ATOM     51  C   UNL A   1      37.512  33.436  33.162  1.00  0.00     0.031 C 
ATOM     52  C   UNL A   1      41.890  30.678  36.368  1.00  0.00     0.029 A 
ATOM     53  C   UNL A   1      41.021  31.006  35.338  1.00  0.00     0.049 A 
ATOM     54  H   UNL A   1      40.791  30.081  33.457  1.00  0.00     0.167 HD
ATOM     55  C   UNL A   1      39.204  32.345  34.275  1.00  0.00     0.074 A 
ATOM     56  C   UNL A   1      38.227  33.419  34.277  1.00  0.00     0.031 C 
ATOM     57  C   UNL A   1      40.043  32.069  35.302  1.00  0.00     0.037 A 
BRANCH  44  58
ATOM     58  C   UNL A   1      44.016  27.382  34.310  1.00  0.00     0.058 A 
ATOM     59  C   UNL A   1      45.373  27.743  34.368  1.00  0.00     0.135 A 
ATOM     60  C   UNL A   1      43.690  26.097  34.794  1.00  0.00     0.135 A 
ATOM     61  F   UNL A   1      45.771  28.964  33.974  1.00  0.00    -0.206 F 
ATOM     62  C   UNL A   1      46.363  26.851  34.775  1.00  0.00     0.059 A 
ATOM     63  C   UNL A   1      44.658  25.209  35.271  1.00  0.00     0.059 A 
ATOM     64  F   UNL A   1      42.414  25.680  34.809  1.00  0.00    -0.206 F 
ATOM     65  C   UNL A   1      45.997  25.583  35.222  1.00  0.00     0.060 A 
BRANCH  65  66
ATOM     66  S   UNL A   1      47.300  24.448  35.746  1.00  0.00     0.124 S 
ATOM     67  O   UNL A   1      47.015  23.275  34.922  1.00  0.00    -0.237 OA
ATOM     68  O   UNL A   1      48.512  25.183  35.398  1.00  0.00    -0.237 OA
ATOM     69  O   UNL A   1      47.060  24.283  37.176  1.00  0.00    -0.744 OA
ENDBRANCH  65  66
ENDBRANCH  44  58
BRANCH  45  70
ATOM     70  C   UNL A   1      36.536  32.924  30.428  1.00  0.00     0.058 A 
ATOM     71  C   UNL A   1      35.233  32.652  30.866  1.00  0.00     0.135 A 
ATOM     72  C   UNL A   1      36.718  34.004  29.545  1.00  0.00     0.135 A 
ATOM     73  F   UNL A   1      35.014  31.642  31.722  1.00  0.00    -0.206 F 
ATOM     74  C   UNL A   1      34.148  33.409  30.445  1.00  0.00     0.059 A 
ATOM     75  C   UNL A   1      35.647  34.794  29.129  1.00  0.00     0.059 A 
ATOM     76  F   UNL A   1      37.950  34.337  29.131  1.00  0.00    -0.206 F 
ATOM     77  C   UNL A   1      34.365  34.484  29.584  1.00  0.00     0.060 A 
BRANCH  77  78
ATOM     78  S   UNL A   1      32.945  35.495  29.111  1.00  0.00     0.124 S 
ATOM     79  O   UNL A   1      32.388  34.721  28.006  1.00  0.00    -0.237 OA
ATOM     80  O   UNL A   1      32.159  35.506  30.340  1.00  0.00    -0.237 OA
ATOM     81  O   UNL A   1      33.545  36.773  28.744  1.00  0.00    -0.744 OA
ENDBRANCH  77  78
ENDBRANCH  45  70
BRANCH  57  82
ATOM     82  C   UNL A   1      39.983  32.998  36.478  1.00  0.00     0.058 A 
ATOM     83  C   UNL A   1      39.061  32.818  37.520  1.00  0.00     0.135 A 
ATOM     84  C   UNL A   1      40.875  34.079  36.563  1.00  0.00     0.135 A 
ATOM     85  F   UNL A   1      38.174  31.811  37.473  1.00  0.00    -0.206 F 
ATOM     86  C   UNL A   1      39.003  33.699  38.591  1.00  0.00     0.059 A 
ATOM     87  C   UNL A   1      40.864  34.946  37.647  1.00  0.00     0.059 A 
ATOM     88  F   UNL A   1      41.777  34.292  35.592  1.00  0.00    -0.206 F 
ATOM     89  C   UNL A   1      39.915  34.755  38.650  1.00  0.00     0.060 A 
BRANCH  89  90
ATOM     90  S   UNL A   1      39.852  35.863  40.069  1.00  0.00     0.124 S 
ATOM     91  O   UNL A   1      39.369  34.973  41.118  1.00  0.00    -0.237 OA
ATOM     92  O   UNL A   1      41.244  36.289  40.187  1.00  0.00    -0.237 OA
ATOM     93  O   UNL A   1      38.919  36.904  39.648  1.00  0.00    -0.744 OA
ENDBRANCH  89  90
ENDBRANCH  57  82
ENDBRANCH  31  32
ENDBRANCH  24  26
ENDBRANCH  23  24
ENDBRANCH  22  23
ENDBRANCH   1  22
TORSDOF 17
ENDMDL
