MODEL 1
REMARK VINA RESULT:     -11.2      0.000      0.000
REMARK SMILES Cc1cc(C)c2c(c1)C=C(C(=O)OCCOC(=O)c1ccc(-c3c4nc(c(-c5c(F)cc(S(=O)(=O)[O-])cc5F)c5ccc([nH]5)c(-c5c(F)cc(S(=O)(=O)[O-])cc5F)c5nc(c(-c6c(F)cc(S(=O)(=O)[O-])cc6F)c6ccc3[nH]6)C=C5)C=C4)cc1)[C@@H](C(F)(F)F)O2
REMARK SMILES IDX 15 1 14 2 13 3 11 4 12 5 10 6 1 7 2 8 3 9 8 10 4 11 7 12
REMARK SMILES IDX 5 13 6 14 9 15 90 16 85 17 86 18 87 19 88 20 89 21 16 22
REMARK SMILES IDX 17 23 18 24 19 25 20 26 84 27 21 28 83 29 22 30 23 31 24 32
REMARK SMILES IDX 77 33 25 34 82 35 76 36 78 37 26 38 81 39 75 40 74 41 27 43
REMARK SMILES IDX 61 44 40 45 60 46 41 47 44 48 59 49 79 50 42 51 43 52 58 54
REMARK SMILES IDX 80 55 45 56 28 57 29 58 38 59 30 60 31 61 37 62 39 63 32 64
REMARK SMILES IDX 33 65 34 66 35 67 36 68 62 69 63 70 72 71 64 72 65 73 71 74
REMARK SMILES IDX 73 75 66 76 67 77 68 78 69 79 70 80 46 81 47 82 56 83 48 84
REMARK SMILES IDX 49 85 55 86 57 87 50 88 51 89 52 90 53 91 54 92
REMARK H PARENT 78 42 44 53
REMARK Flexibility Score: inf
ROOT
ATOM      1  C   UNL A   1      32.964  28.504  26.499  1.00  0.00     0.275 C 
ENDROOT
BRANCH   1   2
ATOM      2  C   UNL A   1      32.314  27.123  26.552  1.00  0.00     0.275 C 
BRANCH   2   3
ATOM      3  O   UNL A   1      31.915  26.679  25.237  1.00  0.00    -0.459 OA
BRANCH   3   4
ATOM      4  C   UNL A   1      32.931  26.376  24.397  1.00  0.00     0.338 C 
ATOM      5  O   UNL A   1      33.353  27.071  23.486  1.00  0.00    -0.246 OA
BRANCH   4   6
ATOM      6  C   UNL A   1      33.499  25.054  24.719  1.00  0.00     0.087 C 
ATOM      7  C   UNL A   1      38.866  22.344  26.057  1.00  0.00     0.044 C 
ATOM      8  C   UNL A   1      37.402  22.418  25.727  1.00  0.00    -0.050 A 
ATOM      9  C   UNL A   1      36.674  21.251  25.464  1.00  0.00     0.010 A 
ATOM     10  C   UNL A   1      36.751  23.650  25.657  1.00  0.00     0.015 A 
ATOM     11  C   UNL A   1      35.308  21.307  25.132  1.00  0.00    -0.008 A 
ATOM     12  C   UNL A   1      35.395  23.717  25.311  1.00  0.00     0.018 A 
ATOM     13  C   UNL A   1      34.556  20.041  24.843  1.00  0.00     0.048 C 
ATOM     14  C   UNL A   1      34.672  22.553  25.053  1.00  0.00     0.130 A 
ATOM     15  C   UNL A   1      34.757  25.009  25.168  1.00  0.00     0.027 C 
ATOM     16  O   UNL A   1      33.338  22.564  24.735  1.00  0.00    -0.475 OA
ATOM     17  C   UNL A   1      32.709  23.828  24.380  1.00  0.00     0.316 C 
BRANCH  17  18
ATOM     18  C   UNL A   1      32.330  23.797  22.892  1.00  0.00     0.430 C 
ATOM     19  F   UNL A   1      33.352  24.227  22.114  1.00  0.00    -0.167 F 
ATOM     20  F   UNL A   1      32.045  22.537  22.479  1.00  0.00    -0.167 F 
ATOM     21  F   UNL A   1      31.256  24.567  22.613  1.00  0.00    -0.167 F 
ENDBRANCH  17  18
ENDBRANCH   4   6
ENDBRANCH   3   4
ENDBRANCH   2   3
ENDBRANCH   1   2
BRANCH   1  22
ATOM     22  O   UNL A   1      34.115  28.548  27.362  1.00  0.00    -0.458 OA
BRANCH  22  23
ATOM     23  C   UNL A   1      34.446  29.777  27.817  1.00  0.00     0.338 C 
ATOM     24  O   UNL A   1      33.704  30.732  27.971  1.00  0.00    -0.246 OA
BRANCH  23  25
ATOM     25  C   UNL A   1      35.866  29.811  28.197  1.00  0.00     0.060 A 
ATOM     26  C   UNL A   1      36.804  30.146  27.228  1.00  0.00     0.016 A 
ATOM     27  C   UNL A   1      36.285  29.320  29.431  1.00  0.00     0.016 A 
ATOM     28  C   UNL A   1      38.143  29.822  27.415  1.00  0.00     0.010 A 
ATOM     29  C   UNL A   1      37.655  29.151  29.675  1.00  0.00     0.010 A 
ATOM     30  C   UNL A   1      38.599  29.337  28.649  1.00  0.00    -0.014 A 
BRANCH  30  31
ATOM     31  C   UNL A   1      40.043  28.992  28.833  1.00  0.00     0.031 A 
ATOM     32  C   UNL A   1      40.996  29.993  29.446  1.00  0.00     0.074 A 
ATOM     33  C   UNL A   1      40.498  27.766  28.497  1.00  0.00     0.049 A 
ATOM     34  N   UNL A   1      42.299  29.932  29.557  1.00  0.00    -0.248 NA
ATOM     35  C   UNL A   1      40.415  31.231  29.993  1.00  0.00     0.031 C 
ATOM     36  C   UNL A   1      39.685  26.683  27.937  1.00  0.00     0.029 A 
ATOM     37  N   UNL A   1      41.751  27.209  28.596  1.00  0.00    -0.354 N 
ATOM     38  C   UNL A   1      42.694  31.137  30.131  1.00  0.00     0.074 A 
ATOM     39  C   UNL A   1      41.496  31.921  30.328  1.00  0.00     0.031 C 
ATOM     40  C   UNL A   1      40.435  25.578  27.818  1.00  0.00     0.029 A 
ATOM     41  C   UNL A   1      41.810  25.898  28.177  1.00  0.00     0.049 A 
ATOM     42  H   UNL A   1      42.533  27.700  28.936  1.00  0.00     0.167 HD
ATOM     43  C   UNL A   1      43.939  31.545  30.476  1.00  0.00     0.037 A 
ATOM     44  C   UNL A   1      42.853  25.055  28.050  1.00  0.00     0.037 A 
ATOM     45  C   UNL A   1      45.119  30.732  30.340  1.00  0.00     0.049 A 
ATOM     46  C   UNL A   1      44.232  25.552  28.379  1.00  0.00     0.074 A 
ATOM     47  C   UNL A   1      46.424  31.048  30.678  1.00  0.00     0.029 A 
ATOM     48  N   UNL A   1      45.137  29.437  29.845  1.00  0.00    -0.354 N 
ATOM     49  N   UNL A   1      44.590  26.712  28.874  1.00  0.00    -0.248 NA
ATOM     50  C   UNL A   1      45.352  24.643  28.102  1.00  0.00     0.031 C 
ATOM     51  C   UNL A   1      47.236  29.960  30.349  1.00  0.00     0.029 A 
ATOM     52  C   UNL A   1      46.433  28.949  29.846  1.00  0.00     0.049 A 
ATOM     53  H   UNL A   1      44.346  28.938  29.539  1.00  0.00     0.167 HD
ATOM     54  C   UNL A   1      45.975  26.674  28.966  1.00  0.00     0.074 A 
ATOM     55  C   UNL A   1      46.390  25.366  28.503  1.00  0.00     0.031 C 
ATOM     56  C   UNL A   1      46.828  27.641  29.384  1.00  0.00     0.037 A 
BRANCH  43  57
ATOM     57  C   UNL A   1      44.103  32.939  31.025  1.00  0.00     0.058 A 
ATOM     58  C   UNL A   1      44.201  34.059  30.185  1.00  0.00     0.135 A 
ATOM     59  C   UNL A   1      44.098  33.160  32.412  1.00  0.00     0.135 A 
ATOM     60  F   UNL A   1      44.224  33.906  28.853  1.00  0.00    -0.206 F 
ATOM     61  C   UNL A   1      44.310  35.347  30.702  1.00  0.00     0.059 A 
ATOM     62  C   UNL A   1      44.178  34.441  32.951  1.00  0.00     0.059 A 
ATOM     63  F   UNL A   1      44.005  32.125  33.262  1.00  0.00    -0.206 F 
ATOM     64  C   UNL A   1      44.294  35.529  32.086  1.00  0.00     0.060 A 
BRANCH  64  65
ATOM     65  S   UNL A   1      44.420  37.209  32.735  1.00  0.00     0.124 S 
ATOM     66  O   UNL A   1      44.536  37.990  31.507  1.00  0.00    -0.237 OA
ATOM     67  O   UNL A   1      43.163  37.356  33.462  1.00  0.00    -0.237 OA
ATOM     68  O   UNL A   1      45.621  37.167  33.564  1.00  0.00    -0.744 OA
ENDBRANCH  64  65
ENDBRANCH  43  57
BRANCH  44  69
ATOM     69  C   UNL A   1      42.636  23.670  27.547  1.00  0.00     0.058 A 
ATOM     70  C   UNL A   1      42.695  23.383  26.176  1.00  0.00     0.135 A 
ATOM     71  C   UNL A   1      42.394  22.601  28.426  1.00  0.00     0.135 A 
ATOM     72  F   UNL A   1      42.909  24.371  25.293  1.00  0.00    -0.206 F 
ATOM     73  C   UNL A   1      42.521  22.090  25.693  1.00  0.00     0.059 A 
ATOM     74  C   UNL A   1      42.248  21.294  27.970  1.00  0.00     0.059 A 
ATOM     75  F   UNL A   1      42.335  22.818  29.750  1.00  0.00    -0.206 F 
ATOM     76  C   UNL A   1      42.305  21.050  26.600  1.00  0.00     0.060 A 
BRANCH  76  77
ATOM     77  S   UNL A   1      42.136  19.368  25.965  1.00  0.00     0.124 S 
ATOM     78  O   UNL A   1      40.700  19.284  25.734  1.00  0.00    -0.237 OA
ATOM     79  O   UNL A   1      42.975  19.407  24.771  1.00  0.00    -0.237 OA
ATOM     80  O   UNL A   1      42.650  18.543  27.055  1.00  0.00    -0.744 OA
ENDBRANCH  76  77
ENDBRANCH  44  69
BRANCH  56  81
ATOM     81  C   UNL A   1      48.297  27.333  29.362  1.00  0.00     0.058 A 
ATOM     82  C   UNL A   1      49.116  27.789  28.317  1.00  0.00     0.135 A 
ATOM     83  C   UNL A   1      48.907  26.675  30.440  1.00  0.00     0.135 A 
ATOM     84  F   UNL A   1      48.577  28.413  27.258  1.00  0.00    -0.206 F 
ATOM     85  C   UNL A   1      50.494  27.609  28.347  1.00  0.00     0.059 A 
ATOM     86  C   UNL A   1      50.286  26.504  30.502  1.00  0.00     0.059 A 
ATOM     87  F   UNL A   1      48.167  26.225  31.465  1.00  0.00    -0.206 F 
ATOM     88  C   UNL A   1      51.072  26.978  29.451  1.00  0.00     0.060 A 
BRANCH  88  89
ATOM     89  S   UNL A   1      52.870  26.829  29.510  1.00  0.00     0.124 S 
ATOM     90  O   UNL A   1      53.059  25.996  30.693  1.00  0.00    -0.237 OA
ATOM     91  O   UNL A   1      53.168  26.192  28.232  1.00  0.00    -0.237 OA
ATOM     92  O   UNL A   1      53.323  28.211  29.637  1.00  0.00    -0.744 OA
ENDBRANCH  88  89
ENDBRANCH  56  81
ENDBRANCH  30  31
ENDBRANCH  23  25
ENDBRANCH  22  23
ENDBRANCH   1  22
TORSDOF 15
ENDMDL
MODEL 2
REMARK VINA RESULT:     -11.0      5.048     10.502
REMARK SMILES Cc1cc(C)c2c(c1)C=C(C(=O)OCCOC(=O)c1ccc(-c3c4nc(c(-c5c(F)cc(S(=O)(=O)[O-])cc5F)c5ccc([nH]5)c(-c5c(F)cc(S(=O)(=O)[O-])cc5F)c5nc(c(-c6c(F)cc(S(=O)(=O)[O-])cc6F)c6ccc3[nH]6)C=C5)C=C4)cc1)[C@@H](C(F)(F)F)O2
REMARK SMILES IDX 15 1 14 2 13 3 11 4 12 5 10 6 1 7 2 8 3 9 8 10 4 11 7 12
REMARK SMILES IDX 5 13 6 14 9 15 90 16 85 17 86 18 87 19 88 20 89 21 16 22
REMARK SMILES IDX 17 23 18 24 19 25 20 26 84 27 21 28 83 29 22 30 23 31 24 32
REMARK SMILES IDX 77 33 25 34 82 35 76 36 78 37 26 38 81 39 75 40 74 41 27 43
REMARK SMILES IDX 61 44 40 45 60 46 41 47 44 48 59 49 79 50 42 51 43 52 58 54
REMARK SMILES IDX 80 55 45 56 28 57 29 58 38 59 30 60 31 61 37 62 39 63 32 64
REMARK SMILES IDX 33 65 34 66 35 67 36 68 62 69 63 70 72 71 64 72 65 73 71 74
REMARK SMILES IDX 73 75 66 76 67 77 68 78 69 79 70 80 46 81 47 82 56 83 48 84
REMARK SMILES IDX 49 85 55 86 57 87 50 88 51 89 52 90 53 91 54 92
REMARK H PARENT 78 42 44 53
REMARK Flexibility Score: inf
ROOT
ATOM      1  C   UNL A   1      39.702  22.191  26.117  1.00  0.00     0.275 C 
ENDROOT
BRANCH   1   2
ATOM      2  C   UNL A   1      38.261  21.836  25.752  1.00  0.00     0.275 C 
BRANCH   2   3
ATOM      3  O   UNL A   1      37.517  23.007  25.352  1.00  0.00    -0.459 OA
BRANCH   3   4
ATOM      4  C   UNL A   1      36.684  22.831  24.301  1.00  0.00     0.338 C 
ATOM      5  O   UNL A   1      36.972  22.340  23.221  1.00  0.00    -0.246 OA
BRANCH   4   6
ATOM      6  C   UNL A   1      35.330  23.319  24.619  1.00  0.00     0.087 C 
ATOM      7  C   UNL A   1      32.436  28.229  26.955  1.00  0.00     0.044 C 
ATOM      8  C   UNL A   1      32.571  26.828  26.430  1.00  0.00    -0.050 A 
ATOM      9  C   UNL A   1      31.496  25.934  26.506  1.00  0.00     0.010 A 
ATOM     10  C   UNL A   1      33.777  26.388  25.880  1.00  0.00     0.015 A 
ATOM     11  C   UNL A   1      31.616  24.613  26.039  1.00  0.00    -0.008 A 
ATOM     12  C   UNL A   1      33.911  25.070  25.428  1.00  0.00     0.018 A 
ATOM     13  C   UNL A   1      30.451  23.673  26.144  1.00  0.00     0.048 C 
ATOM     14  C   UNL A   1      32.836  24.183  25.501  1.00  0.00     0.130 A 
ATOM     15  C   UNL A   1      35.191  24.611  24.931  1.00  0.00     0.027 C 
ATOM     16  O   UNL A   1      32.910  22.891  25.050  1.00  0.00    -0.475 OA
ATOM     17  C   UNL A   1      34.215  22.327  24.737  1.00  0.00     0.316 C 
BRANCH  17  18
ATOM     18  C   UNL A   1      34.544  21.230  25.762  1.00  0.00     0.430 C 
ATOM     19  F   UNL A   1      35.393  20.310  25.244  1.00  0.00    -0.167 F 
ATOM     20  F   UNL A   1      35.162  21.743  26.855  1.00  0.00    -0.167 F 
ATOM     21  F   UNL A   1      33.445  20.572  26.190  1.00  0.00    -0.167 F 
ENDBRANCH  17  18
ENDBRANCH   4   6
ENDBRANCH   3   4
ENDBRANCH   2   3
ENDBRANCH   1   2
BRANCH   1  22
ATOM     22  O   UNL A   1      39.725  23.267  27.071  1.00  0.00    -0.458 OA
BRANCH  22  23
ATOM     23  C   UNL A   1      40.692  24.191  26.873  1.00  0.00     0.338 C 
ATOM     24  O   UNL A   1      41.642  24.114  26.113  1.00  0.00    -0.246 OA
BRANCH  23  25
ATOM     25  C   UNL A   1      40.410  25.397  27.667  1.00  0.00     0.060 A 
ATOM     26  C   UNL A   1      41.300  26.461  27.595  1.00  0.00     0.016 A 
ATOM     27  C   UNL A   1      39.398  25.399  28.623  1.00  0.00     0.016 A 
ATOM     28  C   UNL A   1      41.300  27.435  28.586  1.00  0.00     0.010 A 
ATOM     29  C   UNL A   1      39.301  26.472  29.519  1.00  0.00     0.010 A 
ATOM     30  C   UNL A   1      40.289  27.473  29.557  1.00  0.00    -0.014 A 
BRANCH  30  31
ATOM     31  C   UNL A   1      40.304  28.528  30.617  1.00  0.00     0.031 A 
ATOM     32  C   UNL A   1      41.352  28.502  31.707  1.00  0.00     0.074 A 
ATOM     33  C   UNL A   1      39.411  29.541  30.583  1.00  0.00     0.049 A 
ATOM     34  N   UNL A   1      41.443  29.240  32.784  1.00  0.00    -0.248 NA
ATOM     35  C   UNL A   1      42.431  27.506  31.581  1.00  0.00     0.031 C 
ATOM     36  C   UNL A   1      38.371  29.723  29.567  1.00  0.00     0.029 A 
ATOM     37  N   UNL A   1      39.244  30.626  31.410  1.00  0.00    -0.354 N 
ATOM     38  C   UNL A   1      42.548  28.765  33.485  1.00  0.00     0.074 A 
ATOM     39  C   UNL A   1      43.085  27.660  32.723  1.00  0.00     0.031 C 
ATOM     40  C   UNL A   1      37.733  30.881  29.783  1.00  0.00     0.029 A 
ATOM     41  C   UNL A   1      38.230  31.471  31.018  1.00  0.00     0.049 A 
ATOM     42  H   UNL A   1      39.798  30.785  32.208  1.00  0.00     0.167 HD
ATOM     43  C   UNL A   1      43.073  29.218  34.648  1.00  0.00     0.037 A 
ATOM     44  C   UNL A   1      37.720  32.574  31.603  1.00  0.00     0.037 A 
ATOM     45  C   UNL A   1      42.573  30.362  35.366  1.00  0.00     0.049 A 
ATOM     46  C   UNL A   1      38.280  33.019  32.924  1.00  0.00     0.074 A 
ATOM     47  C   UNL A   1      43.049  30.912  36.544  1.00  0.00     0.029 A 
ATOM     48  N   UNL A   1      41.500  31.143  34.964  1.00  0.00    -0.354 N 
ATOM     49  N   UNL A   1      39.293  32.527  33.594  1.00  0.00    -0.248 NA
ATOM     50  C   UNL A   1      37.608  34.146  33.585  1.00  0.00     0.031 C 
ATOM     51  C   UNL A   1      42.238  32.000  36.876  1.00  0.00     0.029 A 
ATOM     52  C   UNL A   1      41.283  32.156  35.884  1.00  0.00     0.049 A 
ATOM     53  H   UNL A   1      40.971  31.000  34.147  1.00  0.00     0.167 HD
ATOM     54  C   UNL A   1      39.380  33.281  34.757  1.00  0.00     0.074 A 
ATOM     55  C   UNL A   1      38.336  34.282  34.687  1.00  0.00     0.031 C 
ATOM     56  C   UNL A   1      40.240  33.147  35.796  1.00  0.00     0.037 A 
BRANCH  43  57
ATOM     57  C   UNL A   1      44.245  28.475  35.235  1.00  0.00     0.058 A 
ATOM     58  C   UNL A   1      45.570  28.824  34.931  1.00  0.00     0.135 A 
ATOM     59  C   UNL A   1      44.038  27.441  36.163  1.00  0.00     0.135 A 
ATOM     60  F   UNL A   1      45.827  29.795  34.042  1.00  0.00    -0.206 F 
ATOM     61  C   UNL A   1      46.648  28.160  35.511  1.00  0.00     0.059 A 
ATOM     62  C   UNL A   1      45.100  26.782  36.775  1.00  0.00     0.059 A 
ATOM     63  F   UNL A   1      42.791  27.067  36.491  1.00  0.00    -0.206 F 
ATOM     64  C   UNL A   1      46.403  27.142  36.435  1.00  0.00     0.060 A 
BRANCH  64  65
ATOM     65  S   UNL A   1      47.814  26.304  37.187  1.00  0.00     0.124 S 
ATOM     66  O   UNL A   1      47.982  27.063  38.422  1.00  0.00    -0.237 OA
ATOM     67  O   UNL A   1      47.317  24.941  37.344  1.00  0.00    -0.237 OA
ATOM     68  O   UNL A   1      48.878  26.472  36.201  1.00  0.00    -0.744 OA
ENDBRANCH  64  65
ENDBRANCH  43  57
BRANCH  44  69
ATOM     69  C   UNL A   1      36.591  33.303  30.961  1.00  0.00     0.058 A 
ATOM     70  C   UNL A   1      36.799  34.099  29.827  1.00  0.00     0.135 A 
ATOM     71  C   UNL A   1      35.278  33.196  31.450  1.00  0.00     0.135 A 
ATOM     72  F   UNL A   1      38.036  34.246  29.328  1.00  0.00    -0.206 F 
ATOM     73  C   UNL A   1      35.749  34.765  29.200  1.00  0.00     0.059 A 
ATOM     74  C   UNL A   1      34.208  33.826  30.823  1.00  0.00     0.059 A 
ATOM     75  F   UNL A   1      35.021  32.440  32.529  1.00  0.00    -0.206 F 
ATOM     76  C   UNL A   1      34.455  34.616  29.702  1.00  0.00     0.060 A 
BRANCH  76  77
ATOM     77  S   UNL A   1      33.094  35.439  28.847  1.00  0.00     0.124 S 
ATOM     78  O   UNL A   1      32.311  35.949  29.965  1.00  0.00    -0.237 OA
ATOM     79  O   UNL A   1      33.796  36.440  28.049  1.00  0.00    -0.237 OA
ATOM     80  O   UNL A   1      32.475  34.360  28.082  1.00  0.00    -0.744 OA
ENDBRANCH  76  77
ENDBRANCH  44  69
BRANCH  56  81
ATOM     81  C   UNL A   1      40.095  34.098  36.948  1.00  0.00     0.058 A 
ATOM     82  C   UNL A   1      40.734  35.348  36.940  1.00  0.00     0.135 A 
ATOM     83  C   UNL A   1      39.231  33.806  38.014  1.00  0.00     0.135 A 
ATOM     84  F   UNL A   1      41.580  35.669  35.948  1.00  0.00    -0.206 F 
ATOM     85  C   UNL A   1      40.514  36.280  37.947  1.00  0.00     0.059 A 
ATOM     86  C   UNL A   1      38.977  34.733  39.020  1.00  0.00     0.059 A 
ATOM     87  F   UNL A   1      38.593  32.626  38.064  1.00  0.00    -0.206 F 
ATOM     88  C   UNL A   1      39.622  35.969  38.976  1.00  0.00     0.060 A 
BRANCH  88  89
ATOM     89  S   UNL A   1      39.284  37.224  40.228  1.00  0.00     0.124 S 
ATOM     90  O   UNL A   1      38.511  38.200  39.468  1.00  0.00    -0.237 OA
ATOM     91  O   UNL A   1      38.541  36.468  41.230  1.00  0.00    -0.237 OA
ATOM     92  O   UNL A   1      40.615  37.662  40.640  1.00  0.00    -0.744 OA
ENDBRANCH  88  89
ENDBRANCH  56  81
ENDBRANCH  30  31
ENDBRANCH  23  25
ENDBRANCH  22  23
ENDBRANCH   1  22
TORSDOF 15
ENDMDL
MODEL 3
REMARK VINA RESULT:     -11.0      2.375      3.463
REMARK SMILES Cc1cc(C)c2c(c1)C=C(C(=O)OCCOC(=O)c1ccc(-c3c4nc(c(-c5c(F)cc(S(=O)(=O)[O-])cc5F)c5ccc([nH]5)c(-c5c(F)cc(S(=O)(=O)[O-])cc5F)c5nc(c(-c6c(F)cc(S(=O)(=O)[O-])cc6F)c6ccc3[nH]6)C=C5)C=C4)cc1)[C@@H](C(F)(F)F)O2
REMARK SMILES IDX 15 1 14 2 13 3 11 4 12 5 10 6 1 7 2 8 3 9 8 10 4 11 7 12
REMARK SMILES IDX 5 13 6 14 9 15 90 16 85 17 86 18 87 19 88 20 89 21 16 22
REMARK SMILES IDX 17 23 18 24 19 25 20 26 84 27 21 28 83 29 22 30 23 31 24 32
REMARK SMILES IDX 77 33 25 34 82 35 76 36 78 37 26 38 81 39 75 40 74 41 27 43
REMARK SMILES IDX 61 44 40 45 60 46 41 47 44 48 59 49 79 50 42 51 43 52 58 54
REMARK SMILES IDX 80 55 45 56 28 57 29 58 38 59 30 60 31 61 37 62 39 63 32 64
REMARK SMILES IDX 33 65 34 66 35 67 36 68 62 69 63 70 72 71 64 72 65 73 71 74
REMARK SMILES IDX 73 75 66 76 67 77 68 78 69 79 70 80 46 81 47 82 56 83 48 84
REMARK SMILES IDX 49 85 55 86 57 87 50 88 51 89 52 90 53 91 54 92
REMARK H PARENT 78 42 44 53
REMARK Flexibility Score: inf
ROOT
ATOM      1  C   UNL A   1      34.350  30.729  27.786  1.00  0.00     0.275 C 
ENDROOT
BRANCH   1   2
ATOM      2  C   UNL A   1      34.384  29.405  27.024  1.00  0.00     0.275 C 
BRANCH   2   3
ATOM      3  O   UNL A   1      33.448  29.408  25.925  1.00  0.00    -0.459 OA
BRANCH   3   4
ATOM      4  C   UNL A   1      33.611  28.411  25.025  1.00  0.00     0.338 C 
ATOM      5  O   UNL A   1      34.088  28.513  23.906  1.00  0.00    -0.246 OA
BRANCH   4   6
ATOM      6  C   UNL A   1      33.126  27.131  25.571  1.00  0.00     0.087 C 
ATOM      7  C   UNL A   1      34.816  21.240  26.184  1.00  0.00     0.044 C 
ATOM      8  C   UNL A   1      33.896  22.425  26.253  1.00  0.00    -0.050 A 
ATOM      9  C   UNL A   1      32.541  22.255  26.563  1.00  0.00     0.010 A 
ATOM     10  C   UNL A   1      34.371  23.710  25.986  1.00  0.00     0.015 A 
ATOM     11  C   UNL A   1      31.663  23.353  26.608  1.00  0.00    -0.008 A 
ATOM     12  C   UNL A   1      33.501  24.808  26.012  1.00  0.00     0.018 A 
ATOM     13  C   UNL A   1      30.213  23.140  26.932  1.00  0.00     0.048 C 
ATOM     14  C   UNL A   1      32.153  24.635  26.326  1.00  0.00     0.130 A 
ATOM     15  C   UNL A   1      33.997  26.121  25.658  1.00  0.00     0.027 C 
ATOM     16  O   UNL A   1      31.268  25.680  26.388  1.00  0.00    -0.475 OA
ATOM     17  C   UNL A   1      31.663  26.972  25.847  1.00  0.00     0.316 C 
BRANCH  17  18
ATOM     18  C   UNL A   1      30.819  27.269  24.597  1.00  0.00     0.430 C 
ATOM     19  F   UNL A   1      29.591  26.705  24.686  1.00  0.00    -0.167 F 
ATOM     20  F   UNL A   1      30.613  28.601  24.444  1.00  0.00    -0.167 F 
ATOM     21  F   UNL A   1      31.394  26.815  23.463  1.00  0.00    -0.167 F 
ENDBRANCH  17  18
ENDBRANCH   4   6
ENDBRANCH   3   4
ENDBRANCH   2   3
ENDBRANCH   1   2
BRANCH   1  22
ATOM     22  O   UNL A   1      35.686  31.228  27.980  1.00  0.00    -0.458 OA
BRANCH  22  23
ATOM     23  C   UNL A   1      36.273  30.862  29.141  1.00  0.00     0.338 C 
ATOM     24  O   UNL A   1      35.860  31.056  30.271  1.00  0.00    -0.246 OA
BRANCH  23  25
ATOM     25  C   UNL A   1      37.499  30.096  28.869  1.00  0.00     0.060 A 
ATOM     26  C   UNL A   1      38.280  29.690  29.943  1.00  0.00     0.016 A 
ATOM     27  C   UNL A   1      37.978  29.958  27.568  1.00  0.00     0.016 A 
ATOM     28  C   UNL A   1      39.604  29.320  29.739  1.00  0.00     0.010 A 
ATOM     29  C   UNL A   1      39.258  29.427  27.360  1.00  0.00     0.010 A 
ATOM     30  C   UNL A   1      40.115  29.161  28.443  1.00  0.00    -0.014 A 
BRANCH  30  31
ATOM     31  C   UNL A   1      41.543  28.764  28.242  1.00  0.00     0.031 A 
ATOM     32  C   UNL A   1      42.651  29.775  28.425  1.00  0.00     0.074 A 
ATOM     33  C   UNL A   1      41.858  27.485  27.940  1.00  0.00     0.049 A 
ATOM     34  N   UNL A   1      43.928  29.659  28.160  1.00  0.00    -0.248 NA
ATOM     35  C   UNL A   1      42.277  31.096  28.961  1.00  0.00     0.031 C 
ATOM     36  C   UNL A   1      40.898  26.390  27.777  1.00  0.00     0.029 A 
ATOM     37  N   UNL A   1      43.074  26.878  27.740  1.00  0.00    -0.354 N 
ATOM     38  C   UNL A   1      44.495  30.898  28.443  1.00  0.00     0.074 A 
ATOM     39  C   UNL A   1      43.421  31.761  28.881  1.00  0.00     0.031 C 
ATOM     40  C   UNL A   1      41.560  25.241  27.581  1.00  0.00     0.029 A 
ATOM     41  C   UNL A   1      42.985  25.527  27.485  1.00  0.00     0.049 A 
ATOM     42  H   UNL A   1      43.931  27.363  27.775  1.00  0.00     0.167 HD
ATOM     43  C   UNL A   1      45.793  31.277  28.359  1.00  0.00     0.037 A 
ATOM     44  C   UNL A   1      43.931  24.622  27.165  1.00  0.00     0.037 A 
ATOM     45  C   UNL A   1      46.867  30.393  27.988  1.00  0.00     0.049 A 
ATOM     46  C   UNL A   1      45.354  25.080  27.018  1.00  0.00     0.074 A 
ATOM     47  C   UNL A   1      48.218  30.676  27.892  1.00  0.00     0.029 A 
ATOM     48  N   UNL A   1      46.716  29.051  27.672  1.00  0.00    -0.354 N 
ATOM     49  N   UNL A   1      45.861  26.268  27.242  1.00  0.00    -0.248 NA
ATOM     50  C   UNL A   1      46.327  24.088  26.541  1.00  0.00     0.031 C 
ATOM     51  C   UNL A   1      48.879  29.517  27.478  1.00  0.00     0.029 A 
ATOM     52  C   UNL A   1      47.947  28.499  27.357  1.00  0.00     0.049 A 
ATOM     53  H   UNL A   1      45.861  28.563  27.671  1.00  0.00     0.167 HD
ATOM     54  C   UNL A   1      47.211  26.168  26.933  1.00  0.00     0.074 A 
ATOM     55  C   UNL A   1      47.449  24.796  26.532  1.00  0.00     0.031 C 
ATOM     56  C   UNL A   1      48.165  27.129  26.964  1.00  0.00     0.037 A 
BRANCH  43  57
ATOM     57  C   UNL A   1      46.135  32.713  28.663  1.00  0.00     0.058 A 
ATOM     58  C   UNL A   1      46.504  33.130  29.950  1.00  0.00     0.135 A 
ATOM     59  C   UNL A   1      46.153  33.671  27.635  1.00  0.00     0.135 A 
ATOM     60  F   UNL A   1      46.492  32.261  30.973  1.00  0.00    -0.206 F 
ATOM     61  C   UNL A   1      46.860  34.451  30.213  1.00  0.00     0.059 A 
ATOM     62  C   UNL A   1      46.531  34.989  27.868  1.00  0.00     0.059 A 
ATOM     63  F   UNL A   1      45.810  33.326  26.383  1.00  0.00    -0.206 F 
ATOM     64  C   UNL A   1      46.874  35.373  29.164  1.00  0.00     0.060 A 
BRANCH  64  65
ATOM     65  S   UNL A   1      47.353  37.076  29.522  1.00  0.00     0.124 S 
ATOM     66  O   UNL A   1      48.367  37.316  28.499  1.00  0.00    -0.237 OA
ATOM     67  O   UNL A   1      46.096  37.795  29.347  1.00  0.00    -0.237 OA
ATOM     68  O   UNL A   1      47.852  37.011  30.893  1.00  0.00    -0.744 OA
ENDBRANCH  64  65
ENDBRANCH  43  57
BRANCH  44  69
ATOM     69  C   UNL A   1      43.551  23.202  26.920  1.00  0.00     0.058 A 
ATOM     70  C   UNL A   1      43.174  22.364  27.978  1.00  0.00     0.135 A 
ATOM     71  C   UNL A   1      43.530  22.664  25.623  1.00  0.00     0.135 A 
ATOM     72  F   UNL A   1      43.191  22.826  29.238  1.00  0.00    -0.206 F 
ATOM     73  C   UNL A   1      42.790  21.044  27.762  1.00  0.00     0.059 A 
ATOM     74  C   UNL A   1      43.120  21.357  25.377  1.00  0.00     0.059 A 
ATOM     75  F   UNL A   1      43.874  23.425  24.572  1.00  0.00    -0.206 F 
ATOM     76  C   UNL A   1      42.759  20.551  26.456  1.00  0.00     0.060 A 
BRANCH  76  77
ATOM     77  S   UNL A   1      42.207  18.854  26.183  1.00  0.00     0.124 S 
ATOM     78  O   UNL A   1      42.415  18.262  27.498  1.00  0.00    -0.237 OA
ATOM     79  O   UNL A   1      40.817  19.047  25.780  1.00  0.00    -0.237 OA
ATOM     80  O   UNL A   1      43.097  18.376  25.128  1.00  0.00    -0.744 OA
ENDBRANCH  76  77
ENDBRANCH  44  69
BRANCH  56  81
ATOM     81  C   UNL A   1      49.557  26.745  26.554  1.00  0.00     0.058 A 
ATOM     82  C   UNL A   1      50.400  26.039  27.427  1.00  0.00     0.135 A 
ATOM     83  C   UNL A   1      50.013  26.988  25.249  1.00  0.00     0.135 A 
ATOM     84  F   UNL A   1      50.013  25.793  28.689  1.00  0.00    -0.206 F 
ATOM     85  C   UNL A   1      51.646  25.579  27.016  1.00  0.00     0.059 A 
ATOM     86  C   UNL A   1      51.245  26.517  24.809  1.00  0.00     0.059 A 
ATOM     87  F   UNL A   1      49.241  27.655  24.377  1.00  0.00    -0.206 F 
ATOM     88  C   UNL A   1      52.054  25.810  25.700  1.00  0.00     0.060 A 
BRANCH  88  89
ATOM     89  S   UNL A   1      53.637  25.132  25.161  1.00  0.00     0.124 S 
ATOM     90  O   UNL A   1      53.416  23.699  25.324  1.00  0.00    -0.237 OA
ATOM     91  O   UNL A   1      53.724  25.608  23.785  1.00  0.00    -0.237 OA
ATOM     92  O   UNL A   1      54.597  25.727  26.087  1.00  0.00    -0.744 OA
ENDBRANCH  88  89
ENDBRANCH  56  81
ENDBRANCH  30  31
ENDBRANCH  23  25
ENDBRANCH  22  23
ENDBRANCH   1  22
TORSDOF 15
ENDMDL
