MODEL 1
REMARK VINA RESULT:     -11.3      0.000      0.000
REMARK SMILES CCn1cccc1C(=O)N1CC[C@H](C(=O)OCCOC(=O)c2ccc(-c3c4nc(c(-c5c(F)cc(S(=O)(=O)[O-])cc5F)c5ccc([nH]5)c(-c5c(F)cc(S(=O)(=O)[O-])cc5F)c5nc(c(-c6c(F)cc(S(=O)(=O)[O-])cc6F)c6ccc3[nH]6)C=C5)C=C4)cc2)[C@H]1C
REMARK SMILES IDX 17 1 16 2 14 3 15 4 13 5 10 6 11 7 88 8 12 9 89 10 8 11 9 12
REMARK SMILES IDX 7 13 3 14 4 15 5 16 6 17 2 18 1 19 18 20 19 21 20 22 21 23
REMARK SMILES IDX 22 24 23 25 87 26 24 27 86 28 25 29 26 30 27 31 80 32 28 33
REMARK SMILES IDX 85 34 79 35 81 36 29 37 84 38 78 39 77 40 30 42 64 43 43 44
REMARK SMILES IDX 63 45 44 46 47 47 62 48 82 49 45 50 46 51 61 53 83 54 48 55
REMARK SMILES IDX 31 56 32 57 41 58 33 59 34 60 40 61 42 62 35 63 36 64 37 65
REMARK SMILES IDX 38 66 39 67 65 68 66 69 75 70 67 71 68 72 74 73 76 74 69 75
REMARK SMILES IDX 70 76 71 77 72 78 73 79 49 80 50 81 59 82 51 83 52 84 58 85
REMARK SMILES IDX 60 86 53 87 54 88 55 89 56 90 57 91
REMARK H PARENT 81 41 47 52
REMARK Flexibility Score: inf
ROOT
ATOM      1  C   UNL A   1      32.523  30.515  26.869  1.00  0.00     0.274 C 
ENDROOT
BRANCH   1   2
ATOM      2  O   UNL A   1      32.819  29.146  26.512  1.00  0.00    -0.462 OA
BRANCH   2   3
ATOM      3  C   UNL A   1      31.826  28.229  26.739  1.00  0.00     0.311 C 
ATOM      4  O   UNL A   1      31.218  28.115  27.780  1.00  0.00    -0.252 OA
BRANCH   3   5
ATOM      5  C   UNL A   1      31.616  27.339  25.511  1.00  0.00     0.123 C 
ATOM      6  N   UNL A   1      31.517  24.944  25.877  1.00  0.00    -0.334 N 
ATOM      7  C   UNL A   1      32.906  25.370  25.880  1.00  0.00     0.121 C 
ATOM      8  C   UNL A   1      30.666  26.153  25.802  1.00  0.00     0.096 C 
ATOM      9  C   UNL A   1      32.923  26.668  25.102  1.00  0.00     0.039 C 
ATOM     10  C   UNL A   1      29.535  26.115  24.796  1.00  0.00     0.032 C 
BRANCH   6  11
ATOM     11  C   UNL A   1      31.272  23.765  26.607  1.00  0.00     0.270 C 
ATOM     12  O   UNL A   1      30.217  23.697  27.248  1.00  0.00    -0.267 OA
BRANCH  11  13
ATOM     13  C   UNL A   1      32.213  22.651  26.711  1.00  0.00     0.107 A 
ATOM     14  N   UNL A   1      32.731  21.797  25.749  1.00  0.00    -0.344 N 
ATOM     15  C   UNL A   1      33.835  21.132  26.247  1.00  0.00     0.086 A 
ATOM     16  C   UNL A   1      34.029  21.513  27.547  1.00  0.00     0.020 A 
ATOM     17  C   UNL A   1      33.020  22.452  27.839  1.00  0.00     0.033 A 
BRANCH  14  18
ATOM     18  C   UNL A   1      32.357  21.666  24.352  1.00  0.00     0.119 C 
ATOM     19  C   UNL A   1      32.527  20.238  23.840  1.00  0.00     0.027 C 
ENDBRANCH  14  18
ENDBRANCH  11  13
ENDBRANCH   6  11
ENDBRANCH   3   5
ENDBRANCH   2   3
ENDBRANCH   1   2
BRANCH   1  20
ATOM     20  C   UNL A   1      33.651  31.226  27.627  1.00  0.00     0.275 C 
BRANCH  20  21
ATOM     21  O   UNL A   1      33.863  32.578  27.204  1.00  0.00    -0.458 OA
BRANCH  21  22
ATOM     22  C   UNL A   1      33.503  33.461  28.154  1.00  0.00     0.338 C 
ATOM     23  O   UNL A   1      32.530  34.210  28.125  1.00  0.00    -0.246 OA
BRANCH  22  24
ATOM     24  C   UNL A   1      34.500  33.612  29.208  1.00  0.00     0.060 A 
ATOM     25  C   UNL A   1      35.725  34.137  28.795  1.00  0.00     0.016 A 
ATOM     26  C   UNL A   1      34.396  32.779  30.324  1.00  0.00     0.016 A 
ATOM     27  C   UNL A   1      36.884  33.615  29.300  1.00  0.00     0.010 A 
ATOM     28  C   UNL A   1      35.565  32.323  30.908  1.00  0.00     0.010 A 
ATOM     29  C   UNL A   1      36.795  32.695  30.343  1.00  0.00    -0.014 A 
BRANCH  29  30
ATOM     30  C   UNL A   1      38.065  32.397  31.003  1.00  0.00     0.031 A 
ATOM     31  C   UNL A   1      38.694  31.148  30.289  1.00  0.00     0.074 A 
ATOM     32  C   UNL A   1      38.370  33.197  32.078  1.00  0.00     0.049 A 
ATOM     33  N   UNL A   1      39.559  30.276  30.707  1.00  0.00    -0.248 NA
ATOM     34  C   UNL A   1      38.222  30.773  28.912  1.00  0.00     0.031 C 
ATOM     35  C   UNL A   1      37.560  34.340  32.588  1.00  0.00     0.029 A 
ATOM     36  N   UNL A   1      39.415  33.222  32.973  1.00  0.00    -0.354 N 
ATOM     37  C   UNL A   1      39.930  29.477  29.592  1.00  0.00     0.074 A 
ATOM     38  C   UNL A   1      38.962  29.717  28.574  1.00  0.00     0.031 C 
ATOM     39  C   UNL A   1      38.097  34.868  33.716  1.00  0.00     0.029 A 
ATOM     40  C   UNL A   1      39.325  34.168  34.041  1.00  0.00     0.049 A 
ATOM     41  H   UNL A   1      40.189  32.619  32.880  1.00  0.00     0.167 HD
ATOM     42  C   UNL A   1      41.116  28.802  29.515  1.00  0.00     0.037 A 
ATOM     43  C   UNL A   1      40.180  34.323  35.110  1.00  0.00     0.037 A 
ATOM     44  C   UNL A   1      41.842  28.997  30.723  1.00  0.00     0.049 A 
ATOM     45  C   UNL A   1      41.314  33.465  34.744  1.00  0.00     0.074 A 
ATOM     46  C   UNL A   1      41.644  28.501  31.983  1.00  0.00     0.029 A 
ATOM     47  N   UNL A   1      42.640  30.114  30.784  1.00  0.00    -0.354 N 
ATOM     48  N   UNL A   1      42.156  33.726  33.790  1.00  0.00    -0.248 NA
ATOM     49  C   UNL A   1      41.441  32.163  35.405  1.00  0.00     0.031 C 
ATOM     50  C   UNL A   1      41.868  29.632  32.790  1.00  0.00     0.029 A 
ATOM     51  C   UNL A   1      42.480  30.646  32.039  1.00  0.00     0.049 A 
ATOM     52  H   UNL A   1      43.215  30.466  30.066  1.00  0.00     0.167 HD
ATOM     53  C   UNL A   1      42.681  32.490  33.519  1.00  0.00     0.074 A 
ATOM     54  C   UNL A   1      42.465  31.681  34.706  1.00  0.00     0.031 C 
ATOM     55  C   UNL A   1      42.764  32.051  32.236  1.00  0.00     0.037 A 
BRANCH  42  56
ATOM     56  C   UNL A   1      41.872  28.162  28.383  1.00  0.00     0.058 A 
ATOM     57  C   UNL A   1      41.958  26.746  28.380  1.00  0.00     0.135 A 
ATOM     58  C   UNL A   1      42.798  28.841  27.579  1.00  0.00     0.135 A 
ATOM     59  F   UNL A   1      41.067  26.004  29.057  1.00  0.00    -0.206 F 
ATOM     60  C   UNL A   1      43.000  26.062  27.768  1.00  0.00     0.059 A 
ATOM     61  C   UNL A   1      43.828  28.165  26.912  1.00  0.00     0.059 A 
ATOM     62  F   UNL A   1      42.781  30.177  27.486  1.00  0.00    -0.206 F 
ATOM     63  C   UNL A   1      43.956  26.784  27.068  1.00  0.00     0.060 A 
BRANCH  63  64
ATOM     64  S   UNL A   1      45.377  25.887  26.408  1.00  0.00     0.124 S 
ATOM     65  O   UNL A   1      45.625  26.598  25.159  1.00  0.00    -0.237 OA
ATOM     66  O   UNL A   1      46.377  26.083  27.454  1.00  0.00    -0.237 OA
ATOM     67  O   UNL A   1      44.881  24.521  26.275  1.00  0.00    -0.744 OA
ENDBRANCH  63  64
ENDBRANCH  42  56
BRANCH  43  68
ATOM     68  C   UNL A   1      40.292  34.974  36.487  1.00  0.00     0.058 A 
ATOM     69  C   UNL A   1      41.125  36.039  36.856  1.00  0.00     0.135 A 
ATOM     70  C   UNL A   1      39.346  34.616  37.502  1.00  0.00     0.135 A 
ATOM     71  F   UNL A   1      42.152  36.400  36.077  1.00  0.00    -0.206 F 
ATOM     72  C   UNL A   1      40.915  36.788  38.043  1.00  0.00     0.059 A 
ATOM     73  C   UNL A   1      39.076  35.375  38.639  1.00  0.00     0.059 A 
ATOM     74  F   UNL A   1      38.595  33.509  37.410  1.00  0.00    -0.206 F 
ATOM     75  C   UNL A   1      39.843  36.490  38.889  1.00  0.00     0.060 A 
BRANCH  75  76
ATOM     76  S   UNL A   1      39.347  37.609  40.225  1.00  0.00     0.124 S 
ATOM     77  O   UNL A   1      40.563  38.382  40.451  1.00  0.00    -0.237 OA
ATOM     78  O   UNL A   1      38.231  38.337  39.628  1.00  0.00    -0.237 OA
ATOM     79  O   UNL A   1      38.973  36.699  41.306  1.00  0.00    -0.744 OA
ENDBRANCH  75  76
ENDBRANCH  43  68
BRANCH  55  80
ATOM     80  C   UNL A   1      42.794  33.133  31.158  1.00  0.00     0.058 A 
ATOM     81  C   UNL A   1      43.887  34.005  31.050  1.00  0.00     0.135 A 
ATOM     82  C   UNL A   1      41.751  33.379  30.246  1.00  0.00     0.135 A 
ATOM     83  F   UNL A   1      44.948  33.846  31.857  1.00  0.00    -0.206 F 
ATOM     84  C   UNL A   1      43.939  35.039  30.102  1.00  0.00     0.059 A 
ATOM     85  C   UNL A   1      41.765  34.406  29.296  1.00  0.00     0.059 A 
ATOM     86  F   UNL A   1      40.675  32.603  30.233  1.00  0.00    -0.206 F 
ATOM     87  C   UNL A   1      42.874  35.231  29.222  1.00  0.00     0.060 A 
BRANCH  87  88
ATOM     88  S   UNL A   1      42.974  36.527  27.966  1.00  0.00     0.124 S 
ATOM     89  O   UNL A   1      42.739  35.788  26.729  1.00  0.00    -0.237 OA
ATOM     90  O   UNL A   1      41.902  37.429  28.375  1.00  0.00    -0.237 OA
ATOM     91  O   UNL A   1      44.326  37.057  28.119  1.00  0.00    -0.744 OA
ENDBRANCH  87  88
ENDBRANCH  55  80
ENDBRANCH  29  30
ENDBRANCH  22  24
ENDBRANCH  21  22
ENDBRANCH  20  21
ENDBRANCH   1  20
TORSDOF 17
ENDMDL
MODEL 2
REMARK VINA RESULT:     -11.1      5.292     11.507
REMARK SMILES CCn1cccc1C(=O)N1CC[C@H](C(=O)OCCOC(=O)c2ccc(-c3c4nc(c(-c5c(F)cc(S(=O)(=O)[O-])cc5F)c5ccc([nH]5)c(-c5c(F)cc(S(=O)(=O)[O-])cc5F)c5nc(c(-c6c(F)cc(S(=O)(=O)[O-])cc6F)c6ccc3[nH]6)C=C5)C=C4)cc2)[C@H]1C
REMARK SMILES IDX 17 1 16 2 14 3 15 4 13 5 10 6 11 7 88 8 12 9 89 10 8 11 9 12
REMARK SMILES IDX 7 13 3 14 4 15 5 16 6 17 2 18 1 19 18 20 19 21 20 22 21 23
REMARK SMILES IDX 22 24 23 25 87 26 24 27 86 28 25 29 26 30 27 31 80 32 28 33
REMARK SMILES IDX 85 34 79 35 81 36 29 37 84 38 78 39 77 40 30 42 64 43 43 44
REMARK SMILES IDX 63 45 44 46 47 47 62 48 82 49 45 50 46 51 61 53 83 54 48 55
REMARK SMILES IDX 31 56 32 57 41 58 33 59 34 60 40 61 42 62 35 63 36 64 37 65
REMARK SMILES IDX 38 66 39 67 65 68 66 69 75 70 67 71 68 72 74 73 76 74 69 75
REMARK SMILES IDX 70 76 71 77 72 78 73 79 49 80 50 81 59 82 51 83 52 84 58 85
REMARK SMILES IDX 60 86 53 87 54 88 55 89 56 90 57 91
REMARK H PARENT 81 41 47 52
REMARK Flexibility Score: inf
ROOT
ATOM      1  C   UNL A   1      38.227  20.057  24.985  1.00  0.00     0.274 C 
ENDROOT
BRANCH   1   2
ATOM      2  O   UNL A   1      37.462  21.095  25.637  1.00  0.00    -0.462 OA
BRANCH   2   3
ATOM      3  C   UNL A   1      36.734  21.920  24.820  1.00  0.00     0.311 C 
ATOM      4  O   UNL A   1      36.948  22.086  23.640  1.00  0.00    -0.252 OA
BRANCH   3   5
ATOM      5  C   UNL A   1      35.635  22.636  25.611  1.00  0.00     0.123 C 
ATOM      6  N   UNL A   1      33.348  21.931  25.220  1.00  0.00    -0.334 N 
ATOM      7  C   UNL A   1      33.765  22.816  24.145  1.00  0.00     0.121 C 
ATOM      8  C   UNL A   1      34.524  21.665  26.078  1.00  0.00     0.096 C 
ATOM      9  C   UNL A   1      34.898  23.634  24.725  1.00  0.00     0.039 C 
ATOM     10  C   UNL A   1      34.304  21.783  27.572  1.00  0.00     0.032 C 
BRANCH   6  11
ATOM     11  C   UNL A   1      32.323  21.033  24.864  1.00  0.00     0.270 C 
ATOM     12  O   UNL A   1      31.194  21.242  25.320  1.00  0.00    -0.267 OA
BRANCH  11  13
ATOM     13  C   UNL A   1      32.525  19.835  24.050  1.00  0.00     0.107 A 
ATOM     14  N   UNL A   1      32.654  18.499  24.401  1.00  0.00    -0.344 N 
ATOM     15  C   UNL A   1      32.482  17.696  23.291  1.00  0.00     0.086 A 
ATOM     16  C   UNL A   1      32.277  18.494  22.197  1.00  0.00     0.020 A 
ATOM     17  C   UNL A   1      32.309  19.822  22.666  1.00  0.00     0.033 A 
BRANCH  14  18
ATOM     18  C   UNL A   1      32.781  17.915  25.725  1.00  0.00     0.119 C 
ATOM     19  C   UNL A   1      32.991  16.404  25.670  1.00  0.00     0.027 C 
ENDBRANCH  14  18
ENDBRANCH  11  13
ENDBRANCH   6  11
ENDBRANCH   3   5
ENDBRANCH   2   3
ENDBRANCH   1   2
BRANCH   1  20
ATOM     20  C   UNL A   1      39.234  19.347  25.899  1.00  0.00     0.275 C 
BRANCH  20  21
ATOM     21  O   UNL A   1      40.549  19.253  25.342  1.00  0.00    -0.458 OA
BRANCH  21  22
ATOM     22  C   UNL A   1      41.499  19.560  26.245  1.00  0.00     0.338 C 
ATOM     23  O   UNL A   1      42.266  18.776  26.796  1.00  0.00    -0.246 OA
BRANCH  22  24
ATOM     24  C   UNL A   1      41.441  20.948  26.692  1.00  0.00     0.060 A 
ATOM     25  C   UNL A   1      41.613  21.903  25.689  1.00  0.00     0.016 A 
ATOM     26  C   UNL A   1      41.765  21.216  28.024  1.00  0.00     0.016 A 
ATOM     27  C   UNL A   1      42.371  23.013  25.941  1.00  0.00     0.010 A 
ATOM     28  C   UNL A   1      42.446  22.387  28.307  1.00  0.00     0.010 A 
ATOM     29  C   UNL A   1      42.799  23.238  27.248  1.00  0.00    -0.014 A 
BRANCH  29  30
ATOM     30  C   UNL A   1      43.361  24.567  27.484  1.00  0.00     0.031 A 
ATOM     31  C   UNL A   1      42.165  25.567  27.667  1.00  0.00     0.074 A 
ATOM     32  C   UNL A   1      44.732  24.641  27.434  1.00  0.00     0.049 A 
ATOM     33  N   UNL A   1      42.101  26.854  27.507  1.00  0.00    -0.248 NA
ATOM     34  C   UNL A   1      40.804  25.031  28.011  1.00  0.00     0.031 C 
ATOM     35  C   UNL A   1      45.672  23.506  27.209  1.00  0.00     0.029 A 
ATOM     36  N   UNL A   1      45.629  25.678  27.556  1.00  0.00    -0.354 N 
ATOM     37  C   UNL A   1      40.838  27.280  27.999  1.00  0.00     0.074 A 
ATOM     38  C   UNL A   1      40.034  26.112  28.134  1.00  0.00     0.031 C 
ATOM     39  C   UNL A   1      46.958  23.931  27.132  1.00  0.00     0.029 A 
ATOM     40  C   UNL A   1      47.007  25.365  27.338  1.00  0.00     0.049 A 
ATOM     41  H   UNL A   1      45.336  26.591  27.782  1.00  0.00     0.167 HD
ATOM     42  C   UNL A   1      40.595  28.553  28.435  1.00  0.00     0.037 A 
ATOM     43  C   UNL A   1      48.078  26.232  27.304  1.00  0.00     0.037 A 
ATOM     44  C   UNL A   1      41.767  29.338  28.257  1.00  0.00     0.049 A 
ATOM     45  C   UNL A   1      47.492  27.489  27.788  1.00  0.00     0.074 A 
ATOM     46  C   UNL A   1      42.353  29.840  27.126  1.00  0.00     0.029 A 
ATOM     47  N   UNL A   1      42.684  29.311  29.281  1.00  0.00    -0.354 N 
ATOM     48  N   UNL A   1      47.117  27.702  29.014  1.00  0.00    -0.248 NA
ATOM     49  C   UNL A   1      47.185  28.534  26.808  1.00  0.00     0.031 C 
ATOM     50  C   UNL A   1      43.718  29.582  27.355  1.00  0.00     0.029 A 
ATOM     51  C   UNL A   1      43.925  29.240  28.699  1.00  0.00     0.049 A 
ATOM     52  H   UNL A   1      42.488  29.336  30.246  1.00  0.00     0.167 HD
ATOM     53  C   UNL A   1      46.238  28.743  28.872  1.00  0.00     0.074 A 
ATOM     54  C   UNL A   1      46.567  29.392  27.615  1.00  0.00     0.031 C 
ATOM     55  C   UNL A   1      45.020  28.693  29.470  1.00  0.00     0.037 A 
BRANCH  42  56
ATOM     56  C   UNL A   1      39.498  29.174  29.256  1.00  0.00     0.058 A 
ATOM     57  C   UNL A   1      38.561  29.991  28.573  1.00  0.00     0.135 A 
ATOM     58  C   UNL A   1      39.556  29.327  30.648  1.00  0.00     0.135 A 
ATOM     59  F   UNL A   1      38.377  29.864  27.249  1.00  0.00    -0.206 F 
ATOM     60  C   UNL A   1      37.861  31.013  29.202  1.00  0.00     0.059 A 
ATOM     61  C   UNL A   1      38.820  30.320  31.309  1.00  0.00     0.059 A 
ATOM     62  F   UNL A   1      40.384  28.581  31.390  1.00  0.00    -0.206 F 
ATOM     63  C   UNL A   1      38.028  31.196  30.567  1.00  0.00     0.060 A 
BRANCH  63  64
ATOM     64  S   UNL A   1      37.223  32.620  31.333  1.00  0.00     0.124 S 
ATOM     65  O   UNL A   1      37.259  33.600  30.253  1.00  0.00    -0.237 OA
ATOM     66  O   UNL A   1      35.902  32.089  31.657  1.00  0.00    -0.237 OA
ATOM     67  O   UNL A   1      38.073  32.910  32.483  1.00  0.00    -0.744 OA
ENDBRANCH  63  64
ENDBRANCH  42  56
BRANCH  43  68
ATOM     68  C   UNL A   1      49.541  26.334  26.878  1.00  0.00     0.058 A 
ATOM     69  C   UNL A   1      50.665  26.392  27.712  1.00  0.00     0.135 A 
ATOM     70  C   UNL A   1      49.871  26.182  25.491  1.00  0.00     0.135 A 
ATOM     71  F   UNL A   1      50.531  26.672  29.015  1.00  0.00    -0.206 F 
ATOM     72  C   UNL A   1      51.977  26.141  27.234  1.00  0.00     0.059 A 
ATOM     73  C   UNL A   1      51.138  25.867  25.007  1.00  0.00     0.059 A 
ATOM     74  F   UNL A   1      48.945  26.294  24.528  1.00  0.00    -0.206 F 
ATOM     75  C   UNL A   1      52.191  25.810  25.892  1.00  0.00     0.060 A 
BRANCH  75  76
ATOM     76  S   UNL A   1      53.785  25.169  25.314  1.00  0.00     0.124 S 
ATOM     77  O   UNL A   1      54.704  25.654  26.337  1.00  0.00    -0.237 OA
ATOM     78  O   UNL A   1      53.556  23.728  25.295  1.00  0.00    -0.237 OA
ATOM     79  O   UNL A   1      53.935  25.781  23.995  1.00  0.00    -0.744 OA
ENDBRANCH  75  76
ENDBRANCH  43  68
BRANCH  55  80
ATOM     80  C   UNL A   1      44.907  27.774  30.686  1.00  0.00     0.058 A 
ATOM     81  C   UNL A   1      45.644  28.035  31.851  1.00  0.00     0.135 A 
ATOM     82  C   UNL A   1      44.129  26.603  30.731  1.00  0.00     0.135 A 
ATOM     83  F   UNL A   1      46.404  29.139  31.924  1.00  0.00    -0.206 F 
ATOM     84  C   UNL A   1      45.602  27.196  32.975  1.00  0.00     0.059 A 
ATOM     85  C   UNL A   1      44.072  25.740  31.831  1.00  0.00     0.059 A 
ATOM     86  F   UNL A   1      43.366  26.265  29.700  1.00  0.00    -0.206 F 
ATOM     87  C   UNL A   1      44.808  26.050  32.961  1.00  0.00     0.060 A 
BRANCH  87  88
ATOM     88  S   UNL A   1      44.715  25.007  34.434  1.00  0.00     0.124 S 
ATOM     89  O   UNL A   1      45.467  25.780  35.417  1.00  0.00    -0.237 OA
ATOM     90  O   UNL A   1      43.275  24.928  34.659  1.00  0.00    -0.237 OA
ATOM     91  O   UNL A   1      45.350  23.759  34.018  1.00  0.00    -0.744 OA
ENDBRANCH  87  88
ENDBRANCH  55  80
ENDBRANCH  29  30
ENDBRANCH  22  24
ENDBRANCH  21  22
ENDBRANCH  20  21
ENDBRANCH   1  20
TORSDOF 17
ENDMDL
MODEL 3
REMARK VINA RESULT:     -11.0      5.102     11.584
REMARK SMILES CCn1cccc1C(=O)N1CC[C@H](C(=O)OCCOC(=O)c2ccc(-c3c4nc(c(-c5c(F)cc(S(=O)(=O)[O-])cc5F)c5ccc([nH]5)c(-c5c(F)cc(S(=O)(=O)[O-])cc5F)c5nc(c(-c6c(F)cc(S(=O)(=O)[O-])cc6F)c6ccc3[nH]6)C=C5)C=C4)cc2)[C@H]1C
REMARK SMILES IDX 17 1 16 2 14 3 15 4 13 5 10 6 11 7 88 8 12 9 89 10 8 11 9 12
REMARK SMILES IDX 7 13 3 14 4 15 5 16 6 17 2 18 1 19 18 20 19 21 20 22 21 23
REMARK SMILES IDX 22 24 23 25 87 26 24 27 86 28 25 29 26 30 27 31 80 32 28 33
REMARK SMILES IDX 85 34 79 35 81 36 29 37 84 38 78 39 77 40 30 42 64 43 43 44
REMARK SMILES IDX 63 45 44 46 47 47 62 48 82 49 45 50 46 51 61 53 83 54 48 55
REMARK SMILES IDX 31 56 32 57 41 58 33 59 34 60 40 61 42 62 35 63 36 64 37 65
REMARK SMILES IDX 38 66 39 67 65 68 66 69 75 70 67 71 68 72 74 73 76 74 69 75
REMARK SMILES IDX 70 76 71 77 72 78 73 79 49 80 50 81 59 82 51 83 52 84 58 85
REMARK SMILES IDX 60 86 53 87 54 88 55 89 56 90 57 91
REMARK H PARENT 81 41 47 52
REMARK Flexibility Score: inf
ROOT
ATOM      1  C   UNL A   1      37.871  21.879  24.977  1.00  0.00     0.274 C 
ENDROOT
BRANCH   1   2
ATOM      2  O   UNL A   1      36.465  21.691  24.700  1.00  0.00    -0.462 OA
BRANCH   2   3
ATOM      3  C   UNL A   1      35.916  22.507  23.746  1.00  0.00     0.311 C 
ATOM      4  O   UNL A   1      36.531  23.009  22.832  1.00  0.00    -0.252 OA
BRANCH   3   5
ATOM      5  C   UNL A   1      34.425  22.731  24.014  1.00  0.00     0.123 C 
ATOM      6  N   UNL A   1      33.467  24.831  23.273  1.00  0.00    -0.334 N 
ATOM      7  C   UNL A   1      34.177  25.046  24.523  1.00  0.00     0.121 C 
ATOM      8  C   UNL A   1      33.719  23.440  22.834  1.00  0.00     0.096 C 
ATOM      9  C   UNL A   1      34.227  23.687  25.186  1.00  0.00     0.039 C 
ATOM     10  C   UNL A   1      32.508  22.650  22.384  1.00  0.00     0.032 C 
BRANCH   6  11
ATOM     11  C   UNL A   1      33.359  25.980  22.465  1.00  0.00     0.270 C 
ATOM     12  O   UNL A   1      33.690  25.879  21.278  1.00  0.00    -0.267 OA
BRANCH  11  13
ATOM     13  C   UNL A   1      32.948  27.295  22.956  1.00  0.00     0.107 A 
ATOM     14  N   UNL A   1      31.694  27.819  23.232  1.00  0.00    -0.344 N 
ATOM     15  C   UNL A   1      31.814  28.965  23.993  1.00  0.00     0.086 A 
ATOM     16  C   UNL A   1      33.144  29.226  24.191  1.00  0.00     0.020 A 
ATOM     17  C   UNL A   1      33.849  28.192  23.543  1.00  0.00     0.033 A 
BRANCH  14  18
ATOM     18  C   UNL A   1      30.388  27.245  22.959  1.00  0.00     0.119 C 
ATOM     19  C   UNL A   1      29.267  28.273  23.092  1.00  0.00     0.027 C 
ENDBRANCH  14  18
ENDBRANCH  11  13
ENDBRANCH   6  11
ENDBRANCH   3   5
ENDBRANCH   2   3
ENDBRANCH   1   2
BRANCH   1  20
ATOM     20  C   UNL A   1      38.606  20.602  25.403  1.00  0.00     0.275 C 
BRANCH  20  21
ATOM     21  O   UNL A   1      39.564  20.812  26.446  1.00  0.00    -0.458 OA
BRANCH  21  22
ATOM     22  C   UNL A   1      40.751  20.246  26.157  1.00  0.00     0.338 C 
ATOM     23  O   UNL A   1      40.949  19.070  25.864  1.00  0.00    -0.246 OA
BRANCH  22  24
ATOM     24  C   UNL A   1      41.885  21.130  26.400  1.00  0.00     0.060 A 
ATOM     25  C   UNL A   1      42.217  21.314  27.744  1.00  0.00     0.016 A 
ATOM     26  C   UNL A   1      42.175  22.096  25.434  1.00  0.00     0.016 A 
ATOM     27  C   UNL A   1      42.570  22.559  28.184  1.00  0.00     0.010 A 
ATOM     28  C   UNL A   1      42.630  23.331  25.862  1.00  0.00     0.010 A 
ATOM     29  C   UNL A   1      42.756  23.566  27.240  1.00  0.00    -0.014 A 
BRANCH  29  30
ATOM     30  C   UNL A   1      43.390  24.778  27.757  1.00  0.00     0.031 A 
ATOM     31  C   UNL A   1      42.251  25.762  28.201  1.00  0.00     0.074 A 
ATOM     32  C   UNL A   1      44.762  24.800  27.683  1.00  0.00     0.049 A 
ATOM     33  N   UNL A   1      42.249  27.053  28.343  1.00  0.00    -0.248 NA
ATOM     34  C   UNL A   1      40.870  25.223  28.456  1.00  0.00     0.031 C 
ATOM     35  C   UNL A   1      45.637  23.706  27.173  1.00  0.00     0.029 A 
ATOM     36  N   UNL A   1      45.713  25.739  28.011  1.00  0.00    -0.354 N 
ATOM     37  C   UNL A   1      41.020  27.411  28.959  1.00  0.00     0.074 A 
ATOM     38  C   UNL A   1      40.160  26.281  28.848  1.00  0.00     0.031 C 
ATOM     39  C   UNL A   1      46.942  24.078  27.156  1.00  0.00     0.029 A 
ATOM     40  C   UNL A   1      47.069  25.423  27.684  1.00  0.00     0.049 A 
ATOM     41  H   UNL A   1      45.471  26.587  28.449  1.00  0.00     0.167 HD
ATOM     42  C   UNL A   1      40.851  28.558  29.683  1.00  0.00     0.037 A 
ATOM     43  C   UNL A   1      48.181  26.224  27.816  1.00  0.00     0.037 A 
ATOM     44  C   UNL A   1      42.059  29.309  29.653  1.00  0.00     0.049 A 
ATOM     45  C   UNL A   1      47.670  27.361  28.594  1.00  0.00     0.074 A 
ATOM     46  C   UNL A   1      42.647  30.032  28.650  1.00  0.00     0.029 A 
ATOM     47  N   UNL A   1      42.993  29.005  30.615  1.00  0.00    -0.354 N 
ATOM     48  N   UNL A   1      47.331  27.302  29.847  1.00  0.00    -0.248 NA
ATOM     49  C   UNL A   1      47.398  28.617  27.890  1.00  0.00     0.031 C 
ATOM     50  C   UNL A   1      44.000  29.666  28.771  1.00  0.00     0.029 A 
ATOM     51  C   UNL A   1      44.217  29.015  29.993  1.00  0.00     0.049 A 
ATOM     52  H   UNL A   1      42.818  28.816  31.565  1.00  0.00     0.167 HD
ATOM     53  C   UNL A   1      46.505  28.387  29.976  1.00  0.00     0.074 A 
ATOM     54  C   UNL A   1      46.841  29.292  28.891  1.00  0.00     0.031 C 
ATOM     55  C   UNL A   1      45.297  28.256  30.584  1.00  0.00     0.037 A 
BRANCH  42  56
ATOM     56  C   UNL A   1      39.805  29.023  30.658  1.00  0.00     0.058 A 
ATOM     57  C   UNL A   1      38.959  30.084  30.245  1.00  0.00     0.135 A 
ATOM     58  C   UNL A   1      39.854  28.770  32.036  1.00  0.00     0.135 A 
ATOM     59  F   UNL A   1      38.785  30.354  28.941  1.00  0.00    -0.206 F 
ATOM     60  C   UNL A   1      38.348  30.947  31.145  1.00  0.00     0.059 A 
ATOM     61  C   UNL A   1      39.204  29.599  32.959  1.00  0.00     0.059 A 
ATOM     62  F   UNL A   1      40.596  27.770  32.527  1.00  0.00    -0.206 F 
ATOM     63  C   UNL A   1      38.509  30.721  32.505  1.00  0.00     0.060 A 
BRANCH  63  64
ATOM     64  S   UNL A   1      37.829  31.939  33.650  1.00  0.00     0.124 S 
ATOM     65  O   UNL A   1      38.634  33.117  33.347  1.00  0.00    -0.237 OA
ATOM     66  O   UNL A   1      36.431  32.008  33.232  1.00  0.00    -0.237 OA
ATOM     67  O   UNL A   1      38.054  31.334  34.959  1.00  0.00    -0.744 OA
ENDBRANCH  63  64
ENDBRANCH  42  56
BRANCH  43  68
ATOM     68  C   UNL A   1      49.639  26.355  27.379  1.00  0.00     0.058 A 
ATOM     69  C   UNL A   1      50.768  26.428  28.205  1.00  0.00     0.135 A 
ATOM     70  C   UNL A   1      49.960  26.219  25.989  1.00  0.00     0.135 A 
ATOM     71  F   UNL A   1      50.639  26.698  29.511  1.00  0.00    -0.206 F 
ATOM     72  C   UNL A   1      52.081  26.205  27.715  1.00  0.00     0.059 A 
ATOM     73  C   UNL A   1      51.229  25.929  25.493  1.00  0.00     0.059 A 
ATOM     74  F   UNL A   1      49.025  26.320  25.034  1.00  0.00    -0.206 F 
ATOM     75  C   UNL A   1      52.290  25.885  26.370  1.00  0.00     0.060 A 
BRANCH  75  76
ATOM     76  S   UNL A   1      53.890  25.277  25.775  1.00  0.00     0.124 S 
ATOM     77  O   UNL A   1      54.779  25.609  26.883  1.00  0.00    -0.237 OA
ATOM     78  O   UNL A   1      53.630  23.856  25.570  1.00  0.00    -0.237 OA
ATOM     79  O   UNL A   1      54.106  26.042  24.547  1.00  0.00    -0.744 OA
ENDBRANCH  75  76
ENDBRANCH  43  68
BRANCH  55  80
ATOM     80  C   UNL A   1      45.162  27.087  31.559  1.00  0.00     0.058 A 
ATOM     81  C   UNL A   1      45.930  27.042  32.732  1.00  0.00     0.135 A 
ATOM     82  C   UNL A   1      44.330  25.971  31.356  1.00  0.00     0.135 A 
ATOM     83  F   UNL A   1      46.742  28.067  33.036  1.00  0.00    -0.206 F 
ATOM     84  C   UNL A   1      45.867  25.970  33.636  1.00  0.00     0.059 A 
ATOM     85  C   UNL A   1      44.251  24.881  32.230  1.00  0.00     0.059 A 
ATOM     86  F   UNL A   1      43.536  25.911  30.295  1.00  0.00    -0.206 F 
ATOM     87  C   UNL A   1      45.020  24.892  33.380  1.00  0.00     0.060 A 
BRANCH  87  88
ATOM     88  S   UNL A   1      44.903  23.543  34.577  1.00  0.00     0.124 S 
ATOM     89  O   UNL A   1      43.658  22.885  34.192  1.00  0.00    -0.237 OA
ATOM     90  O   UNL A   1      46.125  22.791  34.308  1.00  0.00    -0.237 OA
ATOM     91  O   UNL A   1      44.863  24.225  35.869  1.00  0.00    -0.744 OA
ENDBRANCH  87  88
ENDBRANCH  55  80
ENDBRANCH  29  30
ENDBRANCH  22  24
ENDBRANCH  21  22
ENDBRANCH  20  21
ENDBRANCH   1  20
TORSDOF 17
ENDMDL
