MODEL 1
REMARK VINA RESULT:     -11.9      0.000      0.000
REMARK SMILES COc1ccc2c(c1)[C@@](NC=O)(C(=O)OCCOC(=O)c1ccc(-c3c4nc(c(-c5c(F)cc(S(=O)(=O)[O-])cc5F)c5ccc([nH]5)c(-c5c(F)cc(S(=O)(=O)[O-])cc5F)c5nc(c(-c6c(F)cc(S(=O)(=O)[O-])cc6F)c6ccc3[nH]6)C=C5)C=C4)cc1)CCC2
REMARK SMILES IDX 17 1 16 2 15 3 13 4 14 5 9 6 3 7 4 8 8 9 5 10 7 11 6 12
REMARK SMILES IDX 89 13 87 14 88 15 2 16 1 17 10 18 11 19 12 21 18 22 19 23
REMARK SMILES IDX 20 24 21 25 22 26 86 27 23 28 85 29 24 30 25 31 26 32 79 33
REMARK SMILES IDX 27 34 84 35 78 36 80 37 28 38 83 39 77 40 76 41 29 43 63 44
REMARK SMILES IDX 42 45 62 46 43 47 46 48 61 49 81 50 44 51 45 52 60 54 82 55
REMARK SMILES IDX 47 56 30 57 31 58 40 59 32 60 33 61 39 62 41 63 34 64 35 65
REMARK SMILES IDX 36 66 37 67 38 68 64 69 65 70 74 71 66 72 67 73 73 74 75 75
REMARK SMILES IDX 68 76 69 77 70 78 71 79 72 80 48 81 49 82 58 83 50 84 51 85
REMARK SMILES IDX 57 86 59 87 52 88 53 89 54 90 55 91 56 92
REMARK H PARENT 10 20 80 42 46 53
REMARK Flexibility Score: inf
ROOT
ATOM      1  C   UNL A   1      32.419  30.590  27.188  1.00  0.00     0.275 C 
ENDROOT
BRANCH   1   2
ATOM      2  C   UNL A   1      31.958  30.277  25.762  1.00  0.00     0.274 C 
BRANCH   2   3
ATOM      3  O   UNL A   1      32.137  28.894  25.388  1.00  0.00    -0.460 OA
BRANCH   3   4
ATOM      4  C   UNL A   1      32.435  28.700  24.068  1.00  0.00     0.336 C 
ATOM      5  O   UNL A   1      33.392  29.252  23.532  1.00  0.00    -0.249 OA
BRANCH   4   6
ATOM      6  C   UNL A   1      31.478  27.659  23.348  1.00  0.00     0.164 C 
ATOM      7  C   UNL A   1      28.982  30.325  22.052  1.00  0.00     0.119 A 
ATOM      8  C   UNL A   1      27.766  29.781  22.446  1.00  0.00     0.047 A 
ATOM      9  C   UNL A   1      30.152  29.610  22.309  1.00  0.00     0.053 A 
ATOM     10  C   UNL A   1      27.716  28.525  23.052  1.00  0.00     0.008 A 
ATOM     11  C   UNL A   1      30.139  28.373  23.004  1.00  0.00    -0.004 A 
ATOM     12  C   UNL A   1      28.890  27.800  23.311  1.00  0.00    -0.042 A 
ATOM     13  C   UNL A   1      28.763  26.430  23.925  1.00  0.00     0.036 C 
ATOM     14  C   UNL A   1      31.220  26.442  24.274  1.00  0.00     0.046 C 
ATOM     15  C   UNL A   1      30.039  25.610  23.793  1.00  0.00     0.008 C 
BRANCH   7  16
ATOM     16  O   UNL A   1      28.904  31.548  21.449  1.00  0.00    -0.497 OA
ATOM     17  C   UNL A   1      28.689  32.678  22.290  1.00  0.00     0.278 C 
ENDBRANCH   7  16
BRANCH   6  18
ATOM     18  N   UNL A   1      32.035  27.211  22.058  1.00  0.00    -0.339 N 
ATOM     19  C   UNL A   1      32.903  26.183  21.855  1.00  0.00     0.338 C 
ATOM     20  H   UNL A   1      31.747  27.708  21.258  1.00  0.00     0.164 HD
ATOM     21  O   UNL A   1      33.207  25.805  20.732  1.00  0.00    -0.279 OA
ENDBRANCH   6  18
ENDBRANCH   4   6
ENDBRANCH   3   4
ENDBRANCH   2   3
ENDBRANCH   1   2
BRANCH   1  22
ATOM     22  O   UNL A   1      33.644  29.918  27.528  1.00  0.00    -0.458 OA
BRANCH  22  23
ATOM     23  C   UNL A   1      34.541  30.682  28.193  1.00  0.00     0.338 C 
ATOM     24  O   UNL A   1      34.324  31.750  28.744  1.00  0.00    -0.246 OA
BRANCH  23  25
ATOM     25  C   UNL A   1      35.852  30.016  28.263  1.00  0.00     0.060 A 
ATOM     26  C   UNL A   1      36.304  29.573  29.502  1.00  0.00     0.016 A 
ATOM     27  C   UNL A   1      36.715  30.026  27.169  1.00  0.00     0.016 A 
ATOM     28  C   UNL A   1      37.640  29.250  29.692  1.00  0.00     0.010 A 
ATOM     29  C   UNL A   1      38.040  29.602  27.339  1.00  0.00     0.010 A 
ATOM     30  C   UNL A   1      38.526  29.248  28.611  1.00  0.00    -0.014 A 
BRANCH  30  31
ATOM     31  C   UNL A   1      39.961  28.925  28.834  1.00  0.00     0.031 A 
ATOM     32  C   UNL A   1      40.889  29.971  29.392  1.00  0.00     0.074 A 
ATOM     33  C   UNL A   1      40.428  27.689  28.565  1.00  0.00     0.049 A 
ATOM     34  N   UNL A   1      42.195  29.963  29.457  1.00  0.00    -0.248 NA
ATOM     35  C   UNL A   1      40.269  31.191  29.935  1.00  0.00     0.031 C 
ATOM     36  C   UNL A   1      39.624  26.560  28.087  1.00  0.00     0.029 A 
ATOM     37  N   UNL A   1      41.696  27.170  28.658  1.00  0.00    -0.354 N 
ATOM     38  C   UNL A   1      42.557  31.200  29.979  1.00  0.00     0.074 A 
ATOM     39  C   UNL A   1      41.333  31.928  30.230  1.00  0.00     0.031 C 
ATOM     40  C   UNL A   1      40.409  25.481  27.957  1.00  0.00     0.029 A 
ATOM     41  C   UNL A   1      41.786  25.861  28.250  1.00  0.00     0.049 A 
ATOM     42  H   UNL A   1      42.466  27.687  28.986  1.00  0.00     0.167 HD
ATOM     43  C   UNL A   1      43.801  31.681  30.214  1.00  0.00     0.037 A 
ATOM     44  C   UNL A   1      42.861  25.069  28.075  1.00  0.00     0.037 A 
ATOM     45  C   UNL A   1      45.008  30.914  30.043  1.00  0.00     0.049 A 
ATOM     46  C   UNL A   1      44.231  25.630  28.331  1.00  0.00     0.074 A 
ATOM     47  C   UNL A   1      46.315  31.300  30.288  1.00  0.00     0.029 A 
ATOM     48  N   UNL A   1      45.055  29.598  29.609  1.00  0.00    -0.354 N 
ATOM     49  N   UNL A   1      44.564  26.827  28.753  1.00  0.00    -0.248 NA
ATOM     50  C   UNL A   1      45.373  24.746  28.060  1.00  0.00     0.031 C 
ATOM     51  C   UNL A   1      47.154  30.226  29.973  1.00  0.00     0.029 A 
ATOM     52  C   UNL A   1      46.368  29.161  29.565  1.00  0.00     0.049 A 
ATOM     53  H   UNL A   1      44.270  29.055  29.367  1.00  0.00     0.167 HD
ATOM     54  C   UNL A   1      45.952  26.835  28.807  1.00  0.00     0.074 A 
ATOM     55  C   UNL A   1      46.396  25.520  28.393  1.00  0.00     0.031 C 
ATOM     56  C   UNL A   1      46.786  27.844  29.159  1.00  0.00     0.037 A 
BRANCH  43  57
ATOM     57  C   UNL A   1      43.937  33.115  30.642  1.00  0.00     0.058 A 
ATOM     58  C   UNL A   1      44.035  34.166  29.720  1.00  0.00     0.135 A 
ATOM     59  C   UNL A   1      43.892  33.442  32.008  1.00  0.00     0.135 A 
ATOM     60  F   UNL A   1      44.098  33.909  28.404  1.00  0.00    -0.206 F 
ATOM     61  C   UNL A   1      44.090  35.494  30.137  1.00  0.00     0.059 A 
ATOM     62  C   UNL A   1      43.925  34.761  32.447  1.00  0.00     0.059 A 
ATOM     63  F   UNL A   1      43.801  32.471  32.931  1.00  0.00    -0.206 F 
ATOM     64  C   UNL A   1      44.032  35.782  31.503  1.00  0.00     0.060 A 
BRANCH  64  65
ATOM     65  S   UNL A   1      44.063  37.508  32.033  1.00  0.00     0.124 S 
ATOM     66  O   UNL A   1      45.476  37.694  32.344  1.00  0.00    -0.237 OA
ATOM     67  O   UNL A   1      43.577  38.210  30.848  1.00  0.00    -0.237 OA
ATOM     68  O   UNL A   1      43.161  37.528  33.180  1.00  0.00    -0.744 OA
ENDBRANCH  64  65
ENDBRANCH  43  57
BRANCH  44  69
ATOM     69  C   UNL A   1      42.691  23.681  27.569  1.00  0.00     0.058 A 
ATOM     70  C   UNL A   1      42.677  23.408  26.194  1.00  0.00     0.135 A 
ATOM     71  C   UNL A   1      42.533  22.601  28.452  1.00  0.00     0.135 A 
ATOM     72  F   UNL A   1      42.815  24.408  25.310  1.00  0.00    -0.206 F 
ATOM     73  C   UNL A   1      42.494  22.116  25.710  1.00  0.00     0.059 A 
ATOM     74  C   UNL A   1      42.376  21.298  27.994  1.00  0.00     0.059 A 
ATOM     75  F   UNL A   1      42.553  22.808  29.779  1.00  0.00    -0.206 F 
ATOM     76  C   UNL A   1      42.342  21.068  26.619  1.00  0.00     0.060 A 
BRANCH  76  77
ATOM     77  S   UNL A   1      42.142  19.385  25.994  1.00  0.00     0.124 S 
ATOM     78  O   UNL A   1      43.003  19.408  24.818  1.00  0.00    -0.237 OA
ATOM     79  O   UNL A   1      42.612  18.577  27.115  1.00  0.00    -0.237 OA
ATOM     80  O   UNL A   1      40.709  19.300  25.729  1.00  0.00    -0.744 OA
ENDBRANCH  76  77
ENDBRANCH  44  69
BRANCH  56  81
ATOM     81  C   UNL A   1      48.258  27.550  29.143  1.00  0.00     0.058 A 
ATOM     82  C   UNL A   1      49.046  27.823  28.015  1.00  0.00     0.135 A 
ATOM     83  C   UNL A   1      48.889  27.021  30.279  1.00  0.00     0.135 A 
ATOM     84  F   UNL A   1      48.485  28.321  26.902  1.00  0.00    -0.206 F 
ATOM     85  C   UNL A   1      50.411  27.561  28.007  1.00  0.00     0.059 A 
ATOM     86  C   UNL A   1      50.257  26.771  30.300  1.00  0.00     0.059 A 
ATOM     87  F   UNL A   1      48.177  26.750  31.385  1.00  0.00    -0.206 F 
ATOM     88  C   UNL A   1      51.008  27.033  29.154  1.00  0.00     0.060 A 
BRANCH  88  89
ATOM     89  S   UNL A   1      52.786  26.719  29.144  1.00  0.00     0.124 S 
ATOM     90  O   UNL A   1      53.323  28.073  29.086  1.00  0.00    -0.237 OA
ATOM     91  O   UNL A   1      52.988  26.010  30.403  1.00  0.00    -0.237 OA
ATOM     92  O   UNL A   1      52.979  25.913  27.941  1.00  0.00    -0.744 OA
ENDBRANCH  88  89
ENDBRANCH  56  81
ENDBRANCH  30  31
ENDBRANCH  23  25
ENDBRANCH  22  23
ENDBRANCH   1  22
TORSDOF 16
ENDMDL
MODEL 2
REMARK VINA RESULT:     -11.5      4.282      8.815
REMARK SMILES COc1ccc2c(c1)[C@@](NC=O)(C(=O)OCCOC(=O)c1ccc(-c3c4nc(c(-c5c(F)cc(S(=O)(=O)[O-])cc5F)c5ccc([nH]5)c(-c5c(F)cc(S(=O)(=O)[O-])cc5F)c5nc(c(-c6c(F)cc(S(=O)(=O)[O-])cc6F)c6ccc3[nH]6)C=C5)C=C4)cc1)CCC2
REMARK SMILES IDX 17 1 16 2 15 3 13 4 14 5 9 6 3 7 4 8 8 9 5 10 7 11 6 12
REMARK SMILES IDX 89 13 87 14 88 15 2 16 1 17 10 18 11 19 12 21 18 22 19 23
REMARK SMILES IDX 20 24 21 25 22 26 86 27 23 28 85 29 24 30 25 31 26 32 79 33
REMARK SMILES IDX 27 34 84 35 78 36 80 37 28 38 83 39 77 40 76 41 29 43 63 44
REMARK SMILES IDX 42 45 62 46 43 47 46 48 61 49 81 50 44 51 45 52 60 54 82 55
REMARK SMILES IDX 47 56 30 57 31 58 40 59 32 60 33 61 39 62 41 63 34 64 35 65
REMARK SMILES IDX 36 66 37 67 38 68 64 69 65 70 74 71 66 72 67 73 73 74 75 75
REMARK SMILES IDX 68 76 69 77 70 78 71 79 72 80 48 81 49 82 58 83 50 84 51 85
REMARK SMILES IDX 57 86 59 87 52 88 53 89 54 90 55 91 56 92
REMARK H PARENT 10 20 80 42 46 53
REMARK Flexibility Score: inf
ROOT
ATOM      1  C   UNL A   1      32.305  30.436  26.853  1.00  0.00     0.275 C 
ENDROOT
BRANCH   1   2
ATOM      2  C   UNL A   1      31.679  29.816  25.601  1.00  0.00     0.274 C 
BRANCH   2   3
ATOM      3  O   UNL A   1      32.357  28.625  25.146  1.00  0.00    -0.460 OA
BRANCH   3   4
ATOM      4  C   UNL A   1      32.481  28.530  23.788  1.00  0.00     0.336 C 
ATOM      5  O   UNL A   1      33.362  29.128  23.175  1.00  0.00    -0.249 OA
BRANCH   4   6
ATOM      6  C   UNL A   1      31.439  27.537  23.123  1.00  0.00     0.164 C 
ATOM      7  C   UNL A   1      28.983  30.315  22.000  1.00  0.00     0.119 A 
ATOM      8  C   UNL A   1      27.771  29.818  22.465  1.00  0.00     0.047 A 
ATOM      9  C   UNL A   1      30.134  29.550  22.179  1.00  0.00     0.053 A 
ATOM     10  C   UNL A   1      27.705  28.561  23.066  1.00  0.00     0.008 A 
ATOM     11  C   UNL A   1      30.113  28.309  22.867  1.00  0.00    -0.004 A 
ATOM     12  C   UNL A   1      28.862  27.785  23.247  1.00  0.00    -0.042 A 
ATOM     13  C   UNL A   1      28.716  26.417  23.861  1.00  0.00     0.036 C 
ATOM     14  C   UNL A   1      31.188  26.323  24.057  1.00  0.00     0.046 C 
ATOM     15  C   UNL A   1      29.945  25.546  23.645  1.00  0.00     0.008 C 
BRANCH   7  16
ATOM     16  O   UNL A   1      28.918  31.545  21.409  1.00  0.00    -0.497 OA
ATOM     17  C   UNL A   1      27.936  31.732  20.395  1.00  0.00     0.278 C 
ENDBRANCH   7  16
BRANCH   6  18
ATOM     18  N   UNL A   1      31.895  27.076  21.799  1.00  0.00    -0.339 N 
ATOM     19  C   UNL A   1      32.846  26.135  21.542  1.00  0.00     0.338 C 
ATOM     20  H   UNL A   1      31.467  27.493  21.016  1.00  0.00     0.164 HD
ATOM     21  O   UNL A   1      33.062  25.728  20.409  1.00  0.00    -0.279 OA
ENDBRANCH   6  18
ENDBRANCH   4   6
ENDBRANCH   3   4
ENDBRANCH   2   3
ENDBRANCH   1   2
BRANCH   1  22
ATOM     22  O   UNL A   1      33.732  30.569  26.743  1.00  0.00    -0.458 OA
BRANCH  22  23
ATOM     23  C   UNL A   1      34.276  31.504  27.555  1.00  0.00     0.338 C 
ATOM     24  O   UNL A   1      33.737  32.521  27.962  1.00  0.00    -0.246 OA
BRANCH  23  25
ATOM     25  C   UNL A   1      35.624  31.103  27.990  1.00  0.00     0.060 A 
ATOM     26  C   UNL A   1      35.819  29.794  28.419  1.00  0.00     0.016 A 
ATOM     27  C   UNL A   1      36.623  32.055  28.184  1.00  0.00     0.016 A 
ATOM     28  C   UNL A   1      36.951  29.449  29.144  1.00  0.00     0.010 A 
ATOM     29  C   UNL A   1      37.811  31.681  28.826  1.00  0.00     0.010 A 
ATOM     30  C   UNL A   1      37.970  30.384  29.348  1.00  0.00    -0.014 A 
BRANCH  30  31
ATOM     31  C   UNL A   1      39.166  30.008  30.149  1.00  0.00     0.031 A 
ATOM     32  C   UNL A   1      40.187  29.062  29.576  1.00  0.00     0.074 A 
ATOM     33  C   UNL A   1      39.353  30.532  31.377  1.00  0.00     0.049 A 
ATOM     34  N   UNL A   1      41.171  28.447  30.179  1.00  0.00    -0.248 NA
ATOM     35  C   UNL A   1      40.081  28.757  28.139  1.00  0.00     0.031 C 
ATOM     36  C   UNL A   1      38.478  31.514  32.026  1.00  0.00     0.029 A 
ATOM     37  N   UNL A   1      40.344  30.317  32.302  1.00  0.00    -0.354 N 
ATOM     38  C   UNL A   1      41.755  27.630  29.217  1.00  0.00     0.074 A 
ATOM     39  C   UNL A   1      41.027  27.840  27.985  1.00  0.00     0.031 C 
ATOM     40  C   UNL A   1      38.986  31.834  33.225  1.00  0.00     0.029 A 
ATOM     41  C   UNL A   1      40.166  31.015  33.472  1.00  0.00     0.049 A 
ATOM     42  H   UNL A   1      41.110  29.719  32.141  1.00  0.00     0.167 HD
ATOM     43  C   UNL A   1      42.796  26.776  29.361  1.00  0.00     0.037 A 
ATOM     44  C   UNL A   1      40.842  30.963  34.637  1.00  0.00     0.037 A 
ATOM     45  C   UNL A   1      43.568  26.642  30.570  1.00  0.00     0.049 A 
ATOM     46  C   UNL A   1      41.986  29.998  34.774  1.00  0.00     0.074 A 
ATOM     47  C   UNL A   1      44.665  25.830  30.805  1.00  0.00     0.029 A 
ATOM     48  N   UNL A   1      43.342  27.354  31.737  1.00  0.00    -0.354 N 
ATOM     49  N   UNL A   1      42.480  29.177  33.880  1.00  0.00    -0.248 NA
ATOM     50  C   UNL A   1      42.645  29.933  36.085  1.00  0.00     0.031 C 
ATOM     51  C   UNL A   1      45.083  26.030  32.124  1.00  0.00     0.029 A 
ATOM     52  C   UNL A   1      44.268  26.991  32.700  1.00  0.00     0.049 A 
ATOM     53  H   UNL A   1      42.627  28.019  31.863  1.00  0.00     0.167 HD
ATOM     54  C   UNL A   1      43.515  28.503  34.518  1.00  0.00     0.074 A 
ATOM     55  C   UNL A   1      43.587  29.026  35.866  1.00  0.00     0.031 C 
ATOM     56  C   UNL A   1      44.327  27.532  34.033  1.00  0.00     0.037 A 
BRANCH  43  57
ATOM     57  C   UNL A   1      43.147  25.885  28.203  1.00  0.00     0.058 A 
ATOM     58  C   UNL A   1      44.115  26.235  27.253  1.00  0.00     0.135 A 
ATOM     59  C   UNL A   1      42.546  24.619  28.092  1.00  0.00     0.135 A 
ATOM     60  F   UNL A   1      44.708  27.438  27.303  1.00  0.00    -0.206 F 
ATOM     61  C   UNL A   1      44.474  25.364  26.227  1.00  0.00     0.059 A 
ATOM     62  C   UNL A   1      42.903  23.724  27.089  1.00  0.00     0.059 A 
ATOM     63  F   UNL A   1      41.610  24.236  28.976  1.00  0.00    -0.206 F 
ATOM     64  C   UNL A   1      43.864  24.109  26.155  1.00  0.00     0.060 A 
BRANCH  64  65
ATOM     65  S   UNL A   1      44.365  22.970  24.847  1.00  0.00     0.124 S 
ATOM     66  O   UNL A   1      43.097  22.727  24.167  1.00  0.00    -0.237 OA
ATOM     67  O   UNL A   1      45.343  23.757  24.100  1.00  0.00    -0.237 OA
ATOM     68  O   UNL A   1      44.912  21.831  25.578  1.00  0.00    -0.744 OA
ENDBRANCH  64  65
ENDBRANCH  43  57
BRANCH  44  69
ATOM     69  C   UNL A   1      40.412  31.800  35.788  1.00  0.00     0.058 A 
ATOM     70  C   UNL A   1      41.133  32.943  36.161  1.00  0.00     0.135 A 
ATOM     71  C   UNL A   1      39.275  31.469  36.540  1.00  0.00     0.135 A 
ATOM     72  F   UNL A   1      42.233  33.296  35.478  1.00  0.00    -0.206 F 
ATOM     73  C   UNL A   1      40.753  33.719  37.252  1.00  0.00     0.059 A 
ATOM     74  C   UNL A   1      38.859  32.244  37.617  1.00  0.00     0.059 A 
ATOM     75  F   UNL A   1      38.542  30.391  36.216  1.00  0.00    -0.206 F 
ATOM     76  C   UNL A   1      39.614  33.360  37.975  1.00  0.00     0.060 A 
BRANCH  76  77
ATOM     77  S   UNL A   1      39.098  34.387  39.367  1.00  0.00     0.124 S 
ATOM     78  O   UNL A   1      40.239  34.255  40.265  1.00  0.00    -0.237 OA
ATOM     79  O   UNL A   1      38.925  35.695  38.744  1.00  0.00    -0.237 OA
ATOM     80  O   UNL A   1      37.865  33.746  39.812  1.00  0.00    -0.744 OA
ENDBRANCH  76  77
ENDBRANCH  44  69
BRANCH  56  81
ATOM     81  C   UNL A   1      45.382  27.001  34.959  1.00  0.00     0.058 A 
ATOM     82  C   UNL A   1      46.647  27.601  35.048  1.00  0.00     0.135 A 
ATOM     83  C   UNL A   1      45.111  25.902  35.789  1.00  0.00     0.135 A 
ATOM     84  F   UNL A   1      46.955  28.648  34.267  1.00  0.00    -0.206 F 
ATOM     85  C   UNL A   1      47.619  27.113  35.915  1.00  0.00     0.059 A 
ATOM     86  C   UNL A   1      46.061  25.413  36.680  1.00  0.00     0.059 A 
ATOM     87  F   UNL A   1      43.912  25.300  35.745  1.00  0.00    -0.206 F 
ATOM     88  C   UNL A   1      47.316  26.018  36.726  1.00  0.00     0.060 A 
BRANCH  88  89
ATOM     89  S   UNL A   1      48.575  25.407  37.868  1.00  0.00     0.124 S 
ATOM     90  O   UNL A   1      49.361  26.612  38.110  1.00  0.00    -0.237 OA
ATOM     91  O   UNL A   1      47.776  24.934  38.994  1.00  0.00    -0.237 OA
ATOM     92  O   UNL A   1      49.246  24.361  37.102  1.00  0.00    -0.744 OA
ENDBRANCH  88  89
ENDBRANCH  56  81
ENDBRANCH  30  31
ENDBRANCH  23  25
ENDBRANCH  22  23
ENDBRANCH   1  22
TORSDOF 16
ENDMDL
MODEL 3
REMARK VINA RESULT:     -11.3      4.190      9.785
REMARK SMILES COc1ccc2c(c1)[C@@](NC=O)(C(=O)OCCOC(=O)c1ccc(-c3c4nc(c(-c5c(F)cc(S(=O)(=O)[O-])cc5F)c5ccc([nH]5)c(-c5c(F)cc(S(=O)(=O)[O-])cc5F)c5nc(c(-c6c(F)cc(S(=O)(=O)[O-])cc6F)c6ccc3[nH]6)C=C5)C=C4)cc1)CCC2
REMARK SMILES IDX 17 1 16 2 15 3 13 4 14 5 9 6 3 7 4 8 8 9 5 10 7 11 6 12
REMARK SMILES IDX 89 13 87 14 88 15 2 16 1 17 10 18 11 19 12 21 18 22 19 23
REMARK SMILES IDX 20 24 21 25 22 26 86 27 23 28 85 29 24 30 25 31 26 32 79 33
REMARK SMILES IDX 27 34 84 35 78 36 80 37 28 38 83 39 77 40 76 41 29 43 63 44
REMARK SMILES IDX 42 45 62 46 43 47 46 48 61 49 81 50 44 51 45 52 60 54 82 55
REMARK SMILES IDX 47 56 30 57 31 58 40 59 32 60 33 61 39 62 41 63 34 64 35 65
REMARK SMILES IDX 36 66 37 67 38 68 64 69 65 70 74 71 66 72 67 73 73 74 75 75
REMARK SMILES IDX 68 76 69 77 70 78 71 79 72 80 48 81 49 82 58 83 50 84 51 85
REMARK SMILES IDX 57 86 59 87 52 88 53 89 54 90 55 91 56 92
REMARK H PARENT 10 20 80 42 46 53
REMARK Flexibility Score: inf
ROOT
ATOM      1  C   UNL A   1      37.733  20.984  25.011  1.00  0.00     0.275 C 
ENDROOT
BRANCH   1   2
ATOM      2  C   UNL A   1      36.229  20.696  25.026  1.00  0.00     0.274 C 
BRANCH   2   3
ATOM      3  O   UNL A   1      35.422  21.858  25.312  1.00  0.00    -0.460 OA
BRANCH   3   4
ATOM      4  C   UNL A   1      34.343  21.612  26.115  1.00  0.00     0.336 C 
ATOM      5  O   UNL A   1      34.454  21.505  27.333  1.00  0.00    -0.249 OA
BRANCH   4   6
ATOM      6  C   UNL A   1      32.967  21.553  25.329  1.00  0.00     0.164 C 
ATOM      7  C   UNL A   1      32.819  17.683  25.184  1.00  0.00     0.119 A 
ATOM      8  C   UNL A   1      32.546  17.467  23.838  1.00  0.00     0.047 A 
ATOM      9  C   UNL A   1      32.903  18.995  25.648  1.00  0.00     0.053 A 
ATOM     10  C   UNL A   1      32.323  18.543  22.979  1.00  0.00     0.008 A 
ATOM     11  C   UNL A   1      32.772  20.110  24.779  1.00  0.00    -0.004 A 
ATOM     12  C   UNL A   1      32.405  19.867  23.442  1.00  0.00    -0.042 A 
ATOM     13  C   UNL A   1      32.108  20.982  22.474  1.00  0.00     0.036 C 
ATOM     14  C   UNL A   1      32.972  22.579  24.165  1.00  0.00     0.046 C 
ATOM     15  C   UNL A   1      31.849  22.309  23.173  1.00  0.00     0.008 C 
BRANCH   7  16
ATOM     16  O   UNL A   1      32.995  16.553  25.930  1.00  0.00    -0.497 OA
ATOM     17  C   UNL A   1      32.618  15.314  25.337  1.00  0.00     0.278 C 
ENDBRANCH   7  16
BRANCH   6  18
ATOM     18  N   UNL A   1      31.819  21.799  26.221  1.00  0.00    -0.339 N 
ATOM     19  C   UNL A   1      31.468  22.982  26.796  1.00  0.00     0.338 C 
ATOM     20  H   UNL A   1      31.245  21.025  26.424  1.00  0.00     0.164 HD
ATOM     21  O   UNL A   1      30.423  23.115  27.418  1.00  0.00    -0.279 OA
ENDBRANCH   6  18
ENDBRANCH   4   6
ENDBRANCH   3   4
ENDBRANCH   2   3
ENDBRANCH   1   2
BRANCH   1  22
ATOM     22  O   UNL A   1      38.093  22.055  25.901  1.00  0.00    -0.458 OA
BRANCH  22  23
ATOM     23  C   UNL A   1      39.336  21.958  26.426  1.00  0.00     0.338 C 
ATOM     24  O   UNL A   1      40.089  21.000  26.348  1.00  0.00    -0.246 OA
BRANCH  23  25
ATOM     25  C   UNL A   1      39.741  23.224  27.058  1.00  0.00     0.060 A 
ATOM     26  C   UNL A   1      39.238  24.413  26.538  1.00  0.00     0.016 A 
ATOM     27  C   UNL A   1      40.768  23.255  28.000  1.00  0.00     0.016 A 
ATOM     28  C   UNL A   1      39.826  25.629  26.859  1.00  0.00     0.010 A 
ATOM     29  C   UNL A   1      41.293  24.491  28.401  1.00  0.00     0.010 A 
ATOM     30  C   UNL A   1      40.855  25.687  27.804  1.00  0.00    -0.014 A 
BRANCH  30  31
ATOM     31  C   UNL A   1      41.494  26.994  28.118  1.00  0.00     0.031 A 
ATOM     32  C   UNL A   1      42.944  27.221  27.786  1.00  0.00     0.074 A 
ATOM     33  C   UNL A   1      40.770  27.986  28.676  1.00  0.00     0.049 A 
ATOM     34  N   UNL A   1      43.734  28.191  28.166  1.00  0.00    -0.248 NA
ATOM     35  C   UNL A   1      43.595  26.221  26.923  1.00  0.00     0.031 C 
ATOM     36  C   UNL A   1      39.338  27.924  28.986  1.00  0.00     0.029 A 
ATOM     37  N   UNL A   1      41.138  29.246  29.079  1.00  0.00    -0.354 N 
ATOM     38  C   UNL A   1      44.989  27.882  27.653  1.00  0.00     0.074 A 
ATOM     39  C   UNL A   1      44.853  26.644  26.918  1.00  0.00     0.031 C 
ATOM     40  C   UNL A   1      38.947  29.099  29.503  1.00  0.00     0.029 A 
ATOM     41  C   UNL A   1      40.113  29.963  29.648  1.00  0.00     0.049 A 
ATOM     42  H   UNL A   1      42.050  29.601  28.971  1.00  0.00     0.167 HD
ATOM     43  C   UNL A   1      46.147  28.569  27.796  1.00  0.00     0.037 A 
ATOM     44  C   UNL A   1      40.118  31.158  30.269  1.00  0.00     0.037 A 
ATOM     45  C   UNL A   1      46.252  29.846  28.455  1.00  0.00     0.049 A 
ATOM     46  C   UNL A   1      41.418  31.894  30.426  1.00  0.00     0.074 A 
ATOM     47  C   UNL A   1      47.374  30.639  28.621  1.00  0.00     0.029 A 
ATOM     48  N   UNL A   1      45.192  30.527  29.034  1.00  0.00    -0.354 N 
ATOM     49  N   UNL A   1      42.611  31.555  30.000  1.00  0.00    -0.248 NA
ATOM     50  C   UNL A   1      41.379  33.160  31.170  1.00  0.00     0.031 C 
ATOM     51  C   UNL A   1      46.999  31.786  29.327  1.00  0.00     0.029 A 
ATOM     52  C   UNL A   1      45.637  31.724  29.571  1.00  0.00     0.049 A 
ATOM     53  H   UNL A   1      44.262  30.206  29.061  1.00  0.00     0.167 HD
ATOM     54  C   UNL A   1      43.463  32.571  30.418  1.00  0.00     0.074 A 
ATOM     55  C   UNL A   1      42.646  33.544  31.112  1.00  0.00     0.031 C 
ATOM     56  C   UNL A   1      44.803  32.682  30.249  1.00  0.00     0.037 A 
BRANCH  43  57
ATOM     57  C   UNL A   1      47.410  27.946  27.270  1.00  0.00     0.058 A 
ATOM     58  C   UNL A   1      47.819  28.091  25.938  1.00  0.00     0.135 A 
ATOM     59  C   UNL A   1      48.261  27.252  28.147  1.00  0.00     0.135 A 
ATOM     60  F   UNL A   1      47.037  28.732  25.055  1.00  0.00    -0.206 F 
ATOM     61  C   UNL A   1      49.028  27.565  25.489  1.00  0.00     0.059 A 
ATOM     62  C   UNL A   1      49.482  26.735  27.726  1.00  0.00     0.059 A 
ATOM     63  F   UNL A   1      47.914  27.082  29.432  1.00  0.00    -0.206 F 
ATOM     64  C   UNL A   1      49.854  26.890  26.391  1.00  0.00     0.060 A 
BRANCH  64  65
ATOM     65  S   UNL A   1      51.438  26.247  25.810  1.00  0.00     0.124 S 
ATOM     66  O   UNL A   1      52.380  27.136  26.481  1.00  0.00    -0.237 OA
ATOM     67  O   UNL A   1      51.415  24.868  26.292  1.00  0.00    -0.237 OA
ATOM     68  O   UNL A   1      51.356  26.399  24.361  1.00  0.00    -0.744 OA
ENDBRANCH  64  65
ENDBRANCH  43  57
BRANCH  44  69
ATOM     69  C   UNL A   1      38.862  31.702  30.851  1.00  0.00     0.058 A 
ATOM     70  C   UNL A   1      38.485  31.403  32.168  1.00  0.00     0.135 A 
ATOM     71  C   UNL A   1      38.010  32.524  30.097  1.00  0.00     0.135 A 
ATOM     72  F   UNL A   1      39.262  30.613  32.925  1.00  0.00    -0.206 F 
ATOM     73  C   UNL A   1      37.300  31.887  32.714  1.00  0.00     0.059 A 
ATOM     74  C   UNL A   1      36.834  33.042  30.629  1.00  0.00     0.059 A 
ATOM     75  F   UNL A   1      38.332  32.850  28.835  1.00  0.00    -0.206 F 
ATOM     76  C   UNL A   1      36.480  32.705  31.934  1.00  0.00     0.060 A 
BRANCH  76  77
ATOM     77  S   UNL A   1      34.960  33.364  32.652  1.00  0.00     0.124 S 
ATOM     78  O   UNL A   1      35.083  34.783  32.341  1.00  0.00    -0.237 OA
ATOM     79  O   UNL A   1      33.927  32.637  31.919  1.00  0.00    -0.237 OA
ATOM     80  O   UNL A   1      35.080  33.012  34.063  1.00  0.00    -0.744 OA
ENDBRANCH  76  77
ENDBRANCH  44  69
BRANCH  56  81
ATOM     81  C   UNL A   1      45.458  33.917  30.796  1.00  0.00     0.058 A 
ATOM     82  C   UNL A   1      45.988  33.950  32.095  1.00  0.00     0.135 A 
ATOM     83  C   UNL A   1      45.586  35.066  30.000  1.00  0.00     0.135 A 
ATOM     84  F   UNL A   1      45.881  32.878  32.896  1.00  0.00    -0.206 F 
ATOM     85  C   UNL A   1      46.605  35.091  32.595  1.00  0.00     0.059 A 
ATOM     86  C   UNL A   1      46.220  36.210  30.473  1.00  0.00     0.059 A 
ATOM     87  F   UNL A   1      45.102  35.079  28.748  1.00  0.00    -0.206 F 
ATOM     88  C   UNL A   1      46.715  36.217  31.777  1.00  0.00     0.060 A 
BRANCH  88  89
ATOM     89  S   UNL A   1      47.540  37.686  32.426  1.00  0.00     0.124 S 
ATOM     90  O   UNL A   1      48.837  37.145  32.818  1.00  0.00    -0.237 OA
ATOM     91  O   UNL A   1      47.548  38.579  31.271  1.00  0.00    -0.237 OA
ATOM     92  O   UNL A   1      46.673  38.102  33.525  1.00  0.00    -0.744 OA
ENDBRANCH  88  89
ENDBRANCH  56  81
ENDBRANCH  30  31
ENDBRANCH  23  25
ENDBRANCH  22  23
ENDBRANCH   1  22
TORSDOF 16
ENDMDL
