MODEL 1
REMARK VINA RESULT:     -10.4      0.000      0.000
REMARK SMILES Cc1cc(Br)cc2c1O[C@H](C(F)(F)F)C(C(=O)OCCOC(=O)c1ccc(-c3c4nc(c(-c5c(F)cc(S(=O)(=O)[O-])cc5F)c5ccc([nH]5)c(-c5c(F)cc(S(=O)(=O)[O-])cc5F)c5nc(c(-c6c(F)cc(S(=O)(=O)[O-])cc6F)c6ccc3[nH]6)C=C5)C=C4)cc1)=C2
REMARK SMILES IDX 20 1 19 2 18 3 16 4 17 5 15 6 1 7 2 8 3 9 8 10 4 11 7 12
REMARK SMILES IDX 9 13 5 14 6 15 90 16 10 17 11 18 12 19 13 20 14 21 21 22
REMARK SMILES IDX 22 23 23 24 24 25 25 26 89 27 26 28 88 29 27 30 28 31 29 32
REMARK SMILES IDX 82 33 30 34 87 35 81 36 83 37 31 38 86 39 80 40 79 41 32 43
REMARK SMILES IDX 66 44 45 45 65 46 46 47 49 48 64 49 84 50 47 51 48 52 63 54
REMARK SMILES IDX 85 55 50 56 33 57 34 58 43 59 35 60 36 61 42 62 44 63 37 64
REMARK SMILES IDX 38 65 39 66 40 67 41 68 67 69 68 70 77 71 69 72 70 73 76 74
REMARK SMILES IDX 78 75 71 76 72 77 73 78 74 79 75 80 51 81 52 82 61 83 53 84
REMARK SMILES IDX 54 85 60 86 62 87 55 88 56 89 57 90 58 91 59 92
REMARK H PARENT 83 42 49 53
REMARK Flexibility Score: inf
ROOT
ATOM      1  C   UNL A   1      33.663  33.604  28.137  1.00  0.00     0.275 C 
ENDROOT
BRANCH   1   2
ATOM      2  C   UNL A   1      34.372  34.761  28.846  1.00  0.00     0.275 C 
BRANCH   2   3
ATOM      3  O   UNL A   1      34.180  34.715  30.278  1.00  0.00    -0.459 OA
BRANCH   3   4
ATOM      4  C   UNL A   1      34.787  33.684  30.911  1.00  0.00     0.338 C 
ATOM      5  O   UNL A   1      34.403  32.524  30.936  1.00  0.00    -0.246 OA
BRANCH   4   6
ATOM      6  C   UNL A   1      36.024  34.129  31.583  1.00  0.00     0.087 C 
ATOM      7  C   UNL A   1      39.636  35.329  35.035  1.00  0.00     0.048 C 
ATOM      8  C   UNL A   1      39.616  34.936  33.588  1.00  0.00    -0.007 A 
ATOM      9  C   UNL A   1      40.829  34.717  32.911  1.00  0.00     0.023 A 
ATOM     10  C   UNL A   1      38.404  34.722  32.914  1.00  0.00     0.130 A 
ATOM     11  C   UNL A   1      40.829  34.317  31.576  1.00  0.00     0.019 A 
ATOM     12  C   UNL A   1      38.420  34.298  31.585  1.00  0.00     0.019 A 
ATOM     13  O   UNL A   1      37.243  34.953  33.604  1.00  0.00    -0.475 OA
ATOM     14  Br  UNL A   1      42.465  34.023  30.678  1.00  0.00    -0.051 Br
ATOM     15  C   UNL A   1      39.630  34.112  30.907  1.00  0.00     0.027 A 
ATOM     16  C   UNL A   1      37.173  34.000  30.913  1.00  0.00     0.027 C 
ATOM     17  C   UNL A   1      35.969  34.555  33.019  1.00  0.00     0.316 C 
BRANCH  17  18
ATOM     18  C   UNL A   1      35.355  33.454  33.899  1.00  0.00     0.430 C 
ATOM     19  F   UNL A   1      35.826  32.229  33.557  1.00  0.00    -0.167 F 
ATOM     20  F   UNL A   1      35.660  33.627  35.208  1.00  0.00    -0.167 F 
ATOM     21  F   UNL A   1      34.007  33.410  33.800  1.00  0.00    -0.167 F 
ENDBRANCH  17  18
ENDBRANCH   4   6
ENDBRANCH   3   4
ENDBRANCH   2   3
ENDBRANCH   1   2
BRANCH   1  22
ATOM     22  O   UNL A   1      34.595  32.810  27.381  1.00  0.00    -0.458 OA
BRANCH  22  23
ATOM     23  C   UNL A   1      34.522  31.483  27.626  1.00  0.00     0.338 C 
ATOM     24  O   UNL A   1      33.556  30.756  27.467  1.00  0.00    -0.246 OA
BRANCH  23  25
ATOM     25  C   UNL A   1      35.831  30.952  28.028  1.00  0.00     0.060 A 
ATOM     26  C   UNL A   1      35.863  29.692  28.608  1.00  0.00     0.016 A 
ATOM     27  C   UNL A   1      36.952  31.773  28.083  1.00  0.00     0.016 A 
ATOM     28  C   UNL A   1      36.930  29.325  29.417  1.00  0.00     0.010 A 
ATOM     29  C   UNL A   1      38.098  31.322  28.751  1.00  0.00     0.010 A 
ATOM     30  C   UNL A   1      38.084  30.117  29.476  1.00  0.00    -0.014 A 
BRANCH  30  31
ATOM     31  C   UNL A   1      39.261  29.690  30.288  1.00  0.00     0.031 A 
ATOM     32  C   UNL A   1      40.270  28.722  29.718  1.00  0.00     0.074 A 
ATOM     33  C   UNL A   1      39.431  30.164  31.542  1.00  0.00     0.049 A 
ATOM     34  N   UNL A   1      41.195  28.032  30.333  1.00  0.00    -0.248 NA
ATOM     35  C   UNL A   1      40.223  28.490  28.264  1.00  0.00     0.031 C 
ATOM     36  C   UNL A   1      38.583  31.162  32.200  1.00  0.00     0.029 A 
ATOM     37  N   UNL A   1      40.376  29.868  32.493  1.00  0.00    -0.354 N 
ATOM     38  C   UNL A   1      41.801  27.244  29.359  1.00  0.00     0.074 A 
ATOM     39  C   UNL A   1      41.133  27.537  28.109  1.00  0.00     0.031 C 
ATOM     40  C   UNL A   1      39.067  31.427  33.419  1.00  0.00     0.029 A 
ATOM     41  C   UNL A   1      40.176  30.523  33.686  1.00  0.00     0.049 A 
ATOM     42  H   UNL A   1      41.124  29.246  32.337  1.00  0.00     0.167 HD
ATOM     43  C   UNL A   1      42.817  26.359  29.501  1.00  0.00     0.037 A 
ATOM     44  C   UNL A   1      40.763  30.372  34.888  1.00  0.00     0.037 A 
ATOM     45  C   UNL A   1      43.496  26.113  30.751  1.00  0.00     0.049 A 
ATOM     46  C   UNL A   1      41.827  29.328  35.044  1.00  0.00     0.074 A 
ATOM     47  C   UNL A   1      44.526  25.225  31.013  1.00  0.00     0.029 A 
ATOM     48  N   UNL A   1      43.226  26.769  31.944  1.00  0.00    -0.354 N 
ATOM     49  N   UNL A   1      42.321  28.515  34.140  1.00  0.00    -0.248 NA
ATOM     50  C   UNL A   1      42.403  29.167  36.384  1.00  0.00     0.031 C 
ATOM     51  C   UNL A   1      44.845  25.311  32.372  1.00  0.00     0.029 A 
ATOM     52  C   UNL A   1      44.059  26.298  32.946  1.00  0.00     0.049 A 
ATOM     53  H   UNL A   1      42.542  27.468  32.061  1.00  0.00     0.167 HD
ATOM     54  C   UNL A   1      43.286  27.761  34.797  1.00  0.00     0.074 A 
ATOM     55  C   UNL A   1      43.313  28.227  36.169  1.00  0.00     0.031 C 
ATOM     56  C   UNL A   1      44.077  26.775  34.306  1.00  0.00     0.037 A 
BRANCH  43  57
ATOM     57  C   UNL A   1      43.244  25.561  28.294  1.00  0.00     0.058 A 
ATOM     58  C   UNL A   1      44.304  25.962  27.469  1.00  0.00     0.135 A 
ATOM     59  C   UNL A   1      42.616  24.338  27.997  1.00  0.00     0.135 A 
ATOM     60  F   UNL A   1      44.930  27.129  27.691  1.00  0.00    -0.206 F 
ATOM     61  C   UNL A   1      44.717  25.191  26.385  1.00  0.00     0.059 A 
ATOM     62  C   UNL A   1      43.031  23.536  26.938  1.00  0.00     0.059 A 
ATOM     63  F   UNL A   1      41.594  23.903  28.751  1.00  0.00    -0.206 F 
ATOM     64  C   UNL A   1      44.078  23.976  26.130  1.00  0.00     0.060 A 
BRANCH  64  65
ATOM     65  S   UNL A   1      44.641  22.979  24.732  1.00  0.00     0.124 S 
ATOM     66  O   UNL A   1      43.403  22.807  23.979  1.00  0.00    -0.237 OA
ATOM     67  O   UNL A   1      45.642  23.845  24.118  1.00  0.00    -0.237 OA
ATOM     68  O   UNL A   1      45.163  21.771  25.363  1.00  0.00    -0.744 OA
ENDBRANCH  64  65
ENDBRANCH  43  57
BRANCH  44  69
ATOM     69  C   UNL A   1      40.316  31.206  36.039  1.00  0.00     0.058 A 
ATOM     70  C   UNL A   1      41.132  32.227  36.545  1.00  0.00     0.135 A 
ATOM     71  C   UNL A   1      39.049  31.033  36.622  1.00  0.00     0.135 A 
ATOM     72  F   UNL A   1      42.354  32.426  36.030  1.00  0.00    -0.206 F 
ATOM     73  C   UNL A   1      40.710  33.047  37.587  1.00  0.00     0.059 A 
ATOM     74  C   UNL A   1      38.591  31.861  37.640  1.00  0.00     0.059 A 
ATOM     75  F   UNL A   1      38.222  30.078  36.166  1.00  0.00    -0.206 F 
ATOM     76  C   UNL A   1      39.433  32.863  38.120  1.00  0.00     0.060 A 
BRANCH  76  77
ATOM     77  S   UNL A   1      38.875  33.977  39.427  1.00  0.00     0.124 S 
ATOM     78  O   UNL A   1      37.543  33.455  39.711  1.00  0.00    -0.237 OA
ATOM     79  O   UNL A   1      39.881  33.758  40.462  1.00  0.00    -0.237 OA
ATOM     80  O   UNL A   1      38.915  35.290  38.791  1.00  0.00    -0.744 OA
ENDBRANCH  76  77
ENDBRANCH  44  69
BRANCH  56  81
ATOM     81  C   UNL A   1      45.078  26.171  35.251  1.00  0.00     0.058 A 
ATOM     82  C   UNL A   1      44.790  25.023  36.005  1.00  0.00     0.135 A 
ATOM     83  C   UNL A   1      46.355  26.741  35.385  1.00  0.00     0.135 A 
ATOM     84  F   UNL A   1      43.582  24.443  35.920  1.00  0.00    -0.206 F 
ATOM     85  C   UNL A   1      45.719  24.483  36.887  1.00  0.00     0.059 A 
ATOM     86  C   UNL A   1      47.311  26.198  36.236  1.00  0.00     0.059 A 
ATOM     87  F   UNL A   1      46.687  27.833  34.678  1.00  0.00    -0.206 F 
ATOM     88  C   UNL A   1      46.978  25.079  36.997  1.00  0.00     0.060 A 
BRANCH  88  89
ATOM     89  S   UNL A   1      48.173  24.365  38.143  1.00  0.00     0.124 S 
ATOM     90  O   UNL A   1      48.866  23.408  37.287  1.00  0.00    -0.237 OA
ATOM     91  O   UNL A   1      48.950  25.532  38.549  1.00  0.00    -0.237 OA
ATOM     92  O   UNL A   1      47.337  23.781  39.188  1.00  0.00    -0.744 OA
ENDBRANCH  88  89
ENDBRANCH  56  81
ENDBRANCH  30  31
ENDBRANCH  23  25
ENDBRANCH  22  23
ENDBRANCH   1  22
TORSDOF 15
ENDMDL
MODEL 2
REMARK VINA RESULT:     -10.4      5.609     11.103
REMARK SMILES Cc1cc(Br)cc2c1O[C@H](C(F)(F)F)C(C(=O)OCCOC(=O)c1ccc(-c3c4nc(c(-c5c(F)cc(S(=O)(=O)[O-])cc5F)c5ccc([nH]5)c(-c5c(F)cc(S(=O)(=O)[O-])cc5F)c5nc(c(-c6c(F)cc(S(=O)(=O)[O-])cc6F)c6ccc3[nH]6)C=C5)C=C4)cc1)=C2
REMARK SMILES IDX 20 1 19 2 18 3 16 4 17 5 15 6 1 7 2 8 3 9 8 10 4 11 7 12
REMARK SMILES IDX 9 13 5 14 6 15 90 16 10 17 11 18 12 19 13 20 14 21 21 22
REMARK SMILES IDX 22 23 23 24 24 25 25 26 89 27 26 28 88 29 27 30 28 31 29 32
REMARK SMILES IDX 82 33 30 34 87 35 81 36 83 37 31 38 86 39 80 40 79 41 32 43
REMARK SMILES IDX 66 44 45 45 65 46 46 47 49 48 64 49 84 50 47 51 48 52 63 54
REMARK SMILES IDX 85 55 50 56 33 57 34 58 43 59 35 60 36 61 42 62 44 63 37 64
REMARK SMILES IDX 38 65 39 66 40 67 41 68 67 69 68 70 77 71 69 72 70 73 76 74
REMARK SMILES IDX 78 75 71 76 72 77 73 78 74 79 75 80 51 81 52 82 61 83 53 84
REMARK SMILES IDX 54 85 60 86 62 87 55 88 56 89 57 90 58 91 59 92
REMARK H PARENT 83 42 49 53
REMARK Flexibility Score: inf
ROOT
ATOM      1  C   UNL A   1      33.179  28.490  26.396  1.00  0.00     0.275 C 
ENDROOT
BRANCH   1   2
ATOM      2  C   UNL A   1      32.301  27.240  26.491  1.00  0.00     0.275 C 
BRANCH   2   3
ATOM      3  O   UNL A   1      31.788  26.840  25.200  1.00  0.00    -0.459 OA
BRANCH   3   4
ATOM      4  C   UNL A   1      32.722  26.444  24.304  1.00  0.00     0.338 C 
ATOM      5  O   UNL A   1      33.106  27.078  23.331  1.00  0.00    -0.246 OA
BRANCH   4   6
ATOM      6  C   UNL A   1      33.260  25.114  24.652  1.00  0.00     0.087 C 
ATOM      7  C   UNL A   1      34.198  20.071  24.972  1.00  0.00     0.048 C 
ATOM      8  C   UNL A   1      34.978  21.330  25.208  1.00  0.00    -0.007 A 
ATOM      9  C   UNL A   1      36.349  21.251  25.508  1.00  0.00     0.023 A 
ATOM     10  C   UNL A   1      34.375  22.591  25.072  1.00  0.00     0.130 A 
ATOM     11  C   UNL A   1      37.098  22.411  25.697  1.00  0.00     0.019 A 
ATOM     12  C   UNL A   1      35.143  23.743  25.238  1.00  0.00     0.019 A 
ATOM     13  O   UNL A   1      33.036  22.628  24.784  1.00  0.00    -0.475 OA
ATOM     14  Br  UNL A   1      38.940  22.291  26.098  1.00  0.00    -0.051 Br
ATOM     15  C   UNL A   1      36.501  23.658  25.569  1.00  0.00     0.027 A 
ATOM     16  C   UNL A   1      34.543  25.042  25.020  1.00  0.00     0.027 C 
ATOM     17  C   UNL A   1      32.411  23.897  24.436  1.00  0.00     0.316 C 
BRANCH  17  18
ATOM     18  C   UNL A   1      31.925  23.815  22.981  1.00  0.00     0.430 C 
ATOM     19  F   UNL A   1      30.869  24.638  22.766  1.00  0.00    -0.167 F 
ATOM     20  F   UNL A   1      32.887  24.195  22.105  1.00  0.00    -0.167 F 
ATOM     21  F   UNL A   1      31.538  22.566  22.638  1.00  0.00    -0.167 F 
ENDBRANCH  17  18
ENDBRANCH   4   6
ENDBRANCH   3   4
ENDBRANCH   2   3
ENDBRANCH   1   2
BRANCH   1  22
ATOM     22  O   UNL A   1      34.169  28.511  27.441  1.00  0.00    -0.458 OA
BRANCH  22  23
ATOM     23  C   UNL A   1      34.501  29.749  27.868  1.00  0.00     0.338 C 
ATOM     24  O   UNL A   1      33.755  30.702  28.016  1.00  0.00    -0.246 OA
BRANCH  23  25
ATOM     25  C   UNL A   1      35.915  29.806  28.259  1.00  0.00     0.060 A 
ATOM     26  C   UNL A   1      36.842  30.121  27.276  1.00  0.00     0.016 A 
ATOM     27  C   UNL A   1      36.342  29.302  29.483  1.00  0.00     0.016 A 
ATOM     28  C   UNL A   1      38.170  29.748  27.427  1.00  0.00     0.010 A 
ATOM     29  C   UNL A   1      37.711  29.094  29.698  1.00  0.00     0.010 A 
ATOM     30  C   UNL A   1      38.638  29.259  28.653  1.00  0.00    -0.014 A 
BRANCH  30  31
ATOM     31  C   UNL A   1      40.081  28.924  28.841  1.00  0.00     0.031 A 
ATOM     32  C   UNL A   1      41.048  29.971  29.337  1.00  0.00     0.074 A 
ATOM     33  C   UNL A   1      40.532  27.681  28.564  1.00  0.00     0.049 A 
ATOM     34  N   UNL A   1      42.356  29.967  29.315  1.00  0.00    -0.248 NA
ATOM     35  C   UNL A   1      40.467  31.191  29.925  1.00  0.00     0.031 C 
ATOM     36  C   UNL A   1      39.705  26.545  28.149  1.00  0.00     0.029 A 
ATOM     37  N   UNL A   1      41.804  27.163  28.585  1.00  0.00    -0.354 N 
ATOM     38  C   UNL A   1      42.754  31.198  29.829  1.00  0.00     0.074 A 
ATOM     39  C   UNL A   1      41.546  31.929  30.149  1.00  0.00     0.031 C 
ATOM     40  C   UNL A   1      40.476  25.461  28.000  1.00  0.00     0.029 A 
ATOM     41  C   UNL A   1      41.867  25.851  28.174  1.00  0.00     0.049 A 
ATOM     42  H   UNL A   1      42.594  27.679  28.867  1.00  0.00     0.167 HD
ATOM     43  C   UNL A   1      44.012  31.670  30.011  1.00  0.00     0.037 A 
ATOM     44  C   UNL A   1      42.920  25.061  27.894  1.00  0.00     0.037 A 
ATOM     45  C   UNL A   1      45.203  30.907  29.722  1.00  0.00     0.049 A 
ATOM     46  C   UNL A   1      44.301  25.630  28.022  1.00  0.00     0.074 A 
ATOM     47  C   UNL A   1      46.526  31.293  29.852  1.00  0.00     0.029 A 
ATOM     48  N   UNL A   1      45.215  29.597  29.263  1.00  0.00    -0.354 N 
ATOM     49  N   UNL A   1      44.664  26.830  28.409  1.00  0.00    -0.248 NA
ATOM     50  C   UNL A   1      45.415  24.746  27.659  1.00  0.00     0.031 C 
ATOM     51  C   UNL A   1      47.336  30.234  29.427  1.00  0.00     0.029 A 
ATOM     52  C   UNL A   1      46.520  29.165  29.094  1.00  0.00     0.049 A 
ATOM     53  H   UNL A   1      44.413  29.054  29.085  1.00  0.00     0.167 HD
ATOM     54  C   UNL A   1      46.053  26.838  28.362  1.00  0.00     0.074 A 
ATOM     55  C   UNL A   1      46.461  25.519  27.920  1.00  0.00     0.031 C 
ATOM     56  C   UNL A   1      46.910  27.846  28.658  1.00  0.00     0.037 A 
BRANCH  43  57
ATOM     57  C   UNL A   1      44.179  33.082  30.514  1.00  0.00     0.058 A 
ATOM     58  C   UNL A   1      44.281  34.178  29.645  1.00  0.00     0.135 A 
ATOM     59  C   UNL A   1      44.175  33.346  31.895  1.00  0.00     0.135 A 
ATOM     60  F   UNL A   1      44.310  33.989  28.317  1.00  0.00    -0.206 F 
ATOM     61  C   UNL A   1      44.387  35.482  30.125  1.00  0.00     0.059 A 
ATOM     62  C   UNL A   1      44.250  34.642  32.397  1.00  0.00     0.059 A 
ATOM     63  F   UNL A   1      44.081  32.336  32.775  1.00  0.00    -0.206 F 
ATOM     64  C   UNL A   1      44.366  35.705  31.503  1.00  0.00     0.060 A 
BRANCH  64  65
ATOM     65  S   UNL A   1      44.484  37.404  32.106  1.00  0.00     0.124 S 
ATOM     66  O   UNL A   1      43.712  37.329  33.342  1.00  0.00    -0.237 OA
ATOM     67  O   UNL A   1      45.923  37.577  32.266  1.00  0.00    -0.237 OA
ATOM     68  O   UNL A   1      43.876  38.189  31.036  1.00  0.00    -0.744 OA
ENDBRANCH  64  65
ENDBRANCH  43  57
BRANCH  44  69
ATOM     69  C   UNL A   1      42.693  23.666  27.424  1.00  0.00     0.058 A 
ATOM     70  C   UNL A   1      42.805  23.339  26.065  1.00  0.00     0.135 A 
ATOM     71  C   UNL A   1      42.410  22.625  28.325  1.00  0.00     0.135 A 
ATOM     72  F   UNL A   1      43.064  24.298  25.165  1.00  0.00    -0.206 F 
ATOM     73  C   UNL A   1      42.645  22.033  25.616  1.00  0.00     0.059 A 
ATOM     74  C   UNL A   1      42.280  21.306  27.905  1.00  0.00     0.059 A 
ATOM     75  F   UNL A   1      42.306  22.882  29.639  1.00  0.00    -0.206 F 
ATOM     76  C   UNL A   1      42.394  21.021  26.545  1.00  0.00     0.060 A 
BRANCH  76  77
ATOM     77  S   UNL A   1      42.254  19.320  25.954  1.00  0.00     0.124 S 
ATOM     78  O   UNL A   1      43.180  19.323  24.828  1.00  0.00    -0.237 OA
ATOM     79  O   UNL A   1      42.672  18.557  27.126  1.00  0.00    -0.237 OA
ATOM     80  O   UNL A   1      40.841  19.200  25.607  1.00  0.00    -0.744 OA
ENDBRANCH  76  77
ENDBRANCH  44  69
BRANCH  56  81
ATOM     81  C   UNL A   1      48.379  27.542  28.565  1.00  0.00     0.058 A 
ATOM     82  C   UNL A   1      49.072  26.897  29.600  1.00  0.00     0.135 A 
ATOM     83  C   UNL A   1      49.099  27.885  27.408  1.00  0.00     0.135 A 
ATOM     84  F   UNL A   1      48.434  26.555  30.731  1.00  0.00    -0.206 F 
ATOM     85  C   UNL A   1      50.435  26.636  29.509  1.00  0.00     0.059 A 
ATOM     86  C   UNL A   1      50.454  27.603  27.280  1.00  0.00     0.059 A 
ATOM     87  F   UNL A   1      48.481  28.493  26.382  1.00  0.00    -0.206 F 
ATOM     88  C   UNL A   1      51.118  26.994  28.344  1.00  0.00     0.060 A 
BRANCH  88  89
ATOM     89  S   UNL A   1      52.885  26.646  28.238  1.00  0.00     0.124 S 
ATOM     90  O   UNL A   1      52.912  25.558  27.265  1.00  0.00    -0.237 OA
ATOM     91  O   UNL A   1      53.426  27.921  27.780  1.00  0.00    -0.237 OA
ATOM     92  O   UNL A   1      53.241  26.273  29.605  1.00  0.00    -0.744 OA
ENDBRANCH  88  89
ENDBRANCH  56  81
ENDBRANCH  30  31
ENDBRANCH  23  25
ENDBRANCH  22  23
ENDBRANCH   1  22
TORSDOF 15
ENDMDL
MODEL 3
REMARK VINA RESULT:     -10.3      6.610     11.262
REMARK SMILES Cc1cc(Br)cc2c1O[C@H](C(F)(F)F)C(C(=O)OCCOC(=O)c1ccc(-c3c4nc(c(-c5c(F)cc(S(=O)(=O)[O-])cc5F)c5ccc([nH]5)c(-c5c(F)cc(S(=O)(=O)[O-])cc5F)c5nc(c(-c6c(F)cc(S(=O)(=O)[O-])cc6F)c6ccc3[nH]6)C=C5)C=C4)cc1)=C2
REMARK SMILES IDX 20 1 19 2 18 3 16 4 17 5 15 6 1 7 2 8 3 9 8 10 4 11 7 12
REMARK SMILES IDX 9 13 5 14 6 15 90 16 10 17 11 18 12 19 13 20 14 21 21 22
REMARK SMILES IDX 22 23 23 24 24 25 25 26 89 27 26 28 88 29 27 30 28 31 29 32
REMARK SMILES IDX 82 33 30 34 87 35 81 36 83 37 31 38 86 39 80 40 79 41 32 43
REMARK SMILES IDX 66 44 45 45 65 46 46 47 49 48 64 49 84 50 47 51 48 52 63 54
REMARK SMILES IDX 85 55 50 56 33 57 34 58 43 59 35 60 36 61 42 62 44 63 37 64
REMARK SMILES IDX 38 65 39 66 40 67 41 68 67 69 68 70 77 71 69 72 70 73 76 74
REMARK SMILES IDX 78 75 71 76 72 77 73 78 74 79 75 80 51 81 52 82 61 83 53 84
REMARK SMILES IDX 54 85 60 86 62 87 55 88 56 89 57 90 58 91 59 92
REMARK H PARENT 83 42 49 53
REMARK Flexibility Score: inf
ROOT
ATOM      1  C   UNL A   1      34.172  31.155  27.906  1.00  0.00     0.275 C 
ENDROOT
BRANCH   1   2
ATOM      2  C   UNL A   1      33.713  30.229  26.778  1.00  0.00     0.275 C 
BRANCH   2   3
ATOM      3  O   UNL A   1      33.665  28.847  27.199  1.00  0.00    -0.459 OA
BRANCH   3   4
ATOM      4  C   UNL A   1      32.505  28.200  26.931  1.00  0.00     0.338 C 
ATOM      5  O   UNL A   1      31.410  28.450  27.414  1.00  0.00    -0.246 OA
BRANCH   4   6
ATOM      6  C   UNL A   1      32.715  27.126  25.940  1.00  0.00     0.087 C 
ATOM      7  C   UNL A   1      32.901  24.304  21.650  1.00  0.00     0.048 C 
ATOM      8  C   UNL A   1      33.653  24.346  22.947  1.00  0.00    -0.007 A 
ATOM      9  C   UNL A   1      34.776  23.518  23.125  1.00  0.00     0.023 A 
ATOM     10  C   UNL A   1      33.294  25.245  23.963  1.00  0.00     0.130 A 
ATOM     11  C   UNL A   1      35.508  23.568  24.309  1.00  0.00     0.019 A 
ATOM     12  C   UNL A   1      34.051  25.302  25.132  1.00  0.00     0.019 A 
ATOM     13  O   UNL A   1      32.191  26.031  23.755  1.00  0.00    -0.475 OA
ATOM     14  Br  UNL A   1      37.016  22.452  24.536  1.00  0.00    -0.051 Br
ATOM     15  C   UNL A   1      35.149  24.452  25.317  1.00  0.00     0.027 A 
ATOM     16  C   UNL A   1      33.731  26.283  26.147  1.00  0.00     0.027 C 
ATOM     17  C   UNL A   1      31.896  27.114  24.684  1.00  0.00     0.316 C 
BRANCH  17  18
ATOM     18  C   UNL A   1      32.021  28.447  23.931  1.00  0.00     0.430 C 
ATOM     19  F   UNL A   1      33.311  28.861  23.870  1.00  0.00    -0.167 F 
ATOM     20  F   UNL A   1      31.595  28.342  22.648  1.00  0.00    -0.167 F 
ATOM     21  F   UNL A   1      31.307  29.436  24.514  1.00  0.00    -0.167 F 
ENDBRANCH  17  18
ENDBRANCH   4   6
ENDBRANCH   3   4
ENDBRANCH   2   3
ENDBRANCH   1   2
BRANCH   1  22
ATOM     22  O   UNL A   1      35.608  31.246  27.953  1.00  0.00    -0.458 OA
BRANCH  22  23
ATOM     23  C   UNL A   1      36.153  30.852  29.124  1.00  0.00     0.338 C 
ATOM     24  O   UNL A   1      35.702  31.029  30.244  1.00  0.00    -0.246 OA
BRANCH  23  25
ATOM     25  C   UNL A   1      37.361  30.050  28.895  1.00  0.00     0.060 A 
ATOM     26  C   UNL A   1      38.117  29.694  30.004  1.00  0.00     0.016 A 
ATOM     27  C   UNL A   1      37.882  29.885  27.616  1.00  0.00     0.016 A 
ATOM     28  C   UNL A   1      39.458  29.367  29.856  1.00  0.00     0.010 A 
ATOM     29  C   UNL A   1      39.180  29.382  27.465  1.00  0.00     0.010 A 
ATOM     30  C   UNL A   1      40.007  29.171  28.584  1.00  0.00    -0.014 A 
BRANCH  30  31
ATOM     31  C   UNL A   1      41.430  28.750  28.423  1.00  0.00     0.031 A 
ATOM     32  C   UNL A   1      42.543  29.763  28.540  1.00  0.00     0.074 A 
ATOM     33  C   UNL A   1      41.733  27.458  28.168  1.00  0.00     0.049 A 
ATOM     34  N   UNL A   1      43.796  29.663  28.178  1.00  0.00    -0.248 NA
ATOM     35  C   UNL A   1      42.197  31.068  29.129  1.00  0.00     0.031 C 
ATOM     36  C   UNL A   1      40.773  26.353  28.103  1.00  0.00     0.029 A 
ATOM     37  N   UNL A   1      42.939  26.852  27.911  1.00  0.00    -0.354 N 
ATOM     38  C   UNL A   1      44.375  30.901  28.441  1.00  0.00     0.074 A 
ATOM     39  C   UNL A   1      43.331  31.743  28.987  1.00  0.00     0.031 C 
ATOM     40  C   UNL A   1      41.424  25.207  27.871  1.00  0.00     0.029 A 
ATOM     41  C   UNL A   1      42.828  25.509  27.635  1.00  0.00     0.049 A 
ATOM     42  H   UNL A   1      43.799  27.332  27.923  1.00  0.00     0.167 HD
ATOM     43  C   UNL A   1      45.656  31.295  28.240  1.00  0.00     0.037 A 
ATOM     44  C   UNL A   1      43.731  24.623  27.174  1.00  0.00     0.037 A 
ATOM     45  C   UNL A   1      46.689  30.425  27.731  1.00  0.00     0.049 A 
ATOM     46  C   UNL A   1      45.121  25.099  26.878  1.00  0.00     0.074 A 
ATOM     47  C   UNL A   1      48.017  30.723  27.471  1.00  0.00     0.029 A 
ATOM     48  N   UNL A   1      46.518  29.082  27.423  1.00  0.00    -0.354 N 
ATOM     49  N   UNL A   1      45.630  26.298  27.032  1.00  0.00    -0.248 NA
ATOM     50  C   UNL A   1      46.056  24.109  26.331  1.00  0.00     0.031 C 
ATOM     51  C   UNL A   1      48.633  29.576  26.962  1.00  0.00     0.029 A 
ATOM     52  C   UNL A   1      47.709  28.543  26.964  1.00  0.00     0.049 A 
ATOM     53  H   UNL A   1      45.672  28.585  27.516  1.00  0.00     0.167 HD
ATOM     54  C   UNL A   1      46.955  26.202  26.624  1.00  0.00     0.074 A 
ATOM     55  C   UNL A   1      47.168  24.823  26.230  1.00  0.00     0.031 C 
ATOM     56  C   UNL A   1      47.907  27.167  26.581  1.00  0.00     0.037 A 
BRANCH  43  57
ATOM     57  C   UNL A   1      46.017  32.729  28.533  1.00  0.00     0.058 A 
ATOM     58  C   UNL A   1      45.894  33.743  27.572  1.00  0.00     0.135 A 
ATOM     59  C   UNL A   1      46.435  33.103  29.823  1.00  0.00     0.135 A 
ATOM     60  F   UNL A   1      45.518  33.445  26.318  1.00  0.00    -0.206 F 
ATOM     61  C   UNL A   1      46.187  35.072  27.871  1.00  0.00     0.059 A 
ATOM     62  C   UNL A   1      46.704  34.429  30.153  1.00  0.00     0.059 A 
ATOM     63  F   UNL A   1      46.572  32.176  30.784  1.00  0.00    -0.206 F 
ATOM     64  C   UNL A   1      46.586  35.406  29.167  1.00  0.00     0.060 A 
BRANCH  64  65
ATOM     65  S   UNL A   1      46.941  37.138  29.542  1.00  0.00     0.124 S 
ATOM     66  O   UNL A   1      46.067  37.825  28.597  1.00  0.00    -0.237 OA
ATOM     67  O   UNL A   1      46.558  37.236  30.946  1.00  0.00    -0.237 OA
ATOM     68  O   UNL A   1      48.371  37.259  29.274  1.00  0.00    -0.744 OA
ENDBRANCH  64  65
ENDBRANCH  43  57
BRANCH  44  69
ATOM     69  C   UNL A   1      43.322  23.213  26.926  1.00  0.00     0.058 A 
ATOM     70  C   UNL A   1      43.157  22.731  25.619  1.00  0.00     0.135 A 
ATOM     71  C   UNL A   1      43.136  22.306  27.984  1.00  0.00     0.135 A 
ATOM     72  F   UNL A   1      43.314  23.560  24.576  1.00  0.00    -0.206 F 
ATOM     73  C   UNL A   1      42.824  21.405  25.368  1.00  0.00     0.059 A 
ATOM     74  C   UNL A   1      42.836  20.967  27.757  1.00  0.00     0.059 A 
ATOM     75  F   UNL A   1      43.294  22.711  29.253  1.00  0.00    -0.206 F 
ATOM     76  C   UNL A   1      42.676  20.527  26.445  1.00  0.00     0.060 A 
BRANCH  76  77
ATOM     77  S   UNL A   1      42.308  18.793  26.100  1.00  0.00     0.124 S 
ATOM     78  O   UNL A   1      43.224  18.510  25.001  1.00  0.00    -0.237 OA
ATOM     79  O   UNL A   1      42.624  18.157  27.376  1.00  0.00    -0.237 OA
ATOM     80  O   UNL A   1      40.891  18.813  25.751  1.00  0.00    -0.744 OA
ENDBRANCH  76  77
ENDBRANCH  44  69
BRANCH  56  81
ATOM     81  C   UNL A   1      49.282  26.750  26.140  1.00  0.00     0.058 A 
ATOM     82  C   UNL A   1      50.204  26.175  27.027  1.00  0.00     0.135 A 
ATOM     83  C   UNL A   1      49.672  26.912  24.800  1.00  0.00     0.135 A 
ATOM     84  F   UNL A   1      49.884  26.005  28.320  1.00  0.00    -0.206 F 
ATOM     85  C   UNL A   1      51.479  25.808  26.611  1.00  0.00     0.059 A 
ATOM     86  C   UNL A   1      50.930  26.521  24.354  1.00  0.00     0.059 A 
ATOM     87  F   UNL A   1      48.824  27.447  23.908  1.00  0.00    -0.206 F 
ATOM     88  C   UNL A   1      51.833  25.987  25.271  1.00  0.00     0.060 A 
BRANCH  88  89
ATOM     89  S   UNL A   1      53.490  25.503  24.746  1.00  0.00     0.124 S 
ATOM     90  O   UNL A   1      53.501  25.954  23.358  1.00  0.00    -0.237 OA
ATOM     91  O   UNL A   1      54.339  26.256  25.664  1.00  0.00    -0.237 OA
ATOM     92  O   UNL A   1      53.499  24.056  24.935  1.00  0.00    -0.744 OA
ENDBRANCH  88  89
ENDBRANCH  56  81
ENDBRANCH  30  31
ENDBRANCH  23  25
ENDBRANCH  22  23
ENDBRANCH   1  22
TORSDOF 15
ENDMDL
