MODEL 1
REMARK VINA RESULT:     -10.9      0.000      0.000
REMARK SMILES CC/C(=C/C(=O)[C@H](Cc1ccc(Cl)cc1Cl)C(=O)OCCOC(=O)c1ccc(-c2c3nc(c(-c4c(F)cc(S(=O)(=O)[O-])cc4F)c4ccc([nH]4)c(-c4c(F)cc(S(=O)(=O)[O-])cc4F)c4nc(c(-c5c(F)cc(S(=O)(=O)[O-])cc5F)c5ccc2[nH]5)C=C4)C=C3)cc1)N(C)C
REMARK SMILES IDX 20 1 19 2 17 3 18 4 7 5 5 6 6 7 4 8 3 9 2 10 1 11 91 12
REMARK SMILES IDX 92 13 93 14 8 15 9 16 10 17 15 18 11 19 14 20 16 21 12 22
REMARK SMILES IDX 13 23 21 24 22 25 23 26 24 27 25 28 26 29 90 30 27 31 89 32
REMARK SMILES IDX 28 33 29 34 30 35 83 36 31 37 88 38 82 39 84 40 32 41 87 42
REMARK SMILES IDX 81 43 80 44 33 46 67 47 46 48 66 49 47 50 50 51 65 52 85 53
REMARK SMILES IDX 48 54 49 55 64 57 86 58 51 59 34 60 35 61 44 62 36 63 37 64
REMARK SMILES IDX 43 65 45 66 38 67 39 68 40 69 41 70 42 71 68 72 69 73 78 74
REMARK SMILES IDX 70 75 71 76 77 77 79 78 72 79 73 80 74 81 75 82 76 83 52 84
REMARK SMILES IDX 53 85 62 86 54 87 55 88 61 89 63 90 56 91 57 92 58 93 59 94
REMARK SMILES IDX 60 95
REMARK H PARENT 84 45 50 56
REMARK Flexibility Score: inf
ROOT
ATOM      1  C   UNL A   1      38.289  22.215  25.772  1.00  0.00     0.274 C 
ENDROOT
BRANCH   1   2
ATOM      2  O   UNL A   1      37.601  23.429  25.424  1.00  0.00    -0.461 OA
BRANCH   2   3
ATOM      3  C   UNL A   1      36.678  23.325  24.425  1.00  0.00     0.317 C 
ATOM      4  O   UNL A   1      36.920  22.796  23.349  1.00  0.00    -0.251 OA
BRANCH   3   5
ATOM      5  C   UNL A   1      35.285  23.694  24.925  1.00  0.00     0.175 C 
BRANCH   5   6
ATOM      6  C   UNL A   1      34.631  22.664  25.842  1.00  0.00     0.171 C 
ATOM      7  O   UNL A   1      34.659  22.752  27.069  1.00  0.00    -0.294 OA
BRANCH   6   8
ATOM      8  C   UNL A   1      33.961  21.466  25.275  1.00  0.00     0.069 C 
ATOM      9  C   UNL A   1      32.744  21.392  24.701  1.00  0.00     0.016 C 
BRANCH   9  10
ATOM     10  C   UNL A   1      32.506  20.148  23.844  1.00  0.00     0.050 C 
ATOM     11  C   UNL A   1      33.220  18.889  24.306  1.00  0.00     0.010 C 
ENDBRANCH   9  10
BRANCH   9  12
ATOM     12  N   UNL A   1      31.745  22.377  24.747  1.00  0.00    -0.381 N 
ATOM     13  C   UNL A   1      31.223  23.076  23.569  1.00  0.00     0.143 C 
ATOM     14  C   UNL A   1      30.992  22.695  25.971  1.00  0.00     0.143 C 
ENDBRANCH   9  12
ENDBRANCH   6   8
ENDBRANCH   5   6
BRANCH   5  15
ATOM     15  C   UNL A   1      34.440  24.456  23.881  1.00  0.00     0.060 C 
BRANCH  15  16
ATOM     16  C   UNL A   1      33.773  25.795  24.107  1.00  0.00    -0.028 A 
ATOM     17  C   UNL A   1      33.932  26.310  25.415  1.00  0.00     0.007 A 
ATOM     18  C   UNL A   1      33.044  26.563  23.190  1.00  0.00     0.045 A 
ATOM     19  C   UNL A   1      33.314  27.489  25.820  1.00  0.00     0.021 A 
ATOM     20  C   UNL A   1      32.394  27.733  23.605  1.00  0.00     0.041 A 
ATOM     21  Cl  UNL A   1      32.905  26.169  21.518  1.00  0.00    -0.084 Cl
ATOM     22  C   UNL A   1      32.522  28.182  24.917  1.00  0.00     0.042 A 
ATOM     23  Cl  UNL A   1      31.709  29.610  25.422  1.00  0.00    -0.084 Cl
ENDBRANCH  15  16
ENDBRANCH   5  15
ENDBRANCH   3   5
ENDBRANCH   2   3
ENDBRANCH   1   2
BRANCH   1  24
ATOM     24  C   UNL A   1      39.590  22.559  26.511  1.00  0.00     0.275 C 
BRANCH  24  25
ATOM     25  O   UNL A   1      39.834  23.981  26.474  1.00  0.00    -0.458 OA
BRANCH  25  26
ATOM     26  C   UNL A   1      41.051  24.405  26.887  1.00  0.00     0.338 C 
ATOM     27  O   UNL A   1      42.140  24.021  26.496  1.00  0.00    -0.246 OA
BRANCH  26  28
ATOM     28  C   UNL A   1      40.882  25.500  27.857  1.00  0.00     0.060 A 
ATOM     29  C   UNL A   1      41.953  26.360  28.113  1.00  0.00     0.016 A 
ATOM     30  C   UNL A   1      39.692  25.621  28.577  1.00  0.00     0.016 A 
ATOM     31  C   UNL A   1      41.851  27.320  29.116  1.00  0.00     0.010 A 
ATOM     32  C   UNL A   1      39.575  26.622  29.549  1.00  0.00     0.010 A 
ATOM     33  C   UNL A   1      40.659  27.469  29.840  1.00  0.00    -0.014 A 
BRANCH  33  34
ATOM     34  C   UNL A   1      40.557  28.512  30.895  1.00  0.00     0.031 A 
ATOM     35  C   UNL A   1      41.463  28.471  32.097  1.00  0.00     0.074 A 
ATOM     36  C   UNL A   1      39.658  29.507  30.764  1.00  0.00     0.049 A 
ATOM     37  N   UNL A   1      41.483  29.256  33.144  1.00  0.00    -0.248 NA
ATOM     38  C   UNL A   1      42.475  27.405  32.128  1.00  0.00     0.031 C 
ATOM     39  C   UNL A   1      38.738  29.669  29.637  1.00  0.00     0.029 A 
ATOM     40  N   UNL A   1      39.372  30.573  31.580  1.00  0.00    -0.354 N 
ATOM     41  C   UNL A   1      42.489  28.767  33.970  1.00  0.00     0.074 A 
ATOM     42  C   UNL A   1      43.043  27.603  33.310  1.00  0.00     0.031 C 
ATOM     43  C   UNL A   1      38.005  30.778  29.822  1.00  0.00     0.029 A 
ATOM     44  C   UNL A   1      38.365  31.378  31.103  1.00  0.00     0.049 A 
ATOM     45  H   UNL A   1      39.844  30.745  32.427  1.00  0.00     0.167 HD
ATOM     46  C   UNL A   1      42.916  29.250  35.162  1.00  0.00     0.037 A 
ATOM     47  C   UNL A   1      37.780  32.465  31.643  1.00  0.00     0.037 A 
ATOM     48  C   UNL A   1      42.376  30.423  35.802  1.00  0.00     0.049 A 
ATOM     49  C   UNL A   1      38.254  32.965  32.980  1.00  0.00     0.074 A 
ATOM     50  C   UNL A   1      42.751  30.999  37.004  1.00  0.00     0.029 A 
ATOM     51  N   UNL A   1      41.348  31.203  35.291  1.00  0.00    -0.354 N 
ATOM     52  N   UNL A   1      39.205  32.487  33.747  1.00  0.00    -0.248 NA
ATOM     53  C   UNL A   1      37.577  34.149  33.524  1.00  0.00     0.031 C 
ATOM     54  C   UNL A   1      41.927  32.105  37.237  1.00  0.00     0.029 A 
ATOM     55  C   UNL A   1      41.068  32.245  36.160  1.00  0.00     0.049 A 
ATOM     56  H   UNL A   1      40.885  31.039  34.437  1.00  0.00     0.167 HD
ATOM     57  C   UNL A   1      39.256  33.328  34.854  1.00  0.00     0.074 A 
ATOM     58  C   UNL A   1      38.247  34.348  34.652  1.00  0.00     0.031 C 
ATOM     59  C   UNL A   1      40.065  33.259  35.940  1.00  0.00     0.037 A 
BRANCH  46  60
ATOM     60  C   UNL A   1      44.011  28.496  35.866  1.00  0.00     0.058 A 
ATOM     61  C   UNL A   1      45.367  28.803  35.673  1.00  0.00     0.135 A 
ATOM     62  C   UNL A   1      43.697  27.469  36.772  1.00  0.00     0.135 A 
ATOM     63  F   UNL A   1      45.725  29.764  34.806  1.00  0.00    -0.206 F 
ATOM     64  C   UNL A   1      46.373  28.101  36.328  1.00  0.00     0.059 A 
ATOM     65  C   UNL A   1      44.686  26.770  37.458  1.00  0.00     0.059 A 
ATOM     66  F   UNL A   1      42.416  27.134  36.997  1.00  0.00    -0.206 F 
ATOM     67  C   UNL A   1      46.023  27.082  37.217  1.00  0.00     0.060 A 
BRANCH  67  68
ATOM     68  S   UNL A   1      47.340  26.174  38.053  1.00  0.00     0.124 S 
ATOM     69  O   UNL A   1      46.687  25.805  39.306  1.00  0.00    -0.237 OA
ATOM     70  O   UNL A   1      47.601  25.075  37.129  1.00  0.00    -0.237 OA
ATOM     71  O   UNL A   1      48.411  27.158  38.171  1.00  0.00    -0.744 OA
ENDBRANCH  67  68
ENDBRANCH  46  60
BRANCH  47  72
ATOM     72  C   UNL A   1      36.674  33.146  30.920  1.00  0.00     0.058 A 
ATOM     73  C   UNL A   1      35.340  32.989  31.323  1.00  0.00     0.135 A 
ATOM     74  C   UNL A   1      36.931  33.980  29.821  1.00  0.00     0.135 A 
ATOM     75  F   UNL A   1      35.042  32.193  32.362  1.00  0.00    -0.206 F 
ATOM     76  C   UNL A   1      34.297  33.625  30.656  1.00  0.00     0.059 A 
ATOM     77  C   UNL A   1      35.908  34.647  29.154  1.00  0.00     0.059 A 
ATOM     78  F   UNL A   1      38.191  34.173  29.402  1.00  0.00    -0.206 F 
ATOM     79  C   UNL A   1      34.593  34.454  29.572  1.00  0.00     0.060 A 
BRANCH  79  80
ATOM     80  S   UNL A   1      33.238  35.311  28.738  1.00  0.00     0.124 S 
ATOM     81  O   UNL A   1      32.581  34.211  28.043  1.00  0.00    -0.237 OA
ATOM     82  O   UNL A   1      32.502  35.889  29.858  1.00  0.00    -0.237 OA
ATOM     83  O   UNL A   1      33.927  36.275  27.886  1.00  0.00    -0.744 OA
ENDBRANCH  79  80
ENDBRANCH  47  72
BRANCH  59  84
ATOM     84  C   UNL A   1      39.923  34.340  36.975  1.00  0.00     0.058 A 
ATOM     85  C   UNL A   1      40.552  35.586  36.834  1.00  0.00     0.135 A 
ATOM     86  C   UNL A   1      39.112  34.138  38.103  1.00  0.00     0.135 A 
ATOM     87  F   UNL A   1      41.344  35.827  35.776  1.00  0.00    -0.206 F 
ATOM     88  C   UNL A   1      40.402  36.588  37.788  1.00  0.00     0.059 A 
ATOM     89  C   UNL A   1      38.928  35.134  39.058  1.00  0.00     0.059 A 
ATOM     90  F   UNL A   1      38.479  32.967  38.281  1.00  0.00    -0.206 F 
ATOM     91  C   UNL A   1      39.587  36.352  38.897  1.00  0.00     0.060 A 
BRANCH  91  92
ATOM     92  S   UNL A   1      39.375  37.669  40.115  1.00  0.00     0.124 S 
ATOM     93  O   UNL A   1      39.157  36.905  41.338  1.00  0.00    -0.237 OA
ATOM     94  O   UNL A   1      40.647  38.382  40.030  1.00  0.00    -0.237 OA
ATOM     95  O   UNL A   1      38.217  38.405  39.618  1.00  0.00    -0.744 OA
ENDBRANCH  91  92
ENDBRANCH  59  84
ENDBRANCH  33  34
ENDBRANCH  26  28
ENDBRANCH  25  26
ENDBRANCH  24  25
ENDBRANCH   1  24
TORSDOF 20
ENDMDL
MODEL 2
REMARK VINA RESULT:     -10.9      4.887     10.437
REMARK SMILES CC/C(=C/C(=O)[C@H](Cc1ccc(Cl)cc1Cl)C(=O)OCCOC(=O)c1ccc(-c2c3nc(c(-c4c(F)cc(S(=O)(=O)[O-])cc4F)c4ccc([nH]4)c(-c4c(F)cc(S(=O)(=O)[O-])cc4F)c4nc(c(-c5c(F)cc(S(=O)(=O)[O-])cc5F)c5ccc2[nH]5)C=C4)C=C3)cc1)N(C)C
REMARK SMILES IDX 20 1 19 2 17 3 18 4 7 5 5 6 6 7 4 8 3 9 2 10 1 11 91 12
REMARK SMILES IDX 92 13 93 14 8 15 9 16 10 17 15 18 11 19 14 20 16 21 12 22
REMARK SMILES IDX 13 23 21 24 22 25 23 26 24 27 25 28 26 29 90 30 27 31 89 32
REMARK SMILES IDX 28 33 29 34 30 35 83 36 31 37 88 38 82 39 84 40 32 41 87 42
REMARK SMILES IDX 81 43 80 44 33 46 67 47 46 48 66 49 47 50 50 51 65 52 85 53
REMARK SMILES IDX 48 54 49 55 64 57 86 58 51 59 34 60 35 61 44 62 36 63 37 64
REMARK SMILES IDX 43 65 45 66 38 67 39 68 40 69 41 70 42 71 68 72 69 73 78 74
REMARK SMILES IDX 70 75 71 76 77 77 79 78 72 79 73 80 74 81 75 82 76 83 52 84
REMARK SMILES IDX 53 85 62 86 54 87 55 88 61 89 63 90 56 91 57 92 58 93 59 94
REMARK SMILES IDX 60 95
REMARK H PARENT 84 45 50 56
REMARK Flexibility Score: inf
ROOT
ATOM      1  C   UNL A   1      32.101  28.762  25.898  1.00  0.00     0.274 C 
ENDROOT
BRANCH   1   2
ATOM      2  O   UNL A   1      33.003  27.666  25.670  1.00  0.00    -0.461 OA
BRANCH   2   3
ATOM      3  C   UNL A   1      33.734  27.724  24.520  1.00  0.00     0.317 C 
ATOM      4  O   UNL A   1      34.413  28.694  24.213  1.00  0.00    -0.251 OA
BRANCH   3   5
ATOM      5  C   UNL A   1      33.800  26.359  23.843  1.00  0.00     0.175 C 
BRANCH   5   6
ATOM      6  C   UNL A   1      33.072  26.263  22.506  1.00  0.00     0.171 C 
ATOM      7  O   UNL A   1      33.520  25.634  21.547  1.00  0.00    -0.294 OA
BRANCH   6   8
ATOM      8  C   UNL A   1      31.788  26.978  22.291  1.00  0.00     0.069 C 
ATOM      9  C   UNL A   1      30.616  26.785  22.929  1.00  0.00     0.016 C 
BRANCH   9  10
ATOM     10  C   UNL A   1      29.612  27.932  22.802  1.00  0.00     0.050 C 
ATOM     11  C   UNL A   1      30.185  29.250  22.311  1.00  0.00     0.010 C 
ENDBRANCH   9  10
BRANCH   9  12
ATOM     12  N   UNL A   1      30.290  25.694  23.750  1.00  0.00    -0.381 N 
ATOM     13  C   UNL A   1      30.358  24.293  23.323  1.00  0.00     0.143 C 
ATOM     14  C   UNL A   1      30.003  25.832  25.187  1.00  0.00     0.143 C 
ENDBRANCH   9  12
ENDBRANCH   6   8
ENDBRANCH   5   6
BRANCH   5  15
ATOM     15  C   UNL A   1      33.763  25.178  24.837  1.00  0.00     0.060 C 
BRANCH  15  16
ATOM     16  C   UNL A   1      34.761  24.042  24.880  1.00  0.00    -0.028 A 
ATOM     17  C   UNL A   1      35.884  24.286  25.706  1.00  0.00     0.007 A 
ATOM     18  C   UNL A   1      34.696  22.809  24.221  1.00  0.00     0.045 A 
ATOM     19  C   UNL A   1      36.938  23.383  25.796  1.00  0.00     0.021 A 
ATOM     20  C   UNL A   1      35.771  21.913  24.283  1.00  0.00     0.041 A 
ATOM     21  Cl  UNL A   1      33.322  22.283  23.322  1.00  0.00    -0.084 Cl
ATOM     22  C   UNL A   1      36.889  22.210  25.059  1.00  0.00     0.042 A 
ATOM     23  Cl  UNL A   1      38.212  21.113  25.118  1.00  0.00    -0.084 Cl
ENDBRANCH  15  16
ENDBRANCH   5  15
ENDBRANCH   3   5
ENDBRANCH   2   3
ENDBRANCH   1   2
BRANCH   1  24
ATOM     24  C   UNL A   1      32.471  29.464  27.212  1.00  0.00     0.275 C 
BRANCH  24  25
ATOM     25  O   UNL A   1      33.853  29.216  27.548  1.00  0.00    -0.458 OA
BRANCH  25  26
ATOM     26  C   UNL A   1      34.588  30.281  27.944  1.00  0.00     0.338 C 
ATOM     27  O   UNL A   1      34.193  31.415  28.156  1.00  0.00    -0.246 OA
BRANCH  26  28
ATOM     28  C   UNL A   1      35.978  29.856  28.175  1.00  0.00     0.060 A 
ATOM     29  C   UNL A   1      36.354  29.399  29.441  1.00  0.00     0.016 A 
ATOM     30  C   UNL A   1      36.929  29.990  27.162  1.00  0.00     0.016 A 
ATOM     31  C   UNL A   1      37.690  29.112  29.709  1.00  0.00     0.010 A 
ATOM     32  C   UNL A   1      38.263  29.651  27.421  1.00  0.00     0.010 A 
ATOM     33  C   UNL A   1      38.659  29.226  28.702  1.00  0.00    -0.014 A 
BRANCH  33  34
ATOM     34  C   UNL A   1      40.078  28.897  28.998  1.00  0.00     0.031 A 
ATOM     35  C   UNL A   1      40.971  29.907  29.668  1.00  0.00     0.074 A 
ATOM     36  C   UNL A   1      40.561  27.680  28.677  1.00  0.00     0.049 A 
ATOM     37  N   UNL A   1      42.246  29.824  29.952  1.00  0.00    -0.248 NA
ATOM     38  C   UNL A   1      40.351  31.180  30.065  1.00  0.00     0.031 C 
ATOM     39  C   UNL A   1      39.792  26.607  28.043  1.00  0.00     0.029 A 
ATOM     40  N   UNL A   1      41.810  27.137  28.843  1.00  0.00    -0.354 N 
ATOM     41  C   UNL A   1      42.587  31.037  30.538  1.00  0.00     0.074 A 
ATOM     42  C   UNL A   1      41.388  31.848  30.549  1.00  0.00     0.031 C 
ATOM     43  C   UNL A   1      40.578  25.530  27.893  1.00  0.00     0.029 A 
ATOM     44  C   UNL A   1      41.919  25.851  28.370  1.00  0.00     0.049 A 
ATOM     45  H   UNL A   1      42.558  27.623  29.261  1.00  0.00     0.167 HD
ATOM     46  C   UNL A   1      43.787  31.433  31.029  1.00  0.00     0.037 A 
ATOM     47  C   UNL A   1      42.983  25.026  28.308  1.00  0.00     0.037 A 
ATOM     48  C   UNL A   1      44.971  30.611  31.036  1.00  0.00     0.049 A 
ATOM     49  C   UNL A   1      44.310  25.499  28.835  1.00  0.00     0.074 A 
ATOM     50  C   UNL A   1      46.230  30.919  31.523  1.00  0.00     0.029 A 
ATOM     51  N   UNL A   1      45.043  29.318  30.537  1.00  0.00    -0.354 N 
ATOM     52  N   UNL A   1      44.615  26.652  29.382  1.00  0.00    -0.248 NA
ATOM     53  C   UNL A   1      45.437  24.563  28.735  1.00  0.00     0.031 C 
ATOM     54  C   UNL A   1      47.072  29.826  31.286  1.00  0.00     0.029 A 
ATOM     55  C   UNL A   1      46.327  28.821  30.692  1.00  0.00     0.049 A 
ATOM     56  H   UNL A   1      44.291  28.827  30.131  1.00  0.00     0.167 HD
ATOM     57  C   UNL A   1      45.963  26.569  29.715  1.00  0.00     0.074 A 
ATOM     58  C   UNL A   1      46.411  25.251  29.315  1.00  0.00     0.031 C 
ATOM     59  C   UNL A   1      46.756  27.502  30.297  1.00  0.00     0.037 A 
BRANCH  46  60
ATOM     60  C   UNL A   1      43.886  32.829  31.582  1.00  0.00     0.058 A 
ATOM     61  C   UNL A   1      43.747  33.096  32.952  1.00  0.00     0.135 A 
ATOM     62  C   UNL A   1      44.155  33.912  30.729  1.00  0.00     0.135 A 
ATOM     63  F   UNL A   1      43.473  32.100  33.810  1.00  0.00    -0.206 F 
ATOM     64  C   UNL A   1      43.841  34.390  33.455  1.00  0.00     0.059 A 
ATOM     65  C   UNL A   1      44.278  35.212  31.213  1.00  0.00     0.059 A 
ATOM     66  F   UNL A   1      44.299  33.715  29.409  1.00  0.00    -0.206 F 
ATOM     67  C   UNL A   1      44.103  35.443  32.576  1.00  0.00     0.060 A 
BRANCH  67  68
ATOM     68  S   UNL A   1      44.212  37.118  33.242  1.00  0.00     0.124 S 
ATOM     69  O   UNL A   1      45.275  36.967  34.232  1.00  0.00    -0.237 OA
ATOM     70  O   UNL A   1      44.555  37.904  32.061  1.00  0.00    -0.237 OA
ATOM     71  O   UNL A   1      42.879  37.356  33.785  1.00  0.00    -0.744 OA
ENDBRANCH  67  68
ENDBRANCH  46  60
BRANCH  47  72
ATOM     72  C   UNL A   1      42.835  23.672  27.713  1.00  0.00     0.058 A 
ATOM     73  C   UNL A   1      43.113  23.441  26.358  1.00  0.00     0.135 A 
ATOM     74  C   UNL A   1      42.429  22.577  28.493  1.00  0.00     0.135 A 
ATOM     75  F   UNL A   1      43.495  24.457  25.569  1.00  0.00    -0.206 F 
ATOM     76  C   UNL A   1      42.981  22.176  25.792  1.00  0.00     0.059 A 
ATOM     77  C   UNL A   1      42.316  21.299  27.956  1.00  0.00     0.059 A 
ATOM     78  F   UNL A   1      42.163  22.743  29.798  1.00  0.00    -0.206 F 
ATOM     79  C   UNL A   1      42.584  21.110  26.602  1.00  0.00     0.060 A 
BRANCH  79  80
ATOM     80  S   UNL A   1      42.457  19.463  25.870  1.00  0.00     0.124 S 
ATOM     81  O   UNL A   1      43.053  18.634  26.911  1.00  0.00    -0.237 OA
ATOM     82  O   UNL A   1      41.017  19.317  25.684  1.00  0.00    -0.237 OA
ATOM     83  O   UNL A   1      43.231  19.584  24.638  1.00  0.00    -0.744 OA
ENDBRANCH  79  80
ENDBRANCH  47  72
BRANCH  59  84
ATOM     84  C   UNL A   1      48.182  27.116  30.577  1.00  0.00     0.058 A 
ATOM     85  C   UNL A   1      49.212  27.379  29.661  1.00  0.00     0.135 A 
ATOM     86  C   UNL A   1      48.526  26.510  31.796  1.00  0.00     0.135 A 
ATOM     87  F   UNL A   1      48.934  27.950  28.478  1.00  0.00    -0.206 F 
ATOM     88  C   UNL A   1      50.532  27.034  29.934  1.00  0.00     0.059 A 
ATOM     89  C   UNL A   1      49.843  26.179  32.100  1.00  0.00     0.059 A 
ATOM     90  F   UNL A   1      47.580  26.246  32.711  1.00  0.00    -0.206 F 
ATOM     91  C   UNL A   1      50.837  26.434  31.158  1.00  0.00     0.060 A 
BRANCH  91  92
ATOM     92  S   UNL A   1      52.558  26.017  31.514  1.00  0.00     0.124 S 
ATOM     93  O   UNL A   1      52.930  27.076  32.446  1.00  0.00    -0.237 OA
ATOM     94  O   UNL A   1      52.444  24.679  32.088  1.00  0.00    -0.237 OA
ATOM     95  O   UNL A   1      53.199  26.077  30.204  1.00  0.00    -0.744 OA
ENDBRANCH  91  92
ENDBRANCH  59  84
ENDBRANCH  33  34
ENDBRANCH  26  28
ENDBRANCH  25  26
ENDBRANCH  24  25
ENDBRANCH   1  24
TORSDOF 20
ENDMDL
MODEL 3
REMARK VINA RESULT:     -10.7      4.982      9.889
REMARK SMILES CC/C(=C/C(=O)[C@H](Cc1ccc(Cl)cc1Cl)C(=O)OCCOC(=O)c1ccc(-c2c3nc(c(-c4c(F)cc(S(=O)(=O)[O-])cc4F)c4ccc([nH]4)c(-c4c(F)cc(S(=O)(=O)[O-])cc4F)c4nc(c(-c5c(F)cc(S(=O)(=O)[O-])cc5F)c5ccc2[nH]5)C=C4)C=C3)cc1)N(C)C
REMARK SMILES IDX 20 1 19 2 17 3 18 4 7 5 5 6 6 7 4 8 3 9 2 10 1 11 91 12
REMARK SMILES IDX 92 13 93 14 8 15 9 16 10 17 15 18 11 19 14 20 16 21 12 22
REMARK SMILES IDX 13 23 21 24 22 25 23 26 24 27 25 28 26 29 90 30 27 31 89 32
REMARK SMILES IDX 28 33 29 34 30 35 83 36 31 37 88 38 82 39 84 40 32 41 87 42
REMARK SMILES IDX 81 43 80 44 33 46 67 47 46 48 66 49 47 50 50 51 65 52 85 53
REMARK SMILES IDX 48 54 49 55 64 57 86 58 51 59 34 60 35 61 44 62 36 63 37 64
REMARK SMILES IDX 43 65 45 66 38 67 39 68 40 69 41 70 42 71 68 72 69 73 78 74
REMARK SMILES IDX 70 75 71 76 77 77 79 78 72 79 73 80 74 81 75 82 76 83 52 84
REMARK SMILES IDX 53 85 62 86 54 87 55 88 61 89 63 90 56 91 57 92 58 93 59 94
REMARK SMILES IDX 60 95
REMARK H PARENT 84 45 50 56
REMARK Flexibility Score: inf
ROOT
ATOM      1  C   UNL A   1      32.344  28.548  25.895  1.00  0.00     0.274 C 
ENDROOT
BRANCH   1   2
ATOM      2  O   UNL A   1      33.569  27.925  25.473  1.00  0.00    -0.461 OA
BRANCH   2   3
ATOM      3  C   UNL A   1      33.830  27.968  24.135  1.00  0.00     0.317 C 
ATOM      4  O   UNL A   1      34.288  28.957  23.580  1.00  0.00    -0.251 OA
BRANCH   3   5
ATOM      5  C   UNL A   1      33.738  26.579  23.513  1.00  0.00     0.175 C 
BRANCH   5   6
ATOM      6  C   UNL A   1      32.880  26.487  22.255  1.00  0.00     0.171 C 
ATOM      7  O   UNL A   1      33.276  25.960  21.215  1.00  0.00    -0.294 OA
BRANCH   6   8
ATOM      8  C   UNL A   1      31.521  27.086  22.222  1.00  0.00     0.069 C 
ATOM      9  C   UNL A   1      30.466  26.789  23.007  1.00  0.00     0.016 C 
BRANCH   9  10
ATOM     10  C   UNL A   1      29.357  27.842  23.029  1.00  0.00     0.050 C 
ATOM     11  C   UNL A   1      29.828  29.286  23.038  1.00  0.00     0.010 C 
ENDBRANCH   9  10
BRANCH   9  12
ATOM     12  N   UNL A   1      30.349  25.672  23.849  1.00  0.00    -0.381 N 
ATOM     13  C   UNL A   1      29.975  25.745  25.265  1.00  0.00     0.143 C 
ATOM     14  C   UNL A   1      30.426  24.288  23.356  1.00  0.00     0.143 C 
ENDBRANCH   9  12
ENDBRANCH   6   8
ENDBRANCH   5   6
BRANCH   5  15
ATOM     15  C   UNL A   1      33.715  25.440  24.556  1.00  0.00     0.060 C 
BRANCH  15  16
ATOM     16  C   UNL A   1      34.710  24.302  24.628  1.00  0.00    -0.028 A 
ATOM     17  C   UNL A   1      35.622  24.396  25.706  1.00  0.00     0.007 A 
ATOM     18  C   UNL A   1      34.821  23.196  23.777  1.00  0.00     0.045 A 
ATOM     19  C   UNL A   1      36.656  23.481  25.873  1.00  0.00     0.021 A 
ATOM     20  C   UNL A   1      35.882  22.292  23.924  1.00  0.00     0.041 A 
ATOM     21  Cl  UNL A   1      33.688  22.840  22.528  1.00  0.00    -0.084 Cl
ATOM     22  C   UNL A   1      36.798  22.446  24.962  1.00  0.00     0.042 A 
ATOM     23  Cl  UNL A   1      38.106  21.342  25.126  1.00  0.00    -0.084 Cl
ENDBRANCH  15  16
ENDBRANCH   5  15
ENDBRANCH   3   5
ENDBRANCH   2   3
ENDBRANCH   1   2
BRANCH   1  24
ATOM     24  C   UNL A   1      32.576  29.289  27.219  1.00  0.00     0.275 C 
BRANCH  24  25
ATOM     25  O   UNL A   1      33.924  29.075  27.691  1.00  0.00    -0.458 OA
BRANCH  25  26
ATOM     26  C   UNL A   1      34.620  30.171  28.071  1.00  0.00     0.338 C 
ATOM     27  O   UNL A   1      34.181  31.285  28.299  1.00  0.00    -0.246 OA
BRANCH  26  28
ATOM     28  C   UNL A   1      36.034  29.808  28.262  1.00  0.00     0.060 A 
ATOM     29  C   UNL A   1      36.462  29.351  29.511  1.00  0.00     0.016 A 
ATOM     30  C   UNL A   1      36.953  30.002  27.229  1.00  0.00     0.016 A 
ATOM     31  C   UNL A   1      37.816  29.124  29.743  1.00  0.00     0.010 A 
ATOM     32  C   UNL A   1      38.307  29.722  27.451  1.00  0.00     0.010 A 
ATOM     33  C   UNL A   1      38.753  29.297  28.715  1.00  0.00    -0.014 A 
BRANCH  33  34
ATOM     34  C   UNL A   1      40.194  29.031  28.972  1.00  0.00     0.031 A 
ATOM     35  C   UNL A   1      40.801  27.703  28.608  1.00  0.00     0.074 A 
ATOM     36  C   UNL A   1      40.961  29.994  29.519  1.00  0.00     0.049 A 
ATOM     37  N   UNL A   1      42.018  27.268  28.808  1.00  0.00    -0.248 NA
ATOM     38  C   UNL A   1      39.922  26.734  27.936  1.00  0.00     0.031 C 
ATOM     39  C   UNL A   1      40.496  31.330  29.898  1.00  0.00     0.029 A 
ATOM     40  N   UNL A   1      42.293  30.002  29.849  1.00  0.00    -0.354 N 
ATOM     41  C   UNL A   1      42.048  25.970  28.310  1.00  0.00     0.074 A 
ATOM     42  C   UNL A   1      40.718  25.681  27.818  1.00  0.00     0.031 C 
ATOM     43  C   UNL A   1      41.528  32.034  30.389  1.00  0.00     0.029 A 
ATOM     44  C   UNL A   1      42.716  31.185  30.408  1.00  0.00     0.049 A 
ATOM     45  H   UNL A   1      42.890  29.233  29.700  1.00  0.00     0.167 HD
ATOM     46  C   UNL A   1      43.090  25.104  28.262  1.00  0.00     0.037 A 
ATOM     47  C   UNL A   1      43.918  31.543  30.901  1.00  0.00     0.037 A 
ATOM     48  C   UNL A   1      44.418  25.408  28.733  1.00  0.00     0.049 A 
ATOM     49  C   UNL A   1      45.051  30.555  30.860  1.00  0.00     0.074 A 
ATOM     50  C   UNL A   1      45.544  24.602  28.715  1.00  0.00     0.029 A 
ATOM     51  N   UNL A   1      44.802  26.613  29.304  1.00  0.00    -0.354 N 
ATOM     52  N   UNL A   1      45.059  29.330  30.389  1.00  0.00    -0.248 NA
ATOM     53  C   UNL A   1      46.336  30.995  31.417  1.00  0.00     0.031 C 
ATOM     54  C   UNL A   1      46.598  25.306  29.307  1.00  0.00     0.029 A 
ATOM     55  C   UNL A   1      46.142  26.567  29.653  1.00  0.00     0.049 A 
ATOM     56  H   UNL A   1      44.208  27.388  29.441  1.00  0.00     0.167 HD
ATOM     57  C   UNL A   1      46.356  28.863  30.571  1.00  0.00     0.074 A 
ATOM     58  C   UNL A   1      47.106  29.939  31.186  1.00  0.00     0.031 C 
ATOM     59  C   UNL A   1      46.877  27.651  30.257  1.00  0.00     0.037 A 
BRANCH  46  60
ATOM     60  C   UNL A   1      42.831  23.734  27.697  1.00  0.00     0.058 A 
ATOM     61  C   UNL A   1      42.860  23.483  26.317  1.00  0.00     0.135 A 
ATOM     62  C   UNL A   1      42.580  22.650  28.554  1.00  0.00     0.135 A 
ATOM     63  F   UNL A   1      43.079  24.487  25.452  1.00  0.00    -0.206 F 
ATOM     64  C   UNL A   1      42.620  22.213  25.803  1.00  0.00     0.059 A 
ATOM     65  C   UNL A   1      42.362  21.365  28.063  1.00  0.00     0.059 A 
ATOM     66  F   UNL A   1      42.542  22.832  29.883  1.00  0.00    -0.206 F 
ATOM     67  C   UNL A   1      42.367  21.160  26.685  1.00  0.00     0.060 A 
BRANCH  67  68
ATOM     68  S   UNL A   1      42.048  19.519  26.003  1.00  0.00     0.124 S 
ATOM     69  O   UNL A   1      42.897  19.528  24.815  1.00  0.00    -0.237 OA
ATOM     70  O   UNL A   1      42.481  18.639  27.083  1.00  0.00    -0.237 OA
ATOM     71  O   UNL A   1      40.611  19.531  25.746  1.00  0.00    -0.744 OA
ENDBRANCH  67  68
ENDBRANCH  46  60
BRANCH  47  72
ATOM     72  C   UNL A   1      44.104  32.897  31.485  1.00  0.00     0.058 A 
ATOM     73  C   UNL A   1      43.860  33.140  32.845  1.00  0.00     0.135 A 
ATOM     74  C   UNL A   1      44.546  33.972  30.698  1.00  0.00     0.135 A 
ATOM     75  F   UNL A   1      43.427  32.147  33.636  1.00  0.00    -0.206 F 
ATOM     76  C   UNL A   1      44.036  34.403  33.402  1.00  0.00     0.059 A 
ATOM     77  C   UNL A   1      44.755  35.237  31.238  1.00  0.00     0.059 A 
ATOM     78  F   UNL A   1      44.805  33.789  29.394  1.00  0.00    -0.206 F 
ATOM     79  C   UNL A   1      44.486  35.446  32.589  1.00  0.00     0.060 A 
BRANCH  79  80
ATOM     80  S   UNL A   1      44.753  37.072  33.329  1.00  0.00     0.124 S 
ATOM     81  O   UNL A   1      45.833  37.596  32.503  1.00  0.00    -0.237 OA
ATOM     82  O   UNL A   1      43.450  37.708  33.157  1.00  0.00    -0.237 OA
ATOM     83  O   UNL A   1      45.110  36.757  34.709  1.00  0.00    -0.744 OA
ENDBRANCH  79  80
ENDBRANCH  47  72
BRANCH  59  84
ATOM     84  C   UNL A   1      48.339  27.437  30.535  1.00  0.00     0.058 A 
ATOM     85  C   UNL A   1      48.786  26.848  31.728  1.00  0.00     0.135 A 
ATOM     86  C   UNL A   1      49.302  27.791  29.576  1.00  0.00     0.135 A 
ATOM     87  F   UNL A   1      47.906  26.498  32.680  1.00  0.00    -0.206 F 
ATOM     88  C   UNL A   1      50.140  26.638  31.970  1.00  0.00     0.059 A 
ATOM     89  C   UNL A   1      50.659  27.567  29.788  1.00  0.00     0.059 A 
ATOM     90  F   UNL A   1      48.926  28.348  28.414  1.00  0.00    -0.206 F 
ATOM     91  C   UNL A   1      51.069  27.001  30.994  1.00  0.00     0.060 A 
BRANCH  91  92
ATOM     92  S   UNL A   1      52.822  26.697  31.307  1.00  0.00     0.124 S 
ATOM     93  O   UNL A   1      53.275  26.223  30.004  1.00  0.00    -0.237 OA
ATOM     94  O   UNL A   1      53.303  28.017  31.703  1.00  0.00    -0.237 OA
ATOM     95  O   UNL A   1      52.807  25.698  32.370  1.00  0.00    -0.744 OA
ENDBRANCH  91  92
ENDBRANCH  59  84
ENDBRANCH  33  34
ENDBRANCH  26  28
ENDBRANCH  25  26
ENDBRANCH  24  25
ENDBRANCH   1  24
TORSDOF 20
ENDMDL
