MODEL 1
REMARK VINA RESULT:     -11.2      0.000      0.000
REMARK SMILES C[C@H](Oc1ccnc2c(F)cc(F)cc12)C(=O)OCCOC(=O)c1ccc(-c2c3nc(c(-c4c(F)cc(S(=O)(=O)[O-])cc4F)c4ccc([nH]4)c(-c4c(F)cc(S(=O)(=O)[O-])cc4F)c4nc(c(-c5c(F)cc(S(=O)(=O)[O-])cc5F)c5ccc2[nH]5)C=C4)C=C3)cc1
REMARK SMILES IDX 20 1 19 2 18 3 16 4 17 5 2 6 1 7 3 8 4 9 5 10 15 11 6 12
REMARK SMILES IDX 8 13 14 14 7 15 9 16 12 17 10 18 11 19 13 20 21 21 22 22
REMARK SMILES IDX 23 23 24 24 25 25 89 26 26 27 88 28 27 29 28 30 29 31 82 32
REMARK SMILES IDX 30 33 87 34 81 35 83 36 31 37 86 38 80 39 79 40 32 42 66 43
REMARK SMILES IDX 45 44 65 45 46 46 49 47 64 48 84 49 47 50 48 51 63 53 85 54
REMARK SMILES IDX 50 55 33 56 34 57 43 58 35 59 36 60 42 61 44 62 37 63 38 64
REMARK SMILES IDX 39 65 40 66 41 67 67 68 68 69 77 70 69 71 70 72 76 73 78 74
REMARK SMILES IDX 71 75 72 76 73 77 74 78 75 79 51 80 52 81 61 82 53 83 54 84
REMARK SMILES IDX 60 85 62 86 55 87 56 88 57 89 58 90 59 91
REMARK H PARENT 83 41 49 52
REMARK Flexibility Score: inf
ROOT
ATOM      1  C   UNL A   1      40.773  22.915  26.504  1.00  0.00     0.275 C 
ENDROOT
BRANCH   1   2
ATOM      2  C   UNL A   1      39.717  21.827  26.260  1.00  0.00     0.274 C 
BRANCH   2   3
ATOM      3  O   UNL A   1      38.401  22.407  26.139  1.00  0.00    -0.459 OA
BRANCH   3   4
ATOM      4  C   UNL A   1      37.495  21.721  25.417  1.00  0.00     0.347 C 
ATOM      5  O   UNL A   1      37.744  20.628  24.917  1.00  0.00    -0.248 OA
BRANCH   4   6
ATOM      6  C   UNL A   1      36.117  22.441  25.237  1.00  0.00     0.279 C 
ATOM      7  C   UNL A   1      36.028  22.717  23.727  1.00  0.00     0.066 C 
BRANCH   6   8
ATOM      8  O   UNL A   1      35.415  23.525  25.826  1.00  0.00    -0.478 OA
BRANCH   8   9
ATOM      9  C   UNL A   1      34.101  23.643  26.152  1.00  0.00     0.131 A 
ATOM     10  C   UNL A   1      33.379  22.716  26.875  1.00  0.00     0.067 A 
ATOM     11  C   UNL A   1      33.464  24.876  25.848  1.00  0.00     0.048 A 
ATOM     12  C   UNL A   1      32.083  22.988  27.256  1.00  0.00     0.115 A 
ATOM     13  C   UNL A   1      32.144  25.083  26.332  1.00  0.00     0.110 A 
ATOM     14  C   UNL A   1      34.074  25.914  25.105  1.00  0.00     0.053 A 
ATOM     15  N   UNL A   1      31.469  24.151  27.020  1.00  0.00    -0.253 NA
ATOM     16  C   UNL A   1      31.527  26.308  26.098  1.00  0.00     0.152 A 
ATOM     17  C   UNL A   1      33.404  27.114  24.877  1.00  0.00     0.127 A 
ATOM     18  F   UNL A   1      30.297  26.539  26.590  1.00  0.00    -0.204 F 
ATOM     19  C   UNL A   1      32.135  27.327  25.378  1.00  0.00     0.080 A 
ATOM     20  F   UNL A   1      33.999  28.084  24.171  1.00  0.00    -0.207 F 
ENDBRANCH   8   9
ENDBRANCH   6   8
ENDBRANCH   4   6
ENDBRANCH   3   4
ENDBRANCH   2   3
ENDBRANCH   1   2
BRANCH   1  21
ATOM     21  O   UNL A   1      40.169  24.219  26.563  1.00  0.00    -0.458 OA
BRANCH  21  22
ATOM     22  C   UNL A   1      40.967  25.274  26.268  1.00  0.00     0.338 C 
ATOM     23  O   UNL A   1      41.574  25.483  25.239  1.00  0.00    -0.246 OA
BRANCH  22  24
ATOM     24  C   UNL A   1      40.910  26.208  27.398  1.00  0.00     0.060 A 
ATOM     25  C   UNL A   1      39.958  26.004  28.399  1.00  0.00     0.016 A 
ATOM     26  C   UNL A   1      41.797  27.283  27.457  1.00  0.00     0.016 A 
ATOM     27  C   UNL A   1      39.905  26.863  29.487  1.00  0.00     0.010 A 
ATOM     28  C   UNL A   1      41.753  28.136  28.559  1.00  0.00     0.010 A 
ATOM     29  C   UNL A   1      40.808  27.927  29.577  1.00  0.00    -0.014 A 
BRANCH  29  30
ATOM     30  C   UNL A   1      40.712  28.843  30.729  1.00  0.00     0.031 A 
ATOM     31  C   UNL A   1      39.664  29.913  30.726  1.00  0.00     0.074 A 
ATOM     32  C   UNL A   1      41.531  28.666  31.783  1.00  0.00     0.049 A 
ATOM     33  N   UNL A   1      39.396  30.802  31.644  1.00  0.00    -0.248 NA
ATOM     34  C   UNL A   1      38.801  29.993  29.535  1.00  0.00     0.031 C 
ATOM     35  C   UNL A   1      42.560  27.627  31.882  1.00  0.00     0.029 A 
ATOM     36  N   UNL A   1      41.625  29.343  32.970  1.00  0.00    -0.354 N 
ATOM     37  C   UNL A   1      38.338  31.548  31.144  1.00  0.00     0.074 A 
ATOM     38  C   UNL A   1      38.034  31.034  29.827  1.00  0.00     0.031 C 
ATOM     39  C   UNL A   1      43.176  27.734  33.071  1.00  0.00     0.029 A 
ATOM     40  C   UNL A   1      42.613  28.867  33.800  1.00  0.00     0.049 A 
ATOM     41  H   UNL A   1      41.041  30.100  33.207  1.00  0.00     0.167 HD
ATOM     42  C   UNL A   1      37.671  32.558  31.746  1.00  0.00     0.037 A 
ATOM     43  C   UNL A   1      43.022  29.309  35.005  1.00  0.00     0.037 A 
ATOM     44  C   UNL A   1      37.985  33.044  33.063  1.00  0.00     0.049 A 
ATOM     45  C   UNL A   1      42.309  30.483  35.621  1.00  0.00     0.074 A 
ATOM     46  C   UNL A   1      37.354  34.043  33.780  1.00  0.00     0.029 A 
ATOM     47  N   UNL A   1      39.022  32.570  33.855  1.00  0.00    -0.354 N 
ATOM     48  N   UNL A   1      41.276  31.149  35.160  1.00  0.00    -0.248 NA
ATOM     49  C   UNL A   1      42.810  30.971  36.912  1.00  0.00     0.031 C 
ATOM     50  C   UNL A   1      38.048  34.217  34.980  1.00  0.00     0.029 A 
ATOM     51  C   UNL A   1      39.076  33.287  35.037  1.00  0.00     0.049 A 
ATOM     52  H   UNL A   1      39.630  31.835  33.612  1.00  0.00     0.167 HD
ATOM     53  C   UNL A   1      40.998  32.127  36.107  1.00  0.00     0.074 A 
ATOM     54  C   UNL A   1      41.959  31.952  37.179  1.00  0.00     0.031 C 
ATOM     55  C   UNL A   1      40.042  33.088  36.090  1.00  0.00     0.037 A 
BRANCH  42  56
ATOM     56  C   UNL A   1      36.551  33.215  30.992  1.00  0.00     0.058 A 
ATOM     57  C   UNL A   1      35.209  33.032  31.361  1.00  0.00     0.135 A 
ATOM     58  C   UNL A   1      36.826  34.092  29.931  1.00  0.00     0.135 A 
ATOM     59  F   UNL A   1      34.888  32.187  32.353  1.00  0.00    -0.206 F 
ATOM     60  C   UNL A   1      34.178  33.691  30.699  1.00  0.00     0.059 A 
ATOM     61  C   UNL A   1      35.813  34.782  29.272  1.00  0.00     0.059 A 
ATOM     62  F   UNL A   1      38.092  34.294  29.533  1.00  0.00    -0.206 F 
ATOM     63  C   UNL A   1      34.492  34.572  29.663  1.00  0.00     0.060 A 
BRANCH  63  64
ATOM     64  S   UNL A   1      33.142  35.449  28.844  1.00  0.00     0.124 S 
ATOM     65  O   UNL A   1      32.511  34.372  28.086  1.00  0.00    -0.237 OA
ATOM     66  O   UNL A   1      32.376  35.959  29.976  1.00  0.00    -0.237 OA
ATOM     67  O   UNL A   1      33.826  36.460  28.045  1.00  0.00    -0.744 OA
ENDBRANCH  63  64
ENDBRANCH  42  56
BRANCH  43  68
ATOM     68  C   UNL A   1      44.164  28.647  35.691  1.00  0.00     0.058 A 
ATOM     69  C   UNL A   1      43.960  27.611  36.614  1.00  0.00     0.135 A 
ATOM     70  C   UNL A   1      45.491  29.024  35.422  1.00  0.00     0.135 A 
ATOM     71  F   UNL A   1      42.712  27.218  36.914  1.00  0.00    -0.206 F 
ATOM     72  C   UNL A   1      45.023  26.979  37.251  1.00  0.00     0.059 A 
ATOM     73  C   UNL A   1      46.572  28.390  36.024  1.00  0.00     0.059 A 
ATOM     74  F   UNL A   1      45.747  30.002  34.538  1.00  0.00    -0.206 F 
ATOM     75  C   UNL A   1      46.328  27.372  36.944  1.00  0.00     0.060 A 
BRANCH  75  76
ATOM     76  S   UNL A   1      47.701  26.513  37.745  1.00  0.00     0.124 S 
ATOM     77  O   UNL A   1      48.531  27.629  38.184  1.00  0.00    -0.237 OA
ATOM     78  O   UNL A   1      47.019  25.771  38.801  1.00  0.00    -0.237 OA
ATOM     79  O   UNL A   1      48.259  25.695  36.673  1.00  0.00    -0.744 OA
ENDBRANCH  75  76
ENDBRANCH  43  68
BRANCH  55  80
ATOM     80  C   UNL A   1      39.979  34.038  37.254  1.00  0.00     0.058 A 
ATOM     81  C   UNL A   1      40.582  35.302  37.191  1.00  0.00     0.135 A 
ATOM     82  C   UNL A   1      39.200  33.734  38.382  1.00  0.00     0.135 A 
ATOM     83  F   UNL A   1      41.344  35.636  36.137  1.00  0.00    -0.206 F 
ATOM     84  C   UNL A   1      40.408  36.239  38.204  1.00  0.00     0.059 A 
ATOM     85  C   UNL A   1      38.989  34.666  39.393  1.00  0.00     0.059 A 
ATOM     86  F   UNL A   1      38.595  32.540  38.485  1.00  0.00    -0.206 F 
ATOM     87  C   UNL A   1      39.596  35.917  39.293  1.00  0.00     0.060 A 
BRANCH  87  88
ATOM     88  S   UNL A   1      39.310  37.178  40.551  1.00  0.00     0.124 S 
ATOM     89  O   UNL A   1      38.546  36.436  41.546  1.00  0.00    -0.237 OA
ATOM     90  O   UNL A   1      40.670  37.541  40.938  1.00  0.00    -0.237 OA
ATOM     91  O   UNL A   1      38.570  38.214  39.836  1.00  0.00    -0.744 OA
ENDBRANCH  87  88
ENDBRANCH  55  80
ENDBRANCH  29  30
ENDBRANCH  22  24
ENDBRANCH  21  22
ENDBRANCH   1  21
TORSDOF 16
ENDMDL
MODEL 2
REMARK VINA RESULT:     -11.1      6.679     11.841
REMARK SMILES C[C@H](Oc1ccnc2c(F)cc(F)cc12)C(=O)OCCOC(=O)c1ccc(-c2c3nc(c(-c4c(F)cc(S(=O)(=O)[O-])cc4F)c4ccc([nH]4)c(-c4c(F)cc(S(=O)(=O)[O-])cc4F)c4nc(c(-c5c(F)cc(S(=O)(=O)[O-])cc5F)c5ccc2[nH]5)C=C4)C=C3)cc1
REMARK SMILES IDX 20 1 19 2 18 3 16 4 17 5 2 6 1 7 3 8 4 9 5 10 15 11 6 12
REMARK SMILES IDX 8 13 14 14 7 15 9 16 12 17 10 18 11 19 13 20 21 21 22 22
REMARK SMILES IDX 23 23 24 24 25 25 89 26 26 27 88 28 27 29 28 30 29 31 82 32
REMARK SMILES IDX 30 33 87 34 81 35 83 36 31 37 86 38 80 39 79 40 32 42 66 43
REMARK SMILES IDX 45 44 65 45 46 46 49 47 64 48 84 49 47 50 48 51 63 53 85 54
REMARK SMILES IDX 50 55 33 56 34 57 43 58 35 59 36 60 42 61 44 62 37 63 38 64
REMARK SMILES IDX 39 65 40 66 41 67 67 68 68 69 77 70 69 71 70 72 76 73 78 74
REMARK SMILES IDX 71 75 72 76 73 77 74 78 75 79 51 80 52 81 61 82 53 83 54 84
REMARK SMILES IDX 60 85 62 86 55 87 56 88 57 89 58 90 59 91
REMARK H PARENT 83 41 49 52
REMARK Flexibility Score: inf
ROOT
ATOM      1  C   UNL A   1      35.108  31.849  29.265  1.00  0.00     0.275 C 
ENDROOT
BRANCH   1   2
ATOM      2  C   UNL A   1      34.041  32.079  28.185  1.00  0.00     0.274 C 
BRANCH   2   3
ATOM      3  O   UNL A   1      34.043  31.002  27.223  1.00  0.00    -0.459 OA
BRANCH   3   4
ATOM      4  C   UNL A   1      32.847  30.600  26.755  1.00  0.00     0.347 C 
ATOM      5  O   UNL A   1      31.836  31.289  26.854  1.00  0.00    -0.248 OA
BRANCH   4   6
ATOM      6  C   UNL A   1      32.841  29.173  26.109  1.00  0.00     0.279 C 
ATOM      7  C   UNL A   1      32.094  28.299  27.129  1.00  0.00     0.066 C 
BRANCH   6   8
ATOM      8  O   UNL A   1      33.777  28.286  25.518  1.00  0.00    -0.478 OA
BRANCH   8   9
ATOM      9  C   UNL A   1      33.676  27.529  24.393  1.00  0.00     0.131 A 
ATOM     10  C   UNL A   1      33.558  28.027  23.112  1.00  0.00     0.067 A 
ATOM     11  C   UNL A   1      33.846  26.126  24.537  1.00  0.00     0.048 A 
ATOM     12  C   UNL A   1      33.584  27.174  22.030  1.00  0.00     0.115 A 
ATOM     13  C   UNL A   1      33.913  25.337  23.357  1.00  0.00     0.110 A 
ATOM     14  C   UNL A   1      33.967  25.473  25.786  1.00  0.00     0.053 A 
ATOM     15  N   UNL A   1      33.780  25.856  22.128  1.00  0.00    -0.253 NA
ATOM     16  C   UNL A   1      34.142  23.969  23.476  1.00  0.00     0.152 A 
ATOM     17  C   UNL A   1      34.171  24.096  25.853  1.00  0.00     0.127 A 
ATOM     18  F   UNL A   1      34.258  23.215  22.368  1.00  0.00    -0.204 F 
ATOM     19  C   UNL A   1      34.272  23.336  24.703  1.00  0.00     0.080 A 
ATOM     20  F   UNL A   1      34.283  23.497  27.044  1.00  0.00    -0.207 F 
ENDBRANCH   8   9
ENDBRANCH   6   8
ENDBRANCH   4   6
ENDBRANCH   3   4
ENDBRANCH   2   3
ENDBRANCH   1   2
BRANCH   1  21
ATOM     21  O   UNL A   1      35.763  30.583  29.085  1.00  0.00    -0.458 OA
BRANCH  21  22
ATOM     22  C   UNL A   1      36.415  30.075  30.159  1.00  0.00     0.338 C 
ATOM     23  O   UNL A   1      35.970  29.862  31.267  1.00  0.00    -0.246 OA
BRANCH  22  24
ATOM     24  C   UNL A   1      37.774  29.724  29.733  1.00  0.00     0.060 A 
ATOM     25  C   UNL A   1      38.720  29.378  30.700  1.00  0.00     0.016 A 
ATOM     26  C   UNL A   1      38.105  29.743  28.378  1.00  0.00     0.016 A 
ATOM     27  C   UNL A   1      40.004  29.020  30.313  1.00  0.00     0.010 A 
ATOM     28  C   UNL A   1      39.390  29.367  27.989  1.00  0.00     0.010 A 
ATOM     29  C   UNL A   1      40.342  29.004  28.957  1.00  0.00    -0.014 A 
BRANCH  29  30
ATOM     30  C   UNL A   1      41.722  28.647  28.574  1.00  0.00     0.031 A 
ATOM     31  C   UNL A   1      42.784  29.702  28.608  1.00  0.00     0.074 A 
ATOM     32  C   UNL A   1      42.008  27.372  28.254  1.00  0.00     0.049 A 
ATOM     33  N   UNL A   1      44.056  29.595  28.333  1.00  0.00    -0.248 NA
ATOM     34  C   UNL A   1      42.363  31.057  29.005  1.00  0.00     0.031 C 
ATOM     35  C   UNL A   1      41.039  26.274  28.227  1.00  0.00     0.029 A 
ATOM     36  N   UNL A   1      43.192  26.780  27.900  1.00  0.00    -0.354 N 
ATOM     37  C   UNL A   1      44.587  30.863  28.522  1.00  0.00     0.074 A 
ATOM     38  C   UNL A   1      43.497  31.734  28.898  1.00  0.00     0.031 C 
ATOM     39  C   UNL A   1      41.671  25.140  27.881  1.00  0.00     0.029 A 
ATOM     40  C   UNL A   1      43.078  25.437  27.628  1.00  0.00     0.049 A 
ATOM     41  H   UNL A   1      44.045  27.270  27.845  1.00  0.00     0.167 HD
ATOM     42  C   UNL A   1      45.877  31.253  28.408  1.00  0.00     0.037 A 
ATOM     43  C   UNL A   1      44.005  24.554  27.208  1.00  0.00     0.037 A 
ATOM     44  C   UNL A   1      46.947  30.363  28.044  1.00  0.00     0.049 A 
ATOM     45  C   UNL A   1      45.421  25.033  27.019  1.00  0.00     0.074 A 
ATOM     46  C   UNL A   1      48.294  30.647  27.928  1.00  0.00     0.029 A 
ATOM     47  N   UNL A   1      46.787  29.020  27.729  1.00  0.00    -0.354 N 
ATOM     48  N   UNL A   1      45.921  26.224  27.249  1.00  0.00    -0.248 NA
ATOM     49  C   UNL A   1      46.396  24.058  26.514  1.00  0.00     0.031 C 
ATOM     50  C   UNL A   1      48.942  29.492  27.483  1.00  0.00     0.029 A 
ATOM     51  C   UNL A   1      48.008  28.472  27.377  1.00  0.00     0.049 A 
ATOM     52  H   UNL A   1      45.934  28.531  27.751  1.00  0.00     0.167 HD
ATOM     53  C   UNL A   1      47.270  26.140  26.926  1.00  0.00     0.074 A 
ATOM     54  C   UNL A   1      47.513  24.774  26.505  1.00  0.00     0.031 C 
ATOM     55  C   UNL A   1      48.221  27.105  26.965  1.00  0.00     0.037 A 
BRANCH  42  56
ATOM     56  C   UNL A   1      46.205  32.695  28.665  1.00  0.00     0.058 A 
ATOM     57  C   UNL A   1      46.584  33.148  29.938  1.00  0.00     0.135 A 
ATOM     58  C   UNL A   1      46.207  33.622  27.610  1.00  0.00     0.135 A 
ATOM     59  F   UNL A   1      46.578  32.309  30.986  1.00  0.00    -0.206 F 
ATOM     60  C   UNL A   1      46.948  34.473  30.158  1.00  0.00     0.059 A 
ATOM     61  C   UNL A   1      46.593  34.945  27.802  1.00  0.00     0.059 A 
ATOM     62  F   UNL A   1      45.843  33.242  26.376  1.00  0.00    -0.206 F 
ATOM     63  C   UNL A   1      46.959  35.361  29.081  1.00  0.00     0.060 A 
BRANCH  63  64
ATOM     64  S   UNL A   1      47.473  37.066  29.381  1.00  0.00     0.124 S 
ATOM     65  O   UNL A   1      47.548  37.097  30.839  1.00  0.00    -0.237 OA
ATOM     66  O   UNL A   1      48.751  37.129  28.680  1.00  0.00    -0.237 OA
ATOM     67  O   UNL A   1      46.397  37.856  28.792  1.00  0.00    -0.744 OA
ENDBRANCH  63  64
ENDBRANCH  42  56
BRANCH  43  68
ATOM     68  C   UNL A   1      43.617  23.145  26.929  1.00  0.00     0.058 A 
ATOM     69  C   UNL A   1      43.273  22.265  27.965  1.00  0.00     0.135 A 
ATOM     70  C   UNL A   1      43.564  22.653  25.614  1.00  0.00     0.135 A 
ATOM     71  F   UNL A   1      43.317  22.681  29.241  1.00  0.00    -0.206 F 
ATOM     72  C   UNL A   1      42.898  20.949  27.712  1.00  0.00     0.059 A 
ATOM     73  C   UNL A   1      43.166  21.351  25.332  1.00  0.00     0.059 A 
ATOM     74  F   UNL A   1      43.872  23.455  24.582  1.00  0.00    -0.206 F 
ATOM     75  C   UNL A   1      42.842  20.502  26.389  1.00  0.00     0.060 A 
BRANCH  75  76
ATOM     76  S   UNL A   1      42.311  18.805  26.072  1.00  0.00     0.124 S 
ATOM     77  O   UNL A   1      40.907  18.995  25.723  1.00  0.00    -0.237 OA
ATOM     78  O   UNL A   1      43.193  18.412  24.978  1.00  0.00    -0.237 OA
ATOM     79  O   UNL A   1      42.560  18.130  27.342  1.00  0.00    -0.744 OA
ENDBRANCH  75  76
ENDBRANCH  43  68
BRANCH  55  80
ATOM     80  C   UNL A   1      49.615  26.737  26.537  1.00  0.00     0.058 A 
ATOM     81  C   UNL A   1      50.451  25.981  27.371  1.00  0.00     0.135 A 
ATOM     82  C   UNL A   1      50.063  27.025  25.238  1.00  0.00     0.135 A 
ATOM     83  F   UNL A   1      50.071  25.687  28.624  1.00  0.00    -0.206 F 
ATOM     84  C   UNL A   1      51.684  25.515  26.928  1.00  0.00     0.059 A 
ATOM     85  C   UNL A   1      51.280  26.544  24.765  1.00  0.00     0.059 A 
ATOM     86  F   UNL A   1      49.293  27.737  24.399  1.00  0.00    -0.206 F 
ATOM     87  C   UNL A   1      52.082  25.788  25.618  1.00  0.00     0.060 A 
BRANCH  87  88
ATOM     88  S   UNL A   1      53.644  25.098  25.035  1.00  0.00     0.124 S 
ATOM     89  O   UNL A   1      53.487  23.687  25.369  1.00  0.00    -0.237 OA
ATOM     90  O   UNL A   1      53.610  25.420  23.611  1.00  0.00    -0.237 OA
ATOM     91  O   UNL A   1      54.648  25.819  25.812  1.00  0.00    -0.744 OA
ENDBRANCH  87  88
ENDBRANCH  55  80
ENDBRANCH  29  30
ENDBRANCH  22  24
ENDBRANCH  21  22
ENDBRANCH   1  21
TORSDOF 16
ENDMDL
MODEL 3
REMARK VINA RESULT:     -11.0      1.733      8.701
REMARK SMILES C[C@H](Oc1ccnc2c(F)cc(F)cc12)C(=O)OCCOC(=O)c1ccc(-c2c3nc(c(-c4c(F)cc(S(=O)(=O)[O-])cc4F)c4ccc([nH]4)c(-c4c(F)cc(S(=O)(=O)[O-])cc4F)c4nc(c(-c5c(F)cc(S(=O)(=O)[O-])cc5F)c5ccc2[nH]5)C=C4)C=C3)cc1
REMARK SMILES IDX 20 1 19 2 18 3 16 4 17 5 2 6 1 7 3 8 4 9 5 10 15 11 6 12
REMARK SMILES IDX 8 13 14 14 7 15 9 16 12 17 10 18 11 19 13 20 21 21 22 22
REMARK SMILES IDX 23 23 24 24 25 25 89 26 26 27 88 28 27 29 28 30 29 31 82 32
REMARK SMILES IDX 30 33 87 34 81 35 83 36 31 37 86 38 80 39 79 40 32 42 66 43
REMARK SMILES IDX 45 44 65 45 46 46 49 47 64 48 84 49 47 50 48 51 63 53 85 54
REMARK SMILES IDX 50 55 33 56 34 57 43 58 35 59 36 60 42 61 44 62 37 63 38 64
REMARK SMILES IDX 39 65 40 66 41 67 67 68 68 69 77 70 69 71 70 72 76 73 78 74
REMARK SMILES IDX 71 75 72 76 73 77 74 78 75 79 51 80 52 81 61 82 53 83 54 84
REMARK SMILES IDX 60 85 62 86 55 87 56 88 57 89 58 90 59 91
REMARK H PARENT 83 41 49 52
REMARK Flexibility Score: inf
ROOT
ATOM      1  C   UNL A   1      42.058  22.581  25.867  1.00  0.00     0.275 C 
ENDROOT
BRANCH   1   2
ATOM      2  C   UNL A   1      41.025  21.461  26.055  1.00  0.00     0.274 C 
BRANCH   2   3
ATOM      3  O   UNL A   1      39.747  22.003  26.452  1.00  0.00    -0.459 OA
BRANCH   3   4
ATOM      4  C   UNL A   1      38.663  21.555  25.793  1.00  0.00     0.347 C 
ATOM      5  O   UNL A   1      38.580  20.406  25.366  1.00  0.00    -0.248 OA
BRANCH   4   6
ATOM      6  C   UNL A   1      37.534  22.620  25.583  1.00  0.00     0.279 C 
ATOM      7  C   UNL A   1      38.100  23.900  26.220  1.00  0.00     0.066 C 
BRANCH   6   8
ATOM      8  O   UNL A   1      36.135  22.720  25.795  1.00  0.00    -0.478 OA
BRANCH   8   9
ATOM      9  C   UNL A   1      35.136  23.011  24.920  1.00  0.00     0.131 A 
ATOM     10  C   UNL A   1      35.006  24.200  24.234  1.00  0.00     0.067 A 
ATOM     11  C   UNL A   1      34.241  21.959  24.584  1.00  0.00     0.048 A 
ATOM     12  C   UNL A   1      34.024  24.348  23.279  1.00  0.00     0.115 A 
ATOM     13  C   UNL A   1      33.297  22.192  23.548  1.00  0.00     0.110 A 
ATOM     14  C   UNL A   1      34.246  20.691  25.211  1.00  0.00     0.053 A 
ATOM     15  N   UNL A   1      33.192  23.368  22.912  1.00  0.00    -0.253 NA
ATOM     16  C   UNL A   1      32.454  21.154  23.161  1.00  0.00     0.152 A 
ATOM     17  C   UNL A   1      33.365  19.692  24.804  1.00  0.00     0.127 A 
ATOM     18  F   UNL A   1      31.589  21.342  22.149  1.00  0.00    -0.204 F 
ATOM     19  C   UNL A   1      32.472  19.909  23.772  1.00  0.00     0.080 A 
ATOM     20  F   UNL A   1      33.385  18.499  25.410  1.00  0.00    -0.207 F 
ENDBRANCH   8   9
ENDBRANCH   6   8
ENDBRANCH   4   6
ENDBRANCH   3   4
ENDBRANCH   2   3
ENDBRANCH   1   2
BRANCH   1  21
ATOM     21  O   UNL A   1      41.855  23.639  26.819  1.00  0.00    -0.458 OA
BRANCH  21  22
ATOM     22  C   UNL A   1      42.007  24.907  26.364  1.00  0.00     0.338 C 
ATOM     23  O   UNL A   1      42.222  25.268  25.226  1.00  0.00    -0.246 OA
BRANCH  22  24
ATOM     24  C   UNL A   1      41.770  25.817  27.489  1.00  0.00     0.060 A 
ATOM     25  C   UNL A   1      42.683  26.846  27.732  1.00  0.00     0.016 A 
ATOM     26  C   UNL A   1      40.648  25.645  28.300  1.00  0.00     0.016 A 
ATOM     27  C   UNL A   1      42.463  27.732  28.777  1.00  0.00     0.010 A 
ATOM     28  C   UNL A   1      40.420  26.545  29.340  1.00  0.00     0.010 A 
ATOM     29  C   UNL A   1      41.327  27.591  29.580  1.00  0.00    -0.014 A 
BRANCH  29  30
ATOM     30  C   UNL A   1      41.131  28.528  30.703  1.00  0.00     0.031 A 
ATOM     31  C   UNL A   1      42.036  28.439  31.893  1.00  0.00     0.074 A 
ATOM     32  C   UNL A   1      40.180  29.476  30.612  1.00  0.00     0.049 A 
ATOM     33  N   UNL A   1      42.049  29.177  32.970  1.00  0.00    -0.248 NA
ATOM     34  C   UNL A   1      43.062  27.383  31.870  1.00  0.00     0.031 C 
ATOM     35  C   UNL A   1      39.276  29.654  29.473  1.00  0.00     0.029 A 
ATOM     36  N   UNL A   1      39.820  30.471  31.482  1.00  0.00    -0.354 N 
ATOM     37  C   UNL A   1      43.080  28.677  33.753  1.00  0.00     0.074 A 
ATOM     38  C   UNL A   1      43.647  27.550  33.048  1.00  0.00     0.031 C 
ATOM     39  C   UNL A   1      38.470  30.701  29.714  1.00  0.00     0.029 A 
ATOM     40  C   UNL A   1      38.775  31.244  31.034  1.00  0.00     0.049 A 
ATOM     41  H   UNL A   1      40.267  30.620  32.347  1.00  0.00     0.167 HD
ATOM     42  C   UNL A   1      43.521  29.137  34.945  1.00  0.00     0.037 A 
ATOM     43  C   UNL A   1      38.130  32.264  31.633  1.00  0.00     0.037 A 
ATOM     44  C   UNL A   1      42.947  30.270  35.622  1.00  0.00     0.049 A 
ATOM     45  C   UNL A   1      38.595  32.709  32.994  1.00  0.00     0.074 A 
ATOM     46  C   UNL A   1      43.335  30.838  36.820  1.00  0.00     0.029 A 
ATOM     47  N   UNL A   1      41.858  30.998  35.162  1.00  0.00    -0.354 N 
ATOM     48  N   UNL A   1      39.605  32.260  33.703  1.00  0.00    -0.248 NA
ATOM     49  C   UNL A   1      37.841  33.791  33.640  1.00  0.00     0.031 C 
ATOM     50  C   UNL A   1      42.443  31.872  37.116  1.00  0.00     0.029 A 
ATOM     51  C   UNL A   1      41.534  31.986  36.075  1.00  0.00     0.049 A 
ATOM     52  H   UNL A   1      41.386  30.836  34.313  1.00  0.00     0.167 HD
ATOM     53  C   UNL A   1      39.612  33.010  34.873  1.00  0.00     0.074 A 
ATOM     54  C   UNL A   1      38.520  33.957  34.768  1.00  0.00     0.031 C 
ATOM     55  C   UNL A   1      40.441  32.919  35.942  1.00  0.00     0.037 A 
BRANCH  42  56
ATOM     56  C   UNL A   1      44.664  28.419  35.602  1.00  0.00     0.058 A 
ATOM     57  C   UNL A   1      44.450  27.352  36.489  1.00  0.00     0.135 A 
ATOM     58  C   UNL A   1      45.990  28.757  35.289  1.00  0.00     0.135 A 
ATOM     59  F   UNL A   1      43.203  27.002  36.841  1.00  0.00    -0.206 F 
ATOM     60  C   UNL A   1      45.513  26.649  37.047  1.00  0.00     0.059 A 
ATOM     61  C   UNL A   1      47.068  28.050  35.814  1.00  0.00     0.059 A 
ATOM     62  F   UNL A   1      46.248  29.775  34.454  1.00  0.00    -0.206 F 
ATOM     63  C   UNL A   1      46.818  26.999  36.695  1.00  0.00     0.060 A 
BRANCH  63  64
ATOM     64  S   UNL A   1      48.181  26.047  37.399  1.00  0.00     0.124 S 
ATOM     65  O   UNL A   1      49.052  25.882  36.240  1.00  0.00    -0.237 OA
ATOM     66  O   UNL A   1      48.675  26.942  38.440  1.00  0.00    -0.237 OA
ATOM     67  O   UNL A   1      47.536  24.829  37.877  1.00  0.00    -0.744 OA
ENDBRANCH  63  64
ENDBRANCH  42  56
BRANCH  43  68
ATOM     68  C   UNL A   1      36.977  32.916  30.955  1.00  0.00     0.058 A 
ATOM     69  C   UNL A   1      37.168  33.834  29.913  1.00  0.00     0.135 A 
ATOM     70  C   UNL A   1      35.654  32.617  31.323  1.00  0.00     0.135 A 
ATOM     71  F   UNL A   1      38.411  34.162  29.528  1.00  0.00    -0.206 F 
ATOM     72  C   UNL A   1      36.094  34.439  29.265  1.00  0.00     0.059 A 
ATOM     73  C   UNL A   1      34.564  33.187  30.674  1.00  0.00     0.059 A 
ATOM     74  F   UNL A   1      35.412  31.736  32.306  1.00  0.00    -0.206 F 
ATOM     75  C   UNL A   1      34.794  34.103  29.650  1.00  0.00     0.060 A 
BRANCH  75  76
ATOM     76  S   UNL A   1      33.410  34.862  28.772  1.00  0.00     0.124 S 
ATOM     77  O   UNL A   1      33.088  33.837  27.786  1.00  0.00    -0.237 OA
ATOM     78  O   UNL A   1      32.436  35.047  29.843  1.00  0.00    -0.237 OA
ATOM     79  O   UNL A   1      33.984  36.093  28.236  1.00  0.00    -0.744 OA
ENDBRANCH  75  76
ENDBRANCH  43  68
BRANCH  55  80
ATOM     80  C   UNL A   1      40.207  33.856  37.095  1.00  0.00     0.058 A 
ATOM     81  C   UNL A   1      40.778  35.137  37.113  1.00  0.00     0.135 A 
ATOM     82  C   UNL A   1      39.302  33.522  38.115  1.00  0.00     0.135 A 
ATOM     83  F   UNL A   1      41.656  35.500  36.165  1.00  0.00    -0.206 F 
ATOM     84  C   UNL A   1      40.453  36.059  38.102  1.00  0.00     0.059 A 
ATOM     85  C   UNL A   1      38.940  34.439  39.096  1.00  0.00     0.059 A 
ATOM     86  F   UNL A   1      38.722  32.311  38.134  1.00  0.00    -0.206 F 
ATOM     87  C   UNL A   1      39.521  35.706  39.079  1.00  0.00     0.060 A 
BRANCH  87  88
ATOM     88  S   UNL A   1      39.045  36.948  40.298  1.00  0.00     0.124 S 
ATOM     89  O   UNL A   1      38.589  38.040  39.446  1.00  0.00    -0.237 OA
ATOM     90  O   UNL A   1      38.005  36.256  41.053  1.00  0.00    -0.237 OA
ATOM     91  O   UNL A   1      40.283  37.200  41.032  1.00  0.00    -0.744 OA
ENDBRANCH  87  88
ENDBRANCH  55  80
ENDBRANCH  29  30
ENDBRANCH  22  24
ENDBRANCH  21  22
ENDBRANCH   1  21
TORSDOF 16
ENDMDL
