MODEL 1
REMARK VINA RESULT:     -10.8      0.000      0.000
REMARK SMILES CN(C)c1oc(/C=N/c2ccc(O)c(C(=O)OCCOC(=O)c3ccc(-c4c5nc(c(-c6c(F)cc(S(=O)(=O)[O-])cc6F)c6ccc([nH]6)c(-c6c(F)cc(S(=O)(=O)[O-])cc6F)c6nc(c(-c7c(F)cc(S(=O)(=O)[O-])cc7F)c7ccc4[nH]7)C=C6)C=C5)cc3)c2)cc1Br
REMARK SMILES IDX 18 1 17 2 15 3 16 4 14 5 9 6 10 7 89 8 11 9 12 10 8 11 7 12
REMARK SMILES IDX 6 13 4 14 5 15 91 16 90 17 92 18 2 19 1 20 3 21 13 22 19 24
REMARK SMILES IDX 20 25 21 26 22 27 23 28 24 29 88 30 25 31 87 32 26 33 27 34
REMARK SMILES IDX 28 35 81 36 29 37 86 38 80 39 82 40 30 41 85 42 79 43 78 44
REMARK SMILES IDX 31 46 65 47 44 48 64 49 45 50 48 51 63 52 83 53 46 54 47 55
REMARK SMILES IDX 62 57 84 58 49 59 32 60 33 61 42 62 34 63 35 64 41 65 43 66
REMARK SMILES IDX 36 67 37 68 38 69 39 70 40 71 66 72 67 73 76 74 68 75 69 76
REMARK SMILES IDX 75 77 77 78 70 79 71 80 72 81 73 82 74 83 50 84 51 85 60 86
REMARK SMILES IDX 52 87 53 88 59 89 61 90 54 91 55 92 56 93 57 94 58 95
REMARK H PARENT 13 23 82 45 48 56
REMARK Flexibility Score: inf
ROOT
ATOM      1  C   UNL A   1      45.644  23.633  26.269  1.00  0.00     0.275 C 
ENDROOT
BRANCH   1   2
ATOM      2  O   UNL A   1      45.024  22.351  26.046  1.00  0.00    -0.458 OA
BRANCH   2   3
ATOM      3  C   UNL A   1      43.993  22.322  25.166  1.00  0.00     0.342 C 
ATOM      4  O   UNL A   1      43.983  22.802  24.043  1.00  0.00    -0.246 OA
BRANCH   3   5
ATOM      5  C   UNL A   1      42.887  21.484  25.679  1.00  0.00     0.103 A 
ATOM      6  C   UNL A   1      40.553  21.412  26.364  1.00  0.00     0.064 A 
ATOM      7  C   UNL A   1      40.651  20.027  26.510  1.00  0.00     0.032 A 
ATOM      8  C   UNL A   1      41.684  22.135  25.991  1.00  0.00     0.048 A 
ATOM      9  C   UNL A   1      41.865  19.373  26.270  1.00  0.00     0.049 A 
ATOM     10  C   UNL A   1      42.978  20.100  25.838  1.00  0.00     0.130 A 
BRANCH   6  11
ATOM     11  N   UNL A   1      39.321  22.066  26.408  1.00  0.00    -0.253 NA
ATOM     12  C   UNL A   1      38.364  21.664  25.636  1.00  0.00     0.158 C 
BRANCH  12  13
ATOM     13  C   UNL A   1      37.095  22.334  25.682  1.00  0.00     0.149 A 
ATOM     14  C   UNL A   1      34.911  22.471  26.021  1.00  0.00     0.210 A 
ATOM     15  O   UNL A   1      36.003  21.643  26.124  1.00  0.00    -0.438 OA
ATOM     16  C   UNL A   1      35.340  23.698  25.553  1.00  0.00     0.082 A 
ATOM     17  C   UNL A   1      36.730  23.617  25.338  1.00  0.00     0.070 A 
ATOM     18  Br  UNL A   1      34.390  25.291  25.260  1.00  0.00    -0.045 Br
BRANCH  14  19
ATOM     19  N   UNL A   1      33.713  21.927  26.363  1.00  0.00    -0.348 N 
ATOM     20  C   UNL A   1      32.953  21.132  25.416  1.00  0.00     0.146 C 
ATOM     21  C   UNL A   1      33.014  22.445  27.528  1.00  0.00     0.146 C 
ENDBRANCH  14  19
ENDBRANCH  12  13
ENDBRANCH   6  11
BRANCH  10  22
ATOM     22  O   UNL A   1      44.154  19.448  25.599  1.00  0.00    -0.507 OA
ATOM     23  H   UNL A   1      44.162  18.676  25.068  1.00  0.00     0.293 HD
ENDBRANCH  10  22
ENDBRANCH   3   5
ENDBRANCH   2   3
ENDBRANCH   1   2
BRANCH   1  24
ATOM     24  C   UNL A   1      44.707  24.547  27.051  1.00  0.00     0.275 C 
BRANCH  24  25
ATOM     25  O   UNL A   1      44.404  25.700  26.248  1.00  0.00    -0.458 OA
BRANCH  25  26
ATOM     26  C   UNL A   1      43.093  25.946  26.034  1.00  0.00     0.338 C 
ATOM     27  O   UNL A   1      42.413  25.593  25.085  1.00  0.00    -0.246 OA
BRANCH  26  28
ATOM     28  C   UNL A   1      42.567  26.727  27.165  1.00  0.00     0.060 A 
ATOM     29  C   UNL A   1      43.056  28.013  27.388  1.00  0.00     0.016 A 
ATOM     30  C   UNL A   1      41.668  26.153  28.061  1.00  0.00     0.016 A 
ATOM     31  C   UNL A   1      42.714  28.703  28.550  1.00  0.00     0.010 A 
ATOM     32  C   UNL A   1      41.256  26.883  29.182  1.00  0.00     0.010 A 
ATOM     33  C   UNL A   1      41.803  28.151  29.461  1.00  0.00    -0.014 A 
BRANCH  33  34
ATOM     34  C   UNL A   1      41.463  28.860  30.729  1.00  0.00     0.031 A 
ATOM     35  C   UNL A   1      40.257  29.764  30.783  1.00  0.00     0.074 A 
ATOM     36  C   UNL A   1      42.221  28.703  31.832  1.00  0.00     0.049 A 
ATOM     37  N   UNL A   1      39.898  30.615  31.710  1.00  0.00    -0.248 NA
ATOM     38  C   UNL A   1      39.341  29.713  29.632  1.00  0.00     0.031 C 
ATOM     39  C   UNL A   1      43.392  27.830  31.944  1.00  0.00     0.029 A 
ATOM     40  N   UNL A   1      42.120  29.276  33.077  1.00  0.00    -0.354 N 
ATOM     41  C   UNL A   1      38.757  31.246  31.228  1.00  0.00     0.074 A 
ATOM     42  C   UNL A   1      38.481  30.678  29.925  1.00  0.00     0.031 C 
ATOM     43  C   UNL A   1      43.876  27.899  33.193  1.00  0.00     0.029 A 
ATOM     44  C   UNL A   1      43.107  28.881  33.950  1.00  0.00     0.049 A 
ATOM     45  H   UNL A   1      41.407  29.910  33.322  1.00  0.00     0.167 HD
ATOM     46  C   UNL A   1      38.008  32.210  31.816  1.00  0.00     0.037 A 
ATOM     47  C   UNL A   1      43.389  29.289  35.203  1.00  0.00     0.037 A 
ATOM     48  C   UNL A   1      38.248  32.728  33.138  1.00  0.00     0.049 A 
ATOM     49  C   UNL A   1      42.552  30.366  35.833  1.00  0.00     0.074 A 
ATOM     50  C   UNL A   1      37.539  33.697  33.827  1.00  0.00     0.029 A 
ATOM     51  N   UNL A   1      39.265  32.304  33.982  1.00  0.00    -0.354 N 
ATOM     52  N   UNL A   1      41.514  30.999  35.340  1.00  0.00    -0.248 NA
ATOM     53  C   UNL A   1      42.936  30.803  37.183  1.00  0.00     0.031 C 
ATOM     54  C   UNL A   1      38.143  33.879  35.077  1.00  0.00     0.029 A 
ATOM     55  C   UNL A   1      39.207  32.996  35.180  1.00  0.00     0.049 A 
ATOM     56  H   UNL A   1      39.931  31.612  33.760  1.00  0.00     0.167 HD
ATOM     57  C   UNL A   1      41.118  31.901  36.320  1.00  0.00     0.074 A 
ATOM     58  C   UNL A   1      42.015  31.720  37.443  1.00  0.00     0.031 C 
ATOM     59  C   UNL A   1      40.104  32.802  36.290  1.00  0.00     0.037 A 
BRANCH  46  60
ATOM     60  C   UNL A   1      36.874  32.795  31.018  1.00  0.00     0.058 A 
ATOM     61  C   UNL A   1      35.539  32.416  31.230  1.00  0.00     0.135 A 
ATOM     62  C   UNL A   1      37.130  33.769  30.038  1.00  0.00     0.135 A 
ATOM     63  F   UNL A   1      35.240  31.477  32.142  1.00  0.00    -0.206 F 
ATOM     64  C   UNL A   1      34.502  32.958  30.478  1.00  0.00     0.059 A 
ATOM     65  C   UNL A   1      36.105  34.342  29.292  1.00  0.00     0.059 A 
ATOM     66  F   UNL A   1      38.387  34.170  29.796  1.00  0.00    -0.206 F 
ATOM     67  C   UNL A   1      34.795  33.918  29.507  1.00  0.00     0.060 A 
BRANCH  67  68
ATOM     68  S   UNL A   1      33.441  34.611  28.533  1.00  0.00     0.124 S 
ATOM     69  O   UNL A   1      33.062  33.469  27.707  1.00  0.00    -0.237 OA
ATOM     70  O   UNL A   1      32.478  34.997  29.560  1.00  0.00    -0.237 OA
ATOM     71  O   UNL A   1      34.068  35.720  27.821  1.00  0.00    -0.744 OA
ENDBRANCH  67  68
ENDBRANCH  46  60
BRANCH  47  72
ATOM     72  C   UNL A   1      44.543  28.696  35.932  1.00  0.00     0.058 A 
ATOM     73  C   UNL A   1      45.835  29.223  35.789  1.00  0.00     0.135 A 
ATOM     74  C   UNL A   1      44.373  27.608  36.801  1.00  0.00     0.135 A 
ATOM     75  F   UNL A   1      46.050  30.254  34.958  1.00  0.00    -0.206 F 
ATOM     76  C   UNL A   1      46.918  28.692  36.480  1.00  0.00     0.059 A 
ATOM     77  C   UNL A   1      45.436  27.075  37.522  1.00  0.00     0.059 A 
ATOM     78  F   UNL A   1      43.155  27.073  36.979  1.00  0.00    -0.206 F 
ATOM     79  C   UNL A   1      46.708  27.620  37.350  1.00  0.00     0.060 A 
BRANCH  79  80
ATOM     80  S   UNL A   1      48.106  26.978  38.295  1.00  0.00     0.124 S 
ATOM     81  O   UNL A   1      49.235  27.582  37.597  1.00  0.00    -0.237 OA
ATOM     82  O   UNL A   1      47.837  27.492  39.635  1.00  0.00    -0.237 OA
ATOM     83  O   UNL A   1      47.971  25.532  38.149  1.00  0.00    -0.744 OA
ENDBRANCH  79  80
ENDBRANCH  47  72
BRANCH  59  84
ATOM     84  C   UNL A   1      39.896  33.641  37.517  1.00  0.00     0.058 A 
ATOM     85  C   UNL A   1      40.595  34.841  37.714  1.00  0.00     0.135 A 
ATOM     86  C   UNL A   1      38.957  33.259  38.488  1.00  0.00     0.135 A 
ATOM     87  F   UNL A   1      41.509  35.246  36.818  1.00  0.00    -0.206 F 
ATOM     88  C   UNL A   1      40.386  35.626  38.844  1.00  0.00     0.059 A 
ATOM     89  C   UNL A   1      38.717  34.038  39.616  1.00  0.00     0.059 A 
ATOM     90  F   UNL A   1      38.257  32.124  38.342  1.00  0.00    -0.206 F 
ATOM     91  C   UNL A   1      39.445  35.215  39.790  1.00  0.00     0.060 A 
BRANCH  91  92
ATOM     92  S   UNL A   1      39.161  36.253  41.241  1.00  0.00     0.124 S 
ATOM     93  O   UNL A   1      37.983  35.621  41.827  1.00  0.00    -0.237 OA
ATOM     94  O   UNL A   1      40.404  36.096  41.990  1.00  0.00    -0.237 OA
ATOM     95  O   UNL A   1      38.944  37.579  40.671  1.00  0.00    -0.744 OA
ENDBRANCH  91  92
ENDBRANCH  59  84
ENDBRANCH  33  34
ENDBRANCH  26  28
ENDBRANCH  25  26
ENDBRANCH  24  25
ENDBRANCH   1  24
TORSDOF 18
ENDMDL
MODEL 2
REMARK VINA RESULT:     -10.6      3.227     10.554
REMARK SMILES CN(C)c1oc(/C=N/c2ccc(O)c(C(=O)OCCOC(=O)c3ccc(-c4c5nc(c(-c6c(F)cc(S(=O)(=O)[O-])cc6F)c6ccc([nH]6)c(-c6c(F)cc(S(=O)(=O)[O-])cc6F)c6nc(c(-c7c(F)cc(S(=O)(=O)[O-])cc7F)c7ccc4[nH]7)C=C6)C=C5)cc3)c2)cc1Br
REMARK SMILES IDX 18 1 17 2 15 3 16 4 14 5 9 6 10 7 89 8 11 9 12 10 8 11 7 12
REMARK SMILES IDX 6 13 4 14 5 15 91 16 90 17 92 18 2 19 1 20 3 21 13 22 19 24
REMARK SMILES IDX 20 25 21 26 22 27 23 28 24 29 88 30 25 31 87 32 26 33 27 34
REMARK SMILES IDX 28 35 81 36 29 37 86 38 80 39 82 40 30 41 85 42 79 43 78 44
REMARK SMILES IDX 31 46 65 47 44 48 64 49 45 50 48 51 63 52 83 53 46 54 47 55
REMARK SMILES IDX 62 57 84 58 49 59 32 60 33 61 42 62 34 63 35 64 41 65 43 66
REMARK SMILES IDX 36 67 37 68 38 69 39 70 40 71 66 72 67 73 76 74 68 75 69 76
REMARK SMILES IDX 75 77 77 78 70 79 71 80 72 81 73 82 74 83 50 84 51 85 60 86
REMARK SMILES IDX 52 87 53 88 59 89 61 90 54 91 55 92 56 93 57 94 58 95
REMARK H PARENT 13 23 82 45 48 56
REMARK Flexibility Score: inf
ROOT
ATOM      1  C   UNL A   1      33.365  36.176  28.991  1.00  0.00     0.275 C 
ENDROOT
BRANCH   1   2
ATOM      2  O   UNL A   1      33.688  34.804  29.294  1.00  0.00    -0.458 OA
BRANCH   2   3
ATOM      3  C   UNL A   1      33.349  33.882  28.359  1.00  0.00     0.342 C 
ATOM      4  O   UNL A   1      32.387  33.929  27.608  1.00  0.00    -0.246 OA
BRANCH   3   5
ATOM      5  C   UNL A   1      34.396  32.844  28.241  1.00  0.00     0.103 A 
ATOM      6  C   UNL A   1      34.897  30.530  27.677  1.00  0.00     0.064 A 
ATOM      7  C   UNL A   1      36.258  30.800  27.828  1.00  0.00     0.032 A 
ATOM      8  C   UNL A   1      33.974  31.543  27.927  1.00  0.00     0.048 A 
ATOM      9  C   UNL A   1      36.690  32.076  28.211  1.00  0.00     0.049 A 
ATOM     10  C   UNL A   1      35.760  33.101  28.401  1.00  0.00     0.130 A 
BRANCH   6  11
ATOM     11  N   UNL A   1      34.446  29.335  27.115  1.00  0.00    -0.253 NA
ATOM     12  C   UNL A   1      33.233  29.262  26.673  1.00  0.00     0.158 C 
BRANCH  12  13
ATOM     13  C   UNL A   1      32.768  28.035  26.091  1.00  0.00     0.149 A 
ATOM     14  C   UNL A   1      32.920  25.897  25.532  1.00  0.00     0.210 A 
ATOM     15  O   UNL A   1      33.543  26.916  26.211  1.00  0.00    -0.438 OA
ATOM     16  C   UNL A   1      31.729  26.379  25.025  1.00  0.00     0.082 A 
ATOM     17  C   UNL A   1      31.626  27.738  25.380  1.00  0.00     0.070 A 
ATOM     18  Br  UNL A   1      30.368  25.505  24.072  1.00  0.00    -0.045 Br
BRANCH  14  19
ATOM     19  N   UNL A   1      33.584  24.711  25.492  1.00  0.00    -0.348 N 
ATOM     20  C   UNL A   1      33.380  23.703  26.516  1.00  0.00     0.146 C 
ATOM     21  C   UNL A   1      34.767  24.597  24.654  1.00  0.00     0.146 C 
ENDBRANCH  14  19
ENDBRANCH  12  13
ENDBRANCH   6  11
BRANCH  10  22
ATOM     22  O   UNL A   1      36.195  34.344  28.765  1.00  0.00    -0.507 OA
ATOM     23  H   UNL A   1      36.514  34.492  29.633  1.00  0.00     0.293 HD
ENDBRANCH  10  22
ENDBRANCH   3   5
ENDBRANCH   2   3
ENDBRANCH   1   2
BRANCH   1  24
ATOM     24  C   UNL A   1      32.664  36.831  30.177  1.00  0.00     0.275 C 
BRANCH  24  25
ATOM     25  O   UNL A   1      32.305  35.812  31.125  1.00  0.00    -0.458 OA
BRANCH  25  26
ATOM     26  C   UNL A   1      32.744  35.997  32.390  1.00  0.00     0.338 C 
ATOM     27  O   UNL A   1      32.284  36.743  33.237  1.00  0.00    -0.246 OA
BRANCH  26  28
ATOM     28  C   UNL A   1      33.904  35.122  32.621  1.00  0.00     0.060 A 
ATOM     29  C   UNL A   1      33.702  33.860  33.177  1.00  0.00     0.016 A 
ATOM     30  C   UNL A   1      35.196  35.585  32.384  1.00  0.00     0.016 A 
ATOM     31  C   UNL A   1      34.790  33.085  33.576  1.00  0.00     0.010 A 
ATOM     32  C   UNL A   1      36.287  34.768  32.702  1.00  0.00     0.010 A 
ATOM     33  C   UNL A   1      36.099  33.524  33.337  1.00  0.00    -0.014 A 
BRANCH  33  34
ATOM     34  C   UNL A   1      37.271  32.725  33.798  1.00  0.00     0.031 A 
ATOM     35  C   UNL A   1      37.896  33.016  35.140  1.00  0.00     0.074 A 
ATOM     36  C   UNL A   1      37.782  31.742  33.031  1.00  0.00     0.049 A 
ATOM     37  N   UNL A   1      39.024  32.583  35.642  1.00  0.00    -0.248 NA
ATOM     38  C   UNL A   1      37.159  33.931  36.027  1.00  0.00     0.031 C 
ATOM     39  C   UNL A   1      37.259  31.318  31.731  1.00  0.00     0.029 A 
ATOM     40  N   UNL A   1      38.862  30.916  33.235  1.00  0.00    -0.354 N 
ATOM     41  C   UNL A   1      39.163  33.219  36.871  1.00  0.00     0.074 A 
ATOM     42  C   UNL A   1      38.004  34.068  37.039  1.00  0.00     0.031 C 
ATOM     43  C   UNL A   1      37.994  30.294  31.273  1.00  0.00     0.029 A 
ATOM     44  C   UNL A   1      39.091  30.039  32.201  1.00  0.00     0.049 A 
ATOM     45  H   UNL A   1      39.420  30.950  34.046  1.00  0.00     0.167 HD
ATOM     46  C   UNL A   1      40.167  33.106  37.775  1.00  0.00     0.037 A 
ATOM     47  C   UNL A   1      40.090  29.158  31.999  1.00  0.00     0.037 A 
ATOM     48  C   UNL A   1      41.288  32.213  37.633  1.00  0.00     0.049 A 
ATOM     49  C   UNL A   1      41.198  29.056  33.009  1.00  0.00     0.074 A 
ATOM     50  C   UNL A   1      42.349  32.017  38.500  1.00  0.00     0.029 A 
ATOM     51  N   UNL A   1      41.482  31.350  36.564  1.00  0.00    -0.354 N 
ATOM     52  N   UNL A   1      41.349  29.709  34.136  1.00  0.00    -0.248 NA
ATOM     53  C   UNL A   1      42.284  28.111  32.712  1.00  0.00     0.031 C 
ATOM     54  C   UNL A   1      43.200  31.055  37.942  1.00  0.00     0.029 A 
ATOM     55  C   UNL A   1      42.649  30.626  36.746  1.00  0.00     0.049 A 
ATOM     56  H   UNL A   1      40.879  31.265  35.791  1.00  0.00     0.167 HD
ATOM     57  C   UNL A   1      42.541  29.251  34.684  1.00  0.00     0.074 A 
ATOM     58  C   UNL A   1      43.062  28.250  33.776  1.00  0.00     0.031 C 
ATOM     59  C   UNL A   1      43.152  29.629  35.835  1.00  0.00     0.037 A 
BRANCH  46  60
ATOM     60  C   UNL A   1      40.115  33.997  38.987  1.00  0.00     0.058 A 
ATOM     61  C   UNL A   1      39.530  33.583  40.193  1.00  0.00     0.135 A 
ATOM     62  C   UNL A   1      40.684  35.281  38.942  1.00  0.00     0.135 A 
ATOM     63  F   UNL A   1      38.958  32.371  40.286  1.00  0.00    -0.206 F 
ATOM     64  C   UNL A   1      39.482  34.421  41.303  1.00  0.00     0.059 A 
ATOM     65  C   UNL A   1      40.668  36.126  40.048  1.00  0.00     0.059 A 
ATOM     66  F   UNL A   1      41.258  35.728  37.815  1.00  0.00    -0.206 F 
ATOM     67  C   UNL A   1      40.050  35.694  41.219  1.00  0.00     0.060 A 
BRANCH  67  68
ATOM     68  S   UNL A   1      39.976  36.775  42.663  1.00  0.00     0.124 S 
ATOM     69  O   UNL A   1      39.690  38.067  42.046  1.00  0.00    -0.237 OA
ATOM     70  O   UNL A   1      38.888  36.191  43.441  1.00  0.00    -0.237 OA
ATOM     71  O   UNL A   1      41.304  36.642  43.255  1.00  0.00    -0.744 OA
ENDBRANCH  67  68
ENDBRANCH  46  60
BRANCH  47  72
ATOM     72  C   UNL A   1      40.104  28.325  30.766  1.00  0.00     0.058 A 
ATOM     73  C   UNL A   1      40.957  28.633  29.696  1.00  0.00     0.135 A 
ATOM     74  C   UNL A   1      39.282  27.195  30.642  1.00  0.00     0.135 A 
ATOM     75  F   UNL A   1      41.752  29.712  29.761  1.00  0.00    -0.206 F 
ATOM     76  C   UNL A   1      40.996  27.851  28.547  1.00  0.00     0.059 A 
ATOM     77  C   UNL A   1      39.320  26.383  29.513  1.00  0.00     0.059 A 
ATOM     78  F   UNL A   1      38.453  26.853  31.641  1.00  0.00    -0.206 F 
ATOM     79  C   UNL A   1      40.176  26.723  28.466  1.00  0.00     0.060 A 
BRANCH  79  80
ATOM     80  S   UNL A   1      40.279  25.674  27.001  1.00  0.00     0.124 S 
ATOM     81  O   UNL A   1      38.898  25.224  26.864  1.00  0.00    -0.237 OA
ATOM     82  O   UNL A   1      40.747  26.609  25.982  1.00  0.00    -0.237 OA
ATOM     83  O   UNL A   1      41.243  24.650  27.391  1.00  0.00    -0.744 OA
ENDBRANCH  79  80
ENDBRANCH  47  72
BRANCH  59  84
ATOM     84  C   UNL A   1      44.437  28.938  36.188  1.00  0.00     0.058 A 
ATOM     85  C   UNL A   1      44.447  27.691  36.830  1.00  0.00     0.135 A 
ATOM     86  C   UNL A   1      45.671  29.513  35.845  1.00  0.00     0.135 A 
ATOM     87  F   UNL A   1      43.294  27.103  37.185  1.00  0.00    -0.206 F 
ATOM     88  C   UNL A   1      45.640  27.044  37.140  1.00  0.00     0.059 A 
ATOM     89  C   UNL A   1      46.875  28.875  36.127  1.00  0.00     0.059 A 
ATOM     90  F   UNL A   1      45.713  30.701  35.223  1.00  0.00    -0.206 F 
ATOM     91  C   UNL A   1      46.849  27.646  36.785  1.00  0.00     0.060 A 
BRANCH  91  92
ATOM     92  S   UNL A   1      48.392  26.788  37.167  1.00  0.00     0.124 S 
ATOM     93  O   UNL A   1      48.744  27.377  38.455  1.00  0.00    -0.237 OA
ATOM     94  O   UNL A   1      47.975  25.389  37.202  1.00  0.00    -0.237 OA
ATOM     95  O   UNL A   1      49.263  27.147  36.053  1.00  0.00    -0.744 OA
ENDBRANCH  91  92
ENDBRANCH  59  84
ENDBRANCH  33  34
ENDBRANCH  26  28
ENDBRANCH  25  26
ENDBRANCH  24  25
ENDBRANCH   1  24
TORSDOF 18
ENDMDL
MODEL 3
REMARK VINA RESULT:     -10.6      2.916      4.990
REMARK SMILES CN(C)c1oc(/C=N/c2ccc(O)c(C(=O)OCCOC(=O)c3ccc(-c4c5nc(c(-c6c(F)cc(S(=O)(=O)[O-])cc6F)c6ccc([nH]6)c(-c6c(F)cc(S(=O)(=O)[O-])cc6F)c6nc(c(-c7c(F)cc(S(=O)(=O)[O-])cc7F)c7ccc4[nH]7)C=C6)C=C5)cc3)c2)cc1Br
REMARK SMILES IDX 18 1 17 2 15 3 16 4 14 5 9 6 10 7 89 8 11 9 12 10 8 11 7 12
REMARK SMILES IDX 6 13 4 14 5 15 91 16 90 17 92 18 2 19 1 20 3 21 13 22 19 24
REMARK SMILES IDX 20 25 21 26 22 27 23 28 24 29 88 30 25 31 87 32 26 33 27 34
REMARK SMILES IDX 28 35 81 36 29 37 86 38 80 39 82 40 30 41 85 42 79 43 78 44
REMARK SMILES IDX 31 46 65 47 44 48 64 49 45 50 48 51 63 52 83 53 46 54 47 55
REMARK SMILES IDX 62 57 84 58 49 59 32 60 33 61 42 62 34 63 35 64 41 65 43 66
REMARK SMILES IDX 36 67 37 68 38 69 39 70 40 71 66 72 67 73 76 74 68 75 69 76
REMARK SMILES IDX 75 77 77 78 70 79 71 80 72 81 73 82 74 83 50 84 51 85 60 86
REMARK SMILES IDX 52 87 53 88 59 89 61 90 54 91 55 92 56 93 57 94 58 95
REMARK H PARENT 13 23 82 45 48 56
REMARK Flexibility Score: inf
ROOT
ATOM      1  C   UNL A   1      40.908  22.044  27.231  1.00  0.00     0.275 C 
ENDROOT
BRANCH   1   2
ATOM      2  O   UNL A   1      41.933  21.033  27.297  1.00  0.00    -0.458 OA
BRANCH   2   3
ATOM      3  C   UNL A   1      42.004  20.174  26.251  1.00  0.00     0.342 C 
ATOM      4  O   UNL A   1      41.063  19.631  25.692  1.00  0.00    -0.246 OA
BRANCH   3   5
ATOM      5  C   UNL A   1      43.390  20.075  25.743  1.00  0.00     0.103 A 
ATOM      6  C   UNL A   1      45.475  21.253  25.310  1.00  0.00     0.064 A 
ATOM      7  C   UNL A   1      46.072  20.042  24.954  1.00  0.00     0.032 A 
ATOM      8  C   UNL A   1      44.127  21.266  25.660  1.00  0.00     0.048 A 
ATOM      9  C   UNL A   1      45.328  18.856  24.964  1.00  0.00     0.049 A 
ATOM     10  C   UNL A   1      43.993  18.870  25.375  1.00  0.00     0.130 A 
BRANCH   6  11
ATOM     11  N   UNL A   1      46.228  22.413  25.495  1.00  0.00    -0.253 NA
ATOM     12  C   UNL A   1      45.932  23.474  24.816  1.00  0.00     0.158 C 
BRANCH  12  13
ATOM     13  C   UNL A   1      46.703  24.670  25.008  1.00  0.00     0.149 A 
ATOM     14  C   UNL A   1      48.198  26.203  24.445  1.00  0.00     0.210 A 
ATOM     15  O   UNL A   1      47.533  25.084  24.006  1.00  0.00    -0.438 OA
ATOM     16  C   UNL A   1      47.742  26.509  25.713  1.00  0.00     0.082 A 
ATOM     17  C   UNL A   1      46.788  25.538  26.075  1.00  0.00     0.070 A 
ATOM     18  Br  UNL A   1      48.167  27.943  26.848  1.00  0.00    -0.045 Br
BRANCH  14  19
ATOM     19  N   UNL A   1      49.121  26.725  23.593  1.00  0.00    -0.348 N 
ATOM     20  C   UNL A   1      48.892  26.742  22.160  1.00  0.00     0.146 C 
ATOM     21  C   UNL A   1      50.483  26.914  24.065  1.00  0.00     0.146 C 
ENDBRANCH  14  19
ENDBRANCH  12  13
ENDBRANCH   6  11
BRANCH  10  22
ATOM     22  O   UNL A   1      43.282  17.704  25.389  1.00  0.00    -0.507 OA
ATOM     23  H   UNL A   1      43.152  17.245  26.195  1.00  0.00     0.293 HD
ENDBRANCH  10  22
ENDBRANCH   3   5
ENDBRANCH   2   3
ENDBRANCH   1   2
BRANCH   1  24
ATOM     24  C   UNL A   1      41.403  23.250  26.437  1.00  0.00     0.275 C 
BRANCH  24  25
ATOM     25  O   UNL A   1      40.394  24.273  26.470  1.00  0.00    -0.458 OA
BRANCH  25  26
ATOM     26  C   UNL A   1      40.824  25.536  26.255  1.00  0.00     0.338 C 
ATOM     27  O   UNL A   1      41.145  26.045  25.195  1.00  0.00    -0.246 OA
BRANCH  26  28
ATOM     28  C   UNL A   1      40.840  26.255  27.540  1.00  0.00     0.060 A 
ATOM     29  C   UNL A   1      39.876  25.953  28.499  1.00  0.00     0.016 A 
ATOM     30  C   UNL A   1      41.742  27.294  27.755  1.00  0.00     0.016 A 
ATOM     31  C   UNL A   1      39.753  26.738  29.644  1.00  0.00     0.010 A 
ATOM     32  C   UNL A   1      41.675  28.025  28.947  1.00  0.00     0.010 A 
ATOM     33  C   UNL A   1      40.655  27.782  29.889  1.00  0.00    -0.014 A 
BRANCH  33  34
ATOM     34  C   UNL A   1      40.507  28.657  31.087  1.00  0.00     0.031 A 
ATOM     35  C   UNL A   1      39.458  29.741  31.099  1.00  0.00     0.074 A 
ATOM     36  C   UNL A   1      41.300  28.494  32.165  1.00  0.00     0.049 A 
ATOM     37  N   UNL A   1      39.291  30.726  31.945  1.00  0.00    -0.248 NA
ATOM     38  C   UNL A   1      38.475  29.721  30.004  1.00  0.00     0.031 C 
ATOM     39  C   UNL A   1      42.329  27.463  32.316  1.00  0.00     0.029 A 
ATOM     40  N   UNL A   1      41.364  29.196  33.345  1.00  0.00    -0.354 N 
ATOM     41  C   UNL A   1      38.231  31.477  31.450  1.00  0.00     0.074 A 
ATOM     42  C   UNL A   1      37.792  30.833  30.231  1.00  0.00     0.031 C 
ATOM     43  C   UNL A   1      42.895  27.579  33.526  1.00  0.00     0.029 A 
ATOM     44  C   UNL A   1      42.333  28.740  34.208  1.00  0.00     0.049 A 
ATOM     45  H   UNL A   1      40.773  29.956  33.552  1.00  0.00     0.167 HD
ATOM     46  C   UNL A   1      37.675  32.602  31.965  1.00  0.00     0.037 A 
ATOM     47  C   UNL A   1      42.751  29.221  35.395  1.00  0.00     0.037 A 
ATOM     48  C   UNL A   1      38.073  33.204  33.211  1.00  0.00     0.049 A 
ATOM     49  C   UNL A   1      42.128  30.474  35.943  1.00  0.00     0.074 A 
ATOM     50  C   UNL A   1      37.563  34.336  33.824  1.00  0.00     0.029 A 
ATOM     51  N   UNL A   1      39.065  32.711  34.047  1.00  0.00    -0.354 N 
ATOM     52  N   UNL A   1      41.170  31.209  35.433  1.00  0.00    -0.248 NA
ATOM     53  C   UNL A   1      42.658  30.977  37.219  1.00  0.00     0.031 C 
ATOM     54  C   UNL A   1      38.266  34.544  35.017  1.00  0.00     0.029 A 
ATOM     55  C   UNL A   1      39.187  33.520  35.165  1.00  0.00     0.049 A 
ATOM     56  H   UNL A   1      39.602  31.905  33.872  1.00  0.00     0.167 HD
ATOM     57  C   UNL A   1      40.977  32.256  36.328  1.00  0.00     0.074 A 
ATOM     58  C   UNL A   1      41.904  32.049  37.421  1.00  0.00     0.031 C 
ATOM     59  C   UNL A   1      40.112  33.298  36.247  1.00  0.00     0.037 A 
BRANCH  46  60
ATOM     60  C   UNL A   1      36.595  33.275  31.162  1.00  0.00     0.058 A 
ATOM     61  C   UNL A   1      36.869  33.950  29.963  1.00  0.00     0.135 A 
ATOM     62  C   UNL A   1      35.259  33.221  31.593  1.00  0.00     0.135 A 
ATOM     63  F   UNL A   1      38.131  34.046  29.514  1.00  0.00    -0.206 F 
ATOM     64  C   UNL A   1      35.862  34.576  29.235  1.00  0.00     0.059 A 
ATOM     65  C   UNL A   1      34.232  33.819  30.868  1.00  0.00     0.059 A 
ATOM     66  F   UNL A   1      34.940  32.587  32.732  1.00  0.00    -0.206 F 
ATOM     67  C   UNL A   1      34.546  34.509  29.698  1.00  0.00     0.060 A 
BRANCH  67  68
ATOM     68  S   UNL A   1      33.247  35.330  28.749  1.00  0.00     0.124 S 
ATOM     69  O   UNL A   1      34.026  36.247  27.922  1.00  0.00    -0.237 OA
ATOM     70  O   UNL A   1      32.621  34.217  28.041  1.00  0.00    -0.237 OA
ATOM     71  O   UNL A   1      32.421  35.957  29.776  1.00  0.00    -0.744 OA
ENDBRANCH  67  68
ENDBRANCH  46  60
BRANCH  47  72
ATOM     72  C   UNL A   1      43.845  28.529  36.130  1.00  0.00     0.058 A 
ATOM     73  C   UNL A   1      45.172  28.971  36.031  1.00  0.00     0.135 A 
ATOM     74  C   UNL A   1      43.581  27.429  36.960  1.00  0.00     0.135 A 
ATOM     75  F   UNL A   1      45.477  30.009  35.238  1.00  0.00    -0.206 F 
ATOM     76  C   UNL A   1      46.201  28.347  36.728  1.00  0.00     0.059 A 
ATOM     77  C   UNL A   1      44.589  26.804  37.687  1.00  0.00     0.059 A 
ATOM     78  F   UNL A   1      42.326  26.973  37.096  1.00  0.00    -0.206 F 
ATOM     79  C   UNL A   1      45.899  27.266  37.560  1.00  0.00     0.060 A 
BRANCH  79  80
ATOM     80  S   UNL A   1      47.227  26.503  38.514  1.00  0.00     0.124 S 
ATOM     81  O   UNL A   1      47.675  27.619  39.338  1.00  0.00    -0.237 OA
ATOM     82  O   UNL A   1      46.529  25.431  39.218  1.00  0.00    -0.237 OA
ATOM     83  O   UNL A   1      48.164  26.059  37.486  1.00  0.00    -0.744 OA
ENDBRANCH  79  80
ENDBRANCH  47  72
BRANCH  59  84
ATOM     84  C   UNL A   1      40.111  34.277  37.385  1.00  0.00     0.058 A 
ATOM     85  C   UNL A   1      40.961  35.393  37.395  1.00  0.00     0.135 A 
ATOM     86  C   UNL A   1      39.220  34.118  38.459  1.00  0.00     0.135 A 
ATOM     87  F   UNL A   1      41.835  35.586  36.395  1.00  0.00    -0.206 F 
ATOM     88  C   UNL A   1      40.944  36.309  38.442  1.00  0.00     0.059 A 
ATOM     89  C   UNL A   1      39.172  35.032  39.507  1.00  0.00     0.059 A 
ATOM     90  F   UNL A   1      38.382  33.071  38.492  1.00  0.00    -0.206 F 
ATOM     91  C   UNL A   1      40.046  36.118  39.495  1.00  0.00     0.060 A 
BRANCH  91  92
ATOM     92  S   UNL A   1      40.012  37.326  40.837  1.00  0.00     0.124 S 
ATOM     93  O   UNL A   1      40.065  36.461  42.012  1.00  0.00    -0.237 OA
ATOM     94  O   UNL A   1      41.210  38.119  40.580  1.00  0.00    -0.237 OA
ATOM     95  O   UNL A   1      38.748  38.027  40.630  1.00  0.00    -0.744 OA
ENDBRANCH  91  92
ENDBRANCH  59  84
ENDBRANCH  33  34
ENDBRANCH  26  28
ENDBRANCH  25  26
ENDBRANCH  24  25
ENDBRANCH   1  24
TORSDOF 18
ENDMDL
