MODEL 1
REMARK VINA RESULT:      -9.2      0.000      0.000
REMARK SMILES CCOc1cc(OCC)cc(-c2ccc([C@@H](C)C(=O)OCCOC(=O)c3ccc(-c4c5nc(c(-c6c(F)cc(S(=O)(=O)[O-])cc6F)c6ccc([nH]6)c(-c6c(F)cc(S(=O)(=O)[O-])cc6F)c6nc(c(-c7c(F)cc(S(=O)(=O)[O-])cc7F)c7ccc4[nH]7)C=C6)C=C5)cc3)cc2)c1
REMARK SMILES IDX 21 1 20 2 18 3 19 4 16 5 17 6 15 7 12 8 13 9 93 10 14 11
REMARK SMILES IDX 92 12 11 13 4 14 5 15 94 16 6 17 10 18 3 19 2 20 1 21 7 22
REMARK SMILES IDX 8 23 9 24 22 25 23 26 24 27 25 28 26 29 27 30 91 31 28 32
REMARK SMILES IDX 90 33 29 34 30 35 31 36 84 37 32 38 89 39 83 40 85 41 33 42
REMARK SMILES IDX 88 43 82 44 81 45 34 47 68 48 47 49 67 50 48 51 51 52 66 53
REMARK SMILES IDX 86 54 49 55 50 56 65 58 87 59 52 60 35 61 36 62 45 63 37 64
REMARK SMILES IDX 38 65 44 66 46 67 39 68 40 69 41 70 42 71 43 72 69 73 70 74
REMARK SMILES IDX 79 75 71 76 72 77 78 78 80 79 73 80 74 81 75 82 76 83 77 84
REMARK SMILES IDX 53 85 54 86 63 87 55 88 56 89 62 90 64 91 57 92 58 93 59 94
REMARK SMILES IDX 60 95 61 96
REMARK H PARENT 85 46 51 57
REMARK Flexibility Score: inf
ROOT
ATOM      1  C   UNL A   1      33.814  34.406  28.744  1.00  0.00     0.274 C 
ENDROOT
BRANCH   1   2
ATOM      2  O   UNL A   1      33.342  34.293  30.100  1.00  0.00    -0.462 OA
BRANCH   2   3
ATOM      3  C   UNL A   1      34.264  34.441  31.088  1.00  0.00     0.313 C 
ATOM      4  O   UNL A   1      34.309  35.404  31.847  1.00  0.00    -0.252 OA
BRANCH   3   5
ATOM      5  C   UNL A   1      35.304  33.326  31.129  1.00  0.00     0.126 C 
ATOM      6  C   UNL A   1      35.235  32.604  32.474  1.00  0.00     0.025 C 
BRANCH   5   7
ATOM      7  C   UNL A   1      36.725  33.729  30.768  1.00  0.00    -0.034 A 
ATOM      8  C   UNL A   1      39.382  34.433  30.061  1.00  0.00    -0.018 A 
ATOM      9  C   UNL A   1      38.888  34.664  31.355  1.00  0.00     0.009 A 
ATOM     10  C   UNL A   1      38.519  33.861  29.119  1.00  0.00     0.009 A 
ATOM     11  C   UNL A   1      37.584  34.313  31.706  1.00  0.00     0.005 A 
ATOM     12  C   UNL A   1      37.213  33.506  29.470  1.00  0.00     0.005 A 
BRANCH   8  13
ATOM     13  C   UNL A   1      40.783  34.733  29.738  1.00  0.00    -0.011 A 
ATOM     14  C   UNL A   1      42.499  35.611  28.269  1.00  0.00     0.123 A 
ATOM     15  C   UNL A   1      43.483  35.295  29.208  1.00  0.00     0.092 A 
ATOM     16  C   UNL A   1      41.160  35.313  28.521  1.00  0.00     0.055 A 
ATOM     17  C   UNL A   1      43.132  34.689  30.414  1.00  0.00     0.123 A 
ATOM     18  C   UNL A   1      41.788  34.419  30.668  1.00  0.00     0.055 A 
BRANCH  14  19
ATOM     19  O   UNL A   1      42.907  36.103  27.061  1.00  0.00    -0.494 OA
BRANCH  19  20
ATOM     20  C   UNL A   1      43.889  35.291  26.407  1.00  0.00     0.226 C 
ATOM     21  C   UNL A   1      43.303  34.537  25.225  1.00  0.00     0.049 C 
ENDBRANCH  19  20
ENDBRANCH  14  19
BRANCH  17  22
ATOM     22  O   UNL A   1      44.163  34.426  31.277  1.00  0.00    -0.494 OA
BRANCH  22  23
ATOM     23  C   UNL A   1      45.096  33.411  30.897  1.00  0.00     0.226 C 
ATOM     24  C   UNL A   1      44.691  32.053  31.450  1.00  0.00     0.049 C 
ENDBRANCH  22  23
ENDBRANCH  17  22
ENDBRANCH   8  13
ENDBRANCH   5   7
ENDBRANCH   3   5
ENDBRANCH   2   3
ENDBRANCH   1   2
BRANCH   1  25
ATOM     25  C   UNL A   1      33.449  33.170  27.922  1.00  0.00     0.275 C 
BRANCH  25  26
ATOM     26  O   UNL A   1      34.619  32.398  27.595  1.00  0.00    -0.458 OA
BRANCH  26  27
ATOM     27  C   UNL A   1      34.450  31.058  27.668  1.00  0.00     0.338 C 
ATOM     28  O   UNL A   1      33.464  30.419  27.346  1.00  0.00    -0.246 OA
BRANCH  27  29
ATOM     29  C   UNL A   1      35.698  30.418  28.110  1.00  0.00     0.060 A 
ATOM     30  C   UNL A   1      35.705  29.802  29.363  1.00  0.00     0.016 A 
ATOM     31  C   UNL A   1      36.873  30.532  27.368  1.00  0.00     0.016 A 
ATOM     32  C   UNL A   1      36.898  29.341  29.909  1.00  0.00     0.010 A 
ATOM     33  C   UNL A   1      38.071  30.054  27.910  1.00  0.00     0.010 A 
ATOM     34  C   UNL A   1      38.095  29.487  29.198  1.00  0.00    -0.014 A 
BRANCH  34  35
ATOM     35  C   UNL A   1      39.376  29.140  29.859  1.00  0.00     0.031 A 
ATOM     36  C   UNL A   1      39.783  29.866  31.113  1.00  0.00     0.074 A 
ATOM     37  C   UNL A   1      40.141  28.145  29.373  1.00  0.00     0.049 A 
ATOM     38  N   UNL A   1      40.871  29.738  31.827  1.00  0.00    -0.248 NA
ATOM     39  C   UNL A   1      38.838  30.869  31.629  1.00  0.00     0.031 C 
ATOM     40  C   UNL A   1      39.829  27.341  28.190  1.00  0.00     0.029 A 
ATOM     41  N   UNL A   1      41.334  27.636  29.819  1.00  0.00    -0.354 N 
ATOM     42  C   UNL A   1      40.754  30.656  32.864  1.00  0.00     0.074 A 
ATOM     43  C   UNL A   1      39.496  31.346  32.677  1.00  0.00     0.031 C 
ATOM     44  C   UNL A   1      40.805  26.435  28.008  1.00  0.00     0.029 A 
ATOM     45  C   UNL A   1      41.823  26.617  29.040  1.00  0.00     0.049 A 
ATOM     46  H   UNL A   1      41.795  27.970  30.622  1.00  0.00     0.167 HD
ATOM     47  C   UNL A   1      41.615  30.898  33.882  1.00  0.00     0.037 A 
ATOM     48  C   UNL A   1      42.971  25.918  29.139  1.00  0.00     0.037 A 
ATOM     49  C   UNL A   1      42.857  30.197  34.074  1.00  0.00     0.049 A 
ATOM     50  C   UNL A   1      43.917  26.213  30.270  1.00  0.00     0.074 A 
ATOM     51  C   UNL A   1      43.805  30.376  35.067  1.00  0.00     0.029 A 
ATOM     52  N   UNL A   1      43.318  29.170  33.263  1.00  0.00    -0.354 N 
ATOM     53  N   UNL A   1      43.803  27.101  31.229  1.00  0.00    -0.248 NA
ATOM     54  C   UNL A   1      45.146  25.411  30.336  1.00  0.00     0.031 C 
ATOM     55  C   UNL A   1      44.851  29.473  34.842  1.00  0.00     0.029 A 
ATOM     56  C   UNL A   1      44.536  28.707  33.730  1.00  0.00     0.049 A 
ATOM     57  H   UNL A   1      42.848  28.821  32.471  1.00  0.00     0.167 HD
ATOM     58  C   UNL A   1      44.932  26.947  32.027  1.00  0.00     0.074 A 
ATOM     59  C   UNL A   1      45.712  25.874  31.442  1.00  0.00     0.031 C 
ATOM     60  C   UNL A   1      45.290  27.629  33.143  1.00  0.00     0.037 A 
BRANCH  47  61
ATOM     61  C   UNL A   1      41.251  31.990  34.847  1.00  0.00     0.058 A 
ATOM     62  C   UNL A   1      41.761  33.291  34.719  1.00  0.00     0.135 A 
ATOM     63  C   UNL A   1      40.369  31.733  35.909  1.00  0.00     0.135 A 
ATOM     64  F   UNL A   1      42.624  33.583  33.733  1.00  0.00    -0.206 F 
ATOM     65  C   UNL A   1      41.431  34.294  35.625  1.00  0.00     0.059 A 
ATOM     66  C   UNL A   1      40.007  32.726  36.815  1.00  0.00     0.059 A 
ATOM     67  F   UNL A   1      39.855  30.504  36.079  1.00  0.00    -0.206 F 
ATOM     68  C   UNL A   1      40.557  33.999  36.673  1.00  0.00     0.060 A 
BRANCH  68  69
ATOM     69  S   UNL A   1      40.142  35.304  37.851  1.00  0.00     0.124 S 
ATOM     70  O   UNL A   1      39.069  34.675  38.614  1.00  0.00    -0.237 OA
ATOM     71  O   UNL A   1      41.399  35.497  38.566  1.00  0.00    -0.237 OA
ATOM     72  O   UNL A   1      39.735  36.415  36.996  1.00  0.00    -0.744 OA
ENDBRANCH  68  69
ENDBRANCH  47  61
BRANCH  48  73
ATOM     73  C   UNL A   1      43.286  24.867  28.137  1.00  0.00     0.058 A 
ATOM     74  C   UNL A   1      44.043  25.159  26.994  1.00  0.00     0.135 A 
ATOM     75  C   UNL A   1      42.841  23.547  28.309  1.00  0.00     0.135 A 
ATOM     76  F   UNL A   1      44.484  26.409  26.782  1.00  0.00    -0.206 F 
ATOM     77  C   UNL A   1      44.338  24.183  26.047  1.00  0.00     0.059 A 
ATOM     78  C   UNL A   1      43.142  22.549  27.388  1.00  0.00     0.059 A 
ATOM     79  F   UNL A   1      42.124  23.215  29.393  1.00  0.00    -0.206 F 
ATOM     80  C   UNL A   1      43.883  22.879  26.253  1.00  0.00     0.060 A 
BRANCH  80  81
ATOM     81  S   UNL A   1      44.312  21.605  25.048  1.00  0.00     0.124 S 
ATOM     82  O   UNL A   1      45.656  21.236  25.478  1.00  0.00    -0.237 OA
ATOM     83  O   UNL A   1      43.273  20.604  25.270  1.00  0.00    -0.237 OA
ATOM     84  O   UNL A   1      44.227  22.311  23.773  1.00  0.00    -0.744 OA
ENDBRANCH  80  81
ENDBRANCH  48  73
BRANCH  60  85
ATOM     85  C   UNL A   1      46.558  27.205  33.828  1.00  0.00     0.058 A 
ATOM     86  C   UNL A   1      46.566  26.209  34.816  1.00  0.00     0.135 A 
ATOM     87  C   UNL A   1      47.785  27.784  33.467  1.00  0.00     0.135 A 
ATOM     88  F   UNL A   1      45.418  25.628  35.199  1.00  0.00    -0.206 F 
ATOM     89  C   UNL A   1      47.744  25.822  35.445  1.00  0.00     0.059 A 
ATOM     90  C   UNL A   1      48.978  27.397  34.067  1.00  0.00     0.059 A 
ATOM     91  F   UNL A   1      47.831  28.734  32.519  1.00  0.00    -0.206 F 
ATOM     92  C   UNL A   1      48.946  26.426  35.067  1.00  0.00     0.060 A 
BRANCH  92  93
ATOM     93  S   UNL A   1      50.474  25.908  35.877  1.00  0.00     0.124 S 
ATOM     94  O   UNL A   1      50.992  24.929  34.928  1.00  0.00    -0.237 OA
ATOM     95  O   UNL A   1      51.223  27.158  35.971  1.00  0.00    -0.237 OA
ATOM     96  O   UNL A   1      50.013  25.366  37.153  1.00  0.00    -0.744 OA
ENDBRANCH  92  93
ENDBRANCH  60  85
ENDBRANCH  34  35
ENDBRANCH  27  29
ENDBRANCH  26  27
ENDBRANCH  25  26
ENDBRANCH   1  25
TORSDOF 20
ENDMDL
MODEL 2
REMARK VINA RESULT:      -9.2      4.352     12.079
REMARK SMILES CCOc1cc(OCC)cc(-c2ccc([C@@H](C)C(=O)OCCOC(=O)c3ccc(-c4c5nc(c(-c6c(F)cc(S(=O)(=O)[O-])cc6F)c6ccc([nH]6)c(-c6c(F)cc(S(=O)(=O)[O-])cc6F)c6nc(c(-c7c(F)cc(S(=O)(=O)[O-])cc7F)c7ccc4[nH]7)C=C6)C=C5)cc3)cc2)c1
REMARK SMILES IDX 21 1 20 2 18 3 19 4 16 5 17 6 15 7 12 8 13 9 93 10 14 11
REMARK SMILES IDX 92 12 11 13 4 14 5 15 94 16 6 17 10 18 3 19 2 20 1 21 7 22
REMARK SMILES IDX 8 23 9 24 22 25 23 26 24 27 25 28 26 29 27 30 91 31 28 32
REMARK SMILES IDX 90 33 29 34 30 35 31 36 84 37 32 38 89 39 83 40 85 41 33 42
REMARK SMILES IDX 88 43 82 44 81 45 34 47 68 48 47 49 67 50 48 51 51 52 66 53
REMARK SMILES IDX 86 54 49 55 50 56 65 58 87 59 52 60 35 61 36 62 45 63 37 64
REMARK SMILES IDX 38 65 44 66 46 67 39 68 40 69 41 70 42 71 43 72 69 73 70 74
REMARK SMILES IDX 79 75 71 76 72 77 78 78 80 79 73 80 74 81 75 82 76 83 77 84
REMARK SMILES IDX 53 85 54 86 63 87 55 88 56 89 62 90 64 91 57 92 58 93 59 94
REMARK SMILES IDX 60 95 61 96
REMARK H PARENT 85 46 51 57
REMARK Flexibility Score: inf
ROOT
ATOM      1  C   UNL A   1      43.763  22.647  25.186  1.00  0.00     0.274 C 
ENDROOT
BRANCH   1   2
ATOM      2  O   UNL A   1      42.668  21.716  25.283  1.00  0.00    -0.462 OA
BRANCH   2   3
ATOM      3  C   UNL A   1      42.317  21.306  26.531  1.00  0.00     0.313 C 
ATOM      4  O   UNL A   1      42.811  21.749  27.563  1.00  0.00    -0.252 OA
BRANCH   3   5
ATOM      5  C   UNL A   1      41.292  20.177  26.541  1.00  0.00     0.126 C 
ATOM      6  C   UNL A   1      41.854  18.962  25.806  1.00  0.00     0.025 C 
BRANCH   5   7
ATOM      7  C   UNL A   1      39.897  20.543  26.061  1.00  0.00    -0.034 A 
ATOM      8  C   UNL A   1      37.299  21.189  25.118  1.00  0.00    -0.018 A 
ATOM      9  C   UNL A   1      38.131  22.167  25.685  1.00  0.00     0.009 A 
ATOM     10  C   UNL A   1      37.779  19.876  25.047  1.00  0.00     0.009 A 
ATOM     11  C   UNL A   1      39.411  21.853  26.143  1.00  0.00     0.005 A 
ATOM     12  C   UNL A   1      39.063  19.560  25.503  1.00  0.00     0.005 A 
BRANCH   8  13
ATOM     13  C   UNL A   1      35.989  21.559  24.566  1.00  0.00    -0.011 A 
ATOM     14  C   UNL A   1      33.606  21.213  24.296  1.00  0.00     0.123 A 
ATOM     15  C   UNL A   1      33.519  22.349  23.488  1.00  0.00     0.092 A 
ATOM     16  C   UNL A   1      34.836  20.806  24.813  1.00  0.00     0.055 A 
ATOM     17  C   UNL A   1      34.662  23.096  23.204  1.00  0.00     0.123 A 
ATOM     18  C   UNL A   1      35.882  22.697  23.748  1.00  0.00     0.055 A 
BRANCH  14  19
ATOM     19  O   UNL A   1      32.479  20.456  24.453  1.00  0.00    -0.494 OA
BRANCH  19  20
ATOM     20  C   UNL A   1      32.725  19.045  24.463  1.00  0.00     0.226 C 
ATOM     21  C   UNL A   1      32.409  18.409  23.120  1.00  0.00     0.049 C 
ENDBRANCH  19  20
ENDBRANCH  14  19
BRANCH  17  22
ATOM     22  O   UNL A   1      34.478  24.199  22.413  1.00  0.00    -0.494 OA
BRANCH  22  23
ATOM     23  C   UNL A   1      33.627  25.233  22.916  1.00  0.00     0.226 C 
ATOM     24  C   UNL A   1      32.623  25.682  21.866  1.00  0.00     0.049 C 
ENDBRANCH  22  23
ENDBRANCH  17  22
ENDBRANCH   8  13
ENDBRANCH   5   7
ENDBRANCH   3   5
ENDBRANCH   2   3
ENDBRANCH   1   2
BRANCH   1  25
ATOM     25  C   UNL A   1      43.263  24.087  25.069  1.00  0.00     0.275 C 
BRANCH  25  26
ATOM     26  O   UNL A   1      42.400  24.428  26.169  1.00  0.00    -0.458 OA
BRANCH  26  27
ATOM     27  C   UNL A   1      41.751  25.607  26.033  1.00  0.00     0.338 C 
ATOM     28  O   UNL A   1      41.155  26.014  25.050  1.00  0.00    -0.246 OA
BRANCH  27  29
ATOM     29  C   UNL A   1      41.760  26.336  27.310  1.00  0.00     0.060 A 
ATOM     30  C   UNL A   1      40.761  26.037  28.237  1.00  0.00     0.016 A 
ATOM     31  C   UNL A   1      42.653  27.382  27.541  1.00  0.00     0.016 A 
ATOM     32  C   UNL A   1      40.612  26.815  29.380  1.00  0.00     0.010 A 
ATOM     33  C   UNL A   1      42.513  28.155  28.698  1.00  0.00     0.010 A 
ATOM     34  C   UNL A   1      41.470  27.897  29.607  1.00  0.00    -0.014 A 
BRANCH  34  35
ATOM     35  C   UNL A   1      41.198  28.812  30.742  1.00  0.00     0.031 A 
ATOM     36  C   UNL A   1      42.076  28.759  31.963  1.00  0.00     0.074 A 
ATOM     37  C   UNL A   1      40.208  29.720  30.656  1.00  0.00     0.049 A 
ATOM     38  N   UNL A   1      41.993  29.447  33.071  1.00  0.00    -0.248 NA
ATOM     39  C   UNL A   1      43.196  27.805  31.928  1.00  0.00     0.031 C 
ATOM     40  C   UNL A   1      39.319  29.894  29.507  1.00  0.00     0.029 A 
ATOM     41  N   UNL A   1      39.791  30.672  31.551  1.00  0.00    -0.354 N 
ATOM     42  C   UNL A   1      43.033  28.996  33.876  1.00  0.00     0.074 A 
ATOM     43  C   UNL A   1      43.724  27.964  33.133  1.00  0.00     0.031 C 
ATOM     44  C   UNL A   1      38.464  30.898  29.765  1.00  0.00     0.029 A 
ATOM     45  C   UNL A   1      38.723  31.413  31.107  1.00  0.00     0.049 A 
ATOM     46  H   UNL A   1      40.216  30.810  32.428  1.00  0.00     0.167 HD
ATOM     47  C   UNL A   1      43.383  29.409  35.119  1.00  0.00     0.037 A 
ATOM     48  C   UNL A   1      38.025  32.389  31.720  1.00  0.00     0.037 A 
ATOM     49  C   UNL A   1      42.703  30.448  35.846  1.00  0.00     0.049 A 
ATOM     50  C   UNL A   1      38.424  32.821  33.104  1.00  0.00     0.074 A 
ATOM     51  C   UNL A   1      42.973  30.931  37.115  1.00  0.00     0.029 A 
ATOM     52  N   UNL A   1      41.626  31.177  35.362  1.00  0.00    -0.354 N 
ATOM     53  N   UNL A   1      39.396  32.368  33.861  1.00  0.00    -0.248 NA
ATOM     54  C   UNL A   1      37.635  33.898  33.718  1.00  0.00     0.031 C 
ATOM     55  C   UNL A   1      42.042  31.936  37.408  1.00  0.00     0.029 A 
ATOM     56  C   UNL A   1      41.218  32.103  36.306  1.00  0.00     0.049 A 
ATOM     57  H   UNL A   1      41.212  31.053  34.477  1.00  0.00     0.167 HD
ATOM     58  C   UNL A   1      39.351  33.122  35.029  1.00  0.00     0.074 A 
ATOM     59  C   UNL A   1      38.261  34.066  34.875  1.00  0.00     0.031 C 
ATOM     60  C   UNL A   1      40.140  33.043  36.128  1.00  0.00     0.037 A 
BRANCH  47  61
ATOM     61  C   UNL A   1      44.537  28.709  35.777  1.00  0.00     0.058 A 
ATOM     62  C   UNL A   1      45.860  29.146  35.609  1.00  0.00     0.135 A 
ATOM     63  C   UNL A   1      44.315  27.593  36.599  1.00  0.00     0.135 A 
ATOM     64  F   UNL A   1      46.128  30.197  34.817  1.00  0.00    -0.206 F 
ATOM     65  C   UNL A   1      46.926  28.485  36.210  1.00  0.00     0.059 A 
ATOM     66  C   UNL A   1      45.364  26.929  37.228  1.00  0.00     0.059 A 
ATOM     67  F   UNL A   1      43.069  27.131  36.791  1.00  0.00    -0.206 F 
ATOM     68  C   UNL A   1      46.668  27.373  37.014  1.00  0.00     0.060 A 
BRANCH  68  69
ATOM     69  S   UNL A   1      48.059  26.515  37.783  1.00  0.00     0.124 S 
ATOM     70  O   UNL A   1      48.880  27.636  38.229  1.00  0.00    -0.237 OA
ATOM     71  O   UNL A   1      47.410  25.744  38.838  1.00  0.00    -0.237 OA
ATOM     72  O   UNL A   1      48.616  25.726  36.689  1.00  0.00    -0.744 OA
ENDBRANCH  68  69
ENDBRANCH  47  61
BRANCH  48  73
ATOM     73  C   UNL A   1      36.876  33.025  31.025  1.00  0.00     0.058 A 
ATOM     74  C   UNL A   1      35.555  32.729  31.387  1.00  0.00     0.135 A 
ATOM     75  C   UNL A   1      37.080  33.949  29.988  1.00  0.00     0.135 A 
ATOM     76  F   UNL A   1      35.310  31.845  32.367  1.00  0.00    -0.206 F 
ATOM     77  C   UNL A   1      34.473  33.315  30.738  1.00  0.00     0.059 A 
ATOM     78  C   UNL A   1      36.016  34.565  29.339  1.00  0.00     0.059 A 
ATOM     79  F   UNL A   1      38.327  34.275  29.614  1.00  0.00    -0.206 F 
ATOM     80  C   UNL A   1      34.714  34.233  29.714  1.00  0.00     0.060 A 
BRANCH  80  81
ATOM     81  S   UNL A   1      33.307  35.030  28.909  1.00  0.00     0.124 S 
ATOM     82  O   UNL A   1      32.414  35.258  30.039  1.00  0.00    -0.237 OA
ATOM     83  O   UNL A   1      33.917  36.222  28.326  1.00  0.00    -0.237 OA
ATOM     84  O   UNL A   1      32.865  34.028  27.944  1.00  0.00    -0.744 OA
ENDBRANCH  80  81
ENDBRANCH  48  73
BRANCH  60  85
ATOM     85  C   UNL A   1      39.883  34.031  37.230  1.00  0.00     0.058 A 
ATOM     86  C   UNL A   1      39.039  33.731  38.309  1.00  0.00     0.135 A 
ATOM     87  C   UNL A   1      40.515  35.285  37.217  1.00  0.00     0.135 A 
ATOM     88  F   UNL A   1      38.409  32.547  38.364  1.00  0.00    -0.206 F 
ATOM     89  C   UNL A   1      38.808  34.651  39.326  1.00  0.00     0.059 A 
ATOM     90  C   UNL A   1      40.315  36.213  38.234  1.00  0.00     0.059 A 
ATOM     91  F   UNL A   1      41.341  35.617  36.211  1.00  0.00    -0.206 F 
ATOM     92  C   UNL A   1      39.446  35.893  39.277  1.00  0.00     0.060 A 
BRANCH  92  93
ATOM     93  S   UNL A   1      39.152  37.078  40.607  1.00  0.00     0.124 S 
ATOM     94  O   UNL A   1      38.620  36.214  41.656  1.00  0.00    -0.237 OA
ATOM     95  O   UNL A   1      40.485  37.621  40.849  1.00  0.00    -0.237 OA
ATOM     96  O   UNL A   1      38.199  38.015  40.019  1.00  0.00    -0.744 OA
ENDBRANCH  92  93
ENDBRANCH  60  85
ENDBRANCH  34  35
ENDBRANCH  27  29
ENDBRANCH  26  27
ENDBRANCH  25  26
ENDBRANCH   1  25
TORSDOF 20
ENDMDL
MODEL 3
REMARK VINA RESULT:      -9.0      4.241     12.153
REMARK SMILES CCOc1cc(OCC)cc(-c2ccc([C@@H](C)C(=O)OCCOC(=O)c3ccc(-c4c5nc(c(-c6c(F)cc(S(=O)(=O)[O-])cc6F)c6ccc([nH]6)c(-c6c(F)cc(S(=O)(=O)[O-])cc6F)c6nc(c(-c7c(F)cc(S(=O)(=O)[O-])cc7F)c7ccc4[nH]7)C=C6)C=C5)cc3)cc2)c1
REMARK SMILES IDX 21 1 20 2 18 3 19 4 16 5 17 6 15 7 12 8 13 9 93 10 14 11
REMARK SMILES IDX 92 12 11 13 4 14 5 15 94 16 6 17 10 18 3 19 2 20 1 21 7 22
REMARK SMILES IDX 8 23 9 24 22 25 23 26 24 27 25 28 26 29 27 30 91 31 28 32
REMARK SMILES IDX 90 33 29 34 30 35 31 36 84 37 32 38 89 39 83 40 85 41 33 42
REMARK SMILES IDX 88 43 82 44 81 45 34 47 68 48 47 49 67 50 48 51 51 52 66 53
REMARK SMILES IDX 86 54 49 55 50 56 65 58 87 59 52 60 35 61 36 62 45 63 37 64
REMARK SMILES IDX 38 65 44 66 46 67 39 68 40 69 41 70 42 71 43 72 69 73 70 74
REMARK SMILES IDX 79 75 71 76 72 77 78 78 80 79 73 80 74 81 75 82 76 83 77 84
REMARK SMILES IDX 53 85 54 86 63 87 55 88 56 89 62 90 64 91 57 92 58 93 59 94
REMARK SMILES IDX 60 95 61 96
REMARK H PARENT 85 46 51 57
REMARK Flexibility Score: inf
ROOT
ATOM      1  C   UNL A   1      43.686  21.886  26.159  1.00  0.00     0.274 C 
ENDROOT
BRANCH   1   2
ATOM      2  O   UNL A   1      43.492  20.767  25.274  1.00  0.00    -0.462 OA
BRANCH   2   3
ATOM      3  C   UNL A   1      42.729  19.741  25.738  1.00  0.00     0.313 C 
ATOM      4  O   UNL A   1      42.828  18.581  25.350  1.00  0.00    -0.252 OA
BRANCH   3   5
ATOM      5  C   UNL A   1      41.670  20.171  26.748  1.00  0.00     0.126 C 
ATOM      6  C   UNL A   1      41.571  19.134  27.866  1.00  0.00     0.025 C 
BRANCH   5   7
ATOM      7  C   UNL A   1      40.308  20.524  26.172  1.00  0.00    -0.034 A 
ATOM      8  C   UNL A   1      37.756  21.219  25.144  1.00  0.00    -0.018 A 
ATOM      9  C   UNL A   1      38.251  19.909  25.038  1.00  0.00     0.009 A 
ATOM     10  C   UNL A   1      38.566  22.182  25.757  1.00  0.00     0.009 A 
ATOM     11  C   UNL A   1      39.503  19.564  25.549  1.00  0.00     0.005 A 
ATOM     12  C   UNL A   1      39.820  21.837  26.272  1.00  0.00     0.005 A 
BRANCH   8  13
ATOM     13  C   UNL A   1      36.401  21.540  24.676  1.00  0.00    -0.011 A 
ATOM     14  C   UNL A   1      34.834  22.917  23.444  1.00  0.00     0.123 A 
ATOM     15  C   UNL A   1      33.785  22.068  23.802  1.00  0.00     0.092 A 
ATOM     16  C   UNL A   1      36.130  22.669  23.895  1.00  0.00     0.055 A 
ATOM     17  C   UNL A   1      34.029  20.954  24.605  1.00  0.00     0.123 A 
ATOM     18  C   UNL A   1      35.332  20.699  25.029  1.00  0.00     0.055 A 
BRANCH  14  19
ATOM     19  O   UNL A   1      34.525  24.053  22.748  1.00  0.00    -0.494 OA
BRANCH  19  20
ATOM     20  C   UNL A   1      33.562  24.888  23.403  1.00  0.00     0.226 C 
ATOM     21  C   UNL A   1      32.257  24.959  22.627  1.00  0.00     0.049 C 
ENDBRANCH  19  20
ENDBRANCH  14  19
BRANCH  17  22
ATOM     22  O   UNL A   1      32.941  20.173  24.895  1.00  0.00    -0.494 OA
BRANCH  22  23
ATOM     23  C   UNL A   1      32.965  18.818  24.439  1.00  0.00     0.226 C 
ATOM     24  C   UNL A   1      32.247  18.670  23.106  1.00  0.00     0.049 C 
ENDBRANCH  22  23
ENDBRANCH  17  22
ENDBRANCH   8  13
ENDBRANCH   5   7
ENDBRANCH   3   5
ENDBRANCH   2   3
ENDBRANCH   1   2
BRANCH   1  25
ATOM     25  C   UNL A   1      43.411  23.212  25.450  1.00  0.00     0.275 C 
BRANCH  25  26
ATOM     26  O   UNL A   1      42.996  24.225  26.384  1.00  0.00    -0.458 OA
BRANCH  26  27
ATOM     27  C   UNL A   1      42.495  25.346  25.816  1.00  0.00     0.338 C 
ATOM     28  O   UNL A   1      42.430  25.607  24.627  1.00  0.00    -0.246 OA
BRANCH  27  29
ATOM     29  C   UNL A   1      41.914  26.216  26.850  1.00  0.00     0.060 A 
ATOM     30  C   UNL A   1      42.314  27.553  26.876  1.00  0.00     0.016 A 
ATOM     31  C   UNL A   1      41.094  25.701  27.853  1.00  0.00     0.016 A 
ATOM     32  C   UNL A   1      41.941  28.375  27.933  1.00  0.00     0.010 A 
ATOM     33  C   UNL A   1      40.705  26.532  28.909  1.00  0.00     0.010 A 
ATOM     34  C   UNL A   1      41.155  27.864  28.972  1.00  0.00    -0.014 A 
BRANCH  34  35
ATOM     35  C   UNL A   1      40.902  28.703  30.168  1.00  0.00     0.031 A 
ATOM     36  C   UNL A   1      41.773  28.541  31.384  1.00  0.00     0.074 A 
ATOM     37  C   UNL A   1      39.937  29.641  30.145  1.00  0.00     0.049 A 
ATOM     38  N   UNL A   1      41.703  29.149  32.539  1.00  0.00    -0.248 NA
ATOM     39  C   UNL A   1      42.867  27.561  31.284  1.00  0.00     0.031 C 
ATOM     40  C   UNL A   1      39.058  29.921  29.009  1.00  0.00     0.029 A 
ATOM     41  N   UNL A   1      39.541  30.538  31.105  1.00  0.00    -0.354 N 
ATOM     42  C   UNL A   1      42.728  28.615  33.312  1.00  0.00     0.074 A 
ATOM     43  C   UNL A   1      43.394  27.620  32.500  1.00  0.00     0.031 C 
ATOM     44  C   UNL A   1      38.229  30.926  29.336  1.00  0.00     0.029 A 
ATOM     45  C   UNL A   1      38.496  31.337  30.712  1.00  0.00     0.049 A 
ATOM     46  H   UNL A   1      39.966  30.602  31.990  1.00  0.00     0.167 HD
ATOM     47  C   UNL A   1      43.083  28.928  34.582  1.00  0.00     0.037 A 
ATOM     48  C   UNL A   1      37.821  32.285  31.391  1.00  0.00     0.037 A 
ATOM     49  C   UNL A   1      42.428  29.932  35.380  1.00  0.00     0.049 A 
ATOM     50  C   UNL A   1      38.225  32.607  32.804  1.00  0.00     0.074 A 
ATOM     51  C   UNL A   1      42.705  30.315  36.681  1.00  0.00     0.029 A 
ATOM     52  N   UNL A   1      41.373  30.721  34.946  1.00  0.00    -0.354 N 
ATOM     53  N   UNL A   1      39.181  32.076  33.529  1.00  0.00    -0.248 NA
ATOM     54  C   UNL A   1      37.463  33.658  33.491  1.00  0.00     0.031 C 
ATOM     55  C   UNL A   1      41.800  31.322  37.042  1.00  0.00     0.029 A 
ATOM     56  C   UNL A   1      40.985  31.588  35.953  1.00  0.00     0.049 A 
ATOM     57  H   UNL A   1      40.960  30.672  34.054  1.00  0.00     0.167 HD
ATOM     58  C   UNL A   1      39.152  32.746  34.747  1.00  0.00     0.074 A 
ATOM     59  C   UNL A   1      38.088  33.727  34.658  1.00  0.00     0.031 C 
ATOM     60  C   UNL A   1      39.934  32.568  35.840  1.00  0.00     0.037 A 
BRANCH  47  61
ATOM     61  C   UNL A   1      44.215  28.153  35.192  1.00  0.00     0.058 A 
ATOM     62  C   UNL A   1      44.001  26.945  35.874  1.00  0.00     0.135 A 
ATOM     63  C   UNL A   1      45.535  28.619  35.081  1.00  0.00     0.135 A 
ATOM     64  F   UNL A   1      42.756  26.467  36.025  1.00  0.00    -0.206 F 
ATOM     65  C   UNL A   1      45.053  26.239  36.449  1.00  0.00     0.059 A 
ATOM     66  C   UNL A   1      46.605  27.918  35.630  1.00  0.00     0.059 A 
ATOM     67  F   UNL A   1      45.795  29.770  34.441  1.00  0.00    -0.206 F 
ATOM     68  C   UNL A   1      46.351  26.737  36.326  1.00  0.00     0.060 A 
BRANCH  68  69
ATOM     69  S   UNL A   1      47.710  25.819  37.084  1.00  0.00     0.124 S 
ATOM     70  O   UNL A   1      48.858  26.348  36.355  1.00  0.00    -0.237 OA
ATOM     71  O   UNL A   1      47.613  26.213  38.486  1.00  0.00    -0.237 OA
ATOM     72  O   UNL A   1      47.375  24.426  36.804  1.00  0.00    -0.744 OA
ENDBRANCH  68  69
ENDBRANCH  47  61
BRANCH  48  73
ATOM     73  C   UNL A   1      36.692  33.001  30.740  1.00  0.00     0.058 A 
ATOM     74  C   UNL A   1      35.362  32.704  31.066  1.00  0.00     0.135 A 
ATOM     75  C   UNL A   1      36.926  34.000  29.784  1.00  0.00     0.135 A 
ATOM     76  F   UNL A   1      35.089  31.748  31.969  1.00  0.00    -0.206 F 
ATOM     77  C   UNL A   1      34.299  33.363  30.457  1.00  0.00     0.059 A 
ATOM     78  C   UNL A   1      35.881  34.690  29.178  1.00  0.00     0.059 A 
ATOM     79  F   UNL A   1      38.183  34.329  29.448  1.00  0.00    -0.206 F 
ATOM     80  C   UNL A   1      34.569  34.356  29.514  1.00  0.00     0.060 A 
BRANCH  80  81
ATOM     81  S   UNL A   1      33.187  35.245  28.765  1.00  0.00     0.124 S 
ATOM     82  O   UNL A   1      33.881  36.280  28.007  1.00  0.00    -0.237 OA
ATOM     83  O   UNL A   1      32.537  34.203  27.976  1.00  0.00    -0.237 OA
ATOM     84  O   UNL A   1      32.425  35.711  29.920  1.00  0.00    -0.744 OA
ENDBRANCH  80  81
ENDBRANCH  48  73
BRANCH  60  85
ATOM     85  C   UNL A   1      39.698  33.482  37.009  1.00  0.00     0.058 A 
ATOM     86  C   UNL A   1      38.721  33.206  37.977  1.00  0.00     0.135 A 
ATOM     87  C   UNL A   1      40.483  34.634  37.175  1.00  0.00     0.135 A 
ATOM     88  F   UNL A   1      37.943  32.118  37.859  1.00  0.00    -0.206 F 
ATOM     89  C   UNL A   1      38.511  34.056  39.057  1.00  0.00     0.059 A 
ATOM     90  C   UNL A   1      40.304  35.487  38.258  1.00  0.00     0.059 A 
ATOM     91  F   UNL A   1      41.439  34.936  36.281  1.00  0.00    -0.206 F 
ATOM     92  C   UNL A   1      39.304  35.199  39.186  1.00  0.00     0.060 A 
BRANCH  92  93
ATOM     93  S   UNL A   1      39.034  36.292  40.598  1.00  0.00     0.124 S 
ATOM     94  O   UNL A   1      40.376  36.372  41.166  1.00  0.00    -0.237 OA
ATOM     95  O   UNL A   1      38.540  37.511  39.965  1.00  0.00    -0.237 OA
ATOM     96  O   UNL A   1      38.052  35.569  41.401  1.00  0.00    -0.744 OA
ENDBRANCH  92  93
ENDBRANCH  60  85
ENDBRANCH  34  35
ENDBRANCH  27  29
ENDBRANCH  26  27
ENDBRANCH  25  26
ENDBRANCH   1  25
TORSDOF 20
ENDMDL
