MODEL 1
REMARK VINA RESULT:      -8.9      0.000      0.000
REMARK SMILES CC1(CNS(=O)(=O)Cc2ccc(C(=O)OCCOC(=O)c3ccc(-c4c5nc(c(-c6c(F)cc(S(=O)(=O)[O-])cc6F)c6ccc([nH]6)c(-c6c(F)cc(S(=O)(=O)[O-])cc6F)c6nc(c(-c7c(F)cc(S(=O)(=O)[O-])cc7F)c7ccc4[nH]7)C=C6)C=C5)cc3)cc2)COC1
REMARK SMILES IDX 16 1 15 2 13 3 14 4 12 5 9 6 10 7 88 8 11 9 87 10 8 11 5 12
REMARK SMILES IDX 6 13 7 14 4 15 3 17 2 18 1 19 89 20 91 21 90 22 17 23 18 24
REMARK SMILES IDX 19 25 20 26 21 27 22 28 86 29 23 30 85 31 24 32 25 33 26 34
REMARK SMILES IDX 79 35 27 36 84 37 78 38 80 39 28 40 83 41 77 42 76 43 29 45
REMARK SMILES IDX 63 46 42 47 62 48 43 49 46 50 61 51 81 52 44 53 45 54 60 56
REMARK SMILES IDX 82 57 47 58 30 59 31 60 40 61 32 62 33 63 39 64 41 65 34 66
REMARK SMILES IDX 35 67 36 68 37 69 38 70 64 71 65 72 74 73 66 74 67 75 73 76
REMARK SMILES IDX 75 77 68 78 69 79 70 80 71 81 72 82 48 83 49 84 58 85 50 86
REMARK SMILES IDX 51 87 57 88 59 89 52 90 53 91 54 92 55 93 56 94
REMARK H PARENT 4 16 80 44 46 55
REMARK Flexibility Score: inf
ROOT
ATOM      1  C   UNL A   1      32.247  32.383  27.264  1.00  0.00     0.275 C 
ENDROOT
BRANCH   1   2
ATOM      2  O   UNL A   1      33.457  33.138  27.496  1.00  0.00    -0.458 OA
BRANCH   2   3
ATOM      3  C   UNL A   1      33.518  33.777  28.691  1.00  0.00     0.338 C 
ATOM      4  O   UNL A   1      32.723  34.605  29.105  1.00  0.00    -0.246 OA
BRANCH   3   5
ATOM      5  C   UNL A   1      34.671  33.317  29.501  1.00  0.00     0.060 A 
ATOM      6  C   UNL A   1      36.795  32.692  31.259  1.00  0.00    -0.032 A 
ATOM      7  C   UNL A   1      35.469  32.430  31.618  1.00  0.00     0.006 A 
ATOM      8  C   UNL A   1      37.038  33.261  29.994  1.00  0.00     0.006 A 
ATOM      9  C   UNL A   1      34.426  32.765  30.761  1.00  0.00     0.016 A 
ATOM     10  C   UNL A   1      35.987  33.547  29.108  1.00  0.00     0.016 A 
BRANCH   6  11
ATOM     11  C   UNL A   1      37.841  32.505  32.332  1.00  0.00     0.189 C 
BRANCH  11  12
ATOM     12  S   UNL A   1      38.427  34.018  33.087  1.00  0.00     0.215 S 
ATOM     13  O   UNL A   1      37.296  34.744  33.614  1.00  0.00    -0.212 OA
ATOM     14  O   UNL A   1      39.359  34.676  32.190  1.00  0.00    -0.212 OA
BRANCH  12  15
ATOM     15  N   UNL A   1      39.348  33.507  34.395  1.00  0.00    -0.214 NA
ATOM     16  H   UNL A   1      39.580  34.334  34.946  1.00  0.00     0.141 HD
BRANCH  15  17
ATOM     17  C   UNL A   1      40.614  32.800  34.111  1.00  0.00     0.110 C 
BRANCH  17  18
ATOM     18  C   UNL A   1      40.566  31.349  34.600  1.00  0.00     0.028 C 
ATOM     19  C   UNL A   1      40.824  30.321  33.508  1.00  0.00     0.018 C 
ATOM     20  C   UNL A   1      39.316  31.063  35.461  1.00  0.00     0.170 C 
ATOM     21  C   UNL A   1      41.318  31.117  35.926  1.00  0.00     0.170 C 
ATOM     22  O   UNL A   1      40.086  31.253  36.679  1.00  0.00    -0.380 OA
ENDBRANCH  17  18
ENDBRANCH  15  17
ENDBRANCH  12  15
ENDBRANCH  11  12
ENDBRANCH   6  11
ENDBRANCH   3   5
ENDBRANCH   2   3
ENDBRANCH   1   2
BRANCH   1  23
ATOM     23  C   UNL A   1      32.535  30.934  26.860  1.00  0.00     0.275 C 
BRANCH  23  24
ATOM     24  O   UNL A   1      33.948  30.654  26.864  1.00  0.00    -0.458 OA
BRANCH  24  25
ATOM     25  C   UNL A   1      34.313  29.633  27.671  1.00  0.00     0.338 C 
ATOM     26  O   UNL A   1      33.672  28.625  27.921  1.00  0.00    -0.246 OA
BRANCH  25  27
ATOM     27  C   UNL A   1      35.682  29.816  28.173  1.00  0.00     0.060 A 
ATOM     28  C   UNL A   1      36.644  30.207  27.254  1.00  0.00     0.016 A 
ATOM     29  C   UNL A   1      36.070  29.338  29.421  1.00  0.00     0.016 A 
ATOM     30  C   UNL A   1      37.986  29.928  27.484  1.00  0.00     0.010 A 
ATOM     31  C   UNL A   1      37.438  29.219  29.715  1.00  0.00     0.010 A 
ATOM     32  C   UNL A   1      38.415  29.439  28.725  1.00  0.00    -0.014 A 
BRANCH  32  33
ATOM     33  C   UNL A   1      39.860  29.120  28.950  1.00  0.00     0.031 A 
ATOM     34  C   UNL A   1      40.792  30.153  29.547  1.00  0.00     0.074 A 
ATOM     35  C   UNL A   1      40.344  27.893  28.658  1.00  0.00     0.049 A 
ATOM     36  N   UNL A   1      42.095  30.118  29.676  1.00  0.00    -0.248 NA
ATOM     37  C   UNL A   1      40.182  31.397  30.046  1.00  0.00     0.031 C 
ATOM     38  C   UNL A   1      39.564  26.778  28.113  1.00  0.00     0.029 A 
ATOM     39  N   UNL A   1      41.609  27.368  28.787  1.00  0.00    -0.354 N 
ATOM     40  C   UNL A   1      42.464  31.352  30.207  1.00  0.00     0.074 A 
ATOM     41  C   UNL A   1      41.248  32.119  30.361  1.00  0.00     0.031 C 
ATOM     42  C   UNL A   1      40.346  25.695  28.009  1.00  0.00     0.029 A 
ATOM     43  C   UNL A   1      41.708  26.061  28.367  1.00  0.00     0.049 A 
ATOM     44  H   UNL A   1      42.370  27.879  29.146  1.00  0.00     0.167 HD
ATOM     45  C   UNL A   1      43.699  31.802  30.539  1.00  0.00     0.037 A 
ATOM     46  C   UNL A   1      42.778  25.253  28.232  1.00  0.00     0.037 A 
ATOM     47  C   UNL A   1      44.902  31.013  30.435  1.00  0.00     0.049 A 
ATOM     48  C   UNL A   1      44.140  25.783  28.578  1.00  0.00     0.074 A 
ATOM     49  C   UNL A   1      46.199  31.369  30.765  1.00  0.00     0.029 A 
ATOM     50  N   UNL A   1      44.956  29.702  29.980  1.00  0.00    -0.354 N 
ATOM     51  N   UNL A   1      44.472  26.968  29.033  1.00  0.00    -0.248 NA
ATOM     52  C   UNL A   1      45.273  24.870  28.381  1.00  0.00     0.031 C 
ATOM     53  C   UNL A   1      47.042  30.295  30.463  1.00  0.00     0.029 A 
ATOM     54  C   UNL A   1      46.265  29.244  30.005  1.00  0.00     0.049 A 
ATOM     55  H   UNL A   1      44.179  29.176  29.682  1.00  0.00     0.167 HD
ATOM     56  C   UNL A   1      45.852  26.935  29.197  1.00  0.00     0.074 A 
ATOM     57  C   UNL A   1      46.286  25.607  28.815  1.00  0.00     0.031 C 
ATOM     58  C   UNL A   1      46.684  27.918  29.623  1.00  0.00     0.037 A 
BRANCH  45  59
ATOM     59  C   UNL A   1      43.827  33.230  31.014  1.00  0.00     0.058 A 
ATOM     60  C   UNL A   1      43.848  33.570  32.376  1.00  0.00     0.135 A 
ATOM     61  C   UNL A   1      43.963  34.274  30.082  1.00  0.00     0.135 A 
ATOM     62  F   UNL A   1      43.707  32.618  33.313  1.00  0.00    -0.206 F 
ATOM     63  C   UNL A   1      43.965  34.892  32.796  1.00  0.00     0.059 A 
ATOM     64  C   UNL A   1      44.115  35.600  30.480  1.00  0.00     0.059 A 
ATOM     65  F   UNL A   1      43.953  34.011  28.766  1.00  0.00    -0.206 F 
ATOM     66  C   UNL A   1      44.097  35.901  31.840  1.00  0.00     0.060 A 
BRANCH  66  67
ATOM     67  S   UNL A   1      44.242  37.611  32.401  1.00  0.00     0.124 S 
ATOM     68  O   UNL A   1      43.293  37.635  33.511  1.00  0.00    -0.237 OA
ATOM     69  O   UNL A   1      45.652  37.697  32.771  1.00  0.00    -0.237 OA
ATOM     70  O   UNL A   1      43.855  38.389  31.229  1.00  0.00    -0.744 OA
ENDBRANCH  66  67
ENDBRANCH  45  59
BRANCH  46  71
ATOM     71  C   UNL A   1      42.604  23.870  27.705  1.00  0.00     0.058 A 
ATOM     72  C   UNL A   1      42.503  22.771  28.571  1.00  0.00     0.135 A 
ATOM     73  C   UNL A   1      42.520  23.622  26.325  1.00  0.00     0.135 A 
ATOM     74  F   UNL A   1      42.587  22.952  29.897  1.00  0.00    -0.206 F 
ATOM     75  C   UNL A   1      42.338  21.476  28.089  1.00  0.00     0.059 A 
ATOM     76  C   UNL A   1      42.319  22.341  25.820  1.00  0.00     0.059 A 
ATOM     77  F   UNL A   1      42.597  24.639  25.452  1.00  0.00    -0.206 F 
ATOM     78  C   UNL A   1      42.240  21.273  26.710  1.00  0.00     0.060 A 
BRANCH  78  79
ATOM     79  S   UNL A   1      41.972  19.596  26.099  1.00  0.00     0.124 S 
ATOM     80  O   UNL A   1      42.380  18.796  27.248  1.00  0.00    -0.237 OA
ATOM     81  O   UNL A   1      40.544  19.604  25.799  1.00  0.00    -0.237 OA
ATOM     82  O   UNL A   1      42.849  19.519  24.933  1.00  0.00    -0.744 OA
ENDBRANCH  78  79
ENDBRANCH  46  71
BRANCH  58  83
ATOM     83  C   UNL A   1      48.144  27.571  29.743  1.00  0.00     0.058 A 
ATOM     84  C   UNL A   1      48.689  27.046  30.925  1.00  0.00     0.135 A 
ATOM     85  C   UNL A   1      49.010  27.770  28.655  1.00  0.00     0.135 A 
ATOM     86  F   UNL A   1      47.908  26.841  31.997  1.00  0.00    -0.206 F 
ATOM     87  C   UNL A   1      50.049  26.775  31.040  1.00  0.00     0.059 A 
ATOM     88  C   UNL A   1      50.367  27.473  28.736  1.00  0.00     0.059 A 
ATOM     89  F   UNL A   1      48.540  28.257  27.495  1.00  0.00    -0.206 F 
ATOM     90  C   UNL A   1      50.880  26.998  29.941  1.00  0.00     0.060 A 
BRANCH  90  91
ATOM     91  S   UNL A   1      52.644  26.652  30.105  1.00  0.00     0.124 S 
ATOM     92  O   UNL A   1      53.161  27.955  30.513  1.00  0.00    -0.237 OA
ATOM     93  O   UNL A   1      52.666  25.613  31.129  1.00  0.00    -0.237 OA
ATOM     94  O   UNL A   1      53.031  26.214  28.768  1.00  0.00    -0.744 OA
ENDBRANCH  90  91
ENDBRANCH  58  83
ENDBRANCH  32  33
ENDBRANCH  25  27
ENDBRANCH  24  25
ENDBRANCH  23  24
ENDBRANCH   1  23
TORSDOF 19
ENDMDL
MODEL 2
REMARK VINA RESULT:      -8.9      4.949     12.428
REMARK SMILES CC1(CNS(=O)(=O)Cc2ccc(C(=O)OCCOC(=O)c3ccc(-c4c5nc(c(-c6c(F)cc(S(=O)(=O)[O-])cc6F)c6ccc([nH]6)c(-c6c(F)cc(S(=O)(=O)[O-])cc6F)c6nc(c(-c7c(F)cc(S(=O)(=O)[O-])cc7F)c7ccc4[nH]7)C=C6)C=C5)cc3)cc2)COC1
REMARK SMILES IDX 16 1 15 2 13 3 14 4 12 5 9 6 10 7 88 8 11 9 87 10 8 11 5 12
REMARK SMILES IDX 6 13 7 14 4 15 3 17 2 18 1 19 89 20 91 21 90 22 17 23 18 24
REMARK SMILES IDX 19 25 20 26 21 27 22 28 86 29 23 30 85 31 24 32 25 33 26 34
REMARK SMILES IDX 79 35 27 36 84 37 78 38 80 39 28 40 83 41 77 42 76 43 29 45
REMARK SMILES IDX 63 46 42 47 62 48 43 49 46 50 61 51 81 52 44 53 45 54 60 56
REMARK SMILES IDX 82 57 47 58 30 59 31 60 40 61 32 62 33 63 39 64 41 65 34 66
REMARK SMILES IDX 35 67 36 68 37 69 38 70 64 71 65 72 74 73 66 74 67 75 73 76
REMARK SMILES IDX 75 77 68 78 69 79 70 80 71 81 72 82 48 83 49 84 58 85 50 86
REMARK SMILES IDX 51 87 57 88 59 89 52 90 53 91 54 92 55 93 56 94
REMARK H PARENT 4 16 80 44 46 55
REMARK Flexibility Score: inf
ROOT
ATOM      1  C   UNL A   1      42.392  21.482  26.054  1.00  0.00     0.275 C 
ENDROOT
BRANCH   1   2
ATOM      2  O   UNL A   1      41.040  21.688  25.589  1.00  0.00    -0.458 OA
BRANCH   2   3
ATOM      3  C   UNL A   1      40.091  21.692  26.558  1.00  0.00     0.338 C 
ATOM      4  O   UNL A   1      40.271  21.460  27.742  1.00  0.00    -0.246 OA
BRANCH   3   5
ATOM      5  C   UNL A   1      38.761  22.069  26.022  1.00  0.00     0.060 A 
ATOM      6  C   UNL A   1      36.369  22.782  24.696  1.00  0.00    -0.032 A 
ATOM      7  C   UNL A   1      36.877  21.483  24.604  1.00  0.00     0.006 A 
ATOM      8  C   UNL A   1      37.074  23.715  25.479  1.00  0.00     0.006 A 
ATOM      9  C   UNL A   1      38.069  21.145  25.236  1.00  0.00     0.016 A 
ATOM     10  C   UNL A   1      38.249  23.357  26.160  1.00  0.00     0.016 A 
BRANCH   6  11
ATOM     11  C   UNL A   1      35.199  23.120  23.804  1.00  0.00     0.189 C 
BRANCH  11  12
ATOM     12  S   UNL A   1      33.589  22.827  24.526  1.00  0.00     0.215 S 
ATOM     13  O   UNL A   1      32.613  23.633  23.832  1.00  0.00    -0.212 OA
ATOM     14  O   UNL A   1      33.689  22.892  25.973  1.00  0.00    -0.212 OA
BRANCH  12  15
ATOM     15  N   UNL A   1      33.254  21.219  24.172  1.00  0.00    -0.214 NA
ATOM     16  H   UNL A   1      32.344  21.191  23.711  1.00  0.00     0.141 HD
BRANCH  15  17
ATOM     17  C   UNL A   1      33.207  20.262  25.296  1.00  0.00     0.110 C 
BRANCH  17  18
ATOM     18  C   UNL A   1      33.519  18.837  24.832  1.00  0.00     0.028 C 
ATOM     19  C   UNL A   1      34.987  18.600  24.510  1.00  0.00     0.018 C 
ATOM     20  C   UNL A   1      32.542  18.351  23.739  1.00  0.00     0.170 C 
ATOM     21  C   UNL A   1      32.838  17.745  25.681  1.00  0.00     0.170 C 
ATOM     22  O   UNL A   1      31.743  17.654  24.734  1.00  0.00    -0.380 OA
ENDBRANCH  17  18
ENDBRANCH  15  17
ENDBRANCH  12  15
ENDBRANCH  11  12
ENDBRANCH   6  11
ENDBRANCH   3   5
ENDBRANCH   2   3
ENDBRANCH   1   2
BRANCH   1  23
ATOM     23  C   UNL A   1      43.266  22.726  25.873  1.00  0.00     0.275 C 
BRANCH  23  24
ATOM     24  O   UNL A   1      42.816  23.814  26.703  1.00  0.00    -0.458 OA
BRANCH  24  25
ATOM     25  C   UNL A   1      42.439  24.919  26.021  1.00  0.00     0.338 C 
ATOM     26  O   UNL A   1      42.532  25.111  24.819  1.00  0.00    -0.246 OA
BRANCH  25  27
ATOM     27  C   UNL A   1      41.775  25.888  26.904  1.00  0.00     0.060 A 
ATOM     28  C   UNL A   1      42.210  27.202  26.838  1.00  0.00     0.016 A 
ATOM     29  C   UNL A   1      40.971  25.477  27.962  1.00  0.00     0.016 A 
ATOM     30  C   UNL A   1      42.031  28.055  27.921  1.00  0.00     0.010 A 
ATOM     31  C   UNL A   1      40.647  26.395  28.974  1.00  0.00     0.010 A 
ATOM     32  C   UNL A   1      41.235  27.674  29.009  1.00  0.00    -0.014 A 
BRANCH  32  33
ATOM     33  C   UNL A   1      41.069  28.593  30.180  1.00  0.00     0.031 A 
ATOM     34  C   UNL A   1      42.007  28.506  31.365  1.00  0.00     0.074 A 
ATOM     35  C   UNL A   1      40.102  29.536  30.178  1.00  0.00     0.049 A 
ATOM     36  N   UNL A   1      41.933  29.105  32.527  1.00  0.00    -0.248 NA
ATOM     37  C   UNL A   1      43.171  27.614  31.234  1.00  0.00     0.031 C 
ATOM     38  C   UNL A   1      39.143  29.771  29.094  1.00  0.00     0.029 A 
ATOM     39  N   UNL A   1      39.767  30.487  31.114  1.00  0.00    -0.354 N 
ATOM     40  C   UNL A   1      42.995  28.616  33.283  1.00  0.00     0.074 A 
ATOM     41  C   UNL A   1      43.690  27.657  32.453  1.00  0.00     0.031 C 
ATOM     42  C   UNL A   1      38.374  30.824  29.398  1.00  0.00     0.029 A 
ATOM     43  C   UNL A   1      38.700  31.272  30.745  1.00  0.00     0.049 A 
ATOM     44  H   UNL A   1      40.247  30.594  31.968  1.00  0.00     0.167 HD
ATOM     45  C   UNL A   1      43.360  28.937  34.549  1.00  0.00     0.037 A 
ATOM     46  C   UNL A   1      38.017  32.214  31.423  1.00  0.00     0.037 A 
ATOM     47  C   UNL A   1      42.696  29.934  35.353  1.00  0.00     0.049 A 
ATOM     48  C   UNL A   1      38.420  32.533  32.834  1.00  0.00     0.074 A 
ATOM     49  C   UNL A   1      43.002  30.349  36.638  1.00  0.00     0.029 A 
ATOM     50  N   UNL A   1      41.602  30.686  34.944  1.00  0.00    -0.354 N 
ATOM     51  N   UNL A   1      39.397  32.024  33.547  1.00  0.00    -0.248 NA
ATOM     52  C   UNL A   1      37.621  33.544  33.537  1.00  0.00     0.031 C 
ATOM     53  C   UNL A   1      42.064  31.312  37.026  1.00  0.00     0.029 A 
ATOM     54  C   UNL A   1      41.212  31.547  35.959  1.00  0.00     0.049 A 
ATOM     55  H   UNL A   1      41.168  30.616  34.064  1.00  0.00     0.167 HD
ATOM     56  C   UNL A   1      39.343  32.671  34.776  1.00  0.00     0.074 A 
ATOM     57  C   UNL A   1      38.253  33.622  34.700  1.00  0.00     0.031 C 
ATOM     58  C   UNL A   1      40.125  32.490  35.870  1.00  0.00     0.037 A 
BRANCH  45  59
ATOM     59  C   UNL A   1      44.511  28.180  35.167  1.00  0.00     0.058 A 
ATOM     60  C   UNL A   1      45.837  28.636  35.093  1.00  0.00     0.135 A 
ATOM     61  C   UNL A   1      44.273  26.989  35.874  1.00  0.00     0.135 A 
ATOM     62  F   UNL A   1      46.129  29.759  34.418  1.00  0.00    -0.206 F 
ATOM     63  C   UNL A   1      46.886  27.922  35.667  1.00  0.00     0.059 A 
ATOM     64  C   UNL A   1      45.302  26.276  36.484  1.00  0.00     0.059 A 
ATOM     65  F   UNL A   1      43.026  26.503  35.981  1.00  0.00    -0.206 F 
ATOM     66  C   UNL A   1      46.609  26.743  36.360  1.00  0.00     0.060 A 
BRANCH  66  67
ATOM     67  S   UNL A   1      47.982  25.828  37.095  1.00  0.00     0.124 S 
ATOM     68  O   UNL A   1      48.311  24.890  36.026  1.00  0.00    -0.237 OA
ATOM     69  O   UNL A   1      48.962  26.882  37.337  1.00  0.00    -0.237 OA
ATOM     70  O   UNL A   1      47.395  25.234  38.291  1.00  0.00    -0.744 OA
ENDBRANCH  66  67
ENDBRANCH  45  59
BRANCH  46  71
ATOM     71  C   UNL A   1      36.852  32.892  30.787  1.00  0.00     0.058 A 
ATOM     72  C   UNL A   1      35.536  32.541  31.122  1.00  0.00     0.135 A 
ATOM     73  C   UNL A   1      37.032  33.918  29.843  1.00  0.00     0.135 A 
ATOM     74  F   UNL A   1      35.308  31.562  32.011  1.00  0.00    -0.206 F 
ATOM     75  C   UNL A   1      34.442  33.170  30.537  1.00  0.00     0.059 A 
ATOM     76  C   UNL A   1      35.956  34.586  29.271  1.00  0.00     0.059 A 
ATOM     77  F   UNL A   1      38.271  34.303  29.497  1.00  0.00    -0.206 F 
ATOM     78  C   UNL A   1      34.663  34.198  29.616  1.00  0.00     0.060 A 
BRANCH  78  79
ATOM     79  S   UNL A   1      33.237  35.043  28.903  1.00  0.00     0.124 S 
ATOM     80  O   UNL A   1      33.859  36.226  28.317  1.00  0.00    -0.237 OA
ATOM     81  O   UNL A   1      32.734  34.051  27.958  1.00  0.00    -0.237 OA
ATOM     82  O   UNL A   1      32.379  35.289  30.059  1.00  0.00    -0.744 OA
ENDBRANCH  78  79
ENDBRANCH  46  71
BRANCH  58  83
ATOM     83  C   UNL A   1      39.855  33.378  37.056  1.00  0.00     0.058 A 
ATOM     84  C   UNL A   1      40.515  34.604  37.233  1.00  0.00     0.135 A 
ATOM     85  C   UNL A   1      38.919  32.992  38.030  1.00  0.00     0.135 A 
ATOM     86  F   UNL A   1      41.423  35.019  36.335  1.00  0.00    -0.206 F 
ATOM     87  C   UNL A   1      40.293  35.393  38.357  1.00  0.00     0.059 A 
ATOM     88  C   UNL A   1      38.655  33.782  39.144  1.00  0.00     0.059 A 
ATOM     89  F   UNL A   1      38.249  31.835  37.903  1.00  0.00    -0.206 F 
ATOM     90  C   UNL A   1      39.365  34.970  39.310  1.00  0.00     0.060 A 
BRANCH  90  91
ATOM     91  S   UNL A   1      39.092  35.997  40.769  1.00  0.00     0.124 S 
ATOM     92  O   UNL A   1      40.185  35.568  41.636  1.00  0.00    -0.237 OA
ATOM     93  O   UNL A   1      39.205  37.347  40.227  1.00  0.00    -0.237 OA
ATOM     94  O   UNL A   1      37.754  35.614  41.209  1.00  0.00    -0.744 OA
ENDBRANCH  90  91
ENDBRANCH  58  83
ENDBRANCH  32  33
ENDBRANCH  25  27
ENDBRANCH  24  25
ENDBRANCH  23  24
ENDBRANCH   1  23
TORSDOF 19
ENDMDL
MODEL 3
REMARK VINA RESULT:      -8.8      4.119      7.300
REMARK SMILES CC1(CNS(=O)(=O)Cc2ccc(C(=O)OCCOC(=O)c3ccc(-c4c5nc(c(-c6c(F)cc(S(=O)(=O)[O-])cc6F)c6ccc([nH]6)c(-c6c(F)cc(S(=O)(=O)[O-])cc6F)c6nc(c(-c7c(F)cc(S(=O)(=O)[O-])cc7F)c7ccc4[nH]7)C=C6)C=C5)cc3)cc2)COC1
REMARK SMILES IDX 16 1 15 2 13 3 14 4 12 5 9 6 10 7 88 8 11 9 87 10 8 11 5 12
REMARK SMILES IDX 6 13 7 14 4 15 3 17 2 18 1 19 89 20 91 21 90 22 17 23 18 24
REMARK SMILES IDX 19 25 20 26 21 27 22 28 86 29 23 30 85 31 24 32 25 33 26 34
REMARK SMILES IDX 79 35 27 36 84 37 78 38 80 39 28 40 83 41 77 42 76 43 29 45
REMARK SMILES IDX 63 46 42 47 62 48 43 49 46 50 61 51 81 52 44 53 45 54 60 56
REMARK SMILES IDX 82 57 47 58 30 59 31 60 40 61 32 62 33 63 39 64 41 65 34 66
REMARK SMILES IDX 35 67 36 68 37 69 38 70 64 71 65 72 74 73 66 74 67 75 73 76
REMARK SMILES IDX 75 77 68 78 69 79 70 80 71 81 72 82 48 83 49 84 58 85 50 86
REMARK SMILES IDX 51 87 57 88 59 89 52 90 53 91 54 92 55 93 56 94
REMARK H PARENT 4 16 80 44 46 55
REMARK Flexibility Score: inf
ROOT
ATOM      1  C   UNL A   1      33.360  29.631  27.226  1.00  0.00     0.275 C 
ENDROOT
BRANCH   1   2
ATOM      2  O   UNL A   1      33.557  28.221  26.982  1.00  0.00    -0.458 OA
BRANCH   2   3
ATOM      3  C   UNL A   1      32.510  27.583  26.403  1.00  0.00     0.338 C 
ATOM      4  O   UNL A   1      31.440  28.085  26.099  1.00  0.00    -0.246 OA
BRANCH   3   5
ATOM      5  C   UNL A   1      32.822  26.162  26.119  1.00  0.00     0.060 A 
ATOM      6  C   UNL A   1      33.369  23.528  25.251  1.00  0.00    -0.032 A 
ATOM      7  C   UNL A   1      34.286  24.559  25.028  1.00  0.00     0.006 A 
ATOM      8  C   UNL A   1      32.177  23.838  25.931  1.00  0.00     0.006 A 
ATOM      9  C   UNL A   1      34.000  25.859  25.432  1.00  0.00     0.016 A 
ATOM     10  C   UNL A   1      31.914  25.140  26.387  1.00  0.00     0.016 A 
BRANCH   6  11
ATOM     11  C   UNL A   1      33.659  22.203  24.586  1.00  0.00     0.189 C 
BRANCH  11  12
ATOM     12  S   UNL A   1      34.796  21.146  25.474  1.00  0.00     0.215 S 
ATOM     13  O   UNL A   1      34.801  21.531  26.865  1.00  0.00    -0.212 OA
ATOM     14  O   UNL A   1      36.045  21.056  24.740  1.00  0.00    -0.212 OA
BRANCH  12  15
ATOM     15  N   UNL A   1      34.110  19.615  25.380  1.00  0.00    -0.214 NA
ATOM     16  H   UNL A   1      33.985  19.278  26.335  1.00  0.00     0.141 HD
BRANCH  15  17
ATOM     17  C   UNL A   1      34.851  18.573  24.640  1.00  0.00     0.110 C 
BRANCH  17  18
ATOM     18  C   UNL A   1      33.952  17.380  24.304  1.00  0.00     0.028 C 
ATOM     19  C   UNL A   1      33.976  16.985  22.834  1.00  0.00     0.018 C 
ATOM     20  C   UNL A   1      32.536  17.528  24.899  1.00  0.00     0.170 C 
ATOM     21  C   UNL A   1      34.064  16.216  25.309  1.00  0.00     0.170 C 
ATOM     22  O   UNL A   1      32.902  16.695  26.033  1.00  0.00    -0.380 OA
ENDBRANCH  17  18
ENDBRANCH  15  17
ENDBRANCH  12  15
ENDBRANCH  11  12
ENDBRANCH   6  11
ENDBRANCH   3   5
ENDBRANCH   2   3
ENDBRANCH   1   2
BRANCH   1  23
ATOM     23  C   UNL A   1      34.657  30.338  27.628  1.00  0.00     0.275 C 
BRANCH  23  24
ATOM     24  O   UNL A   1      35.655  29.401  28.074  1.00  0.00    -0.458 OA
BRANCH  24  25
ATOM     25  C   UNL A   1      36.280  29.752  29.220  1.00  0.00     0.338 C 
ATOM     26  O   UNL A   1      35.777  29.876  30.325  1.00  0.00    -0.246 OA
BRANCH  25  27
ATOM     27  C   UNL A   1      37.730  29.883  29.017  1.00  0.00     0.060 A 
ATOM     28  C   UNL A   1      38.203  29.718  27.724  1.00  0.00     0.016 A 
ATOM     29  C   UNL A   1      38.618  29.870  30.087  1.00  0.00     0.016 A 
ATOM     30  C   UNL A   1      39.519  29.329  27.505  1.00  0.00     0.010 A 
ATOM     31  C   UNL A   1      39.983  29.647  29.842  1.00  0.00     0.010 A 
ATOM     32  C   UNL A   1      40.442  29.296  28.558  1.00  0.00    -0.014 A 
BRANCH  32  33
ATOM     33  C   UNL A   1      41.851  28.852  28.312  1.00  0.00     0.031 A 
ATOM     34  C   UNL A   1      42.996  29.839  28.402  1.00  0.00     0.074 A 
ATOM     35  C   UNL A   1      42.123  27.557  28.042  1.00  0.00     0.049 A 
ATOM     36  N   UNL A   1      44.254  29.680  28.076  1.00  0.00    -0.248 NA
ATOM     37  C   UNL A   1      42.681  31.186  28.905  1.00  0.00     0.031 C 
ATOM     38  C   UNL A   1      41.133  26.479  27.958  1.00  0.00     0.029 A 
ATOM     39  N   UNL A   1      43.316  26.917  27.797  1.00  0.00    -0.354 N 
ATOM     40  C   UNL A   1      44.863  30.918  28.272  1.00  0.00     0.074 A 
ATOM     41  C   UNL A   1      43.831  31.822  28.729  1.00  0.00     0.031 C 
ATOM     42  C   UNL A   1      41.758  25.314  27.741  1.00  0.00     0.029 A 
ATOM     43  C   UNL A   1      43.179  25.570  27.553  1.00  0.00     0.049 A 
ATOM     44  H   UNL A   1      44.185  27.380  27.797  1.00  0.00     0.167 HD
ATOM     45  C   UNL A   1      46.161  31.268  28.091  1.00  0.00     0.037 A 
ATOM     46  C   UNL A   1      44.078  24.644  27.169  1.00  0.00     0.037 A 
ATOM     47  C   UNL A   1      47.197  30.349  27.687  1.00  0.00     0.049 A 
ATOM     48  C   UNL A   1      45.504  25.061  26.946  1.00  0.00     0.074 A 
ATOM     49  C   UNL A   1      48.545  30.599  27.497  1.00  0.00     0.029 A 
ATOM     50  N   UNL A   1      47.005  28.998  27.427  1.00  0.00    -0.354 N 
ATOM     51  N   UNL A   1      46.048  26.245  27.091  1.00  0.00    -0.248 NA
ATOM     52  C   UNL A   1      46.435  24.017  26.497  1.00  0.00     0.031 C 
ATOM     53  C   UNL A   1      49.158  29.415  27.073  1.00  0.00     0.029 A 
ATOM     54  C   UNL A   1      48.206  28.410  27.061  1.00  0.00     0.049 A 
ATOM     55  H   UNL A   1      46.142  28.529  27.491  1.00  0.00     0.167 HD
ATOM     56  C   UNL A   1      47.392  26.085  26.770  1.00  0.00     0.074 A 
ATOM     57  C   UNL A   1      47.579  24.685  26.449  1.00  0.00     0.031 C 
ATOM     58  C   UNL A   1      48.379  27.014  26.743  1.00  0.00     0.037 A 
BRANCH  45  59
ATOM     59  C   UNL A   1      46.536  32.716  28.291  1.00  0.00     0.058 A 
ATOM     60  C   UNL A   1      46.990  33.211  29.525  1.00  0.00     0.135 A 
ATOM     61  C   UNL A   1      46.470  33.618  27.215  1.00  0.00     0.135 A 
ATOM     62  F   UNL A   1      47.061  32.402  30.594  1.00  0.00    -0.206 F 
ATOM     63  C   UNL A   1      47.330  34.551  29.692  1.00  0.00     0.059 A 
ATOM     64  C   UNL A   1      46.837  34.954  27.351  1.00  0.00     0.059 A 
ATOM     65  F   UNL A   1      46.046  33.203  26.011  1.00  0.00    -0.206 F 
ATOM     66  C   UNL A   1      47.250  35.416  28.599  1.00  0.00     0.060 A 
BRANCH  66  67
ATOM     67  S   UNL A   1      47.691  37.151  28.834  1.00  0.00     0.124 S 
ATOM     68  O   UNL A   1      46.741  37.815  27.945  1.00  0.00    -0.237 OA
ATOM     69  O   UNL A   1      47.459  37.339  30.262  1.00  0.00    -0.237 OA
ATOM     70  O   UNL A   1      49.087  37.209  28.415  1.00  0.00    -0.744 OA
ENDBRANCH  66  67
ENDBRANCH  45  59
BRANCH  46  71
ATOM     71  C   UNL A   1      43.644  23.239  26.929  1.00  0.00     0.058 A 
ATOM     72  C   UNL A   1      43.317  22.389  27.996  1.00  0.00     0.135 A 
ATOM     73  C   UNL A   1      43.532  22.722  25.627  1.00  0.00     0.135 A 
ATOM     74  F   UNL A   1      43.417  22.829  29.259  1.00  0.00    -0.206 F 
ATOM     75  C   UNL A   1      42.908  21.076  27.784  1.00  0.00     0.059 A 
ATOM     76  C   UNL A   1      43.090  21.426  25.387  1.00  0.00     0.059 A 
ATOM     77  F   UNL A   1      43.819  23.497  24.569  1.00  0.00    -0.206 F 
ATOM     78  C   UNL A   1      42.791  20.606  26.473  1.00  0.00     0.060 A 
BRANCH  78  79
ATOM     79  S   UNL A   1      42.208  18.919  26.207  1.00  0.00     0.124 S 
ATOM     80  O   UNL A   1      40.813  19.143  25.847  1.00  0.00    -0.237 OA
ATOM     81  O   UNL A   1      43.081  18.459  25.131  1.00  0.00    -0.237 OA
ATOM     82  O   UNL A   1      42.431  18.278  27.501  1.00  0.00    -0.744 OA
ENDBRANCH  78  79
ENDBRANCH  46  71
BRANCH  58  83
ATOM     83  C   UNL A   1      49.763  26.529  26.398  1.00  0.00     0.058 A 
ATOM     84  C   UNL A   1      50.640  26.029  27.372  1.00  0.00     0.135 A 
ATOM     85  C   UNL A   1      50.214  26.569  25.069  1.00  0.00     0.135 A 
ATOM     86  F   UNL A   1      50.262  25.974  28.659  1.00  0.00    -0.206 F 
ATOM     87  C   UNL A   1      51.933  25.629  27.049  1.00  0.00     0.059 A 
ATOM     88  C   UNL A   1      51.490  26.142  24.717  1.00  0.00     0.059 A 
ATOM     89  F   UNL A   1      49.411  27.026  24.094  1.00  0.00    -0.206 F 
ATOM     90  C   UNL A   1      52.350  25.696  25.719  1.00  0.00     0.060 A 
BRANCH  90  91
ATOM     91  S   UNL A   1      54.033  25.184  25.312  1.00  0.00     0.124 S 
ATOM     92  O   UNL A   1      54.677  25.231  26.621  1.00  0.00    -0.237 OA
ATOM     93  O   UNL A   1      53.829  23.851  24.754  1.00  0.00    -0.237 OA
ATOM     94  O   UNL A   1      54.475  26.196  24.358  1.00  0.00    -0.744 OA
ENDBRANCH  90  91
ENDBRANCH  58  83
ENDBRANCH  32  33
ENDBRANCH  25  27
ENDBRANCH  24  25
ENDBRANCH  23  24
ENDBRANCH   1  23
TORSDOF 19
ENDMDL
