MODEL 1
REMARK VINA RESULT:      -9.1      0.000      0.000
REMARK SMILES CSC[C@H](C(=O)OCCOC(=O)c1ccc(-c2c3nc(c(-c4c(F)cc(S(=O)(=O)[O-])cc4F)c4ccc([nH]4)c(-c4c(F)cc(S(=O)(=O)[O-])cc4F)c4nc(c(-c5c(F)cc(S(=O)(=O)[O-])cc5F)c5ccc2[nH]5)C=C4)C=C3)cc1)c1ccccc1
REMARK SMILES IDX 9 1 8 2 7 3 5 4 6 5 4 6 3 7 2 8 1 9 79 10 80 11 84 12 81 13
REMARK SMILES IDX 83 14 82 15 10 16 11 17 12 18 13 19 14 20 78 21 15 22 77 23
REMARK SMILES IDX 16 24 17 25 18 26 71 27 19 28 76 29 70 30 72 31 20 32 75 33
REMARK SMILES IDX 69 34 68 35 21 37 55 38 34 39 54 40 35 41 38 42 53 43 73 44
REMARK SMILES IDX 36 45 37 46 52 48 74 49 39 50 22 51 23 52 32 53 24 54 25 55
REMARK SMILES IDX 31 56 33 57 26 58 27 59 28 60 29 61 30 62 56 63 57 64 66 65
REMARK SMILES IDX 58 66 59 67 65 68 67 69 60 70 61 71 62 72 63 73 64 74 40 75
REMARK SMILES IDX 41 76 50 77 42 78 43 79 49 80 51 81 44 82 45 83 46 84 47 85
REMARK SMILES IDX 48 86
REMARK H PARENT 72 36 38 47
REMARK Flexibility Score: inf
ROOT
ATOM      1  C   UNL A   1      43.316  23.186  24.766  1.00  0.00     0.275 C 
ENDROOT
BRANCH   1   2
ATOM      2  C   UNL A   1      44.798  23.485  24.529  1.00  0.00     0.274 C 
BRANCH   2   3
ATOM      3  O   UNL A   1      45.280  24.622  25.275  1.00  0.00    -0.462 OA
BRANCH   3   4
ATOM      4  C   UNL A   1      46.048  24.291  26.357  1.00  0.00     0.314 C 
ATOM      5  O   UNL A   1      46.786  23.322  26.375  1.00  0.00    -0.252 OA
BRANCH   4   6
ATOM      6  C   UNL A   1      45.809  25.221  27.540  1.00  0.00     0.139 C 
BRANCH   6   7
ATOM      7  C   UNL A   1      45.307  26.578  26.976  1.00  0.00     0.089 C 
BRANCH   7   8
ATOM      8  S   UNL A   1      46.489  27.895  26.441  1.00  0.00    -0.164 SA
ATOM      9  C   UNL A   1      46.354  27.828  24.634  1.00  0.00     0.085 C 
ENDBRANCH   7   8
ENDBRANCH   6   7
BRANCH   6  10
ATOM     10  C   UNL A   1      45.060  24.568  28.702  1.00  0.00    -0.033 A 
ATOM     11  C   UNL A   1      43.979  23.689  28.532  1.00  0.00     0.004 A 
ATOM     12  C   UNL A   1      45.437  24.874  30.026  1.00  0.00     0.004 A 
ATOM     13  C   UNL A   1      43.355  23.077  29.626  1.00  0.00     0.000 A 
ATOM     14  C   UNL A   1      44.811  24.264  31.121  1.00  0.00     0.000 A 
ATOM     15  C   UNL A   1      43.778  23.355  30.921  1.00  0.00     0.000 A 
ENDBRANCH   6  10
ENDBRANCH   4   6
ENDBRANCH   3   4
ENDBRANCH   2   3
ENDBRANCH   1   2
BRANCH   1  16
ATOM     16  O   UNL A   1      42.642  24.301  25.378  1.00  0.00    -0.458 OA
BRANCH  16  17
ATOM     17  C   UNL A   1      41.604  23.982  26.178  1.00  0.00     0.338 C 
ATOM     18  O   UNL A   1      41.142  22.860  26.362  1.00  0.00    -0.246 OA
BRANCH  17  19
ATOM     19  C   UNL A   1      41.062  25.163  26.873  1.00  0.00     0.060 A 
ATOM     20  C   UNL A   1      41.703  26.392  26.737  1.00  0.00     0.016 A 
ATOM     21  C   UNL A   1      40.093  24.992  27.860  1.00  0.00     0.016 A 
ATOM     22  C   UNL A   1      41.497  27.398  27.678  1.00  0.00     0.010 A 
ATOM     23  C   UNL A   1      39.819  26.039  28.749  1.00  0.00     0.010 A 
ATOM     24  C   UNL A   1      40.576  27.225  28.715  1.00  0.00    -0.014 A 
BRANCH  24  25
ATOM     25  C   UNL A   1      40.519  28.202  29.839  1.00  0.00     0.031 A 
ATOM     26  C   UNL A   1      41.521  28.093  30.962  1.00  0.00     0.074 A 
ATOM     27  C   UNL A   1      39.634  29.218  29.844  1.00  0.00     0.049 A 
ATOM     28  N   UNL A   1      41.533  28.689  32.128  1.00  0.00    -0.248 NA
ATOM     29  C   UNL A   1      42.659  27.182  30.749  1.00  0.00     0.031 C 
ATOM     30  C   UNL A   1      38.670  29.512  28.783  1.00  0.00     0.029 A 
ATOM     31  N   UNL A   1      39.412  30.204  30.775  1.00  0.00    -0.354 N 
ATOM     32  C   UNL A   1      42.627  28.168  32.811  1.00  0.00     0.074 A 
ATOM     33  C   UNL A   1      43.263  27.217  31.927  1.00  0.00     0.031 C 
ATOM     34  C   UNL A   1      37.984  30.620  29.107  1.00  0.00     0.029 A 
ATOM     35  C   UNL A   1      38.396  31.064  30.434  1.00  0.00     0.049 A 
ATOM     36  H   UNL A   1      39.932  30.285  31.608  1.00  0.00     0.167 HD
ATOM     37  C   UNL A   1      43.055  28.453  34.065  1.00  0.00     0.037 A 
ATOM     38  C   UNL A   1      37.828  32.070  31.128  1.00  0.00     0.037 A 
ATOM     39  C   UNL A   1      42.464  29.460  34.909  1.00  0.00     0.049 A 
ATOM     40  C   UNL A   1      38.312  32.368  32.521  1.00  0.00     0.074 A 
ATOM     41  C   UNL A   1      42.810  29.815  36.201  1.00  0.00     0.029 A 
ATOM     42  N   UNL A   1      41.423  30.294  34.531  1.00  0.00    -0.354 N 
ATOM     43  N   UNL A   1      39.270  31.787  33.203  1.00  0.00    -0.248 NA
ATOM     44  C   UNL A   1      37.624  33.444  33.246  1.00  0.00     0.031 C 
ATOM     45  C   UNL A   1      41.966  30.854  36.610  1.00  0.00     0.029 A 
ATOM     46  C   UNL A   1      41.119  31.168  35.560  1.00  0.00     0.049 A 
ATOM     47  H   UNL A   1      40.968  30.270  33.658  1.00  0.00     0.167 HD
ATOM     48  C   UNL A   1      39.307  32.434  34.433  1.00  0.00     0.074 A 
ATOM     49  C   UNL A   1      38.287  33.461  34.395  1.00  0.00     0.031 C 
ATOM     50  C   UNL A   1      40.107  32.194  35.500  1.00  0.00     0.037 A 
BRANCH  37  51
ATOM     51  C   UNL A   1      44.189  27.635  34.616  1.00  0.00     0.058 A 
ATOM     52  C   UNL A   1      43.990  26.372  35.195  1.00  0.00     0.135 A 
ATOM     53  C   UNL A   1      45.504  28.122  34.544  1.00  0.00     0.135 A 
ATOM     54  F   UNL A   1      42.752  25.868  35.308  1.00  0.00    -0.206 F 
ATOM     55  C   UNL A   1      45.053  25.632  35.707  1.00  0.00     0.059 A 
ATOM     56  C   UNL A   1      46.584  27.390  35.028  1.00  0.00     0.059 A 
ATOM     57  F   UNL A   1      45.751  29.325  34.000  1.00  0.00    -0.206 F 
ATOM     58  C   UNL A   1      46.346  26.152  35.622  1.00  0.00     0.060 A 
BRANCH  58  59
ATOM     59  S   UNL A   1      47.718  25.187  36.291  1.00  0.00     0.124 S 
ATOM     60  O   UNL A   1      48.497  24.916  35.086  1.00  0.00    -0.237 OA
ATOM     61  O   UNL A   1      48.323  26.115  37.241  1.00  0.00    -0.237 OA
ATOM     62  O   UNL A   1      47.059  24.029  36.887  1.00  0.00    -0.744 OA
ENDBRANCH  58  59
ENDBRANCH  37  51
BRANCH  38  63
ATOM     63  C   UNL A   1      36.703  32.837  30.531  1.00  0.00     0.058 A 
ATOM     64  C   UNL A   1      35.379  32.614  30.933  1.00  0.00     0.135 A 
ATOM     65  C   UNL A   1      36.934  33.822  29.557  1.00  0.00     0.135 A 
ATOM     66  F   UNL A   1      35.106  31.674  31.851  1.00  0.00    -0.206 F 
ATOM     67  C   UNL A   1      34.321  33.335  30.389  1.00  0.00     0.059 A 
ATOM     68  C   UNL A   1      35.896  34.574  29.017  1.00  0.00     0.059 A 
ATOM     69  F   UNL A   1      38.184  34.080  29.143  1.00  0.00    -0.206 F 
ATOM     70  C   UNL A   1      34.590  34.317  29.433  1.00  0.00     0.060 A 
BRANCH  70  71
ATOM     71  S   UNL A   1      33.223  35.294  28.772  1.00  0.00     0.124 S 
ATOM     72  O   UNL A   1      32.515  35.668  29.991  1.00  0.00    -0.237 OA
ATOM     73  O   UNL A   1      33.917  36.375  28.080  1.00  0.00    -0.237 OA
ATOM     74  O   UNL A   1      32.529  34.348  27.902  1.00  0.00    -0.744 OA
ENDBRANCH  70  71
ENDBRANCH  38  63
BRANCH  50  75
ATOM     75  C   UNL A   1      39.940  33.082  36.699  1.00  0.00     0.058 A 
ATOM     76  C   UNL A   1      40.740  34.219  36.890  1.00  0.00     0.135 A 
ATOM     77  C   UNL A   1      38.943  32.811  37.650  1.00  0.00     0.135 A 
ATOM     78  F   UNL A   1      41.711  34.517  36.012  1.00  0.00    -0.206 F 
ATOM     79  C   UNL A   1      40.573  35.045  37.996  1.00  0.00     0.059 A 
ATOM     80  C   UNL A   1      38.745  33.635  38.752  1.00  0.00     0.059 A 
ATOM     81  F   UNL A   1      38.146  31.740  37.506  1.00  0.00    -0.206 F 
ATOM     82  C   UNL A   1      39.574  34.743  38.924  1.00  0.00     0.060 A 
BRANCH  82  83
ATOM     83  S   UNL A   1      39.349  35.832  40.347  1.00  0.00     0.124 S 
ATOM     84  O   UNL A   1      38.341  35.107  41.114  1.00  0.00    -0.237 OA
ATOM     85  O   UNL A   1      40.687  35.867  40.933  1.00  0.00    -0.237 OA
ATOM     86  O   UNL A   1      38.903  37.085  39.746  1.00  0.00    -0.744 OA
ENDBRANCH  82  83
ENDBRANCH  50  75
ENDBRANCH  24  25
ENDBRANCH  17  19
ENDBRANCH  16  17
ENDBRANCH   1  16
TORSDOF 17
ENDMDL
MODEL 2
REMARK VINA RESULT:      -8.8      1.803      8.914
REMARK SMILES CSC[C@H](C(=O)OCCOC(=O)c1ccc(-c2c3nc(c(-c4c(F)cc(S(=O)(=O)[O-])cc4F)c4ccc([nH]4)c(-c4c(F)cc(S(=O)(=O)[O-])cc4F)c4nc(c(-c5c(F)cc(S(=O)(=O)[O-])cc5F)c5ccc2[nH]5)C=C4)C=C3)cc1)c1ccccc1
REMARK SMILES IDX 9 1 8 2 7 3 5 4 6 5 4 6 3 7 2 8 1 9 79 10 80 11 84 12 81 13
REMARK SMILES IDX 83 14 82 15 10 16 11 17 12 18 13 19 14 20 78 21 15 22 77 23
REMARK SMILES IDX 16 24 17 25 18 26 71 27 19 28 76 29 70 30 72 31 20 32 75 33
REMARK SMILES IDX 69 34 68 35 21 37 55 38 34 39 54 40 35 41 38 42 53 43 73 44
REMARK SMILES IDX 36 45 37 46 52 48 74 49 39 50 22 51 23 52 32 53 24 54 25 55
REMARK SMILES IDX 31 56 33 57 26 58 27 59 28 60 29 61 30 62 56 63 57 64 66 65
REMARK SMILES IDX 58 66 59 67 65 68 67 69 60 70 61 71 62 72 63 73 64 74 40 75
REMARK SMILES IDX 41 76 50 77 42 78 43 79 49 80 51 81 44 82 45 83 46 84 47 85
REMARK SMILES IDX 48 86
REMARK H PARENT 72 36 38 47
REMARK Flexibility Score: inf
ROOT
ATOM      1  C   UNL A   1      44.103  25.109  24.971  1.00  0.00     0.275 C 
ENDROOT
BRANCH   1   2
ATOM      2  C   UNL A   1      44.221  23.638  24.563  1.00  0.00     0.274 C 
BRANCH   2   3
ATOM      3  O   UNL A   1      43.125  22.825  25.029  1.00  0.00    -0.462 OA
BRANCH   3   4
ATOM      4  C   UNL A   1      43.424  22.067  26.128  1.00  0.00     0.314 C 
ATOM      5  O   UNL A   1      44.251  21.173  26.112  1.00  0.00    -0.252 OA
BRANCH   4   6
ATOM      6  C   UNL A   1      42.553  22.422  27.327  1.00  0.00     0.139 C 
BRANCH   6   7
ATOM      7  C   UNL A   1      41.695  21.174  27.671  1.00  0.00     0.089 C 
BRANCH   7   8
ATOM      8  S   UNL A   1      40.520  20.447  26.443  1.00  0.00    -0.164 SA
ATOM      9  C   UNL A   1      39.386  21.825  26.125  1.00  0.00     0.085 C 
ENDBRANCH   7   8
ENDBRANCH   6   7
BRANCH   6  10
ATOM     10  C   UNL A   1      43.303  23.147  28.445  1.00  0.00    -0.033 A 
ATOM     11  C   UNL A   1      43.039  22.953  29.810  1.00  0.00     0.004 A 
ATOM     12  C   UNL A   1      44.297  24.090  28.111  1.00  0.00     0.004 A 
ATOM     13  C   UNL A   1      43.786  23.605  30.799  1.00  0.00     0.000 A 
ATOM     14  C   UNL A   1      45.044  24.744  29.101  1.00  0.00     0.000 A 
ATOM     15  C   UNL A   1      44.796  24.492  30.445  1.00  0.00     0.000 A 
ENDBRANCH   6  10
ENDBRANCH   4   6
ENDBRANCH   3   4
ENDBRANCH   2   3
ENDBRANCH   1   2
BRANCH   1  16
ATOM     16  O   UNL A   1      42.731  25.497  25.164  1.00  0.00    -0.458 OA
BRANCH  16  17
ATOM     17  C   UNL A   1      42.531  26.802  25.441  1.00  0.00     0.338 C 
ATOM     18  O   UNL A   1      42.278  27.690  24.632  1.00  0.00    -0.246 OA
BRANCH  17  19
ATOM     19  C   UNL A   1      42.622  27.078  26.885  1.00  0.00     0.060 A 
ATOM     20  C   UNL A   1      41.731  26.458  27.758  1.00  0.00     0.016 A 
ATOM     21  C   UNL A   1      43.401  28.144  27.332  1.00  0.00     0.016 A 
ATOM     22  C   UNL A   1      41.500  26.994  29.023  1.00  0.00     0.010 A 
ATOM     23  C   UNL A   1      43.234  28.624  28.637  1.00  0.00     0.010 A 
ATOM     24  C   UNL A   1      42.225  28.103  29.468  1.00  0.00    -0.014 A 
BRANCH  24  25
ATOM     25  C   UNL A   1      41.826  28.808  30.719  1.00  0.00     0.031 A 
ATOM     26  C   UNL A   1      40.570  29.645  30.726  1.00  0.00     0.074 A 
ATOM     27  C   UNL A   1      42.525  28.664  31.862  1.00  0.00     0.049 A 
ATOM     28  N   UNL A   1      40.145  30.502  31.620  1.00  0.00    -0.248 NA
ATOM     29  C   UNL A   1      39.676  29.506  29.564  1.00  0.00     0.031 C 
ATOM     30  C   UNL A   1      43.703  27.812  32.038  1.00  0.00     0.029 A 
ATOM     31  N   UNL A   1      42.336  29.226  33.101  1.00  0.00    -0.354 N 
ATOM     32  C   UNL A   1      38.984  31.057  31.094  1.00  0.00     0.074 A 
ATOM     33  C   UNL A   1      38.762  30.433  29.809  1.00  0.00     0.031 C 
ATOM     34  C   UNL A   1      44.110  27.882  33.315  1.00  0.00     0.029 A 
ATOM     35  C   UNL A   1      43.280  28.849  34.027  1.00  0.00     0.049 A 
ATOM     36  H   UNL A   1      41.595  29.841  33.307  1.00  0.00     0.167 HD
ATOM     37  C   UNL A   1      38.182  32.007  31.632  1.00  0.00     0.037 A 
ATOM     38  C   UNL A   1      43.484  29.266  35.292  1.00  0.00     0.037 A 
ATOM     39  C   UNL A   1      38.365  32.566  32.947  1.00  0.00     0.049 A 
ATOM     40  C   UNL A   1      42.588  30.326  35.871  1.00  0.00     0.074 A 
ATOM     41  C   UNL A   1      37.620  33.546  33.581  1.00  0.00     0.029 A 
ATOM     42  N   UNL A   1      39.346  32.170  33.843  1.00  0.00    -0.354 N 
ATOM     43  N   UNL A   1      41.564  30.932  35.319  1.00  0.00    -0.248 NA
ATOM     44  C   UNL A   1      42.887  30.774  37.237  1.00  0.00     0.031 C 
ATOM     45  C   UNL A   1      38.163  33.754  34.854  1.00  0.00     0.029 A 
ATOM     46  C   UNL A   1      39.223  32.879  35.026  1.00  0.00     0.049 A 
ATOM     47  H   UNL A   1      40.030  31.484  33.665  1.00  0.00     0.167 HD
ATOM     48  C   UNL A   1      41.091  31.824  36.273  1.00  0.00     0.074 A 
ATOM     49  C   UNL A   1      41.928  31.668  37.444  1.00  0.00     0.031 C 
ATOM     50  C   UNL A   1      40.059  32.700  36.186  1.00  0.00     0.037 A 
BRANCH  37  51
ATOM     51  C   UNL A   1      37.061  32.536  30.782  1.00  0.00     0.058 A 
ATOM     52  C   UNL A   1      35.766  31.998  30.829  1.00  0.00     0.135 A 
ATOM     53  C   UNL A   1      37.289  33.619  29.917  1.00  0.00     0.135 A 
ATOM     54  F   UNL A   1      35.498  30.950  31.622  1.00  0.00    -0.206 F 
ATOM     55  C   UNL A   1      34.742  32.498  30.028  1.00  0.00     0.059 A 
ATOM     56  C   UNL A   1      36.275  34.150  29.125  1.00  0.00     0.059 A 
ATOM     57  F   UNL A   1      38.510  34.172  29.833  1.00  0.00    -0.206 F 
ATOM     58  C   UNL A   1      35.009  33.572  29.175  1.00  0.00     0.060 A 
BRANCH  58  59
ATOM     59  S   UNL A   1      33.676  34.211  28.138  1.00  0.00     0.124 S 
ATOM     60  O   UNL A   1      34.421  35.000  27.161  1.00  0.00    -0.237 OA
ATOM     61  O   UNL A   1      33.059  32.990  27.629  1.00  0.00    -0.237 OA
ATOM     62  O   UNL A   1      32.858  34.979  29.072  1.00  0.00    -0.744 OA
ENDBRANCH  58  59
ENDBRANCH  37  51
BRANCH  38  63
ATOM     63  C   UNL A   1      44.617  28.711  36.080  1.00  0.00     0.058 A 
ATOM     64  C   UNL A   1      45.894  29.286  36.017  1.00  0.00     0.135 A 
ATOM     65  C   UNL A   1      44.439  27.604  36.925  1.00  0.00     0.135 A 
ATOM     66  F   UNL A   1      46.118  30.336  35.213  1.00  0.00    -0.206 F 
ATOM     67  C   UNL A   1      46.958  28.781  36.759  1.00  0.00     0.059 A 
ATOM     68  C   UNL A   1      45.480  27.098  37.696  1.00  0.00     0.059 A 
ATOM     69  F   UNL A   1      43.234  27.022  37.027  1.00  0.00    -0.206 F 
ATOM     70  C   UNL A   1      46.739  27.688  37.600  1.00  0.00     0.060 A 
BRANCH  70  71
ATOM     71  S   UNL A   1      48.105  27.073  38.608  1.00  0.00     0.124 S 
ATOM     72  O   UNL A   1      48.786  26.189  37.670  1.00  0.00    -0.237 OA
ATOM     73  O   UNL A   1      48.813  28.301  38.957  1.00  0.00    -0.237 OA
ATOM     74  O   UNL A   1      47.426  26.414  39.721  1.00  0.00    -0.744 OA
ENDBRANCH  70  71
ENDBRANCH  38  63
BRANCH  50  75
ATOM     75  C   UNL A   1      39.756  33.528  37.402  1.00  0.00     0.058 A 
ATOM     76  C   UNL A   1      38.811  33.117  38.355  1.00  0.00     0.135 A 
ATOM     77  C   UNL A   1      40.444  34.730  37.632  1.00  0.00     0.135 A 
ATOM     78  F   UNL A   1      38.124  31.978  38.176  1.00  0.00    -0.206 F 
ATOM     79  C   UNL A   1      38.542  33.881  39.485  1.00  0.00     0.059 A 
ATOM     80  C   UNL A   1      40.205  35.499  38.765  1.00  0.00     0.059 A 
ATOM     81  F   UNL A   1      41.363  35.161  36.753  1.00  0.00    -0.206 F 
ATOM     82  C   UNL A   1      39.243  35.074  39.679  1.00  0.00     0.060 A 
BRANCH  82  83
ATOM     83  S   UNL A   1      38.903  36.051  41.160  1.00  0.00     0.124 S 
ATOM     84  O   UNL A   1      38.588  37.354  40.584  1.00  0.00    -0.237 OA
ATOM     85  O   UNL A   1      37.780  35.336  41.760  1.00  0.00    -0.237 OA
ATOM     86  O   UNL A   1      40.154  35.978  41.907  1.00  0.00    -0.744 OA
ENDBRANCH  82  83
ENDBRANCH  50  75
ENDBRANCH  24  25
ENDBRANCH  17  19
ENDBRANCH  16  17
ENDBRANCH   1  16
TORSDOF 17
ENDMDL
MODEL 3
REMARK VINA RESULT:      -8.8      5.910     12.626
REMARK SMILES CSC[C@H](C(=O)OCCOC(=O)c1ccc(-c2c3nc(c(-c4c(F)cc(S(=O)(=O)[O-])cc4F)c4ccc([nH]4)c(-c4c(F)cc(S(=O)(=O)[O-])cc4F)c4nc(c(-c5c(F)cc(S(=O)(=O)[O-])cc5F)c5ccc2[nH]5)C=C4)C=C3)cc1)c1ccccc1
REMARK SMILES IDX 9 1 8 2 7 3 5 4 6 5 4 6 3 7 2 8 1 9 79 10 80 11 84 12 81 13
REMARK SMILES IDX 83 14 82 15 10 16 11 17 12 18 13 19 14 20 78 21 15 22 77 23
REMARK SMILES IDX 16 24 17 25 18 26 71 27 19 28 76 29 70 30 72 31 20 32 75 33
REMARK SMILES IDX 69 34 68 35 21 37 55 38 34 39 54 40 35 41 38 42 53 43 73 44
REMARK SMILES IDX 36 45 37 46 52 48 74 49 39 50 22 51 23 52 32 53 24 54 25 55
REMARK SMILES IDX 31 56 33 57 26 58 27 59 28 60 29 61 30 62 56 63 57 64 66 65
REMARK SMILES IDX 58 66 59 67 65 68 67 69 60 70 61 71 62 72 63 73 64 74 40 75
REMARK SMILES IDX 41 76 50 77 42 78 43 79 49 80 51 81 44 82 45 83 46 84 47 85
REMARK SMILES IDX 48 86
REMARK H PARENT 72 36 38 47
REMARK Flexibility Score: inf
ROOT
ATOM      1  C   UNL A   1      33.553  30.521  26.841  1.00  0.00     0.275 C 
ENDROOT
BRANCH   1   2
ATOM      2  C   UNL A   1      33.210  29.117  26.339  1.00  0.00     0.274 C 
BRANCH   2   3
ATOM      3  O   UNL A   1      32.377  29.117  25.161  1.00  0.00    -0.462 OA
BRANCH   3   4
ATOM      4  C   UNL A   1      31.573  28.016  25.049  1.00  0.00     0.314 C 
ATOM      5  O   UNL A   1      31.333  27.274  25.983  1.00  0.00    -0.252 OA
BRANCH   4   6
ATOM      6  C   UNL A   1      31.092  27.797  23.620  1.00  0.00     0.139 C 
BRANCH   6   7
ATOM      7  C   UNL A   1      31.232  26.284  23.303  1.00  0.00     0.089 C 
BRANCH   7   8
ATOM      8  S   UNL A   1      32.522  25.661  22.135  1.00  0.00    -0.164 SA
ATOM      9  C   UNL A   1      33.816  25.075  23.262  1.00  0.00     0.085 C 
ENDBRANCH   7   8
ENDBRANCH   6   7
BRANCH   6  10
ATOM     10  C   UNL A   1      29.782  28.515  23.290  1.00  0.00    -0.033 A 
ATOM     11  C   UNL A   1      28.521  27.903  23.368  1.00  0.00     0.004 A 
ATOM     12  C   UNL A   1      29.819  29.854  22.852  1.00  0.00     0.004 A 
ATOM     13  C   UNL A   1      27.345  28.616  23.102  1.00  0.00     0.000 A 
ATOM     14  C   UNL A   1      28.643  30.567  22.584  1.00  0.00     0.000 A 
ATOM     15  C   UNL A   1      27.404  29.951  22.722  1.00  0.00     0.000 A 
ENDBRANCH   6  10
ENDBRANCH   4   6
ENDBRANCH   3   4
ENDBRANCH   2   3
ENDBRANCH   1   2
BRANCH   1  16
ATOM     16  O   UNL A   1      33.748  30.541  28.267  1.00  0.00    -0.458 OA
BRANCH  16  17
ATOM     17  C   UNL A   1      34.880  31.141  28.689  1.00  0.00     0.338 C 
ATOM     18  O   UNL A   1      34.983  32.286  29.118  1.00  0.00    -0.246 OA
BRANCH  17  19
ATOM     19  C   UNL A   1      36.043  30.239  28.611  1.00  0.00     0.060 A 
ATOM     20  C   UNL A   1      36.528  29.645  29.774  1.00  0.00     0.016 A 
ATOM     21  C   UNL A   1      36.804  30.202  27.445  1.00  0.00     0.016 A 
ATOM     22  C   UNL A   1      37.830  29.154  29.821  1.00  0.00     0.010 A 
ATOM     23  C   UNL A   1      38.079  29.623  27.469  1.00  0.00     0.010 A 
ATOM     24  C   UNL A   1      38.635  29.165  28.677  1.00  0.00    -0.014 A 
BRANCH  24  25
ATOM     25  C   UNL A   1      40.088  28.849  28.780  1.00  0.00     0.031 A 
ATOM     26  C   UNL A   1      41.037  29.902  29.301  1.00  0.00     0.074 A 
ATOM     27  C   UNL A   1      40.566  27.626  28.479  1.00  0.00     0.049 A 
ATOM     28  N   UNL A   1      42.345  29.927  29.280  1.00  0.00    -0.248 NA
ATOM     29  C   UNL A   1      40.429  31.093  29.919  1.00  0.00     0.031 C 
ATOM     30  C   UNL A   1      39.761  26.478  28.058  1.00  0.00     0.029 A 
ATOM     31  N   UNL A   1      41.851  27.141  28.494  1.00  0.00    -0.354 N 
ATOM     32  C   UNL A   1      42.711  31.160  29.807  1.00  0.00     0.074 A 
ATOM     33  C   UNL A   1      41.489  31.853  30.150  1.00  0.00     0.031 C 
ATOM     34  C   UNL A   1      40.565  25.417  27.886  1.00  0.00     0.029 A 
ATOM     35  C   UNL A   1      41.949  25.828  28.098  1.00  0.00     0.049 A 
ATOM     36  H   UNL A   1      42.629  27.683  28.762  1.00  0.00     0.167 HD
ATOM     37  C   UNL A   1      43.954  31.671  29.980  1.00  0.00     0.037 A 
ATOM     38  C   UNL A   1      43.031  25.054  27.887  1.00  0.00     0.037 A 
ATOM     39  C   UNL A   1      45.169  30.945  29.710  1.00  0.00     0.049 A 
ATOM     40  C   UNL A   1      44.404  25.639  28.079  1.00  0.00     0.074 A 
ATOM     41  C   UNL A   1      46.478  31.375  29.835  1.00  0.00     0.029 A 
ATOM     42  N   UNL A   1      45.221  29.624  29.293  1.00  0.00    -0.354 N 
ATOM     43  N   UNL A   1      44.739  26.848  28.462  1.00  0.00    -0.248 NA
ATOM     44  C   UNL A   1      45.546  24.762  27.788  1.00  0.00     0.031 C 
ATOM     45  C   UNL A   1      47.323  30.318  29.476  1.00  0.00     0.029 A 
ATOM     46  C   UNL A   1      46.539  29.220  29.161  1.00  0.00     0.049 A 
ATOM     47  H   UNL A   1      44.437  29.055  29.116  1.00  0.00     0.167 HD
ATOM     48  C   UNL A   1      46.128  26.873  28.469  1.00  0.00     0.074 A 
ATOM     49  C   UNL A   1      46.572  25.554  28.069  1.00  0.00     0.031 C 
ATOM     50  C   UNL A   1      46.962  27.898  28.773  1.00  0.00     0.037 A 
BRANCH  37  51
ATOM     51  C   UNL A   1      44.064  33.098  30.440  1.00  0.00     0.058 A 
ATOM     52  C   UNL A   1      44.133  33.445  31.798  1.00  0.00     0.135 A 
ATOM     53  C   UNL A   1      44.119  34.137  29.496  1.00  0.00     0.135 A 
ATOM     54  F   UNL A   1      44.064  32.494  32.742  1.00  0.00    -0.206 F 
ATOM     55  C   UNL A   1      44.227  34.774  32.204  1.00  0.00     0.059 A 
ATOM     56  C   UNL A   1      44.237  35.469  29.878  1.00  0.00     0.059 A 
ATOM     57  F   UNL A   1      44.057  33.860  28.183  1.00  0.00    -0.206 F 
ATOM     58  C   UNL A   1      44.274  35.779  31.236  1.00  0.00     0.060 A 
BRANCH  58  59
ATOM     59  S   UNL A   1      44.393  37.499  31.772  1.00  0.00     0.124 S 
ATOM     60  O   UNL A   1      43.755  38.195  30.658  1.00  0.00    -0.237 OA
ATOM     61  O   UNL A   1      43.644  37.491  33.025  1.00  0.00    -0.237 OA
ATOM     62  O   UNL A   1      45.830  37.714  31.907  1.00  0.00    -0.744 OA
ENDBRANCH  58  59
ENDBRANCH  37  51
BRANCH  38  63
ATOM     63  C   UNL A   1      42.858  23.652  27.423  1.00  0.00     0.058 A 
ATOM     64  C   UNL A   1      42.537  22.625  28.321  1.00  0.00     0.135 A 
ATOM     65  C   UNL A   1      42.995  23.315  26.067  1.00  0.00     0.135 A 
ATOM     66  F   UNL A   1      42.409  22.893  29.629  1.00  0.00    -0.206 F 
ATOM     67  C   UNL A   1      42.362  21.312  27.894  1.00  0.00     0.059 A 
ATOM     68  C   UNL A   1      42.800  22.015  25.612  1.00  0.00     0.059 A 
ATOM     69  F   UNL A   1      43.295  24.263  25.165  1.00  0.00    -0.206 F 
ATOM     70  C   UNL A   1      42.492  21.018  26.535  1.00  0.00     0.060 A 
BRANCH  70  71
ATOM     71  S   UNL A   1      42.204  19.326  25.975  1.00  0.00     0.124 S 
ATOM     72  O   UNL A   1      42.660  18.554  27.126  1.00  0.00    -0.237 OA
ATOM     73  O   UNL A   1      40.765  19.318  25.732  1.00  0.00    -0.237 OA
ATOM     74  O   UNL A   1      43.034  19.226  24.778  1.00  0.00    -0.744 OA
ENDBRANCH  70  71
ENDBRANCH  38  63
BRANCH  50  75
ATOM     75  C   UNL A   1      48.437  27.622  28.722  1.00  0.00     0.058 A 
ATOM     76  C   UNL A   1      49.107  27.002  29.788  1.00  0.00     0.135 A 
ATOM     77  C   UNL A   1      49.182  27.953  27.579  1.00  0.00     0.135 A 
ATOM     78  F   UNL A   1      48.439  26.671  30.905  1.00  0.00    -0.206 F 
ATOM     79  C   UNL A   1      50.472  26.738  29.731  1.00  0.00     0.059 A 
ATOM     80  C   UNL A   1      50.543  27.679  27.492  1.00  0.00     0.059 A 
ATOM     81  F   UNL A   1      48.585  28.540  26.530  1.00  0.00    -0.206 F 
ATOM     82  C   UNL A   1      51.182  27.084  28.579  1.00  0.00     0.060 A 
BRANCH  82  83
ATOM     83  S   UNL A   1      52.949  26.720  28.504  1.00  0.00     0.124 S 
ATOM     84  O   UNL A   1      52.992  25.692  27.469  1.00  0.00    -0.237 OA
ATOM     85  O   UNL A   1      53.523  28.012  28.138  1.00  0.00    -0.237 OA
ATOM     86  O   UNL A   1      53.257  26.265  29.856  1.00  0.00    -0.744 OA
ENDBRANCH  82  83
ENDBRANCH  50  75
ENDBRANCH  24  25
ENDBRANCH  17  19
ENDBRANCH  16  17
ENDBRANCH   1  16
TORSDOF 17
ENDMDL
