MODEL 1
REMARK VINA RESULT:     -11.6      0.000      0.000
REMARK SMILES Cc1cc(C)cc(C(=O)N2CC[C@H](C(=O)OCCOC(=O)c3ccc(-c4c5nc(c(-c6c(F)cc(S(=O)(=O)[O-])cc6F)c6ccc([nH]6)c(-c6c(F)cc(S(=O)(=O)[O-])cc6F)c6nc(c(-c7c(F)cc(S(=O)(=O)[O-])cc7F)c7ccc4[nH]7)C=C6)C=C5)cc3)[C@@H]2C)c1
REMARK SMILES IDX 18 1 17 2 16 3 14 4 15 5 13 6 10 7 11 8 88 9 12 10 89 11
REMARK SMILES IDX 8 12 9 13 7 14 1 15 2 16 3 17 90 18 4 19 5 20 6 21 19 22
REMARK SMILES IDX 20 23 21 24 22 25 23 26 87 27 24 28 86 29 25 30 26 31 27 32
REMARK SMILES IDX 80 33 28 34 85 35 79 36 81 37 29 38 84 39 78 40 77 41 30 43
REMARK SMILES IDX 64 44 43 45 63 46 44 47 47 48 62 49 82 50 45 51 46 52 61 54
REMARK SMILES IDX 83 55 48 56 31 57 32 58 41 59 33 60 34 61 40 62 42 63 35 64
REMARK SMILES IDX 36 65 37 66 38 67 39 68 65 69 66 70 75 71 67 72 68 73 74 74
REMARK SMILES IDX 76 75 69 76 70 77 71 78 72 79 73 80 49 81 50 82 59 83 51 84
REMARK SMILES IDX 52 85 58 86 60 87 53 88 54 89 55 90 56 91 57 92
REMARK H PARENT 81 42 47 53
REMARK Flexibility Score: inf
ROOT
ATOM      1  C   UNL A   1      32.431  30.147  26.784  1.00  0.00     0.275 C 
ENDROOT
BRANCH   1   2
ATOM      2  C   UNL A   1      32.821  29.769  25.357  1.00  0.00     0.274 C 
BRANCH   2   3
ATOM      3  O   UNL A   1      31.748  29.075  24.682  1.00  0.00    -0.462 OA
BRANCH   3   4
ATOM      4  C   UNL A   1      31.786  27.715  24.775  1.00  0.00     0.311 C 
ATOM      5  O   UNL A   1      30.801  27.009  24.952  1.00  0.00    -0.252 OA
BRANCH   4   6
ATOM      6  C   UNL A   1      33.217  27.199  24.781  1.00  0.00     0.123 C 
ATOM      7  N   UNL A   1      33.540  25.005  23.903  1.00  0.00    -0.335 N 
ATOM      8  C   UNL A   1      33.015  24.856  25.244  1.00  0.00     0.121 C 
ATOM      9  C   UNL A   1      33.714  26.421  23.543  1.00  0.00     0.096 C 
ATOM     10  C   UNL A   1      33.392  26.168  25.911  1.00  0.00     0.039 C 
ATOM     11  C   UNL A   1      33.076  26.775  22.208  1.00  0.00     0.032 C 
BRANCH   7  12
ATOM     12  C   UNL A   1      33.890  23.860  23.206  1.00  0.00     0.254 C 
ATOM     13  O   UNL A   1      33.660  23.748  22.004  1.00  0.00    -0.269 OA
BRANCH  12  14
ATOM     14  C   UNL A   1      34.380  22.665  23.950  1.00  0.00     0.040 A 
ATOM     15  C   UNL A   1      33.151  19.171  24.839  1.00  0.00     0.044 C 
ATOM     16  C   UNL A   1      34.046  20.363  24.677  1.00  0.00    -0.050 A 
ATOM     17  C   UNL A   1      35.405  20.277  24.995  1.00  0.00     0.006 A 
ATOM     18  C   UNL A   1      33.552  21.549  24.123  1.00  0.00     0.017 A 
ATOM     19  C   UNL A   1      36.264  21.365  24.778  1.00  0.00    -0.050 A 
ATOM     20  C   UNL A   1      37.739  21.203  25.013  1.00  0.00     0.044 C 
ATOM     21  C   UNL A   1      35.741  22.561  24.265  1.00  0.00     0.017 A 
ENDBRANCH  12  14
ENDBRANCH   7  12
ENDBRANCH   4   6
ENDBRANCH   3   4
ENDBRANCH   2   3
ENDBRANCH   1   2
BRANCH   1  22
ATOM     22  O   UNL A   1      33.446  29.690  27.688  1.00  0.00    -0.458 OA
BRANCH  22  23
ATOM     23  C   UNL A   1      34.283  30.636  28.171  1.00  0.00     0.338 C 
ATOM     24  O   UNL A   1      33.971  31.775  28.498  1.00  0.00    -0.246 OA
BRANCH  23  25
ATOM     25  C   UNL A   1      35.655  30.089  28.291  1.00  0.00     0.060 A 
ATOM     26  C   UNL A   1      36.137  29.629  29.518  1.00  0.00     0.016 A 
ATOM     27  C   UNL A   1      36.512  30.122  27.190  1.00  0.00     0.016 A 
ATOM     28  C   UNL A   1      37.476  29.275  29.665  1.00  0.00     0.010 A 
ATOM     29  C   UNL A   1      37.837  29.685  27.319  1.00  0.00     0.010 A 
ATOM     30  C   UNL A   1      38.344  29.284  28.568  1.00  0.00    -0.014 A 
BRANCH  30  31
ATOM     31  C   UNL A   1      39.783  28.939  28.744  1.00  0.00     0.031 A 
ATOM     32  C   UNL A   1      40.728  29.948  29.340  1.00  0.00     0.074 A 
ATOM     33  C   UNL A   1      40.254  27.722  28.406  1.00  0.00     0.049 A 
ATOM     34  N   UNL A   1      42.037  29.945  29.370  1.00  0.00    -0.248 NA
ATOM     35  C   UNL A   1      40.117  31.132  29.965  1.00  0.00     0.031 C 
ATOM     36  C   UNL A   1      39.450  26.608  27.898  1.00  0.00     0.029 A 
ATOM     37  N   UNL A   1      41.528  27.209  28.458  1.00  0.00    -0.354 N 
ATOM     38  C   UNL A   1      42.406  31.152  29.949  1.00  0.00     0.074 A 
ATOM     39  C   UNL A   1      41.183  31.863  30.258  1.00  0.00     0.031 C 
ATOM     40  C   UNL A   1      40.236  25.532  27.741  1.00  0.00     0.029 A 
ATOM     41  C   UNL A   1      41.615  25.902  28.043  1.00  0.00     0.049 A 
ATOM     42  H   UNL A   1      42.305  27.731  28.761  1.00  0.00     0.167 HD
ATOM     43  C   UNL A   1      43.652  31.625  30.194  1.00  0.00     0.037 A 
ATOM     44  C   UNL A   1      42.685  25.099  27.885  1.00  0.00     0.037 A 
ATOM     45  C   UNL A   1      44.863  30.880  29.959  1.00  0.00     0.049 A 
ATOM     46  C   UNL A   1      44.060  25.646  28.143  1.00  0.00     0.074 A 
ATOM     47  C   UNL A   1      46.173  31.272  30.169  1.00  0.00     0.029 A 
ATOM     48  N   UNL A   1      44.908  29.574  29.492  1.00  0.00    -0.354 N 
ATOM     49  N   UNL A   1      44.408  26.836  28.571  1.00  0.00    -0.248 NA
ATOM     50  C   UNL A   1      45.193  24.753  27.860  1.00  0.00     0.031 C 
ATOM     51  C   UNL A   1      47.012  30.212  29.808  1.00  0.00     0.029 A 
ATOM     52  C   UNL A   1      46.224  29.147  29.402  1.00  0.00     0.049 A 
ATOM     53  H   UNL A   1      44.122  29.031  29.257  1.00  0.00     0.167 HD
ATOM     54  C   UNL A   1      45.796  26.834  28.612  1.00  0.00     0.074 A 
ATOM     55  C   UNL A   1      46.226  25.519  28.183  1.00  0.00     0.031 C 
ATOM     56  C   UNL A   1      46.639  27.836  28.968  1.00  0.00     0.037 A 
BRANCH  43  57
ATOM     57  C   UNL A   1      43.766  33.039  30.695  1.00  0.00     0.058 A 
ATOM     58  C   UNL A   1      43.954  34.128  29.832  1.00  0.00     0.135 A 
ATOM     59  C   UNL A   1      43.689  33.300  32.074  1.00  0.00     0.135 A 
ATOM     60  F   UNL A   1      44.053  33.934  28.507  1.00  0.00    -0.206 F 
ATOM     61  C   UNL A   1      44.100  35.424  30.320  1.00  0.00     0.059 A 
ATOM     62  C   UNL A   1      43.808  34.590  32.581  1.00  0.00     0.059 A 
ATOM     63  F   UNL A   1      43.508  32.294  32.944  1.00  0.00    -0.206 F 
ATOM     64  C   UNL A   1      44.036  35.643  31.698  1.00  0.00     0.060 A 
BRANCH  64  65
ATOM     65  S   UNL A   1      44.253  37.322  32.325  1.00  0.00     0.124 S 
ATOM     66  O   UNL A   1      43.815  38.118  31.182  1.00  0.00    -0.237 OA
ATOM     67  O   UNL A   1      43.368  37.346  33.486  1.00  0.00    -0.237 OA
ATOM     68  O   UNL A   1      45.679  37.389  32.628  1.00  0.00    -0.744 OA
ENDBRANCH  64  65
ENDBRANCH  43  57
BRANCH  44  69
ATOM     69  C   UNL A   1      42.490  23.697  27.431  1.00  0.00     0.058 A 
ATOM     70  C   UNL A   1      42.516  23.376  26.067  1.00  0.00     0.135 A 
ATOM     71  C   UNL A   1      42.328  22.648  28.348  1.00  0.00     0.135 A 
ATOM     72  F   UNL A   1      42.652  24.346  25.150  1.00  0.00    -0.206 F 
ATOM     73  C   UNL A   1      42.402  22.060  25.626  1.00  0.00     0.059 A 
ATOM     74  C   UNL A   1      42.236  21.323  27.934  1.00  0.00     0.059 A 
ATOM     75  F   UNL A   1      42.302  22.904  29.665  1.00  0.00    -0.206 F 
ATOM     76  C   UNL A   1      42.273  21.039  26.569  1.00  0.00     0.060 A 
BRANCH  76  77
ATOM     77  S   UNL A   1      42.225  19.326  25.999  1.00  0.00     0.124 S 
ATOM     78  O   UNL A   1      40.819  19.173  25.647  1.00  0.00    -0.237 OA
ATOM     79  O   UNL A   1      43.164  19.343  24.882  1.00  0.00    -0.237 OA
ATOM     80  O   UNL A   1      42.670  18.572  27.168  1.00  0.00    -0.744 OA
ENDBRANCH  76  77
ENDBRANCH  44  69
BRANCH  56  81
ATOM     81  C   UNL A   1      48.111  27.543  28.922  1.00  0.00     0.058 A 
ATOM     82  C   UNL A   1      48.869  27.775  27.765  1.00  0.00     0.135 A 
ATOM     83  C   UNL A   1      48.776  27.057  30.058  1.00  0.00     0.135 A 
ATOM     84  F   UNL A   1      48.277  28.231  26.650  1.00  0.00    -0.206 F 
ATOM     85  C   UNL A   1      50.235  27.516  27.728  1.00  0.00     0.059 A 
ATOM     86  C   UNL A   1      50.146  26.810  30.051  1.00  0.00     0.059 A 
ATOM     87  F   UNL A   1      48.098  26.826  31.193  1.00  0.00    -0.206 F 
ATOM     88  C   UNL A   1      50.865  27.032  28.876  1.00  0.00     0.060 A 
BRANCH  88  89
ATOM     89  S   UNL A   1      52.644  26.722  28.827  1.00  0.00     0.124 S 
ATOM     90  O   UNL A   1      53.175  28.075  28.704  1.00  0.00    -0.237 OA
ATOM     91  O   UNL A   1      52.884  26.060  30.106  1.00  0.00    -0.237 OA
ATOM     92  O   UNL A   1      52.807  25.873  27.651  1.00  0.00    -0.744 OA
ENDBRANCH  88  89
ENDBRANCH  56  81
ENDBRANCH  30  31
ENDBRANCH  23  25
ENDBRANCH  22  23
ENDBRANCH   1  22
TORSDOF 16
ENDMDL
MODEL 2
REMARK VINA RESULT:     -11.5      1.914      2.692
REMARK SMILES Cc1cc(C)cc(C(=O)N2CC[C@H](C(=O)OCCOC(=O)c3ccc(-c4c5nc(c(-c6c(F)cc(S(=O)(=O)[O-])cc6F)c6ccc([nH]6)c(-c6c(F)cc(S(=O)(=O)[O-])cc6F)c6nc(c(-c7c(F)cc(S(=O)(=O)[O-])cc7F)c7ccc4[nH]7)C=C6)C=C5)cc3)[C@@H]2C)c1
REMARK SMILES IDX 18 1 17 2 16 3 14 4 15 5 13 6 10 7 11 8 88 9 12 10 89 11
REMARK SMILES IDX 8 12 9 13 7 14 1 15 2 16 3 17 90 18 4 19 5 20 6 21 19 22
REMARK SMILES IDX 20 23 21 24 22 25 23 26 87 27 24 28 86 29 25 30 26 31 27 32
REMARK SMILES IDX 80 33 28 34 85 35 79 36 81 37 29 38 84 39 78 40 77 41 30 43
REMARK SMILES IDX 64 44 43 45 63 46 44 47 47 48 62 49 82 50 45 51 46 52 61 54
REMARK SMILES IDX 83 55 48 56 31 57 32 58 41 59 33 60 34 61 40 62 42 63 35 64
REMARK SMILES IDX 36 65 37 66 38 67 39 68 65 69 66 70 75 71 67 72 68 73 74 74
REMARK SMILES IDX 76 75 69 76 70 77 71 78 72 79 73 80 49 81 50 82 59 83 51 84
REMARK SMILES IDX 52 85 58 86 60 87 53 88 54 89 55 90 56 91 57 92
REMARK H PARENT 81 42 47 53
REMARK Flexibility Score: inf
ROOT
ATOM      1  C   UNL A   1      34.079  31.115  27.642  1.00  0.00     0.275 C 
ENDROOT
BRANCH   1   2
ATOM      2  C   UNL A   1      32.827  30.332  27.252  1.00  0.00     0.274 C 
BRANCH   2   3
ATOM      3  O   UNL A   1      32.655  30.292  25.818  1.00  0.00    -0.462 OA
BRANCH   3   4
ATOM      4  C   UNL A   1      32.432  29.052  25.294  1.00  0.00     0.311 C 
ATOM      5  O   UNL A   1      31.321  28.593  25.061  1.00  0.00    -0.252 OA
BRANCH   4   6
ATOM      6  C   UNL A   1      33.724  28.259  25.178  1.00  0.00     0.123 C 
ATOM      7  N   UNL A   1      33.646  26.338  23.764  1.00  0.00    -0.335 N 
ATOM      8  C   UNL A   1      33.019  25.973  25.017  1.00  0.00     0.121 C 
ATOM      9  C   UNL A   1      34.128  27.728  23.784  1.00  0.00     0.096 C 
ATOM     10  C   UNL A   1      33.614  26.964  26.004  1.00  0.00     0.039 C 
ATOM     11  C   UNL A   1      33.660  28.534  22.581  1.00  0.00     0.032 C 
BRANCH   7  12
ATOM     12  C   UNL A   1      33.798  25.358  22.797  1.00  0.00     0.254 C 
ATOM     13  O   UNL A   1      33.481  25.560  21.627  1.00  0.00    -0.269 OA
BRANCH  12  14
ATOM     14  C   UNL A   1      34.169  23.973  23.204  1.00  0.00     0.040 A 
ATOM     15  C   UNL A   1      37.122  22.179  24.807  1.00  0.00     0.044 C 
ATOM     16  C   UNL A   1      35.758  22.446  24.248  1.00  0.00    -0.050 A 
ATOM     17  C   UNL A   1      34.753  21.476  24.332  1.00  0.00     0.006 A 
ATOM     18  C   UNL A   1      35.445  23.702  23.715  1.00  0.00     0.017 A 
ATOM     19  C   UNL A   1      33.454  21.745  23.877  1.00  0.00    -0.050 A 
ATOM     20  C   UNL A   1      32.368  20.730  24.093  1.00  0.00     0.044 C 
ATOM     21  C   UNL A   1      33.172  22.995  23.304  1.00  0.00     0.017 A 
ENDBRANCH  12  14
ENDBRANCH   7  12
ENDBRANCH   4   6
ENDBRANCH   3   4
ENDBRANCH   2   3
ENDBRANCH   1   2
BRANCH   1  22
ATOM     22  O   UNL A   1      35.048  30.211  28.191  1.00  0.00    -0.458 OA
BRANCH  22  23
ATOM     23  C   UNL A   1      35.960  30.754  29.030  1.00  0.00     0.338 C 
ATOM     24  O   UNL A   1      35.747  31.633  29.856  1.00  0.00    -0.246 OA
BRANCH  23  25
ATOM     25  C   UNL A   1      37.277  30.101  28.839  1.00  0.00     0.060 A 
ATOM     26  C   UNL A   1      38.042  29.700  29.937  1.00  0.00     0.016 A 
ATOM     27  C   UNL A   1      37.808  29.974  27.554  1.00  0.00     0.016 A 
ATOM     28  C   UNL A   1      39.347  29.245  29.761  1.00  0.00     0.010 A 
ATOM     29  C   UNL A   1      39.088  29.436  27.375  1.00  0.00     0.010 A 
ATOM     30  C   UNL A   1      39.887  29.092  28.480  1.00  0.00    -0.014 A 
BRANCH  30  31
ATOM     31  C   UNL A   1      41.296  28.640  28.306  1.00  0.00     0.031 A 
ATOM     32  C   UNL A   1      42.426  29.611  28.517  1.00  0.00     0.074 A 
ATOM     33  C   UNL A   1      41.583  27.360  27.992  1.00  0.00     0.049 A 
ATOM     34  N   UNL A   1      43.691  29.496  28.200  1.00  0.00    -0.248 NA
ATOM     35  C   UNL A   1      42.081  30.895  29.147  1.00  0.00     0.031 C 
ATOM     36  C   UNL A   1      40.605  26.281  27.840  1.00  0.00     0.029 A 
ATOM     37  N   UNL A   1      42.789  26.745  27.761  1.00  0.00    -0.354 N 
ATOM     38  C   UNL A   1      44.276  30.713  28.524  1.00  0.00     0.074 A 
ATOM     39  C   UNL A   1      43.228  31.554  29.065  1.00  0.00     0.031 C 
ATOM     40  C   UNL A   1      41.253  25.130  27.601  1.00  0.00     0.029 A 
ATOM     41  C   UNL A   1      42.682  25.403  27.484  1.00  0.00     0.049 A 
ATOM     42  H   UNL A   1      43.650  27.222  27.789  1.00  0.00     0.167 HD
ATOM     43  C   UNL A   1      45.568  31.095  28.378  1.00  0.00     0.037 A 
ATOM     44  C   UNL A   1      43.618  24.498  27.139  1.00  0.00     0.037 A 
ATOM     45  C   UNL A   1      46.622  30.229  27.915  1.00  0.00     0.049 A 
ATOM     46  C   UNL A   1      45.042  24.944  26.962  1.00  0.00     0.074 A 
ATOM     47  C   UNL A   1      47.961  30.522  27.726  1.00  0.00     0.029 A 
ATOM     48  N   UNL A   1      46.459  28.888  27.598  1.00  0.00    -0.354 N 
ATOM     49  N   UNL A   1      45.564  26.132  27.149  1.00  0.00    -0.248 NA
ATOM     50  C   UNL A   1      45.999  23.933  26.490  1.00  0.00     0.031 C 
ATOM     51  C   UNL A   1      48.605  29.364  27.274  1.00  0.00     0.029 A 
ATOM     52  C   UNL A   1      47.673  28.341  27.211  1.00  0.00     0.049 A 
ATOM     53  H   UNL A   1      45.608  28.396  27.641  1.00  0.00     0.167 HD
ATOM     54  C   UNL A   1      46.908  26.012  26.822  1.00  0.00     0.074 A 
ATOM     55  C   UNL A   1      47.125  24.632  26.441  1.00  0.00     0.031 C 
ATOM     56  C   UNL A   1      47.875  26.965  26.830  1.00  0.00     0.037 A 
BRANCH  43  57
ATOM     57  C   UNL A   1      45.898  32.533  28.673  1.00  0.00     0.058 A 
ATOM     58  C   UNL A   1      46.319  32.961  29.940  1.00  0.00     0.135 A 
ATOM     59  C   UNL A   1      45.782  33.499  27.658  1.00  0.00     0.135 A 
ATOM     60  F   UNL A   1      46.429  32.084  30.950  1.00  0.00    -0.206 F 
ATOM     61  C   UNL A   1      46.578  34.304  30.204  1.00  0.00     0.059 A 
ATOM     62  C   UNL A   1      46.059  34.842  27.894  1.00  0.00     0.059 A 
ATOM     63  F   UNL A   1      45.386  33.143  26.427  1.00  0.00    -0.206 F 
ATOM     64  C   UNL A   1      46.435  35.238  29.175  1.00  0.00     0.060 A 
BRANCH  64  65
ATOM     65  S   UNL A   1      46.747  36.981  29.531  1.00  0.00     0.124 S 
ATOM     66  O   UNL A   1      45.736  37.631  28.703  1.00  0.00    -0.237 OA
ATOM     67  O   UNL A   1      46.526  37.055  30.973  1.00  0.00    -0.237 OA
ATOM     68  O   UNL A   1      48.129  37.172  29.104  1.00  0.00    -0.744 OA
ENDBRANCH  64  65
ENDBRANCH  43  57
BRANCH  44  69
ATOM     69  C   UNL A   1      43.223  23.084  26.909  1.00  0.00     0.058 A 
ATOM     70  C   UNL A   1      43.149  22.562  25.610  1.00  0.00     0.135 A 
ATOM     71  C   UNL A   1      42.964  22.214  27.979  1.00  0.00     0.135 A 
ATOM     72  F   UNL A   1      43.371  23.358  24.552  1.00  0.00    -0.206 F 
ATOM     73  C   UNL A   1      42.845  21.224  25.379  1.00  0.00     0.059 A 
ATOM     74  C   UNL A   1      42.682  20.868  27.776  1.00  0.00     0.059 A 
ATOM     75  F   UNL A   1      43.028  22.665  29.242  1.00  0.00    -0.206 F 
ATOM     76  C   UNL A   1      42.624  20.382  26.470  1.00  0.00     0.060 A 
BRANCH  76  77
ATOM     77  S   UNL A   1      42.328  18.625  26.170  1.00  0.00     0.124 S 
ATOM     78  O   UNL A   1      40.929  18.628  25.762  1.00  0.00    -0.237 OA
ATOM     79  O   UNL A   1      43.298  18.321  25.123  1.00  0.00    -0.237 OA
ATOM     80  O   UNL A   1      42.607  18.014  27.466  1.00  0.00    -0.744 OA
ENDBRANCH  76  77
ENDBRANCH  44  69
BRANCH  56  81
ATOM     81  C   UNL A   1      49.258  26.540  26.429  1.00  0.00     0.058 A 
ATOM     82  C   UNL A   1      49.722  26.701  25.115  1.00  0.00     0.135 A 
ATOM     83  C   UNL A   1      50.141  25.999  27.377  1.00  0.00     0.135 A 
ATOM     84  F   UNL A   1      48.914  27.206  24.170  1.00  0.00    -0.206 F 
ATOM     85  C   UNL A   1      51.009  26.321  24.748  1.00  0.00     0.059 A 
ATOM     86  C   UNL A   1      51.438  25.630  27.037  1.00  0.00     0.059 A 
ATOM     87  F   UNL A   1      49.748  25.832  28.649  1.00  0.00    -0.206 F 
ATOM     88  C   UNL A   1      51.860  25.784  25.716  1.00  0.00     0.060 A 
BRANCH  88  89
ATOM     89  S   UNL A   1      53.538  25.316  25.237  1.00  0.00     0.124 S 
ATOM     90  O   UNL A   1      53.525  23.880  25.490  1.00  0.00    -0.237 OA
ATOM     91  O   UNL A   1      53.587  25.713  23.834  1.00  0.00    -0.237 OA
ATOM     92  O   UNL A   1      54.378  26.105  26.134  1.00  0.00    -0.744 OA
ENDBRANCH  88  89
ENDBRANCH  56  81
ENDBRANCH  30  31
ENDBRANCH  23  25
ENDBRANCH  22  23
ENDBRANCH   1  22
TORSDOF 16
ENDMDL
MODEL 3
REMARK VINA RESULT:     -11.5      0.771      1.778
REMARK SMILES Cc1cc(C)cc(C(=O)N2CC[C@H](C(=O)OCCOC(=O)c3ccc(-c4c5nc(c(-c6c(F)cc(S(=O)(=O)[O-])cc6F)c6ccc([nH]6)c(-c6c(F)cc(S(=O)(=O)[O-])cc6F)c6nc(c(-c7c(F)cc(S(=O)(=O)[O-])cc7F)c7ccc4[nH]7)C=C6)C=C5)cc3)[C@@H]2C)c1
REMARK SMILES IDX 18 1 17 2 16 3 14 4 15 5 13 6 10 7 11 8 88 9 12 10 89 11
REMARK SMILES IDX 8 12 9 13 7 14 1 15 2 16 3 17 90 18 4 19 5 20 6 21 19 22
REMARK SMILES IDX 20 23 21 24 22 25 23 26 87 27 24 28 86 29 25 30 26 31 27 32
REMARK SMILES IDX 80 33 28 34 85 35 79 36 81 37 29 38 84 39 78 40 77 41 30 43
REMARK SMILES IDX 64 44 43 45 63 46 44 47 47 48 62 49 82 50 45 51 46 52 61 54
REMARK SMILES IDX 83 55 48 56 31 57 32 58 41 59 33 60 34 61 40 62 42 63 35 64
REMARK SMILES IDX 36 65 37 66 38 67 39 68 65 69 66 70 75 71 67 72 68 73 74 74
REMARK SMILES IDX 76 75 69 76 70 77 71 78 72 79 73 80 49 81 50 82 59 83 51 84
REMARK SMILES IDX 52 85 58 86 60 87 53 88 54 89 55 90 56 91 57 92
REMARK H PARENT 81 42 47 53
REMARK Flexibility Score: inf
ROOT
ATOM      1  C   UNL A   1      33.291  30.454  26.502  1.00  0.00     0.275 C 
ENDROOT
BRANCH   1   2
ATOM      2  C   UNL A   1      31.776  30.264  26.508  1.00  0.00     0.274 C 
BRANCH   2   3
ATOM      3  O   UNL A   1      31.419  28.863  26.506  1.00  0.00    -0.462 OA
BRANCH   3   4
ATOM      4  C   UNL A   1      31.290  28.298  25.271  1.00  0.00     0.311 C 
ATOM      5  O   UNL A   1      31.144  28.932  24.234  1.00  0.00    -0.252 OA
BRANCH   4   6
ATOM      6  C   UNL A   1      31.199  26.782  25.363  1.00  0.00     0.123 C 
ATOM      7  N   UNL A   1      32.531  25.560  23.806  1.00  0.00    -0.335 N 
ATOM      8  C   UNL A   1      31.359  26.027  23.094  1.00  0.00     0.121 C 
ATOM      9  C   UNL A   1      32.503  25.966  25.220  1.00  0.00     0.096 C 
ATOM     10  C   UNL A   1      30.343  26.243  24.203  1.00  0.00     0.039 C 
ATOM     11  C   UNL A   1      33.790  26.644  25.665  1.00  0.00     0.032 C 
BRANCH   7  12
ATOM     12  C   UNL A   1      33.427  24.748  23.130  1.00  0.00     0.254 C 
ATOM     13  O   UNL A   1      33.728  24.966  21.958  1.00  0.00    -0.269 OA
BRANCH  12  14
ATOM     14  C   UNL A   1      33.893  23.481  23.760  1.00  0.00     0.040 A 
ATOM     15  C   UNL A   1      32.563  19.970  24.403  1.00  0.00     0.044 C 
ATOM     16  C   UNL A   1      33.496  21.140  24.310  1.00  0.00    -0.050 A 
ATOM     17  C   UNL A   1      34.860  20.982  24.577  1.00  0.00     0.006 A 
ATOM     18  C   UNL A   1      33.031  22.383  23.869  1.00  0.00     0.017 A 
ATOM     19  C   UNL A   1      35.752  22.054  24.421  1.00  0.00    -0.050 A 
ATOM     20  C   UNL A   1      37.226  21.823  24.595  1.00  0.00     0.044 C 
ATOM     21  C   UNL A   1      35.259  23.305  24.022  1.00  0.00     0.017 A 
ENDBRANCH  12  14
ENDBRANCH   7  12
ENDBRANCH   4   6
ENDBRANCH   3   4
ENDBRANCH   2   3
ENDBRANCH   1   2
BRANCH   1  22
ATOM     22  O   UNL A   1      33.840  29.897  27.705  1.00  0.00    -0.458 OA
BRANCH  22  23
ATOM     23  C   UNL A   1      34.652  30.709  28.419  1.00  0.00     0.338 C 
ATOM     24  O   UNL A   1      34.321  31.744  28.985  1.00  0.00    -0.246 OA
BRANCH  23  25
ATOM     25  C   UNL A   1      36.023  30.148  28.461  1.00  0.00     0.060 A 
ATOM     26  C   UNL A   1      36.571  29.684  29.658  1.00  0.00     0.016 A 
ATOM     27  C   UNL A   1      36.816  30.172  27.312  1.00  0.00     0.016 A 
ATOM     28  C   UNL A   1      37.913  29.317  29.728  1.00  0.00     0.010 A 
ATOM     29  C   UNL A   1      38.141  29.722  27.365  1.00  0.00     0.010 A 
ATOM     30  C   UNL A   1      38.716  29.316  28.583  1.00  0.00    -0.014 A 
BRANCH  30  31
ATOM     31  C   UNL A   1      40.159  28.957  28.676  1.00  0.00     0.031 A 
ATOM     32  C   UNL A   1      41.150  29.965  29.193  1.00  0.00     0.074 A 
ATOM     33  C   UNL A   1      40.594  27.728  28.333  1.00  0.00     0.049 A 
ATOM     34  N   UNL A   1      42.458  29.946  29.142  1.00  0.00    -0.248 NA
ATOM     35  C   UNL A   1      40.593  31.168  29.832  1.00  0.00     0.031 C 
ATOM     36  C   UNL A   1      39.748  26.616  27.897  1.00  0.00     0.029 A 
ATOM     37  N   UNL A   1      41.863  27.201  28.315  1.00  0.00    -0.354 N 
ATOM     38  C   UNL A   1      42.876  31.160  29.674  1.00  0.00     0.074 A 
ATOM     39  C   UNL A   1      41.683  31.891  30.044  1.00  0.00     0.031 C 
ATOM     40  C   UNL A   1      40.511  25.527  27.712  1.00  0.00     0.029 A 
ATOM     41  C   UNL A   1      41.910  25.886  27.921  1.00  0.00     0.049 A 
ATOM     42  H   UNL A   1      42.664  27.719  28.560  1.00  0.00     0.167 HD
ATOM     43  C   UNL A   1      44.141  31.622  29.832  1.00  0.00     0.037 A 
ATOM     44  C   UNL A   1      42.959  25.066  27.713  1.00  0.00     0.037 A 
ATOM     45  C   UNL A   1      45.326  30.858  29.537  1.00  0.00     0.049 A 
ATOM     46  C   UNL A   1      44.354  25.602  27.874  1.00  0.00     0.074 A 
ATOM     47  C   UNL A   1      46.651  31.238  29.658  1.00  0.00     0.029 A 
ATOM     48  N   UNL A   1      45.327  29.543  29.093  1.00  0.00    -0.354 N 
ATOM     49  N   UNL A   1      44.740  26.794  28.257  1.00  0.00    -0.248 NA
ATOM     50  C   UNL A   1      45.457  24.690  27.539  1.00  0.00     0.031 C 
ATOM     51  C   UNL A   1      47.454  30.161  29.265  1.00  0.00     0.029 A 
ATOM     52  C   UNL A   1      46.630  29.098  28.930  1.00  0.00     0.049 A 
ATOM     53  H   UNL A   1      44.522  29.005  28.918  1.00  0.00     0.167 HD
ATOM     54  C   UNL A   1      46.129  26.776  28.212  1.00  0.00     0.074 A 
ATOM     55  C   UNL A   1      46.517  25.449  27.782  1.00  0.00     0.031 C 
ATOM     56  C   UNL A   1      47.003  27.775  28.496  1.00  0.00     0.037 A 
BRANCH  43  57
ATOM     57  C   UNL A   1      44.300  33.043  30.298  1.00  0.00     0.058 A 
ATOM     58  C   UNL A   1      44.555  33.369  31.639  1.00  0.00     0.135 A 
ATOM     59  C   UNL A   1      44.189  34.098  29.376  1.00  0.00     0.135 A 
ATOM     60  F   UNL A   1      44.653  32.402  32.565  1.00  0.00    -0.206 F 
ATOM     61  C   UNL A   1      44.656  34.693  32.057  1.00  0.00     0.059 A 
ATOM     62  C   UNL A   1      44.311  35.427  29.769  1.00  0.00     0.059 A 
ATOM     63  F   UNL A   1      43.948  33.842  28.081  1.00  0.00    -0.206 F 
ATOM     64  C   UNL A   1      44.522  35.716  31.115  1.00  0.00     0.060 A 
BRANCH  64  65
ATOM     65  S   UNL A   1      44.628  37.431  31.669  1.00  0.00     0.124 S 
ATOM     66  O   UNL A   1      45.971  37.469  32.239  1.00  0.00    -0.237 OA
ATOM     67  O   UNL A   1      44.446  38.178  30.428  1.00  0.00    -0.237 OA
ATOM     68  O   UNL A   1      43.534  37.544  32.630  1.00  0.00    -0.744 OA
ENDBRANCH  64  65
ENDBRANCH  43  57
BRANCH  44  69
ATOM     69  C   UNL A   1      42.721  23.659  27.298  1.00  0.00     0.058 A 
ATOM     70  C   UNL A   1      42.722  23.301  25.943  1.00  0.00     0.135 A 
ATOM     71  C   UNL A   1      42.542  22.639  28.244  1.00  0.00     0.135 A 
ATOM     72  F   UNL A   1      42.872  24.243  24.999  1.00  0.00    -0.206 F 
ATOM     73  C   UNL A   1      42.566  21.979  25.539  1.00  0.00     0.059 A 
ATOM     74  C   UNL A   1      42.408  21.307  27.867  1.00  0.00     0.059 A 
ATOM     75  F   UNL A   1      42.539  22.930  29.555  1.00  0.00    -0.206 F 
ATOM     76  C   UNL A   1      42.422  20.987  26.510  1.00  0.00     0.060 A 
BRANCH  76  77
ATOM     77  S   UNL A   1      42.320  19.261  25.986  1.00  0.00     0.124 S 
ATOM     78  O   UNL A   1      42.710  18.560  27.203  1.00  0.00    -0.237 OA
ATOM     79  O   UNL A   1      40.918  19.135  25.599  1.00  0.00    -0.237 OA
ATOM     80  O   UNL A   1      43.274  19.191  24.883  1.00  0.00    -0.744 OA
ENDBRANCH  76  77
ENDBRANCH  44  69
BRANCH  56  81
ATOM     81  C   UNL A   1      48.466  27.462  28.365  1.00  0.00     0.058 A 
ATOM     82  C   UNL A   1      49.193  26.902  29.425  1.00  0.00     0.135 A 
ATOM     83  C   UNL A   1      49.139  27.694  27.155  1.00  0.00     0.135 A 
ATOM     84  F   UNL A   1      48.597  26.669  30.605  1.00  0.00    -0.206 F 
ATOM     85  C   UNL A   1      50.545  26.599  29.298  1.00  0.00     0.059 A 
ATOM     86  C   UNL A   1      50.485  27.382  26.999  1.00  0.00     0.059 A 
ATOM     87  F   UNL A   1      48.485  28.222  26.108  1.00  0.00    -0.206 F 
ATOM     88  C   UNL A   1      51.184  26.845  28.081  1.00  0.00     0.060 A 
BRANCH  88  89
ATOM     89  S   UNL A   1      52.933  26.426  27.916  1.00  0.00     0.124 S 
ATOM     90  O   UNL A   1      52.880  25.301  26.989  1.00  0.00    -0.237 OA
ATOM     91  O   UNL A   1      53.503  27.660  27.384  1.00  0.00    -0.237 OA
ATOM     92  O   UNL A   1      53.333  26.097  29.281  1.00  0.00    -0.744 OA
ENDBRANCH  88  89
ENDBRANCH  56  81
ENDBRANCH  30  31
ENDBRANCH  23  25
ENDBRANCH  22  23
ENDBRANCH   1  22
TORSDOF 16
ENDMDL
