MODEL 1
REMARK VINA RESULT:     -11.6      0.000      0.000
REMARK SMILES C[C@@H](C(=O)OCCOC(=O)c1ccc(-c2c3nc(c(-c4c(F)cc(S(=O)(=O)[O-])cc4F)c4ccc([nH]4)c(-c4c(F)cc(S(=O)(=O)[O-])cc4F)c4nc(c(-c5c(F)cc(S(=O)(=O)[O-])cc5F)c5ccc2[nH]5)C=C4)C=C3)cc1)c1ccc(Cc2ccco2)cc1F
REMARK SMILES IDX 6 1 5 2 3 3 4 4 2 5 1 6 77 7 78 8 88 9 79 10 87 11 89 12
REMARK SMILES IDX 80 13 81 14 82 15 83 16 86 17 84 18 85 19 7 20 8 21 9 22
REMARK SMILES IDX 10 23 11 24 12 25 76 26 13 27 75 28 14 29 15 30 16 31 69 32
REMARK SMILES IDX 17 33 74 34 68 35 70 36 18 37 73 38 67 39 66 40 19 42 53 43
REMARK SMILES IDX 32 44 52 45 33 46 36 47 51 48 71 49 34 50 35 51 50 53 72 54
REMARK SMILES IDX 37 55 20 56 21 57 30 58 22 59 23 60 29 61 31 62 24 63 25 64
REMARK SMILES IDX 26 65 27 66 28 67 54 68 55 69 64 70 56 71 57 72 63 73 65 74
REMARK SMILES IDX 58 75 59 76 60 77 61 78 62 79 38 80 39 81 48 82 40 83 41 84
REMARK SMILES IDX 47 85 49 86 42 87 43 88 44 89 45 90 46 91
REMARK H PARENT 70 41 36 52
REMARK Flexibility Score: inf
ROOT
ATOM      1  C   UNL A   1      33.089  30.106  26.884  1.00  0.00     0.274 C 
ENDROOT
BRANCH   1   2
ATOM      2  O   UNL A   1      33.386  28.699  27.003  1.00  0.00    -0.462 OA
BRANCH   2   3
ATOM      3  C   UNL A   1      32.327  27.845  27.076  1.00  0.00     0.313 C 
ATOM      4  O   UNL A   1      31.512  27.840  27.992  1.00  0.00    -0.252 OA
BRANCH   3   5
ATOM      5  C   UNL A   1      32.296  26.859  25.900  1.00  0.00     0.129 C 
ATOM      6  C   UNL A   1      33.650  26.655  25.216  1.00  0.00     0.025 C 
BRANCH   5   7
ATOM      7  C   UNL A   1      31.243  27.263  24.883  1.00  0.00     0.002 A 
ATOM      8  C   UNL A   1      31.425  28.382  24.059  1.00  0.00     0.008 A 
ATOM      9  C   UNL A   1      30.043  26.555  24.776  1.00  0.00     0.127 A 
ATOM     10  C   UNL A   1      30.401  28.820  23.218  1.00  0.00     0.005 A 
ATOM     11  C   UNL A   1      29.015  26.988  23.939  1.00  0.00     0.043 A 
ATOM     12  F   UNL A   1      29.858  25.441  25.498  1.00  0.00    -0.207 F 
ATOM     13  C   UNL A   1      29.173  28.150  23.175  1.00  0.00    -0.038 A 
BRANCH  13  14
ATOM     14  C   UNL A   1      28.023  28.722  22.376  1.00  0.00     0.111 C 
BRANCH  14  15
ATOM     15  C   UNL A   1      28.024  30.213  22.318  1.00  0.00     0.108 A 
ATOM     16  C   UNL A   1      27.869  31.225  23.246  1.00  0.00     0.046 A 
ATOM     17  O   UNL A   1      28.249  30.753  21.085  1.00  0.00    -0.469 OA
ATOM     18  C   UNL A   1      28.030  32.444  22.546  1.00  0.00     0.042 A 
ATOM     19  C   UNL A   1      28.254  32.102  21.235  1.00  0.00     0.195 A 
ENDBRANCH  14  15
ENDBRANCH  13  14
ENDBRANCH   5   7
ENDBRANCH   3   5
ENDBRANCH   2   3
ENDBRANCH   1   2
BRANCH   1  20
ATOM     20  C   UNL A   1      34.125  30.910  27.664  1.00  0.00     0.275 C 
BRANCH  20  21
ATOM     21  O   UNL A   1      34.908  30.002  28.458  1.00  0.00    -0.458 OA
BRANCH  21  22
ATOM     22  C   UNL A   1      35.913  30.550  29.181  1.00  0.00     0.338 C 
ATOM     23  O   UNL A   1      35.807  31.443  30.004  1.00  0.00    -0.246 OA
BRANCH  22  24
ATOM     24  C   UNL A   1      37.202  29.891  28.842  1.00  0.00     0.060 A 
ATOM     25  C   UNL A   1      37.965  29.250  29.818  1.00  0.00     0.016 A 
ATOM     26  C   UNL A   1      37.700  29.988  27.538  1.00  0.00     0.016 A 
ATOM     27  C   UNL A   1      39.255  28.809  29.510  1.00  0.00     0.010 A 
ATOM     28  C   UNL A   1      38.966  29.467  27.219  1.00  0.00     0.010 A 
ATOM     29  C   UNL A   1      39.788  28.916  28.214  1.00  0.00    -0.014 A 
BRANCH  29  30
ATOM     30  C   UNL A   1      41.218  28.542  27.953  1.00  0.00     0.031 A 
ATOM     31  C   UNL A   1      42.346  29.486  28.317  1.00  0.00     0.074 A 
ATOM     32  C   UNL A   1      41.541  27.319  27.475  1.00  0.00     0.049 A 
ATOM     33  N   UNL A   1      43.625  29.385  28.047  1.00  0.00    -0.248 NA
ATOM     34  C   UNL A   1      41.996  30.709  29.057  1.00  0.00     0.031 C 
ATOM     35  C   UNL A   1      40.584  26.274  27.109  1.00  0.00     0.029 A 
ATOM     36  N   UNL A   1      42.764  26.717  27.285  1.00  0.00    -0.354 N 
ATOM     37  C   UNL A   1      44.203  30.578  28.466  1.00  0.00     0.074 A 
ATOM     38  C   UNL A   1      43.150  31.365  29.068  1.00  0.00     0.031 C 
ATOM     39  C   UNL A   1      41.245  25.123  26.907  1.00  0.00     0.029 A 
ATOM     40  C   UNL A   1      42.679  25.370  27.009  1.00  0.00     0.049 A 
ATOM     41  H   UNL A   1      43.617  27.204  27.340  1.00  0.00     0.167 HD
ATOM     42  C   UNL A   1      45.486  30.992  28.324  1.00  0.00     0.037 A 
ATOM     43  C   UNL A   1      43.645  24.440  26.857  1.00  0.00     0.037 A 
ATOM     44  C   UNL A   1      46.554  30.164  27.823  1.00  0.00     0.049 A 
ATOM     45  C   UNL A   1      45.085  24.879  26.840  1.00  0.00     0.074 A 
ATOM     46  C   UNL A   1      47.871  30.508  27.566  1.00  0.00     0.029 A 
ATOM     47  N   UNL A   1      46.437  28.810  27.550  1.00  0.00    -0.354 N 
ATOM     48  N   UNL A   1      45.588  26.067  27.071  1.00  0.00    -0.248 NA
ATOM     49  C   UNL A   1      46.082  23.861  26.474  1.00  0.00     0.031 C 
ATOM     50  C   UNL A   1      48.547  29.363  27.127  1.00  0.00     0.029 A 
ATOM     51  C   UNL A   1      47.657  28.302  27.137  1.00  0.00     0.049 A 
ATOM     52  H   UNL A   1      45.608  28.286  27.639  1.00  0.00     0.167 HD
ATOM     53  C   UNL A   1      46.952  25.950  26.826  1.00  0.00     0.074 A 
ATOM     54  C   UNL A   1      47.207  24.561  26.510  1.00  0.00     0.031 C 
ATOM     55  C   UNL A   1      47.897  26.922  26.810  1.00  0.00     0.037 A 
BRANCH  42  56
ATOM     56  C   UNL A   1      45.793  32.433  28.623  1.00  0.00     0.058 A 
ATOM     57  C   UNL A   1      46.282  32.867  29.862  1.00  0.00     0.135 A 
ATOM     58  C   UNL A   1      45.621  33.395  27.612  1.00  0.00     0.135 A 
ATOM     59  F   UNL A   1      46.445  31.993  30.867  1.00  0.00    -0.206 F 
ATOM     60  C   UNL A   1      46.569  34.210  30.097  1.00  0.00     0.059 A 
ATOM     61  C   UNL A   1      45.921  34.737  27.817  1.00  0.00     0.059 A 
ATOM     62  F   UNL A   1      45.156  33.032  26.407  1.00  0.00    -0.206 F 
ATOM     63  C   UNL A   1      46.382  35.138  29.070  1.00  0.00     0.060 A 
BRANCH  63  64
ATOM     64  S   UNL A   1      46.752  36.878  29.382  1.00  0.00     0.124 S 
ATOM     65  O   UNL A   1      48.211  36.859  29.433  1.00  0.00    -0.237 OA
ATOM     66  O   UNL A   1      46.168  37.539  28.219  1.00  0.00    -0.237 OA
ATOM     67  O   UNL A   1      46.082  37.145  30.651  1.00  0.00    -0.744 OA
ENDBRANCH  63  64
ENDBRANCH  42  56
BRANCH  43  68
ATOM     68  C   UNL A   1      43.298  22.999  26.708  1.00  0.00     0.058 A 
ATOM     69  C   UNL A   1      43.384  22.382  25.448  1.00  0.00     0.135 A 
ATOM     70  C   UNL A   1      42.887  22.206  27.788  1.00  0.00     0.135 A 
ATOM     71  F   UNL A   1      43.730  23.104  24.371  1.00  0.00    -0.206 F 
ATOM     72  C   UNL A   1      43.098  21.034  25.268  1.00  0.00     0.059 A 
ATOM     73  C   UNL A   1      42.619  20.849  27.639  1.00  0.00     0.059 A 
ATOM     74  F   UNL A   1      42.772  22.742  29.013  1.00  0.00    -0.206 F 
ATOM     75  C   UNL A   1      42.723  20.272  26.374  1.00  0.00     0.060 A 
BRANCH  75  76
ATOM     76  S   UNL A   1      42.434  18.501  26.166  1.00  0.00     0.124 S 
ATOM     77  O   UNL A   1      42.723  18.000  27.504  1.00  0.00    -0.237 OA
ATOM     78  O   UNL A   1      41.034  18.455  25.754  1.00  0.00    -0.237 OA
ATOM     79  O   UNL A   1      43.393  18.136  25.128  1.00  0.00    -0.744 OA
ENDBRANCH  75  76
ENDBRANCH  43  68
BRANCH  55  80
ATOM     80  C   UNL A   1      49.278  26.524  26.375  1.00  0.00     0.058 A 
ATOM     81  C   UNL A   1      49.672  26.660  25.033  1.00  0.00     0.135 A 
ATOM     82  C   UNL A   1      50.224  26.049  27.294  1.00  0.00     0.135 A 
ATOM     83  F   UNL A   1      48.801  27.107  24.115  1.00  0.00    -0.206 F 
ATOM     84  C   UNL A   1      50.951  26.315  24.613  1.00  0.00     0.059 A 
ATOM     85  C   UNL A   1      51.517  25.716  26.900  1.00  0.00     0.059 A 
ATOM     86  F   UNL A   1      49.898  25.911  28.589  1.00  0.00    -0.206 F 
ATOM     87  C   UNL A   1      51.868  25.842  25.554  1.00  0.00     0.060 A 
BRANCH  87  88
ATOM     88  S   UNL A   1      53.535  25.426  25.001  1.00  0.00     0.124 S 
ATOM     89  O   UNL A   1      53.593  26.101  23.709  1.00  0.00    -0.237 OA
ATOM     90  O   UNL A   1      54.369  26.000  26.053  1.00  0.00    -0.237 OA
ATOM     91  O   UNL A   1      53.520  23.968  24.948  1.00  0.00    -0.744 OA
ENDBRANCH  87  88
ENDBRANCH  55  80
ENDBRANCH  29  30
ENDBRANCH  22  24
ENDBRANCH  21  22
ENDBRANCH  20  21
ENDBRANCH   1  20
TORSDOF 17
ENDMDL
MODEL 2
REMARK VINA RESULT:     -11.5      7.332     12.744
REMARK SMILES C[C@@H](C(=O)OCCOC(=O)c1ccc(-c2c3nc(c(-c4c(F)cc(S(=O)(=O)[O-])cc4F)c4ccc([nH]4)c(-c4c(F)cc(S(=O)(=O)[O-])cc4F)c4nc(c(-c5c(F)cc(S(=O)(=O)[O-])cc5F)c5ccc2[nH]5)C=C4)C=C3)cc1)c1ccc(Cc2ccco2)cc1F
REMARK SMILES IDX 6 1 5 2 3 3 4 4 2 5 1 6 77 7 78 8 88 9 79 10 87 11 89 12
REMARK SMILES IDX 80 13 81 14 82 15 83 16 86 17 84 18 85 19 7 20 8 21 9 22
REMARK SMILES IDX 10 23 11 24 12 25 76 26 13 27 75 28 14 29 15 30 16 31 69 32
REMARK SMILES IDX 17 33 74 34 68 35 70 36 18 37 73 38 67 39 66 40 19 42 53 43
REMARK SMILES IDX 32 44 52 45 33 46 36 47 51 48 71 49 34 50 35 51 50 53 72 54
REMARK SMILES IDX 37 55 20 56 21 57 30 58 22 59 23 60 29 61 31 62 24 63 25 64
REMARK SMILES IDX 26 65 27 66 28 67 54 68 55 69 64 70 56 71 57 72 63 73 65 74
REMARK SMILES IDX 58 75 59 76 60 77 61 78 62 79 38 80 39 81 48 82 40 83 41 84
REMARK SMILES IDX 47 85 49 86 42 87 43 88 44 89 45 90 46 91
REMARK H PARENT 70 41 36 52
REMARK Flexibility Score: inf
ROOT
ATOM      1  C   UNL A   1      37.756  22.193  25.376  1.00  0.00     0.274 C 
ENDROOT
BRANCH   1   2
ATOM      2  O   UNL A   1      37.093  23.424  25.019  1.00  0.00    -0.462 OA
BRANCH   2   3
ATOM      3  C   UNL A   1      36.338  23.416  23.886  1.00  0.00     0.313 C 
ATOM      4  O   UNL A   1      36.788  23.219  22.763  1.00  0.00    -0.252 OA
BRANCH   3   5
ATOM      5  C   UNL A   1      34.861  23.725  24.172  1.00  0.00     0.129 C 
ATOM      6  C   UNL A   1      34.611  24.395  25.525  1.00  0.00     0.025 C 
BRANCH   5   7
ATOM      7  C   UNL A   1      34.010  22.475  24.033  1.00  0.00     0.002 A 
ATOM      8  C   UNL A   1      34.232  21.355  24.845  1.00  0.00     0.008 A 
ATOM      9  C   UNL A   1      33.013  22.394  23.057  1.00  0.00     0.127 A 
ATOM     10  C   UNL A   1      33.531  20.168  24.626  1.00  0.00     0.005 A 
ATOM     11  C   UNL A   1      32.310  21.211  22.832  1.00  0.00     0.043 A 
ATOM     12  F   UNL A   1      32.725  23.466  22.306  1.00  0.00    -0.207 F 
ATOM     13  C   UNL A   1      32.589  20.072  23.595  1.00  0.00    -0.038 A 
BRANCH  13  14
ATOM     14  C   UNL A   1      31.950  18.739  23.273  1.00  0.00     0.111 C 
BRANCH  14  15
ATOM     15  C   UNL A   1      32.583  17.590  23.982  1.00  0.00     0.108 A 
ATOM     16  C   UNL A   1      33.668  16.769  23.734  1.00  0.00     0.046 A 
ATOM     17  O   UNL A   1      32.009  17.241  25.169  1.00  0.00    -0.469 OA
ATOM     18  C   UNL A   1      33.771  15.890  24.838  1.00  0.00     0.042 A 
ATOM     19  C   UNL A   1      32.736  16.216  25.680  1.00  0.00     0.195 A 
ENDBRANCH  14  15
ENDBRANCH  13  14
ENDBRANCH   5   7
ENDBRANCH   3   5
ENDBRANCH   2   3
ENDBRANCH   1   2
BRANCH   1  20
ATOM     20  C   UNL A   1      38.982  22.507  26.229  1.00  0.00     0.275 C 
BRANCH  20  21
ATOM     21  O   UNL A   1      39.270  23.911  26.120  1.00  0.00    -0.458 OA
BRANCH  21  22
ATOM     22  C   UNL A   1      40.438  24.329  26.663  1.00  0.00     0.338 C 
ATOM     23  O   UNL A   1      41.545  23.874  26.433  1.00  0.00    -0.246 OA
BRANCH  22  24
ATOM     24  C   UNL A   1      40.190  25.461  27.594  1.00  0.00     0.060 A 
ATOM     25  C   UNL A   1      40.881  26.666  27.468  1.00  0.00     0.016 A 
ATOM     26  C   UNL A   1      39.311  25.286  28.668  1.00  0.00     0.016 A 
ATOM     27  C   UNL A   1      40.769  27.637  28.466  1.00  0.00     0.010 A 
ATOM     28  C   UNL A   1      39.142  26.303  29.623  1.00  0.00     0.010 A 
ATOM     29  C   UNL A   1      39.910  27.476  29.568  1.00  0.00    -0.014 A 
BRANCH  29  30
ATOM     30  C   UNL A   1      39.909  28.487  30.678  1.00  0.00     0.031 A 
ATOM     31  C   UNL A   1      41.070  28.576  31.647  1.00  0.00     0.074 A 
ATOM     32  C   UNL A   1      38.919  29.401  30.783  1.00  0.00     0.049 A 
ATOM     33  N   UNL A   1      41.179  29.295  32.737  1.00  0.00    -0.248 NA
ATOM     34  C   UNL A   1      42.249  27.738  31.375  1.00  0.00     0.031 C 
ATOM     35  C   UNL A   1      37.746  29.485  29.912  1.00  0.00     0.029 A 
ATOM     36  N   UNL A   1      38.775  30.484  31.620  1.00  0.00    -0.354 N 
ATOM     37  C   UNL A   1      42.369  28.903  33.340  1.00  0.00     0.074 A 
ATOM     38  C   UNL A   1      42.982  27.929  32.464  1.00  0.00     0.031 C 
ATOM     39  C   UNL A   1      37.105  30.641  30.145  1.00  0.00     0.029 A 
ATOM     40  C   UNL A   1      37.745  31.327  31.262  1.00  0.00     0.049 A 
ATOM     41  H   UNL A   1      39.354  30.641  32.401  1.00  0.00     0.167 HD
ATOM     42  C   UNL A   1      42.882  29.293  34.533  1.00  0.00     0.037 A 
ATOM     43  C   UNL A   1      37.361  32.515  31.774  1.00  0.00     0.037 A 
ATOM     44  C   UNL A   1      42.325  30.341  35.351  1.00  0.00     0.049 A 
ATOM     45  C   UNL A   1      38.028  33.020  33.025  1.00  0.00     0.074 A 
ATOM     46  C   UNL A   1      42.720  30.761  36.611  1.00  0.00     0.029 A 
ATOM     47  N   UNL A   1      41.284  31.171  34.964  1.00  0.00    -0.354 N 
ATOM     48  N   UNL A   1      39.052  32.522  33.674  1.00  0.00    -0.248 NA
ATOM     49  C   UNL A   1      37.440  34.215  33.650  1.00  0.00     0.031 C 
ATOM     50  C   UNL A   1      41.908  31.837  36.990  1.00  0.00     0.029 A 
ATOM     51  C   UNL A   1      41.028  32.104  35.954  1.00  0.00     0.049 A 
ATOM     52  H   UNL A   1      40.799  31.106  34.109  1.00  0.00     0.167 HD
ATOM     53  C   UNL A   1      39.195  33.311  34.810  1.00  0.00     0.074 A 
ATOM     54  C   UNL A   1      38.209  34.366  34.719  1.00  0.00     0.031 C 
ATOM     55  C   UNL A   1      40.034  33.140  35.861  1.00  0.00     0.037 A 
BRANCH  42  56
ATOM     56  C   UNL A   1      44.049  28.519  35.079  1.00  0.00     0.058 A 
ATOM     57  C   UNL A   1      45.379  28.924  34.906  1.00  0.00     0.135 A 
ATOM     58  C   UNL A   1      43.810  27.353  35.829  1.00  0.00     0.135 A 
ATOM     59  F   UNL A   1      45.664  30.017  34.183  1.00  0.00    -0.206 F 
ATOM     60  C   UNL A   1      46.436  28.187  35.440  1.00  0.00     0.059 A 
ATOM     61  C   UNL A   1      44.847  26.614  36.388  1.00  0.00     0.059 A 
ATOM     62  F   UNL A   1      42.554  26.922  36.024  1.00  0.00    -0.206 F 
ATOM     63  C   UNL A   1      46.159  27.032  36.176  1.00  0.00     0.060 A 
BRANCH  63  64
ATOM     64  S   UNL A   1      47.532  26.080  36.862  1.00  0.00     0.124 S 
ATOM     65  O   UNL A   1      46.862  24.840  37.243  1.00  0.00    -0.237 OA
ATOM     66  O   UNL A   1      48.446  25.983  35.729  1.00  0.00    -0.237 OA
ATOM     67  O   UNL A   1      47.999  26.907  37.969  1.00  0.00    -0.744 OA
ENDBRANCH  63  64
ENDBRANCH  42  56
BRANCH  43  68
ATOM     68  C   UNL A   1      36.295  33.318  31.114  1.00  0.00     0.058 A 
ATOM     69  C   UNL A   1      36.568  34.000  29.917  1.00  0.00     0.135 A 
ATOM     70  C   UNL A   1      34.998  33.426  31.637  1.00  0.00     0.135 A 
ATOM     71  F   UNL A   1      37.803  33.967  29.394  1.00  0.00    -0.206 F 
ATOM     72  C   UNL A   1      35.595  34.738  29.252  1.00  0.00     0.059 A 
ATOM     73  C   UNL A   1      34.001  34.138  30.978  1.00  0.00     0.059 A 
ATOM     74  F   UNL A   1      34.681  32.810  32.786  1.00  0.00    -0.206 F 
ATOM     75  C   UNL A   1      34.310  34.795  29.788  1.00  0.00     0.060 A 
BRANCH  75  76
ATOM     76  S   UNL A   1      33.018  35.678  28.887  1.00  0.00     0.124 S 
ATOM     77  O   UNL A   1      33.798  36.659  28.143  1.00  0.00    -0.237 OA
ATOM     78  O   UNL A   1      32.401  34.617  28.096  1.00  0.00    -0.237 OA
ATOM     79  O   UNL A   1      32.182  36.211  29.959  1.00  0.00    -0.744 OA
ENDBRANCH  75  76
ENDBRANCH  43  68
BRANCH  55  80
ATOM     80  C   UNL A   1      39.874  34.077  37.023  1.00  0.00     0.058 A 
ATOM     81  C   UNL A   1      40.505  35.332  37.023  1.00  0.00     0.135 A 
ATOM     82  C   UNL A   1      39.060  33.749  38.117  1.00  0.00     0.135 A 
ATOM     83  F   UNL A   1      41.296  35.690  35.999  1.00  0.00    -0.206 F 
ATOM     84  C   UNL A   1      40.354  36.221  38.080  1.00  0.00     0.059 A 
ATOM     85  C   UNL A   1      38.880  34.633  39.178  1.00  0.00     0.059 A 
ATOM     86  F   UNL A   1      38.428  32.566  38.160  1.00  0.00    -0.206 F 
ATOM     87  C   UNL A   1      39.540  35.862  39.155  1.00  0.00     0.060 A 
BRANCH  87  88
ATOM     88  S   UNL A   1      39.329  37.038  40.508  1.00  0.00     0.124 S 
ATOM     89  O   UNL A   1      38.570  36.246  41.470  1.00  0.00    -0.237 OA
ATOM     90  O   UNL A   1      40.708  37.339  40.884  1.00  0.00    -0.237 OA
ATOM     91  O   UNL A   1      38.601  38.141  39.888  1.00  0.00    -0.744 OA
ENDBRANCH  87  88
ENDBRANCH  55  80
ENDBRANCH  29  30
ENDBRANCH  22  24
ENDBRANCH  21  22
ENDBRANCH  20  21
ENDBRANCH   1  20
TORSDOF 17
ENDMDL
MODEL 3
REMARK VINA RESULT:     -11.2      6.776     12.199
REMARK SMILES C[C@@H](C(=O)OCCOC(=O)c1ccc(-c2c3nc(c(-c4c(F)cc(S(=O)(=O)[O-])cc4F)c4ccc([nH]4)c(-c4c(F)cc(S(=O)(=O)[O-])cc4F)c4nc(c(-c5c(F)cc(S(=O)(=O)[O-])cc5F)c5ccc2[nH]5)C=C4)C=C3)cc1)c1ccc(Cc2ccco2)cc1F
REMARK SMILES IDX 6 1 5 2 3 3 4 4 2 5 1 6 77 7 78 8 88 9 79 10 87 11 89 12
REMARK SMILES IDX 80 13 81 14 82 15 83 16 86 17 84 18 85 19 7 20 8 21 9 22
REMARK SMILES IDX 10 23 11 24 12 25 76 26 13 27 75 28 14 29 15 30 16 31 69 32
REMARK SMILES IDX 17 33 74 34 68 35 70 36 18 37 73 38 67 39 66 40 19 42 53 43
REMARK SMILES IDX 32 44 52 45 33 46 36 47 51 48 71 49 34 50 35 51 50 53 72 54
REMARK SMILES IDX 37 55 20 56 21 57 30 58 22 59 23 60 29 61 31 62 24 63 25 64
REMARK SMILES IDX 26 65 27 66 28 67 54 68 55 69 64 70 56 71 57 72 63 73 65 74
REMARK SMILES IDX 58 75 59 76 60 77 61 78 62 79 38 80 39 81 48 82 40 83 41 84
REMARK SMILES IDX 47 85 49 86 42 87 43 88 44 89 45 90 46 91
REMARK H PARENT 70 41 36 52
REMARK Flexibility Score: inf
ROOT
ATOM      1  C   UNL A   1      38.682  21.394  25.966  1.00  0.00     0.274 C 
ENDROOT
BRANCH   1   2
ATOM      2  O   UNL A   1      37.802  22.241  25.198  1.00  0.00    -0.462 OA
BRANCH   2   3
ATOM      3  C   UNL A   1      36.466  22.002  25.301  1.00  0.00     0.313 C 
ATOM      4  O   UNL A   1      35.945  21.415  26.243  1.00  0.00    -0.252 OA
BRANCH   3   5
ATOM      5  C   UNL A   1      35.690  22.513  24.079  1.00  0.00     0.129 C 
ATOM      6  C   UNL A   1      36.567  23.151  23.000  1.00  0.00     0.025 C 
BRANCH   5   7
ATOM      7  C   UNL A   1      34.587  23.469  24.501  1.00  0.00     0.002 A 
ATOM      8  C   UNL A   1      34.878  24.641  25.211  1.00  0.00     0.008 A 
ATOM      9  C   UNL A   1      33.247  23.179  24.230  1.00  0.00     0.127 A 
ATOM     10  C   UNL A   1      33.851  25.448  25.703  1.00  0.00     0.005 A 
ATOM     11  C   UNL A   1      32.216  23.980  24.720  1.00  0.00     0.043 A 
ATOM     12  F   UNL A   1      32.931  22.103  23.495  1.00  0.00    -0.207 F 
ATOM     13  C   UNL A   1      32.510  25.108  25.495  1.00  0.00    -0.038 A 
BRANCH  13  14
ATOM     14  C   UNL A   1      31.411  25.906  26.161  1.00  0.00     0.111 C 
BRANCH  14  15
ATOM     15  C   UNL A   1      31.448  27.359  25.828  1.00  0.00     0.108 A 
ATOM     16  C   UNL A   1      31.782  28.509  26.518  1.00  0.00     0.046 A 
ATOM     17  O   UNL A   1      31.098  27.679  24.549  1.00  0.00    -0.469 OA
ATOM     18  C   UNL A   1      31.651  29.582  25.605  1.00  0.00     0.042 A 
ATOM     19  C   UNL A   1      31.229  29.024  24.423  1.00  0.00     0.195 A 
ENDBRANCH  14  15
ENDBRANCH  13  14
ENDBRANCH   5   7
ENDBRANCH   3   5
ENDBRANCH   2   3
ENDBRANCH   1   2
BRANCH   1  20
ATOM     20  C   UNL A   1      40.007  22.116  26.196  1.00  0.00     0.275 C 
BRANCH  20  21
ATOM     21  O   UNL A   1      39.730  23.481  26.550  1.00  0.00    -0.458 OA
BRANCH  21  22
ATOM     22  C   UNL A   1      40.795  24.316  26.605  1.00  0.00     0.338 C 
ATOM     23  O   UNL A   1      41.843  24.190  25.996  1.00  0.00    -0.246 OA
BRANCH  22  24
ATOM     24  C   UNL A   1      40.506  25.449  27.522  1.00  0.00     0.060 A 
ATOM     25  C   UNL A   1      41.242  26.632  27.465  1.00  0.00     0.016 A 
ATOM     26  C   UNL A   1      39.535  25.296  28.519  1.00  0.00     0.016 A 
ATOM     27  C   UNL A   1      41.078  27.601  28.458  1.00  0.00     0.010 A 
ATOM     28  C   UNL A   1      39.320  26.312  29.465  1.00  0.00     0.010 A 
ATOM     29  C   UNL A   1      40.127  27.460  29.484  1.00  0.00    -0.014 A 
BRANCH  29  30
ATOM     30  C   UNL A   1      40.064  28.464  30.598  1.00  0.00     0.031 A 
ATOM     31  C   UNL A   1      41.188  28.571  31.609  1.00  0.00     0.074 A 
ATOM     32  C   UNL A   1      39.052  29.357  30.674  1.00  0.00     0.049 A 
ATOM     33  N   UNL A   1      41.244  29.286  32.706  1.00  0.00    -0.248 NA
ATOM     34  C   UNL A   1      42.393  27.760  31.374  1.00  0.00     0.031 C 
ATOM     35  C   UNL A   1      37.910  29.422  29.761  1.00  0.00     0.029 A 
ATOM     36  N   UNL A   1      38.857  30.432  31.511  1.00  0.00    -0.354 N 
ATOM     37  C   UNL A   1      42.419  28.914  33.349  1.00  0.00     0.074 A 
ATOM     38  C   UNL A   1      43.083  27.959  32.490  1.00  0.00     0.031 C 
ATOM     39  C   UNL A   1      37.237  30.563  29.978  1.00  0.00     0.029 A 
ATOM     40  C   UNL A   1      37.823  31.255  31.121  1.00  0.00     0.049 A 
ATOM     41  H   UNL A   1      39.403  30.595  32.313  1.00  0.00     0.167 HD
ATOM     42  C   UNL A   1      42.881  29.307  34.562  1.00  0.00     0.037 A 
ATOM     43  C   UNL A   1      37.396  32.431  31.625  1.00  0.00     0.037 A 
ATOM     44  C   UNL A   1      42.274  30.339  35.365  1.00  0.00     0.049 A 
ATOM     45  C   UNL A   1      38.007  32.943  32.902  1.00  0.00     0.074 A 
ATOM     46  C   UNL A   1      42.615  30.759  36.640  1.00  0.00     0.029 A 
ATOM     47  N   UNL A   1      41.230  31.149  34.946  1.00  0.00    -0.354 N 
ATOM     48  N   UNL A   1      39.017  32.462  33.585  1.00  0.00    -0.248 NA
ATOM     49  C   UNL A   1      37.372  34.122  33.513  1.00  0.00     0.031 C 
ATOM     50  C   UNL A   1      41.767  31.815  36.996  1.00  0.00     0.029 A 
ATOM     51  C   UNL A   1      40.920  32.070  35.932  1.00  0.00     0.049 A 
ATOM     52  H   UNL A   1      40.777  31.080  34.074  1.00  0.00     0.167 HD
ATOM     53  C   UNL A   1      39.104  33.246  34.729  1.00  0.00     0.074 A 
ATOM     54  C   UNL A   1      38.100  34.282  34.609  1.00  0.00     0.031 C 
ATOM     55  C   UNL A   1      39.908  33.087  35.809  1.00  0.00     0.037 A 
BRANCH  42  56
ATOM     56  C   UNL A   1      44.044  28.555  35.145  1.00  0.00     0.058 A 
ATOM     57  C   UNL A   1      43.895  27.371  35.880  1.00  0.00     0.135 A 
ATOM     58  C   UNL A   1      45.350  29.028  34.921  1.00  0.00     0.135 A 
ATOM     59  F   UNL A   1      42.671  26.887  36.140  1.00  0.00    -0.206 F 
ATOM     60  C   UNL A   1      44.999  26.693  36.393  1.00  0.00     0.059 A 
ATOM     61  C   UNL A   1      46.467  28.356  35.405  1.00  0.00     0.059 A 
ATOM     62  F   UNL A   1      45.548  30.157  34.223  1.00  0.00    -0.206 F 
ATOM     63  C   UNL A   1      46.281  27.195  36.153  1.00  0.00     0.060 A 
BRANCH  63  64
ATOM     64  S   UNL A   1      47.707  26.314  36.823  1.00  0.00     0.124 S 
ATOM     65  O   UNL A   1      48.465  26.024  35.610  1.00  0.00    -0.237 OA
ATOM     66  O   UNL A   1      48.298  27.304  37.718  1.00  0.00    -0.237 OA
ATOM     67  O   UNL A   1      47.112  25.156  37.483  1.00  0.00    -0.744 OA
ENDBRANCH  63  64
ENDBRANCH  42  56
BRANCH  43  68
ATOM     68  C   UNL A   1      36.337  33.217  30.933  1.00  0.00     0.058 A 
ATOM     69  C   UNL A   1      35.040  33.275  31.470  1.00  0.00     0.135 A 
ATOM     70  C   UNL A   1      36.576  33.924  29.746  1.00  0.00     0.135 A 
ATOM     71  F   UNL A   1      34.744  32.583  32.581  1.00  0.00    -0.206 F 
ATOM     72  C   UNL A   1      34.029  34.020  30.874  1.00  0.00     0.059 A 
ATOM     73  C   UNL A   1      35.587  34.696  29.142  1.00  0.00     0.059 A 
ATOM     74  F   UNL A   1      37.790  33.894  29.176  1.00  0.00    -0.206 F 
ATOM     75  C   UNL A   1      34.315  34.735  29.712  1.00  0.00     0.060 A 
BRANCH  75  76
ATOM     76  S   UNL A   1      33.033  35.773  28.978  1.00  0.00     0.124 S 
ATOM     77  O   UNL A   1      32.351  34.823  28.107  1.00  0.00    -0.237 OA
ATOM     78  O   UNL A   1      32.282  36.223  30.146  1.00  0.00    -0.237 OA
ATOM     79  O   UNL A   1      33.805  36.813  28.305  1.00  0.00    -0.744 OA
ENDBRANCH  75  76
ENDBRANCH  43  68
BRANCH  55  80
ATOM     80  C   UNL A   1      39.687  34.013  36.969  1.00  0.00     0.058 A 
ATOM     81  C   UNL A   1      38.881  33.624  38.052  1.00  0.00     0.135 A 
ATOM     82  C   UNL A   1      40.308  35.269  37.028  1.00  0.00     0.135 A 
ATOM     83  F   UNL A   1      38.263  32.433  38.040  1.00  0.00    -0.206 F 
ATOM     84  C   UNL A   1      38.678  34.460  39.144  1.00  0.00     0.059 A 
ATOM     85  C   UNL A   1      40.135  36.114  38.121  1.00  0.00     0.059 A 
ATOM     86  F   UNL A   1      41.095  35.682  36.022  1.00  0.00    -0.206 F 
ATOM     87  C   UNL A   1      39.308  35.705  39.169  1.00  0.00     0.060 A 
BRANCH  87  88
ATOM     88  S   UNL A   1      39.061  36.768  40.607  1.00  0.00     0.124 S 
ATOM     89  O   UNL A   1      38.273  35.903  41.479  1.00  0.00    -0.237 OA
ATOM     90  O   UNL A   1      40.429  37.031  41.044  1.00  0.00    -0.237 OA
ATOM     91  O   UNL A   1      38.352  37.920  40.058  1.00  0.00    -0.744 OA
ENDBRANCH  87  88
ENDBRANCH  55  80
ENDBRANCH  29  30
ENDBRANCH  22  24
ENDBRANCH  21  22
ENDBRANCH  20  21
ENDBRANCH   1  20
TORSDOF 17
ENDMDL
