MODEL 1
REMARK VINA RESULT:     -11.8      0.000      0.000
REMARK SMILES CCc1c(Cl)ccc2c1C=C(C(=O)OCCOC(=O)c1ccc(-c3c4nc(c(-c5c(F)cc(S(=O)(=O)[O-])cc5F)c5ccc([nH]5)c(-c5c(F)cc(S(=O)(=O)[O-])cc5F)c5nc(c(-c6c(F)cc(S(=O)(=O)[O-])cc6F)c6ccc3[nH]6)C=C5)C=C4)cc1)[C@@H](C(F)(F)F)O2
REMARK SMILES IDX 16 1 15 2 14 3 12 4 13 5 11 6 3 7 4 8 9 9 5 10 6 11 8 12
REMARK SMILES IDX 10 13 7 14 91 15 86 16 2 17 1 18 87 19 88 20 89 21 90 22
REMARK SMILES IDX 17 23 18 24 19 25 20 26 21 27 85 28 22 29 84 30 23 31 24 32
REMARK SMILES IDX 25 33 78 34 26 35 83 36 77 37 79 38 27 39 82 40 76 41 75 42
REMARK SMILES IDX 28 44 62 45 41 46 61 47 42 48 45 49 60 50 80 51 43 52 44 53
REMARK SMILES IDX 59 55 81 56 46 57 29 58 30 59 39 60 31 61 32 62 38 63 40 64
REMARK SMILES IDX 33 65 34 66 35 67 36 68 37 69 63 70 64 71 73 72 65 73 66 74
REMARK SMILES IDX 72 75 74 76 67 77 68 78 69 79 70 80 71 81 47 82 48 83 57 84
REMARK SMILES IDX 49 85 50 86 56 87 58 88 51 89 52 90 53 91 54 92 55 93
REMARK H PARENT 79 43 45 54
REMARK Flexibility Score: inf
ROOT
ATOM      1  C   UNL A   1      39.533  22.663  26.443  1.00  0.00     0.275 C 
ENDROOT
BRANCH   1   2
ATOM      2  C   UNL A   1      38.322  22.122  25.684  1.00  0.00     0.275 C 
BRANCH   2   3
ATOM      3  O   UNL A   1      37.411  23.183  25.320  1.00  0.00    -0.459 OA
BRANCH   3   4
ATOM      4  C   UNL A   1      36.629  22.950  24.239  1.00  0.00     0.338 C 
ATOM      5  O   UNL A   1      36.997  22.559  23.143  1.00  0.00    -0.246 OA
BRANCH   4   6
ATOM      6  C   UNL A   1      35.212  23.220  24.566  1.00  0.00     0.087 C 
ATOM      7  C   UNL A   1      33.069  25.992  25.860  1.00  0.00    -0.019 A 
ATOM      8  C   UNL A   1      31.747  26.115  26.335  1.00  0.00     0.045 A 
ATOM      9  C   UNL A   1      33.499  24.715  25.403  1.00  0.00     0.022 A 
ATOM     10  Cl  UNL A   1      31.128  27.594  26.989  1.00  0.00    -0.084 Cl
ATOM     11  C   UNL A   1      30.867  25.032  26.304  1.00  0.00     0.024 A 
ATOM     12  C   UNL A   1      32.590  23.648  25.342  1.00  0.00     0.128 A 
ATOM     13  C   UNL A   1      34.876  24.438  25.008  1.00  0.00     0.027 C 
ATOM     14  C   UNL A   1      31.281  23.808  25.789  1.00  0.00     0.048 A 
ATOM     15  O   UNL A   1      32.878  22.409  24.842  1.00  0.00    -0.475 OA
ATOM     16  C   UNL A   1      34.247  22.078  24.499  1.00  0.00     0.316 C 
BRANCH   7  17
ATOM     17  C   UNL A   1      33.984  27.207  25.835  1.00  0.00     0.034 C 
ATOM     18  C   UNL A   1      33.797  28.069  24.596  1.00  0.00     0.009 C 
ENDBRANCH   7  17
BRANCH  16  19
ATOM     19  C   UNL A   1      34.700  20.910  25.393  1.00  0.00     0.430 C 
ATOM     20  F   UNL A   1      33.694  20.023  25.588  1.00  0.00    -0.167 F 
ATOM     21  F   UNL A   1      35.719  20.213  24.834  1.00  0.00    -0.167 F 
ATOM     22  F   UNL A   1      35.113  21.328  26.611  1.00  0.00    -0.167 F 
ENDBRANCH  16  19
ENDBRANCH   4   6
ENDBRANCH   3   4
ENDBRANCH   2   3
ENDBRANCH   1   2
BRANCH   1  23
ATOM     23  O   UNL A   1      39.600  24.094  26.315  1.00  0.00    -0.458 OA
BRANCH  23  24
ATOM     24  C   UNL A   1      40.767  24.659  26.700  1.00  0.00     0.338 C 
ATOM     25  O   UNL A   1      41.879  24.454  26.246  1.00  0.00    -0.246 OA
BRANCH  24  26
ATOM     26  C   UNL A   1      40.483  25.687  27.712  1.00  0.00     0.060 A 
ATOM     27  C   UNL A   1      39.467  25.539  28.646  1.00  0.00     0.016 A 
ATOM     28  C   UNL A   1      41.346  26.773  27.787  1.00  0.00     0.016 A 
ATOM     29  C   UNL A   1      39.316  26.510  29.648  1.00  0.00     0.010 A 
ATOM     30  C   UNL A   1      41.281  27.655  28.856  1.00  0.00     0.010 A 
ATOM     31  C   UNL A   1      40.245  27.562  29.790  1.00  0.00    -0.014 A 
BRANCH  31  32
ATOM     32  C   UNL A   1      40.149  28.576  30.883  1.00  0.00     0.031 A 
ATOM     33  C   UNL A   1      41.058  28.497  32.093  1.00  0.00     0.074 A 
ATOM     34  C   UNL A   1      39.200  29.533  30.832  1.00  0.00     0.049 A 
ATOM     35  N   UNL A   1      41.061  29.235  33.176  1.00  0.00    -0.248 NA
ATOM     36  C   UNL A   1      42.057  27.415  32.117  1.00  0.00     0.031 C 
ATOM     37  C   UNL A   1      38.188  29.672  29.780  1.00  0.00     0.029 A 
ATOM     38  N   UNL A   1      38.934  30.581  31.680  1.00  0.00    -0.354 N 
ATOM     39  C   UNL A   1      42.028  28.684  34.013  1.00  0.00     0.074 A 
ATOM     40  C   UNL A   1      42.531  27.502  33.352  1.00  0.00     0.031 C 
ATOM     41  C   UNL A   1      37.467  30.781  30.003  1.00  0.00     0.029 A 
ATOM     42  C   UNL A   1      37.926  31.407  31.238  1.00  0.00     0.049 A 
ATOM     43  H   UNL A   1      39.419  30.726  32.524  1.00  0.00     0.167 HD
ATOM     44  C   UNL A   1      42.497  29.142  35.199  1.00  0.00     0.037 A 
ATOM     45  C   UNL A   1      37.434  32.548  31.759  1.00  0.00     0.037 A 
ATOM     46  C   UNL A   1      42.059  30.365  35.817  1.00  0.00     0.049 A 
ATOM     47  C   UNL A   1      38.016  33.078  33.041  1.00  0.00     0.074 A 
ATOM     48  C   UNL A   1      42.530  30.965  36.971  1.00  0.00     0.029 A 
ATOM     49  N   UNL A   1      41.064  31.192  35.315  1.00  0.00    -0.354 N 
ATOM     50  N   UNL A   1      38.968  32.569  33.786  1.00  0.00    -0.248 NA
ATOM     51  C   UNL A   1      37.460  34.340  33.550  1.00  0.00     0.031 C 
ATOM     52  C   UNL A   1      41.803  32.142  37.182  1.00  0.00     0.029 A 
ATOM     53  C   UNL A   1      40.905  32.295  36.138  1.00  0.00     0.049 A 
ATOM     54  H   UNL A   1      40.546  31.020  34.496  1.00  0.00     0.167 HD
ATOM     55  C   UNL A   1      39.133  33.454  34.847  1.00  0.00     0.074 A 
ATOM     56  C   UNL A   1      38.202  34.543  34.630  1.00  0.00     0.031 C 
ATOM     57  C   UNL A   1      39.973  33.369  35.908  1.00  0.00     0.037 A 
BRANCH  44  58
ATOM     58  C   UNL A   1      43.578  28.345  35.885  1.00  0.00     0.058 A 
ATOM     59  C   UNL A   1      43.269  27.300  36.772  1.00  0.00     0.135 A 
ATOM     60  C   UNL A   1      44.936  28.595  35.624  1.00  0.00     0.135 A 
ATOM     61  F   UNL A   1      41.989  27.023  37.069  1.00  0.00    -0.206 F 
ATOM     62  C   UNL A   1      44.261  26.559  37.402  1.00  0.00     0.059 A 
ATOM     63  C   UNL A   1      45.946  27.843  36.218  1.00  0.00     0.059 A 
ATOM     64  F   UNL A   1      45.293  29.576  34.781  1.00  0.00    -0.206 F 
ATOM     65  C   UNL A   1      45.599  26.835  37.117  1.00  0.00     0.060 A 
BRANCH  65  66
ATOM     66  S   UNL A   1      46.871  25.847  37.933  1.00  0.00     0.124 S 
ATOM     67  O   UNL A   1      46.989  24.712  37.022  1.00  0.00    -0.237 OA
ATOM     68  O   UNL A   1      48.008  26.761  37.954  1.00  0.00    -0.237 OA
ATOM     69  O   UNL A   1      46.287  25.547  39.236  1.00  0.00    -0.744 OA
ENDBRANCH  65  66
ENDBRANCH  44  58
BRANCH  45  70
ATOM     70  C   UNL A   1      36.375  33.299  31.033  1.00  0.00     0.058 A 
ATOM     71  C   UNL A   1      35.052  33.299  31.500  1.00  0.00     0.135 A 
ATOM     72  C   UNL A   1      36.661  34.055  29.886  1.00  0.00     0.135 A 
ATOM     73  F   UNL A   1      34.727  32.585  32.590  1.00  0.00    -0.206 F 
ATOM     74  C   UNL A   1      34.049  34.011  30.853  1.00  0.00     0.059 A 
ATOM     75  C   UNL A   1      35.680  34.797  29.236  1.00  0.00     0.059 A 
ATOM     76  F   UNL A   1      37.916  34.104  29.409  1.00  0.00    -0.206 F 
ATOM     77  C   UNL A   1      34.374  34.764  29.725  1.00  0.00     0.060 A 
BRANCH  77  78
ATOM     78  S   UNL A   1      33.073  35.736  28.935  1.00  0.00     0.124 S 
ATOM     79  O   UNL A   1      33.849  36.750  28.229  1.00  0.00    -0.237 OA
ATOM     80  O   UNL A   1      32.413  34.739  28.098  1.00  0.00    -0.237 OA
ATOM     81  O   UNL A   1      32.282  36.221  30.063  1.00  0.00    -0.744 OA
ENDBRANCH  77  78
ENDBRANCH  45  70
BRANCH  57  82
ATOM     82  C   UNL A   1      39.933  34.489  36.909  1.00  0.00     0.058 A 
ATOM     83  C   UNL A   1      39.102  34.431  38.040  1.00  0.00     0.135 A 
ATOM     84  C   UNL A   1      40.764  35.610  36.762  1.00  0.00     0.135 A 
ATOM     85  F   UNL A   1      38.286  33.381  38.226  1.00  0.00    -0.206 F 
ATOM     86  C   UNL A   1      39.075  35.461  38.974  1.00  0.00     0.059 A 
ATOM     87  C   UNL A   1      40.774  36.640  37.698  1.00  0.00     0.059 A 
ATOM     88  F   UNL A   1      41.587  35.708  35.706  1.00  0.00    -0.206 F 
ATOM     89  C   UNL A   1      39.915  36.562  38.793  1.00  0.00     0.060 A 
BRANCH  89  90
ATOM     90  S   UNL A   1      39.879  37.884  40.023  1.00  0.00     0.124 S 
ATOM     91  O   UNL A   1      41.176  38.516  39.812  1.00  0.00    -0.237 OA
ATOM     92  O   UNL A   1      38.718  38.664  39.606  1.00  0.00    -0.237 OA
ATOM     93  O   UNL A   1      39.726  37.169  41.286  1.00  0.00    -0.744 OA
ENDBRANCH  89  90
ENDBRANCH  57  82
ENDBRANCH  31  32
ENDBRANCH  24  26
ENDBRANCH  23  24
ENDBRANCH   1  23
TORSDOF 16
ENDMDL
MODEL 2
REMARK VINA RESULT:     -11.6      6.995     12.324
REMARK SMILES CCc1c(Cl)ccc2c1C=C(C(=O)OCCOC(=O)c1ccc(-c3c4nc(c(-c5c(F)cc(S(=O)(=O)[O-])cc5F)c5ccc([nH]5)c(-c5c(F)cc(S(=O)(=O)[O-])cc5F)c5nc(c(-c6c(F)cc(S(=O)(=O)[O-])cc6F)c6ccc3[nH]6)C=C5)C=C4)cc1)[C@@H](C(F)(F)F)O2
REMARK SMILES IDX 16 1 15 2 14 3 12 4 13 5 11 6 3 7 4 8 9 9 5 10 6 11 8 12
REMARK SMILES IDX 10 13 7 14 91 15 86 16 2 17 1 18 87 19 88 20 89 21 90 22
REMARK SMILES IDX 17 23 18 24 19 25 20 26 21 27 85 28 22 29 84 30 23 31 24 32
REMARK SMILES IDX 25 33 78 34 26 35 83 36 77 37 79 38 27 39 82 40 76 41 75 42
REMARK SMILES IDX 28 44 62 45 41 46 61 47 42 48 45 49 60 50 80 51 43 52 44 53
REMARK SMILES IDX 59 55 81 56 46 57 29 58 30 59 39 60 31 61 32 62 38 63 40 64
REMARK SMILES IDX 33 65 34 66 35 67 36 68 37 69 63 70 64 71 73 72 65 73 66 74
REMARK SMILES IDX 72 75 74 76 67 77 68 78 69 79 70 80 71 81 47 82 48 83 57 84
REMARK SMILES IDX 49 85 50 86 56 87 58 88 51 89 52 90 53 91 54 92 55 93
REMARK H PARENT 79 43 45 54
REMARK Flexibility Score: inf
ROOT
ATOM      1  C   UNL A   1      34.669  30.736  27.894  1.00  0.00     0.275 C 
ENDROOT
BRANCH   1   2
ATOM      2  C   UNL A   1      33.722  30.049  26.910  1.00  0.00     0.275 C 
BRANCH   2   3
ATOM      3  O   UNL A   1      33.908  28.616  26.914  1.00  0.00    -0.459 OA
BRANCH   3   4
ATOM      4  C   UNL A   1      33.731  27.991  25.725  1.00  0.00     0.338 C 
ATOM      5  O   UNL A   1      33.768  28.505  24.619  1.00  0.00    -0.246 OA
BRANCH   4   6
ATOM      6  C   UNL A   1      33.493  26.547  25.938  1.00  0.00     0.087 C 
ATOM      7  C   UNL A   1      35.174  23.267  25.332  1.00  0.00    -0.019 A 
ATOM      8  C   UNL A   1      34.798  21.909  25.385  1.00  0.00     0.045 A 
ATOM      9  C   UNL A   1      34.206  24.244  25.695  1.00  0.00     0.022 A 
ATOM     10  Cl  UNL A   1      35.858  20.630  24.896  1.00  0.00    -0.084 Cl
ATOM     11  C   UNL A   1      33.532  21.530  25.835  1.00  0.00     0.024 A 
ATOM     12  C   UNL A   1      32.952  23.844  26.182  1.00  0.00     0.128 A 
ATOM     13  C   UNL A   1      34.439  25.678  25.559  1.00  0.00     0.027 C 
ATOM     14  C   UNL A   1      32.620  22.493  26.253  1.00  0.00     0.048 A 
ATOM     15  O   UNL A   1      31.985  24.697  26.635  1.00  0.00    -0.475 OA
ATOM     16  C   UNL A   1      32.156  26.126  26.459  1.00  0.00     0.316 C 
BRANCH   7  17
ATOM     17  C   UNL A   1      36.584  23.649  24.909  1.00  0.00     0.034 C 
ATOM     18  C   UNL A   1      37.576  23.640  26.063  1.00  0.00     0.009 C 
ENDBRANCH   7  17
BRANCH  16  19
ATOM     19  C   UNL A   1      31.018  26.640  25.558  1.00  0.00     0.430 C 
ATOM     20  F   UNL A   1      29.846  26.024  25.849  1.00  0.00    -0.167 F 
ATOM     21  F   UNL A   1      30.803  27.967  25.727  1.00  0.00    -0.167 F 
ATOM     22  F   UNL A   1      31.270  26.432  24.247  1.00  0.00    -0.167 F 
ENDBRANCH  16  19
ENDBRANCH   4   6
ENDBRANCH   3   4
ENDBRANCH   2   3
ENDBRANCH   1   2
BRANCH   1  23
ATOM     23  O   UNL A   1      35.596  29.781  28.440  1.00  0.00    -0.458 OA
BRANCH  23  24
ATOM     24  C   UNL A   1      36.317  30.211  29.500  1.00  0.00     0.338 C 
ATOM     25  O   UNL A   1      35.897  30.644  30.559  1.00  0.00    -0.246 OA
BRANCH  24  26
ATOM     26  C   UNL A   1      37.742  29.966  29.234  1.00  0.00     0.060 A 
ATOM     27  C   UNL A   1      38.648  29.709  30.256  1.00  0.00     0.016 A 
ATOM     28  C   UNL A   1      38.145  29.880  27.908  1.00  0.00     0.016 A 
ATOM     29  C   UNL A   1      39.971  29.383  29.925  1.00  0.00     0.010 A 
ATOM     30  C   UNL A   1      39.414  29.423  27.583  1.00  0.00     0.010 A 
ATOM     31  C   UNL A   1      40.364  29.198  28.583  1.00  0.00    -0.014 A 
BRANCH  31  32
ATOM     32  C   UNL A   1      41.750  28.788  28.201  1.00  0.00     0.031 A 
ATOM     33  C   UNL A   1      42.878  29.798  28.185  1.00  0.00     0.074 A 
ATOM     34  C   UNL A   1      41.989  27.523  27.797  1.00  0.00     0.049 A 
ATOM     35  N   UNL A   1      44.122  29.645  27.800  1.00  0.00    -0.248 NA
ATOM     36  C   UNL A   1      42.559  31.174  28.605  1.00  0.00     0.031 C 
ATOM     37  C   UNL A   1      40.981  26.468  27.662  1.00  0.00     0.029 A 
ATOM     38  N   UNL A   1      43.160  26.903  27.434  1.00  0.00    -0.354 N 
ATOM     39  C   UNL A   1      44.711  30.903  27.896  1.00  0.00     0.074 A 
ATOM     40  C   UNL A   1      43.671  31.824  28.294  1.00  0.00     0.031 C 
ATOM     41  C   UNL A   1      41.585  25.319  27.323  1.00  0.00     0.029 A 
ATOM     42  C   UNL A   1      43.015  25.561  27.166  1.00  0.00     0.049 A 
ATOM     43  H   UNL A   1      44.021  27.375  27.370  1.00  0.00     0.167 HD
ATOM     44  C   UNL A   1      46.007  31.259  27.722  1.00  0.00     0.037 A 
ATOM     45  C   UNL A   1      43.930  24.627  26.844  1.00  0.00     0.037 A 
ATOM     46  C   UNL A   1      47.059  30.327  27.412  1.00  0.00     0.049 A 
ATOM     47  C   UNL A   1      45.375  25.026  26.724  1.00  0.00     0.074 A 
ATOM     48  C   UNL A   1      48.417  30.567  27.301  1.00  0.00     0.029 A 
ATOM     49  N   UNL A   1      46.874  28.970  27.188  1.00  0.00    -0.354 N 
ATOM     50  N   UNL A   1      45.917  26.212  26.873  1.00  0.00    -0.248 NA
ATOM     51  C   UNL A   1      46.333  23.961  26.397  1.00  0.00     0.031 C 
ATOM     52  C   UNL A   1      49.051  29.361  26.986  1.00  0.00     0.029 A 
ATOM     53  C   UNL A   1      48.093  28.361  26.938  1.00  0.00     0.049 A 
ATOM     54  H   UNL A   1      46.005  28.509  27.204  1.00  0.00     0.167 HD
ATOM     55  C   UNL A   1      47.282  26.033  26.669  1.00  0.00     0.074 A 
ATOM     56  C   UNL A   1      47.483  24.621  26.414  1.00  0.00     0.031 C 
ATOM     57  C   UNL A   1      48.276  26.955  26.684  1.00  0.00     0.037 A 
BRANCH  44  58
ATOM     58  C   UNL A   1      46.373  32.708  27.916  1.00  0.00     0.058 A 
ATOM     59  C   UNL A   1      46.186  33.655  26.895  1.00  0.00     0.135 A 
ATOM     60  C   UNL A   1      46.874  33.169  29.145  1.00  0.00     0.135 A 
ATOM     61  F   UNL A   1      45.722  33.272  25.695  1.00  0.00    -0.206 F 
ATOM     62  C   UNL A   1      46.516  34.994  27.070  1.00  0.00     0.059 A 
ATOM     63  C   UNL A   1      47.180  34.512  29.355  1.00  0.00     0.059 A 
ATOM     64  F   UNL A   1      47.068  32.313  30.160  1.00  0.00    -0.206 F 
ATOM     65  C   UNL A   1      47.010  35.415  28.306  1.00  0.00     0.060 A 
BRANCH  65  66
ATOM     66  S   UNL A   1      47.415  37.161  28.517  1.00  0.00     0.124 S 
ATOM     67  O   UNL A   1      46.123  37.794  28.260  1.00  0.00    -0.237 OA
ATOM     68  O   UNL A   1      47.876  37.208  29.901  1.00  0.00    -0.237 OA
ATOM     69  O   UNL A   1      48.441  37.399  27.508  1.00  0.00    -0.744 OA
ENDBRANCH  65  66
ENDBRANCH  44  58
BRANCH  45  70
ATOM     70  C   UNL A   1      43.513  23.208  26.675  1.00  0.00     0.058 A 
ATOM     71  C   UNL A   1      43.508  22.612  25.405  1.00  0.00     0.135 A 
ATOM     72  C   UNL A   1      43.148  22.412  27.771  1.00  0.00     0.135 A 
ATOM     73  F   UNL A   1      43.844  23.335  24.325  1.00  0.00    -0.206 F 
ATOM     74  C   UNL A   1      43.145  21.282  25.224  1.00  0.00     0.059 A 
ATOM     75  C   UNL A   1      42.806  21.071  27.619  1.00  0.00     0.059 A 
ATOM     76  F   UNL A   1      43.155  22.929  29.011  1.00  0.00    -0.206 F 
ATOM     77  C   UNL A   1      42.803  20.517  26.339  1.00  0.00     0.060 A 
BRANCH  77  78
ATOM     78  S   UNL A   1      42.398  18.774  26.095  1.00  0.00     0.124 S 
ATOM     79  O   UNL A   1      42.614  18.230  27.431  1.00  0.00    -0.237 OA
ATOM     80  O   UNL A   1      41.010  18.843  25.650  1.00  0.00    -0.237 OA
ATOM     81  O   UNL A   1      43.354  18.345  25.078  1.00  0.00    -0.744 OA
ENDBRANCH  77  78
ENDBRANCH  45  70
BRANCH  57  82
ATOM     82  C   UNL A   1      49.673  26.465  26.429  1.00  0.00     0.058 A 
ATOM     83  C   UNL A   1      50.242  26.512  25.146  1.00  0.00     0.135 A 
ATOM     84  C   UNL A   1      50.466  25.985  27.482  1.00  0.00     0.135 A 
ATOM     85  F   UNL A   1      49.524  26.960  24.103  1.00  0.00    -0.206 F 
ATOM     86  C   UNL A   1      51.541  26.071  24.912  1.00  0.00     0.059 A 
ATOM     87  C   UNL A   1      51.777  25.565  27.276  1.00  0.00     0.059 A 
ATOM     88  F   UNL A   1      49.974  25.932  28.730  1.00  0.00    -0.206 F 
ATOM     89  C   UNL A   1      52.299  25.599  25.984  1.00  0.00     0.060 A 
BRANCH  89  90
ATOM     90  S   UNL A   1      53.988  25.044  25.666  1.00  0.00     0.124 S 
ATOM     91  O   UNL A   1      54.515  26.148  24.872  1.00  0.00    -0.237 OA
ATOM     92  O   UNL A   1      54.533  24.916  27.014  1.00  0.00    -0.237 OA
ATOM     93  O   UNL A   1      53.803  23.786  24.949  1.00  0.00    -0.744 OA
ENDBRANCH  89  90
ENDBRANCH  57  82
ENDBRANCH  31  32
ENDBRANCH  24  26
ENDBRANCH  23  24
ENDBRANCH   1  23
TORSDOF 16
ENDMDL
MODEL 3
REMARK VINA RESULT:     -11.6      7.095     12.440
REMARK SMILES CCc1c(Cl)ccc2c1C=C(C(=O)OCCOC(=O)c1ccc(-c3c4nc(c(-c5c(F)cc(S(=O)(=O)[O-])cc5F)c5ccc([nH]5)c(-c5c(F)cc(S(=O)(=O)[O-])cc5F)c5nc(c(-c6c(F)cc(S(=O)(=O)[O-])cc6F)c6ccc3[nH]6)C=C5)C=C4)cc1)[C@@H](C(F)(F)F)O2
REMARK SMILES IDX 16 1 15 2 14 3 12 4 13 5 11 6 3 7 4 8 9 9 5 10 6 11 8 12
REMARK SMILES IDX 10 13 7 14 91 15 86 16 2 17 1 18 87 19 88 20 89 21 90 22
REMARK SMILES IDX 17 23 18 24 19 25 20 26 21 27 85 28 22 29 84 30 23 31 24 32
REMARK SMILES IDX 25 33 78 34 26 35 83 36 77 37 79 38 27 39 82 40 76 41 75 42
REMARK SMILES IDX 28 44 62 45 41 46 61 47 42 48 45 49 60 50 80 51 43 52 44 53
REMARK SMILES IDX 59 55 81 56 46 57 29 58 30 59 39 60 31 61 32 62 38 63 40 64
REMARK SMILES IDX 33 65 34 66 35 67 36 68 37 69 63 70 64 71 73 72 65 73 66 74
REMARK SMILES IDX 72 75 74 76 67 77 68 78 69 79 70 80 71 81 47 82 48 83 57 84
REMARK SMILES IDX 49 85 50 86 56 87 58 88 51 89 52 90 53 91 54 92 55 93
REMARK H PARENT 79 43 45 54
REMARK Flexibility Score: inf
ROOT
ATOM      1  C   UNL A   1      34.732  30.906  27.996  1.00  0.00     0.275 C 
ENDROOT
BRANCH   1   2
ATOM      2  C   UNL A   1      33.410  30.271  27.563  1.00  0.00     0.275 C 
BRANCH   2   3
ATOM      3  O   UNL A   1      33.542  28.841  27.400  1.00  0.00    -0.459 OA
BRANCH   3   4
ATOM      4  C   UNL A   1      32.384  28.150  27.272  1.00  0.00     0.338 C 
ATOM      5  O   UNL A   1      31.410  28.215  28.005  1.00  0.00    -0.246 OA
BRANCH   4   6
ATOM      6  C   UNL A   1      32.438  27.283  26.075  1.00  0.00     0.087 C 
ATOM      7  C   UNL A   1      34.542  24.556  24.628  1.00  0.00    -0.019 A 
ATOM      8  C   UNL A   1      34.644  23.907  23.381  1.00  0.00     0.045 A 
ATOM      9  C   UNL A   1      33.538  25.552  24.784  1.00  0.00     0.022 A 
ATOM     10  Cl  UNL A   1      35.870  22.734  23.040  1.00  0.00    -0.084 Cl
ATOM     11  C   UNL A   1      33.750  24.190  22.346  1.00  0.00     0.024 A 
ATOM     12  C   UNL A   1      32.623  25.796  23.747  1.00  0.00     0.128 A 
ATOM     13  C   UNL A   1      33.419  26.376  25.983  1.00  0.00     0.027 C 
ATOM     14  C   UNL A   1      32.729  25.116  22.537  1.00  0.00     0.048 A 
ATOM     15  O   UNL A   1      31.573  26.668  23.826  1.00  0.00    -0.475 OA
ATOM     16  C   UNL A   1      31.460  27.546  24.974  1.00  0.00     0.316 C 
BRANCH   7  17
ATOM     17  C   UNL A   1      35.481  24.175  25.762  1.00  0.00     0.034 C 
ATOM     18  C   UNL A   1      34.979  22.995  26.581  1.00  0.00     0.009 C 
ENDBRANCH   7  17
BRANCH  16  19
ATOM     19  C   UNL A   1      31.554  29.000  24.479  1.00  0.00     0.430 C 
ATOM     20  F   UNL A   1      30.925  29.156  23.288  1.00  0.00    -0.167 F 
ATOM     21  F   UNL A   1      30.961  29.864  25.338  1.00  0.00    -0.167 F 
ATOM     22  F   UNL A   1      32.834  29.404  24.315  1.00  0.00    -0.167 F 
ENDBRANCH  16  19
ENDBRANCH   4   6
ENDBRANCH   3   4
ENDBRANCH   2   3
ENDBRANCH   1   2
BRANCH   1  23
ATOM     23  O   UNL A   1      35.639  29.893  28.464  1.00  0.00    -0.458 OA
BRANCH  23  24
ATOM     24  C   UNL A   1      36.358  30.218  29.563  1.00  0.00     0.338 C 
ATOM     25  O   UNL A   1      35.936  30.567  30.651  1.00  0.00    -0.246 OA
BRANCH  24  26
ATOM     26  C   UNL A   1      37.780  29.971  29.288  1.00  0.00     0.060 A 
ATOM     27  C   UNL A   1      38.681  29.655  30.297  1.00  0.00     0.016 A 
ATOM     28  C   UNL A   1      38.186  29.945  27.960  1.00  0.00     0.016 A 
ATOM     29  C   UNL A   1      40.002  29.331  29.954  1.00  0.00     0.010 A 
ATOM     30  C   UNL A   1      39.451  29.491  27.616  1.00  0.00     0.010 A 
ATOM     31  C   UNL A   1      40.396  29.207  28.606  1.00  0.00    -0.014 A 
BRANCH  31  32
ATOM     32  C   UNL A   1      41.778  28.802  28.206  1.00  0.00     0.031 A 
ATOM     33  C   UNL A   1      42.905  29.815  28.185  1.00  0.00     0.074 A 
ATOM     34  C   UNL A   1      42.015  27.540  27.793  1.00  0.00     0.049 A 
ATOM     35  N   UNL A   1      44.145  29.666  27.785  1.00  0.00    -0.248 NA
ATOM     36  C   UNL A   1      42.588  31.187  28.615  1.00  0.00     0.031 C 
ATOM     37  C   UNL A   1      41.007  26.484  27.662  1.00  0.00     0.029 A 
ATOM     38  N   UNL A   1      43.183  26.924  27.414  1.00  0.00    -0.354 N 
ATOM     39  C   UNL A   1      44.733  30.924  27.883  1.00  0.00     0.074 A 
ATOM     40  C   UNL A   1      43.696  31.841  28.296  1.00  0.00     0.031 C 
ATOM     41  C   UNL A   1      41.610  25.338  27.311  1.00  0.00     0.029 A 
ATOM     42  C   UNL A   1      43.038  25.583  27.140  1.00  0.00     0.049 A 
ATOM     43  H   UNL A   1      44.043  27.398  27.344  1.00  0.00     0.167 HD
ATOM     44  C   UNL A   1      46.026  31.282  27.697  1.00  0.00     0.037 A 
ATOM     45  C   UNL A   1      43.951  24.652  26.803  1.00  0.00     0.037 A 
ATOM     46  C   UNL A   1      47.077  30.355  27.370  1.00  0.00     0.049 A 
ATOM     47  C   UNL A   1      45.394  25.055  26.671  1.00  0.00     0.074 A 
ATOM     48  C   UNL A   1      48.433  30.598  27.247  1.00  0.00     0.029 A 
ATOM     49  N   UNL A   1      46.892  28.999  27.141  1.00  0.00    -0.354 N 
ATOM     50  N   UNL A   1      45.935  26.240  26.821  1.00  0.00    -0.248 NA
ATOM     51  C   UNL A   1      46.350  23.993  26.327  1.00  0.00     0.031 C 
ATOM     52  C   UNL A   1      49.066  29.394  26.918  1.00  0.00     0.029 A 
ATOM     53  C   UNL A   1      48.108  28.393  26.874  1.00  0.00     0.049 A 
ATOM     54  H   UNL A   1      46.023  28.536  27.163  1.00  0.00     0.167 HD
ATOM     55  C   UNL A   1      47.298  26.065  26.602  1.00  0.00     0.074 A 
ATOM     56  C   UNL A   1      47.499  24.655  26.336  1.00  0.00     0.031 C 
ATOM     57  C   UNL A   1      48.291  26.989  26.611  1.00  0.00     0.037 A 
BRANCH  44  58
ATOM     58  C   UNL A   1      46.392  32.732  27.896  1.00  0.00     0.058 A 
ATOM     59  C   UNL A   1      46.258  33.670  26.859  1.00  0.00     0.135 A 
ATOM     60  C   UNL A   1      46.840  33.200  29.142  1.00  0.00     0.135 A 
ATOM     61  F   UNL A   1      45.846  33.280  25.642  1.00  0.00    -0.206 F 
ATOM     62  C   UNL A   1      46.588  35.009  27.038  1.00  0.00     0.059 A 
ATOM     63  C   UNL A   1      47.144  34.543  29.354  1.00  0.00     0.059 A 
ATOM     64  F   UNL A   1      46.982  32.351  30.172  1.00  0.00    -0.206 F 
ATOM     65  C   UNL A   1      47.028  35.438  28.291  1.00  0.00     0.060 A 
BRANCH  65  66
ATOM     66  S   UNL A   1      47.433  37.184  28.506  1.00  0.00     0.124 S 
ATOM     67  O   UNL A   1      48.735  37.265  27.849  1.00  0.00    -0.237 OA
ATOM     68  O   UNL A   1      46.333  37.845  27.812  1.00  0.00    -0.237 OA
ATOM     69  O   UNL A   1      47.450  37.355  29.955  1.00  0.00    -0.744 OA
ENDBRANCH  65  66
ENDBRANCH  44  58
BRANCH  45  70
ATOM     70  C   UNL A   1      43.534  23.234  26.631  1.00  0.00     0.058 A 
ATOM     71  C   UNL A   1      43.563  22.631  25.365  1.00  0.00     0.135 A 
ATOM     72  C   UNL A   1      43.136  22.445  27.721  1.00  0.00     0.135 A 
ATOM     73  F   UNL A   1      43.932  23.346  24.290  1.00  0.00    -0.206 F 
ATOM     74  C   UNL A   1      43.201  21.301  25.181  1.00  0.00     0.059 A 
ATOM     75  C   UNL A   1      42.794  21.105  27.567  1.00  0.00     0.059 A 
ATOM     76  F   UNL A   1      43.109  22.969  28.957  1.00  0.00    -0.206 F 
ATOM     77  C   UNL A   1      42.825  20.543  26.290  1.00  0.00     0.060 A 
BRANCH  77  78
ATOM     78  S   UNL A   1      42.422  18.799  26.045  1.00  0.00     0.124 S 
ATOM     79  O   UNL A   1      41.007  18.869  25.700  1.00  0.00    -0.237 OA
ATOM     80  O   UNL A   1      43.326  18.427  24.961  1.00  0.00    -0.237 OA
ATOM     81  O   UNL A   1      42.726  18.198  27.340  1.00  0.00    -0.744 OA
ENDBRANCH  77  78
ENDBRANCH  45  70
BRANCH  57  82
ATOM     82  C   UNL A   1      49.686  26.502  26.338  1.00  0.00     0.058 A 
ATOM     83  C   UNL A   1      50.526  26.067  27.376  1.00  0.00     0.135 A 
ATOM     84  C   UNL A   1      50.174  26.430  25.024  1.00  0.00     0.135 A 
ATOM     85  F   UNL A   1      50.108  26.119  28.651  1.00  0.00    -0.206 F 
ATOM     86  C   UNL A   1      51.813  25.604  27.122  1.00  0.00     0.059 A 
ATOM     87  C   UNL A   1      51.448  25.944  24.745  1.00  0.00     0.059 A 
ATOM     88  F   UNL A   1      49.407  26.822  23.995  1.00  0.00    -0.206 F 
ATOM     89  C   UNL A   1      52.265  25.547  25.803  1.00  0.00     0.060 A 
BRANCH  89  90
ATOM     90  S   UNL A   1      53.932  24.930  25.489  1.00  0.00     0.124 S 
ATOM     91  O   UNL A   1      54.512  24.957  26.827  1.00  0.00    -0.237 OA
ATOM     92  O   UNL A   1      53.674  23.604  24.937  1.00  0.00    -0.237 OA
ATOM     93  O   UNL A   1      54.481  25.900  24.547  1.00  0.00    -0.744 OA
ENDBRANCH  89  90
ENDBRANCH  57  82
ENDBRANCH  31  32
ENDBRANCH  24  26
ENDBRANCH  23  24
ENDBRANCH   1  23
TORSDOF 16
ENDMDL
