MODEL 1
REMARK VINA RESULT:     -11.1      0.000      0.000
REMARK SMILES Cc1cc(S[C@@H](C)c2ccc(C(=O)OCCOC(=O)c3ccc(-c4c5nc(c(-c6c(F)cc(S(=O)(=O)[O-])cc6F)c6ccc([nH]6)c(-c6c(F)cc(S(=O)(=O)[O-])cc6F)c6nc(c(-c7c(F)cc(S(=O)(=O)[O-])cc7F)c7ccc4[nH]7)C=C6)C=C5)cc3)o2)n(C)n1
REMARK SMILES IDX 15 1 14 2 12 3 13 4 11 5 8 6 9 7 86 8 10 9 6 10 7 11 5 12
REMARK SMILES IDX 4 13 1 14 2 15 3 16 89 17 87 18 88 19 16 20 17 21 18 22
REMARK SMILES IDX 19 23 20 24 21 25 85 26 22 27 84 28 23 29 24 30 25 31 78 32
REMARK SMILES IDX 26 33 83 34 77 35 79 36 27 37 82 38 76 39 75 40 28 42 62 43
REMARK SMILES IDX 41 44 61 45 42 46 45 47 60 48 80 49 43 50 44 51 59 53 81 54
REMARK SMILES IDX 46 55 29 56 30 57 39 58 31 59 32 60 38 61 40 62 33 63 34 64
REMARK SMILES IDX 35 65 36 66 37 67 63 68 64 69 73 70 65 71 66 72 72 73 74 74
REMARK SMILES IDX 67 75 68 76 69 77 70 78 71 79 47 80 48 81 57 82 49 83 50 84
REMARK SMILES IDX 56 85 58 86 51 87 52 88 53 89 54 90 55 91
REMARK H PARENT 79 41 45 52
REMARK Flexibility Score: inf
ROOT
ATOM      1  C   UNL A   1      42.966  21.473  26.123  1.00  0.00     0.275 C 
ENDROOT
BRANCH   1   2
ATOM      2  O   UNL A   1      41.695  20.915  25.737  1.00  0.00    -0.456 OA
BRANCH   2   3
ATOM      3  C   UNL A   1      40.727  20.883  26.706  1.00  0.00     0.374 C 
ATOM      4  O   UNL A   1      40.812  20.230  27.734  1.00  0.00    -0.242 OA
BRANCH   3   5
ATOM      5  C   UNL A   1      39.614  21.726  26.317  1.00  0.00     0.211 A 
ATOM      6  C   UNL A   1      37.650  22.120  25.353  1.00  0.00     0.118 A 
ATOM      7  C   UNL A   1      38.030  23.291  25.979  1.00  0.00     0.048 A 
ATOM      8  O   UNL A   1      38.645  21.192  25.512  1.00  0.00    -0.453 OA
ATOM      9  C   UNL A   1      39.279  23.037  26.601  1.00  0.00     0.058 A 
BRANCH   6  10
ATOM     10  C   UNL A   1      36.400  21.724  24.603  1.00  0.00     0.116 C 
ATOM     11  C   UNL A   1      35.981  22.795  23.578  1.00  0.00     0.028 C 
BRANCH  10  12
ATOM     12  S   UNL A   1      35.002  21.215  25.695  1.00  0.00    -0.096 SA
BRANCH  12  13
ATOM     13  C   UNL A   1      34.263  19.948  24.772  1.00  0.00     0.095 A 
ATOM     14  C   UNL A   1      33.485  16.577  23.683  1.00  0.00     0.069 C 
ATOM     15  C   UNL A   1      33.563  18.017  23.986  1.00  0.00     0.061 A 
ATOM     16  C   UNL A   1      34.666  18.656  24.559  1.00  0.00     0.060 A 
ATOM     17  N   UNL A   1      32.583  18.881  23.703  1.00  0.00    -0.178 NA
ATOM     18  N   UNL A   1      33.075  20.079  24.099  1.00  0.00    -0.262 N 
ATOM     19  C   UNL A   1      32.431  21.290  23.641  1.00  0.00     0.175 C 
ENDBRANCH  12  13
ENDBRANCH  10  12
ENDBRANCH   6  10
ENDBRANCH   3   5
ENDBRANCH   2   3
ENDBRANCH   1   2
BRANCH   1  20
ATOM     20  C   UNL A   1      43.125  22.925  25.664  1.00  0.00     0.275 C 
BRANCH  20  21
ATOM     21  O   UNL A   1      42.818  23.861  26.717  1.00  0.00    -0.458 OA
BRANCH  21  22
ATOM     22  C   UNL A   1      43.053  25.157  26.410  1.00  0.00     0.338 C 
ATOM     23  O   UNL A   1      43.826  25.577  25.563  1.00  0.00    -0.246 OA
BRANCH  22  24
ATOM     24  C   UNL A   1      42.180  26.049  27.191  1.00  0.00     0.060 A 
ATOM     25  C   UNL A   1      42.572  27.372  27.311  1.00  0.00     0.016 A 
ATOM     26  C   UNL A   1      41.146  25.558  27.993  1.00  0.00     0.016 A 
ATOM     27  C   UNL A   1      42.034  28.149  28.337  1.00  0.00     0.010 A 
ATOM     28  C   UNL A   1      40.565  26.383  28.983  1.00  0.00     0.010 A 
ATOM     29  C   UNL A   1      41.076  27.662  29.251  1.00  0.00    -0.014 A 
BRANCH  29  30
ATOM     30  C   UNL A   1      40.794  28.457  30.519  1.00  0.00     0.031 A 
ATOM     31  C   UNL A   1      41.749  28.445  31.719  1.00  0.00     0.074 A 
ATOM     32  C   UNL A   1      39.797  29.375  30.536  1.00  0.00     0.049 A 
ATOM     33  N   UNL A   1      41.796  29.257  32.755  1.00  0.00    -0.248 NA
ATOM     34  C   UNL A   1      42.804  27.418  31.756  1.00  0.00     0.031 C 
ATOM     35  C   UNL A   1      38.807  29.565  29.473  1.00  0.00     0.029 A 
ATOM     36  N   UNL A   1      39.489  30.372  31.440  1.00  0.00    -0.354 N 
ATOM     37  C   UNL A   1      42.907  28.878  33.509  1.00  0.00     0.074 A 
ATOM     38  C   UNL A   1      43.501  27.751  32.833  1.00  0.00     0.031 C 
ATOM     39  C   UNL A   1      38.098  30.676  29.719  1.00  0.00     0.029 A 
ATOM     40  C   UNL A   1      38.482  31.215  31.021  1.00  0.00     0.049 A 
ATOM     41  H   UNL A   1      39.947  30.471  32.306  1.00  0.00     0.167 HD
ATOM     42  C   UNL A   1      43.393  29.387  34.669  1.00  0.00     0.037 A 
ATOM     43  C   UNL A   1      37.900  32.282  31.607  1.00  0.00     0.037 A 
ATOM     44  C   UNL A   1      42.759  30.428  35.438  1.00  0.00     0.049 A 
ATOM     45  C   UNL A   1      38.339  32.706  32.983  1.00  0.00     0.074 A 
ATOM     46  C   UNL A   1      43.095  30.889  36.701  1.00  0.00     0.029 A 
ATOM     47  N   UNL A   1      41.639  31.138  35.040  1.00  0.00    -0.354 N 
ATOM     48  N   UNL A   1      39.358  32.287  33.693  1.00  0.00    -0.248 NA
ATOM     49  C   UNL A   1      37.518  33.724  33.657  1.00  0.00     0.031 C 
ATOM     50  C   UNL A   1      42.121  31.807  37.106  1.00  0.00     0.029 A 
ATOM     51  C   UNL A   1      41.233  31.988  36.059  1.00  0.00     0.049 A 
ATOM     52  H   UNL A   1      41.196  31.054  34.165  1.00  0.00     0.167 HD
ATOM     53  C   UNL A   1      39.297  32.983  34.896  1.00  0.00     0.074 A 
ATOM     54  C   UNL A   1      38.167  33.884  34.802  1.00  0.00     0.031 C 
ATOM     55  C   UNL A   1      40.097  32.872  35.985  1.00  0.00     0.037 A 
BRANCH  42  56
ATOM     56  C   UNL A   1      44.614  28.731  35.266  1.00  0.00     0.058 A 
ATOM     57  C   UNL A   1      44.538  27.601  36.096  1.00  0.00     0.135 A 
ATOM     58  C   UNL A   1      45.891  29.231  34.960  1.00  0.00     0.135 A 
ATOM     59  F   UNL A   1      43.346  27.089  36.437  1.00  0.00    -0.206 F 
ATOM     60  C   UNL A   1      45.686  27.000  36.612  1.00  0.00     0.059 A 
ATOM     61  C   UNL A   1      47.050  28.635  35.447  1.00  0.00     0.059 A 
ATOM     62  F   UNL A   1      46.022  30.311  34.173  1.00  0.00    -0.206 F 
ATOM     63  C   UNL A   1      46.939  27.527  36.283  1.00  0.00     0.060 A 
BRANCH  63  64
ATOM     64  S   UNL A   1      48.419  26.754  36.970  1.00  0.00     0.124 S 
ATOM     65  O   UNL A   1      48.867  27.770  37.918  1.00  0.00    -0.237 OA
ATOM     66  O   UNL A   1      47.888  25.529  37.560  1.00  0.00    -0.237 OA
ATOM     67  O   UNL A   1      49.279  26.564  35.806  1.00  0.00    -0.744 OA
ENDBRANCH  63  64
ENDBRANCH  42  56
BRANCH  43  68
ATOM     68  C   UNL A   1      36.763  32.982  30.933  1.00  0.00     0.058 A 
ATOM     69  C   UNL A   1      35.427  32.749  31.298  1.00  0.00     0.135 A 
ATOM     70  C   UNL A   1      36.997  33.893  29.888  1.00  0.00     0.135 A 
ATOM     71  F   UNL A   1      35.139  31.868  32.267  1.00  0.00    -0.206 F 
ATOM     72  C   UNL A   1      34.371  33.393  30.655  1.00  0.00     0.059 A 
ATOM     73  C   UNL A   1      35.964  34.582  29.266  1.00  0.00     0.059 A 
ATOM     74  F   UNL A   1      38.251  34.146  29.482  1.00  0.00    -0.206 F 
ATOM     75  C   UNL A   1      34.652  34.317  29.647  1.00  0.00     0.060 A 
BRANCH  75  76
ATOM     76  S   UNL A   1      33.291  35.206  28.862  1.00  0.00     0.124 S 
ATOM     77  O   UNL A   1      34.002  36.250  28.134  1.00  0.00    -0.237 OA
ATOM     78  O   UNL A   1      32.670  34.166  28.047  1.00  0.00    -0.237 OA
ATOM     79  O   UNL A   1      32.491  35.660  29.997  1.00  0.00    -0.744 OA
ENDBRANCH  75  76
ENDBRANCH  43  68
BRANCH  55  80
ATOM     80  C   UNL A   1      39.789  33.747  37.172  1.00  0.00     0.058 A 
ATOM     81  C   UNL A   1      40.332  35.037  37.304  1.00  0.00     0.135 A 
ATOM     82  C   UNL A   1      38.927  33.299  38.186  1.00  0.00     0.135 A 
ATOM     83  F   UNL A   1      41.159  35.522  36.365  1.00  0.00    -0.206 F 
ATOM     84  C   UNL A   1      40.071  35.828  38.419  1.00  0.00     0.059 A 
ATOM     85  C   UNL A   1      38.625  34.087  39.294  1.00  0.00     0.059 A 
ATOM     86  F   UNL A   1      38.364  32.082  38.108  1.00  0.00    -0.206 F 
ATOM     87  C   UNL A   1      39.220  35.341  39.413  1.00  0.00     0.060 A 
BRANCH  87  88
ATOM     88  S   UNL A   1      38.904  36.368  40.863  1.00  0.00     0.124 S 
ATOM     89  O   UNL A   1      37.827  35.631  41.516  1.00  0.00    -0.237 OA
ATOM     90  O   UNL A   1      40.191  36.349  41.549  1.00  0.00    -0.237 OA
ATOM     91  O   UNL A   1      38.523  37.656  40.292  1.00  0.00    -0.744 OA
ENDBRANCH  87  88
ENDBRANCH  55  80
ENDBRANCH  29  30
ENDBRANCH  22  24
ENDBRANCH  21  22
ENDBRANCH  20  21
ENDBRANCH   1  20
TORSDOF 17
ENDMDL
MODEL 2
REMARK VINA RESULT:     -10.8      6.344     12.755
REMARK SMILES Cc1cc(S[C@@H](C)c2ccc(C(=O)OCCOC(=O)c3ccc(-c4c5nc(c(-c6c(F)cc(S(=O)(=O)[O-])cc6F)c6ccc([nH]6)c(-c6c(F)cc(S(=O)(=O)[O-])cc6F)c6nc(c(-c7c(F)cc(S(=O)(=O)[O-])cc7F)c7ccc4[nH]7)C=C6)C=C5)cc3)o2)n(C)n1
REMARK SMILES IDX 15 1 14 2 12 3 13 4 11 5 8 6 9 7 86 8 10 9 6 10 7 11 5 12
REMARK SMILES IDX 4 13 1 14 2 15 3 16 89 17 87 18 88 19 16 20 17 21 18 22
REMARK SMILES IDX 19 23 20 24 21 25 85 26 22 27 84 28 23 29 24 30 25 31 78 32
REMARK SMILES IDX 26 33 83 34 77 35 79 36 27 37 82 38 76 39 75 40 28 42 62 43
REMARK SMILES IDX 41 44 61 45 42 46 45 47 60 48 80 49 43 50 44 51 59 53 81 54
REMARK SMILES IDX 46 55 29 56 30 57 39 58 31 59 32 60 38 61 40 62 33 63 34 64
REMARK SMILES IDX 35 65 36 66 37 67 63 68 64 69 73 70 65 71 66 72 72 73 74 74
REMARK SMILES IDX 67 75 68 76 69 77 70 78 71 79 47 80 48 81 57 82 49 83 50 84
REMARK SMILES IDX 56 85 58 86 51 87 52 88 53 89 54 90 55 91
REMARK H PARENT 79 41 45 52
REMARK Flexibility Score: inf
ROOT
ATOM      1  C   UNL A   1      34.752  33.468  30.707  1.00  0.00     0.275 C 
ENDROOT
BRANCH   1   2
ATOM      2  O   UNL A   1      35.251  33.120  29.401  1.00  0.00    -0.456 OA
BRANCH   2   3
ATOM      3  C   UNL A   1      34.315  32.984  28.410  1.00  0.00     0.374 C 
ATOM      4  O   UNL A   1      33.598  33.891  28.019  1.00  0.00    -0.242 OA
BRANCH   3   5
ATOM      5  C   UNL A   1      34.317  31.621  27.916  1.00  0.00     0.211 A 
ATOM      6  C   UNL A   1      33.357  29.809  27.058  1.00  0.00     0.118 A 
ATOM      7  C   UNL A   1      34.711  29.546  27.134  1.00  0.00     0.048 A 
ATOM      8  O   UNL A   1      33.117  31.048  27.590  1.00  0.00    -0.453 OA
ATOM      9  C   UNL A   1      35.324  30.706  27.674  1.00  0.00     0.058 A 
BRANCH   6  10
ATOM     10  C   UNL A   1      32.196  29.020  26.500  1.00  0.00     0.116 C 
ATOM     11  C   UNL A   1      31.528  28.141  27.576  1.00  0.00     0.028 C 
BRANCH  10  12
ATOM     12  S   UNL A   1      32.601  28.070  24.971  1.00  0.00    -0.096 SA
BRANCH  12  13
ATOM     13  C   UNL A   1      31.315  28.530  23.905  1.00  0.00     0.095 A 
ATOM     14  C   UNL A   1      28.824  30.651  22.337  1.00  0.00     0.069 C 
ATOM     15  C   UNL A   1      29.798  29.623  22.747  1.00  0.00     0.061 A 
ATOM     16  C   UNL A   1      30.403  29.549  24.004  1.00  0.00     0.060 A 
ATOM     17  N   UNL A   1      30.179  28.616  21.954  1.00  0.00    -0.178 NA
ATOM     18  N   UNL A   1      31.033  27.897  22.721  1.00  0.00    -0.262 N 
ATOM     19  C   UNL A   1      31.383  26.553  22.315  1.00  0.00     0.175 C 
ENDBRANCH  12  13
ENDBRANCH  10  12
ENDBRANCH   6  10
ENDBRANCH   3   5
ENDBRANCH   2   3
ENDBRANCH   1   2
BRANCH   1  20
ATOM     20  C   UNL A   1      35.181  32.461  31.778  1.00  0.00     0.275 C 
BRANCH  20  21
ATOM     21  O   UNL A   1      35.940  31.369  31.220  1.00  0.00    -0.458 OA
BRANCH  21  22
ATOM     22  C   UNL A   1      37.156  31.180  31.781  1.00  0.00     0.338 C 
ATOM     23  O   UNL A   1      37.526  31.581  32.874  1.00  0.00    -0.246 OA
BRANCH  22  24
ATOM     24  C   UNL A   1      38.004  30.331  30.926  1.00  0.00     0.060 A 
ATOM     25  C   UNL A   1      38.945  29.537  31.558  1.00  0.00     0.016 A 
ATOM     26  C   UNL A   1      38.054  30.494  29.539  1.00  0.00     0.016 A 
ATOM     27  C   UNL A   1      40.018  29.038  30.819  1.00  0.00     0.010 A 
ATOM     28  C   UNL A   1      39.113  29.923  28.796  1.00  0.00     0.010 A 
ATOM     29  C   UNL A   1      40.180  29.276  29.438  1.00  0.00    -0.014 A 
BRANCH  29  30
ATOM     30  C   UNL A   1      41.526  28.980  28.790  1.00  0.00     0.031 A 
ATOM     31  C   UNL A   1      42.698  29.968  28.858  1.00  0.00     0.074 A 
ATOM     32  C   UNL A   1      41.796  27.737  28.325  1.00  0.00     0.049 A 
ATOM     33  N   UNL A   1      43.974  29.767  28.594  1.00  0.00    -0.248 NA
ATOM     34  C   UNL A   1      42.421  31.345  29.300  1.00  0.00     0.031 C 
ATOM     35  C   UNL A   1      40.823  26.648  28.215  1.00  0.00     0.029 A 
ATOM     36  N   UNL A   1      42.979  27.149  27.924  1.00  0.00    -0.354 N 
ATOM     37  C   UNL A   1      44.637  30.955  28.903  1.00  0.00     0.074 A 
ATOM     38  C   UNL A   1      43.630  31.885  29.354  1.00  0.00     0.031 C 
ATOM     39  C   UNL A   1      41.461  25.510  27.908  1.00  0.00     0.029 A 
ATOM     40  C   UNL A   1      42.872  25.798  27.666  1.00  0.00     0.049 A 
ATOM     41  H   UNL A   1      43.823  27.648  27.831  1.00  0.00     0.167 HD
ATOM     42  C   UNL A   1      45.952  31.274  28.807  1.00  0.00     0.037 A 
ATOM     43  C   UNL A   1      43.778  24.887  27.254  1.00  0.00     0.037 A 
ATOM     44  C   UNL A   1      46.965  30.417  28.246  1.00  0.00     0.049 A 
ATOM     45  C   UNL A   1      45.193  25.318  26.975  1.00  0.00     0.074 A 
ATOM     46  C   UNL A   1      48.287  30.721  27.963  1.00  0.00     0.029 A 
ATOM     47  N   UNL A   1      46.764  29.107  27.845  1.00  0.00    -0.354 N 
ATOM     48  N   UNL A   1      45.773  26.467  27.225  1.00  0.00    -0.248 NA
ATOM     49  C   UNL A   1      46.068  24.337  26.316  1.00  0.00     0.031 C 
ATOM     50  C   UNL A   1      48.856  29.629  27.301  1.00  0.00     0.029 A 
ATOM     51  C   UNL A   1      47.919  28.611  27.257  1.00  0.00     0.049 A 
ATOM     52  H   UNL A   1      45.927  28.602  27.959  1.00  0.00     0.167 HD
ATOM     53  C   UNL A   1      47.075  26.348  26.748  1.00  0.00     0.074 A 
ATOM     54  C   UNL A   1      47.213  25.001  26.237  1.00  0.00     0.031 C 
ATOM     55  C   UNL A   1      48.060  27.280  26.724  1.00  0.00     0.037 A 
BRANCH  42  56
ATOM     56  C   UNL A   1      46.364  32.673  29.194  1.00  0.00     0.058 A 
ATOM     57  C   UNL A   1      46.827  32.999  30.479  1.00  0.00     0.135 A 
ATOM     58  C   UNL A   1      46.330  33.699  28.234  1.00  0.00     0.135 A 
ATOM     59  F   UNL A   1      46.867  32.065  31.442  1.00  0.00    -0.206 F 
ATOM     60  C   UNL A   1      47.227  34.296  30.800  1.00  0.00     0.059 A 
ATOM     61  C   UNL A   1      46.743  34.995  28.527  1.00  0.00     0.059 A 
ATOM     62  F   UNL A   1      45.893  33.443  26.990  1.00  0.00    -0.206 F 
ATOM     63  C   UNL A   1      47.179  35.288  29.816  1.00  0.00     0.060 A 
BRANCH  63  64
ATOM     64  S   UNL A   1      47.681  36.969  30.246  1.00  0.00     0.124 S 
ATOM     65  O   UNL A   1      48.997  36.740  30.836  1.00  0.00    -0.237 OA
ATOM     66  O   UNL A   1      47.677  37.639  28.949  1.00  0.00    -0.237 OA
ATOM     67  O   UNL A   1      46.647  37.408  31.179  1.00  0.00    -0.744 OA
ENDBRANCH  63  64
ENDBRANCH  42  56
BRANCH  43  68
ATOM     68  C   UNL A   1      43.357  23.476  26.989  1.00  0.00     0.058 A 
ATOM     69  C   UNL A   1      43.085  23.015  25.691  1.00  0.00     0.135 A 
ATOM     70  C   UNL A   1      43.201  22.561  28.045  1.00  0.00     0.135 A 
ATOM     71  F   UNL A   1      43.186  23.850  24.646  1.00  0.00    -0.206 F 
ATOM     72  C   UNL A   1      42.677  21.704  25.451  1.00  0.00     0.059 A 
ATOM     73  C   UNL A   1      42.844  21.237  27.826  1.00  0.00     0.059 A 
ATOM     74  F   UNL A   1      43.431  22.946  29.310  1.00  0.00    -0.206 F 
ATOM     75  C   UNL A   1      42.571  20.819  26.526  1.00  0.00     0.060 A 
BRANCH  75  76
ATOM     76  S   UNL A   1      42.115  19.101  26.212  1.00  0.00     0.124 S 
ATOM     77  O   UNL A   1      42.362  18.488  27.511  1.00  0.00    -0.237 OA
ATOM     78  O   UNL A   1      40.714  19.220  25.817  1.00  0.00    -0.237 OA
ATOM     79  O   UNL A   1      43.027  18.705  25.142  1.00  0.00    -0.744 OA
ENDBRANCH  75  76
ENDBRANCH  43  68
BRANCH  55  80
ATOM     80  C   UNL A   1      49.385  26.881  26.128  1.00  0.00     0.058 A 
ATOM     81  C   UNL A   1      50.370  26.220  26.882  1.00  0.00     0.135 A 
ATOM     82  C   UNL A   1      49.672  27.148  24.779  1.00  0.00     0.135 A 
ATOM     83  F   UNL A   1      50.153  25.933  28.175  1.00  0.00    -0.206 F 
ATOM     84  C   UNL A   1      51.605  25.885  26.335  1.00  0.00     0.059 A 
ATOM     85  C   UNL A   1      50.887  26.791  24.202  1.00  0.00     0.059 A 
ATOM     86  F   UNL A   1      48.764  27.762  24.003  1.00  0.00    -0.206 F 
ATOM     87  C   UNL A   1      51.857  26.181  24.995  1.00  0.00     0.060 A 
BRANCH  87  88
ATOM     88  S   UNL A   1      53.469  25.757  24.301  1.00  0.00     0.124 S 
ATOM     89  O   UNL A   1      53.223  25.910  22.871  1.00  0.00    -0.237 OA
ATOM     90  O   UNL A   1      54.343  26.758  24.904  1.00  0.00    -0.237 OA
ATOM     91  O   UNL A   1      53.687  24.387  24.757  1.00  0.00    -0.744 OA
ENDBRANCH  87  88
ENDBRANCH  55  80
ENDBRANCH  29  30
ENDBRANCH  22  24
ENDBRANCH  21  22
ENDBRANCH  20  21
ENDBRANCH   1  20
TORSDOF 17
ENDMDL
MODEL 3
REMARK VINA RESULT:     -10.6      4.867     10.395
REMARK SMILES Cc1cc(S[C@@H](C)c2ccc(C(=O)OCCOC(=O)c3ccc(-c4c5nc(c(-c6c(F)cc(S(=O)(=O)[O-])cc6F)c6ccc([nH]6)c(-c6c(F)cc(S(=O)(=O)[O-])cc6F)c6nc(c(-c7c(F)cc(S(=O)(=O)[O-])cc7F)c7ccc4[nH]7)C=C6)C=C5)cc3)o2)n(C)n1
REMARK SMILES IDX 15 1 14 2 12 3 13 4 11 5 8 6 9 7 86 8 10 9 6 10 7 11 5 12
REMARK SMILES IDX 4 13 1 14 2 15 3 16 89 17 87 18 88 19 16 20 17 21 18 22
REMARK SMILES IDX 19 23 20 24 21 25 85 26 22 27 84 28 23 29 24 30 25 31 78 32
REMARK SMILES IDX 26 33 83 34 77 35 79 36 27 37 82 38 76 39 75 40 28 42 62 43
REMARK SMILES IDX 41 44 61 45 42 46 45 47 60 48 80 49 43 50 44 51 59 53 81 54
REMARK SMILES IDX 46 55 29 56 30 57 39 58 31 59 32 60 38 61 40 62 33 63 34 64
REMARK SMILES IDX 35 65 36 66 37 67 63 68 64 69 73 70 65 71 66 72 72 73 74 74
REMARK SMILES IDX 67 75 68 76 69 77 70 78 71 79 47 80 48 81 57 82 49 83 50 84
REMARK SMILES IDX 56 85 58 86 51 87 52 88 53 89 54 90 55 91
REMARK H PARENT 79 41 45 52
REMARK Flexibility Score: inf
ROOT
ATOM      1  C   UNL A   1      32.121  29.546  26.618  1.00  0.00     0.275 C 
ENDROOT
BRANCH   1   2
ATOM      2  O   UNL A   1      32.240  29.476  25.184  1.00  0.00    -0.456 OA
BRANCH   2   3
ATOM      3  C   UNL A   1      31.087  29.225  24.489  1.00  0.00     0.374 C 
ATOM      4  O   UNL A   1      30.299  30.089  24.139  1.00  0.00    -0.242 OA
BRANCH   3   5
ATOM      5  C   UNL A   1      30.959  27.802  24.248  1.00  0.00     0.211 A 
ATOM      6  C   UNL A   1      31.747  25.732  24.058  1.00  0.00     0.118 A 
ATOM      7  C   UNL A   1      30.374  25.650  23.926  1.00  0.00     0.048 A 
ATOM      8  O   UNL A   1      32.100  27.048  24.194  1.00  0.00    -0.453 OA
ATOM      9  C   UNL A   1      29.872  26.970  24.055  1.00  0.00     0.058 A 
BRANCH   6  10
ATOM     10  C   UNL A   1      32.830  24.680  24.101  1.00  0.00     0.116 C 
ATOM     11  C   UNL A   1      32.640  23.613  23.005  1.00  0.00     0.028 C 
BRANCH  10  12
ATOM     12  S   UNL A   1      33.084  23.933  25.769  1.00  0.00    -0.096 SA
BRANCH  12  13
ATOM     13  C   UNL A   1      34.699  23.317  25.649  1.00  0.00     0.095 A 
ATOM     14  C   UNL A   1      38.307  23.207  26.014  1.00  0.00     0.069 C 
ATOM     15  C   UNL A   1      36.865  22.971  25.824  1.00  0.00     0.061 A 
ATOM     16  C   UNL A   1      35.903  23.973  25.673  1.00  0.00     0.060 A 
ATOM     17  N   UNL A   1      36.326  21.751  25.737  1.00  0.00    -0.178 NA
ATOM     18  N   UNL A   1      35.008  21.986  25.526  1.00  0.00    -0.262 N 
ATOM     19  C   UNL A   1      34.169  20.909  25.048  1.00  0.00     0.175 C 
ENDBRANCH  12  13
ENDBRANCH  10  12
ENDBRANCH   6  10
ENDBRANCH   3   5
ENDBRANCH   2   3
ENDBRANCH   1   2
BRANCH   1  20
ATOM     20  C   UNL A   1      32.555  30.907  27.170  1.00  0.00     0.275 C 
BRANCH  20  21
ATOM     21  O   UNL A   1      33.980  31.103  27.064  1.00  0.00    -0.458 OA
BRANCH  21  22
ATOM     22  C   UNL A   1      34.618  31.273  28.244  1.00  0.00     0.338 C 
ATOM     23  O   UNL A   1      34.312  32.053  29.133  1.00  0.00    -0.246 OA
BRANCH  22  24
ATOM     24  C   UNL A   1      35.729  30.317  28.385  1.00  0.00     0.060 A 
ATOM     25  C   UNL A   1      36.080  29.940  29.669  1.00  0.00     0.016 A 
ATOM     26  C   UNL A   1      36.568  29.995  27.314  1.00  0.00     0.016 A 
ATOM     27  C   UNL A   1      37.339  29.381  29.892  1.00  0.00     0.010 A 
ATOM     28  C   UNL A   1      37.811  29.366  27.553  1.00  0.00     0.010 A 
ATOM     29  C   UNL A   1      38.273  29.148  28.860  1.00  0.00    -0.014 A 
BRANCH  29  30
ATOM     30  C   UNL A   1      39.720  28.849  29.227  1.00  0.00     0.031 A 
ATOM     31  C   UNL A   1      40.396  27.521  28.863  1.00  0.00     0.074 A 
ATOM     32  C   UNL A   1      40.520  29.839  29.694  1.00  0.00     0.049 A 
ATOM     33  N   UNL A   1      41.677  27.210  28.864  1.00  0.00    -0.248 NA
ATOM     34  C   UNL A   1      39.543  26.409  28.412  1.00  0.00     0.031 C 
ATOM     35  C   UNL A   1      40.070  31.182  30.064  1.00  0.00     0.029 A 
ATOM     36  N   UNL A   1      41.887  29.900  29.870  1.00  0.00    -0.354 N 
ATOM     37  C   UNL A   1      41.773  25.913  28.359  1.00  0.00     0.074 A 
ATOM     38  C   UNL A   1      40.426  25.478  28.078  1.00  0.00     0.031 C 
ATOM     39  C   UNL A   1      41.136  31.961  30.293  1.00  0.00     0.029 A 
ATOM     40  C   UNL A   1      42.350  31.152  30.219  1.00  0.00     0.049 A 
ATOM     41  H   UNL A   1      42.479  29.121  29.757  1.00  0.00     0.167 HD
ATOM     42  C   UNL A   1      42.862  25.129  28.160  1.00  0.00     0.037 A 
ATOM     43  C   UNL A   1      43.592  31.611  30.482  1.00  0.00     0.037 A 
ATOM     44  C   UNL A   1      44.206  25.480  28.543  1.00  0.00     0.049 A 
ATOM     45  C   UNL A   1      44.760  30.663  30.435  1.00  0.00     0.074 A 
ATOM     46  C   UNL A   1      45.339  24.683  28.526  1.00  0.00     0.029 A 
ATOM     47  N   UNL A   1      44.592  26.710  29.048  1.00  0.00    -0.354 N 
ATOM     48  N   UNL A   1      44.806  29.425  30.006  1.00  0.00    -0.248 NA
ATOM     49  C   UNL A   1      46.043  31.166  30.949  1.00  0.00     0.031 C 
ATOM     50  C   UNL A   1      46.387  25.398  29.113  1.00  0.00     0.029 A 
ATOM     51  C   UNL A   1      45.932  26.672  29.408  1.00  0.00     0.049 A 
ATOM     52  H   UNL A   1      44.004  27.494  29.140  1.00  0.00     0.167 HD
ATOM     53  C   UNL A   1      46.116  29.000  30.206  1.00  0.00     0.074 A 
ATOM     54  C   UNL A   1      46.843  30.127  30.751  1.00  0.00     0.031 C 
ATOM     55  C   UNL A   1      46.660  27.780  29.972  1.00  0.00     0.037 A 
BRANCH  42  56
ATOM     56  C   UNL A   1      42.636  23.739  27.619  1.00  0.00     0.058 A 
ATOM     57  C   UNL A   1      42.531  23.467  26.245  1.00  0.00     0.135 A 
ATOM     58  C   UNL A   1      42.565  22.651  28.506  1.00  0.00     0.135 A 
ATOM     59  F   UNL A   1      42.575  24.467  25.351  1.00  0.00    -0.206 F 
ATOM     60  C   UNL A   1      42.349  22.168  25.773  1.00  0.00     0.059 A 
ATOM     61  C   UNL A   1      42.404  21.344  28.055  1.00  0.00     0.059 A 
ATOM     62  F   UNL A   1      42.657  22.853  29.830  1.00  0.00    -0.206 F 
ATOM     63  C   UNL A   1      42.285  21.112  26.688  1.00  0.00     0.060 A 
BRANCH  63  64
ATOM     64  S   UNL A   1      42.030  19.434  26.069  1.00  0.00     0.124 S 
ATOM     65  O   UNL A   1      42.891  19.424  24.889  1.00  0.00    -0.237 OA
ATOM     66  O   UNL A   1      42.482  18.615  27.188  1.00  0.00    -0.237 OA
ATOM     67  O   UNL A   1      40.597  19.384  25.795  1.00  0.00    -0.744 OA
ENDBRANCH  63  64
ENDBRANCH  42  56
BRANCH  43  68
ATOM     68  C   UNL A   1      43.793  33.031  30.906  1.00  0.00     0.058 A 
ATOM     69  C   UNL A   1      44.182  34.028  29.998  1.00  0.00     0.135 A 
ATOM     70  C   UNL A   1      43.615  33.413  32.247  1.00  0.00     0.135 A 
ATOM     71  F   UNL A   1      44.398  33.718  28.711  1.00  0.00    -0.206 F 
ATOM     72  C   UNL A   1      44.383  35.347  30.403  1.00  0.00     0.059 A 
ATOM     73  C   UNL A   1      43.762  34.730  32.664  1.00  0.00     0.059 A 
ATOM     74  F   UNL A   1      43.258  32.502  33.167  1.00  0.00    -0.206 F 
ATOM     75  C   UNL A   1      44.158  35.689  31.737  1.00  0.00     0.060 A 
BRANCH  75  76
ATOM     76  S   UNL A   1      44.347  37.410  32.250  1.00  0.00     0.124 S 
ATOM     77  O   UNL A   1      43.403  37.493  33.358  1.00  0.00    -0.237 OA
ATOM     78  O   UNL A   1      45.761  37.473  32.608  1.00  0.00    -0.237 OA
ATOM     79  O   UNL A   1      43.981  38.157  31.050  1.00  0.00    -0.744 OA
ENDBRANCH  75  76
ENDBRANCH  43  68
BRANCH  55  80
ATOM     80  C   UNL A   1      48.118  27.590  30.299  1.00  0.00     0.058 A 
ATOM     81  C   UNL A   1      48.543  27.139  31.560  1.00  0.00     0.135 A 
ATOM     82  C   UNL A   1      49.106  27.847  29.335  1.00  0.00     0.135 A 
ATOM     83  F   UNL A   1      47.646  26.873  32.522  1.00  0.00    -0.206 F 
ATOM     84  C   UNL A   1      49.893  26.998  31.868  1.00  0.00     0.059 A 
ATOM     85  C   UNL A   1      50.461  27.680  29.609  1.00  0.00     0.059 A 
ATOM     86  F   UNL A   1      48.761  28.264  28.106  1.00  0.00    -0.206 F 
ATOM     87  C   UNL A   1      50.846  27.277  30.887  1.00  0.00     0.060 A 
BRANCH  87  88
ATOM     88  S   UNL A   1      52.595  27.108  31.302  1.00  0.00     0.124 S 
ATOM     89  O   UNL A   1      53.223  27.921  30.266  1.00  0.00    -0.237 OA
ATOM     90  O   UNL A   1      52.650  27.653  32.655  1.00  0.00    -0.237 OA
ATOM     91  O   UNL A   1      52.832  25.672  31.201  1.00  0.00    -0.744 OA
ENDBRANCH  87  88
ENDBRANCH  55  80
ENDBRANCH  29  30
ENDBRANCH  22  24
ENDBRANCH  21  22
ENDBRANCH  20  21
ENDBRANCH   1  20
TORSDOF 17
ENDMDL
