MODEL 1
REMARK VINA RESULT:     -11.9      0.000      0.000
REMARK SMILES O=C(OCCOC(=O)c1ccccc1N[C@H]1SC(=O)N(Cc2ccccc2)C1=O)c1ccc(-c2c3nc(c(-c4c(F)cc(S(=O)(=O)[O-])cc4F)c4ccc([nH]4)c(-c4c(F)cc(S(=O)(=O)[O-])cc4F)c4nc(c(-c5c(F)cc(S(=O)(=O)[O-])cc5F)c5ccc2[nH]5)C=C4)C=C3)cc1
REMARK SMILES IDX 5 1 4 2 3 3 2 4 1 5 30 6 31 7 95 8 32 9 94 10 33 11 34 12
REMARK SMILES IDX 35 13 88 14 36 15 93 16 87 17 89 18 37 19 92 20 86 21 85 22
REMARK SMILES IDX 38 24 72 25 51 26 71 27 52 28 55 29 70 30 90 31 53 32 54 33
REMARK SMILES IDX 69 35 91 36 56 37 39 38 40 39 49 40 41 41 42 42 48 43 50 44
REMARK SMILES IDX 43 45 44 46 45 47 46 48 47 49 73 50 74 51 83 52 75 53 76 54
REMARK SMILES IDX 82 55 84 56 77 57 78 58 79 59 80 60 81 61 57 62 58 63 67 64
REMARK SMILES IDX 59 65 60 66 66 67 68 68 61 69 62 70 63 71 64 72 65 73 6 74
REMARK SMILES IDX 7 75 8 76 9 77 10 78 14 79 11 80 13 81 12 82 15 83 16 85
REMARK SMILES IDX 17 86 28 87 18 88 20 89 29 90 19 91 21 92 22 93 23 94 27 95
REMARK SMILES IDX 24 96 26 97 25 98
REMARK H PARENT 89 23 55 34 15 84
REMARK Flexibility Score: inf
ROOT
ATOM      1  C   UNL A   1      33.679  28.842  24.979  1.00  0.00     0.275 C 
ENDROOT
BRANCH   1   2
ATOM      2  C   UNL A   1      33.720  28.577  26.488  1.00  0.00     0.275 C 
BRANCH   2   3
ATOM      3  O   UNL A   1      33.556  29.756  27.295  1.00  0.00    -0.458 OA
BRANCH   3   4
ATOM      4  C   UNL A   1      34.460  30.481  27.994  1.00  0.00     0.338 C 
ATOM      5  O   UNL A   1      34.140  31.619  28.336  1.00  0.00    -0.246 OA
BRANCH   4   6
ATOM      6  C   UNL A   1      35.868  30.040  28.293  1.00  0.00     0.060 A 
ATOM      7  C   UNL A   1      36.327  29.465  29.480  1.00  0.00     0.016 A 
ATOM      8  C   UNL A   1      36.805  30.208  27.250  1.00  0.00     0.016 A 
ATOM      9  C   UNL A   1      37.649  29.034  29.616  1.00  0.00     0.010 A 
ATOM     10  C   UNL A   1      38.133  29.788  27.380  1.00  0.00     0.010 A 
ATOM     11  C   UNL A   1      38.563  29.211  28.576  1.00  0.00    -0.014 A 
BRANCH  11  12
ATOM     12  C   UNL A   1      39.992  28.957  28.853  1.00  0.00     0.031 A 
ATOM     13  C   UNL A   1      40.578  27.679  28.369  1.00  0.00     0.074 A 
ATOM     14  C   UNL A   1      40.755  29.854  29.499  1.00  0.00     0.049 A 
ATOM     15  N   UNL A   1      41.823  27.303  28.370  1.00  0.00    -0.248 NA
ATOM     16  C   UNL A   1      39.627  26.676  27.866  1.00  0.00     0.031 C 
ATOM     17  C   UNL A   1      40.217  31.039  30.131  1.00  0.00     0.029 A 
ATOM     18  N   UNL A   1      42.104  29.941  29.735  1.00  0.00    -0.354 N 
ATOM     19  C   UNL A   1      41.806  25.992  27.928  1.00  0.00     0.074 A 
ATOM     20  C   UNL A   1      40.428  25.643  27.657  1.00  0.00     0.031 C 
ATOM     21  C   UNL A   1      41.220  31.775  30.627  1.00  0.00     0.029 A 
ATOM     22  C   UNL A   1      42.482  31.152  30.284  1.00  0.00     0.049 A 
ATOM     23  H   UNL A   1      42.739  29.215  29.532  1.00  0.00     0.167 HD
ATOM     24  C   UNL A   1      42.858  25.155  27.802  1.00  0.00     0.037 A 
ATOM     25  C   UNL A   1      43.704  31.707  30.427  1.00  0.00     0.037 A 
ATOM     26  C   UNL A   1      44.206  25.535  28.126  1.00  0.00     0.049 A 
ATOM     27  C   UNL A   1      44.874  30.822  30.100  1.00  0.00     0.074 A 
ATOM     28  C   UNL A   1      45.355  24.773  28.067  1.00  0.00     0.029 A 
ATOM     29  N   UNL A   1      44.582  26.793  28.590  1.00  0.00    -0.354 N 
ATOM     30  N   UNL A   1      44.861  29.594  29.632  1.00  0.00    -0.248 NA
ATOM     31  C   UNL A   1      46.214  31.352  30.372  1.00  0.00     0.031 C 
ATOM     32  C   UNL A   1      46.418  25.554  28.537  1.00  0.00     0.029 A 
ATOM     33  C   UNL A   1      45.945  26.826  28.824  1.00  0.00     0.049 A 
ATOM     34  H   UNL A   1      43.966  27.549  28.730  1.00  0.00     0.167 HD
ATOM     35  C   UNL A   1      46.186  29.194  29.578  1.00  0.00     0.074 A 
ATOM     36  C   UNL A   1      46.980  30.335  29.997  1.00  0.00     0.031 C 
ATOM     37  C   UNL A   1      46.697  27.982  29.253  1.00  0.00     0.037 A 
BRANCH  24  38
ATOM     38  C   UNL A   1      42.540  23.748  27.392  1.00  0.00     0.058 A 
ATOM     39  C   UNL A   1      42.353  22.723  28.333  1.00  0.00     0.135 A 
ATOM     40  C   UNL A   1      42.516  23.404  26.032  1.00  0.00     0.135 A 
ATOM     41  F   UNL A   1      42.410  22.991  29.649  1.00  0.00    -0.206 F 
ATOM     42  C   UNL A   1      42.205  21.397  27.941  1.00  0.00     0.059 A 
ATOM     43  C   UNL A   1      42.332  22.090  25.617  1.00  0.00     0.059 A 
ATOM     44  F   UNL A   1      42.710  24.341  25.092  1.00  0.00    -0.206 F 
ATOM     45  C   UNL A   1      42.201  21.091  26.580  1.00  0.00     0.060 A 
BRANCH  45  46
ATOM     46  S   UNL A   1      42.036  19.364  26.087  1.00  0.00     0.124 S 
ATOM     47  O   UNL A   1      42.930  19.302  24.935  1.00  0.00    -0.237 OA
ATOM     48  O   UNL A   1      42.491  18.656  27.280  1.00  0.00    -0.237 OA
ATOM     49  O   UNL A   1      40.614  19.230  25.786  1.00  0.00    -0.744 OA
ENDBRANCH  45  46
ENDBRANCH  24  38
BRANCH  25  50
ATOM     50  C   UNL A   1      43.893  33.148  30.799  1.00  0.00     0.058 A 
ATOM     51  C   UNL A   1      43.985  34.136  29.797  1.00  0.00     0.135 A 
ATOM     52  C   UNL A   1      43.964  33.597  32.127  1.00  0.00     0.135 A 
ATOM     53  F   UNL A   1      43.957  33.784  28.501  1.00  0.00    -0.206 F 
ATOM     54  C   UNL A   1      44.133  35.491  30.094  1.00  0.00     0.059 A 
ATOM     55  C   UNL A   1      44.078  34.951  32.451  1.00  0.00     0.059 A 
ATOM     56  F   UNL A   1      43.902  32.717  33.139  1.00  0.00    -0.206 F 
ATOM     57  C   UNL A   1      44.168  35.891  31.427  1.00  0.00     0.060 A 
BRANCH  57  58
ATOM     58  S   UNL A   1      44.295  37.655  31.804  1.00  0.00     0.124 S 
ATOM     59  O   UNL A   1      43.485  37.761  33.012  1.00  0.00    -0.237 OA
ATOM     60  O   UNL A   1      45.734  37.832  31.982  1.00  0.00    -0.237 OA
ATOM     61  O   UNL A   1      43.739  38.294  30.615  1.00  0.00    -0.744 OA
ENDBRANCH  57  58
ENDBRANCH  25  50
BRANCH  37  62
ATOM     62  C   UNL A   1      48.187  27.840  29.344  1.00  0.00     0.058 A 
ATOM     63  C   UNL A   1      49.020  28.117  28.248  1.00  0.00     0.135 A 
ATOM     64  C   UNL A   1      48.786  27.465  30.555  1.00  0.00     0.135 A 
ATOM     65  F   UNL A   1      48.492  28.474  27.066  1.00  0.00    -0.206 F 
ATOM     66  C   UNL A   1      50.401  27.997  28.342  1.00  0.00     0.059 A 
ATOM     67  C   UNL A   1      50.165  27.370  30.681  1.00  0.00     0.059 A 
ATOM     68  F   UNL A   1      48.030  27.199  31.631  1.00  0.00    -0.206 F 
ATOM     69  C   UNL A   1      50.963  27.624  29.566  1.00  0.00     0.060 A 
BRANCH  69  70
ATOM     70  S   UNL A   1      52.758  27.500  29.685  1.00  0.00     0.124 S 
ATOM     71  O   UNL A   1      52.937  27.206  31.103  1.00  0.00    -0.237 OA
ATOM     72  O   UNL A   1      53.055  26.405  28.767  1.00  0.00    -0.237 OA
ATOM     73  O   UNL A   1      53.218  28.815  29.253  1.00  0.00    -0.744 OA
ENDBRANCH  69  70
ENDBRANCH  37  62
ENDBRANCH  11  12
ENDBRANCH   4   6
ENDBRANCH   3   4
ENDBRANCH   2   3
ENDBRANCH   1   2
BRANCH   1  74
ATOM     74  O   UNL A   1      34.137  27.732  24.190  1.00  0.00    -0.458 OA
BRANCH  74  75
ATOM     75  C   UNL A   1      33.404  27.491  23.070  1.00  0.00     0.340 C 
ATOM     76  O   UNL A   1      33.800  27.602  21.920  1.00  0.00    -0.246 OA
BRANCH  75  77
ATOM     77  C   UNL A   1      32.067  26.945  23.403  1.00  0.00     0.083 A 
ATOM     78  C   UNL A   1      30.983  27.668  22.867  1.00  0.00     0.018 A 
ATOM     79  C   UNL A   1      31.873  25.825  24.247  1.00  0.00     0.050 A 
ATOM     80  C   UNL A   1      29.678  27.298  23.161  1.00  0.00     0.001 A 
ATOM     81  C   UNL A   1      30.550  25.591  24.648  1.00  0.00     0.026 A 
ATOM     82  C   UNL A   1      29.465  26.277  24.075  1.00  0.00     0.002 A 
BRANCH  79  83
ATOM     83  N   UNL A   1      32.929  25.011  24.612  1.00  0.00    -0.364 N 
ATOM     84  H   UNL A   1      33.222  25.120  25.546  1.00  0.00     0.162 HD
BRANCH  83  85
ATOM     85  C   UNL A   1      33.692  24.013  23.854  1.00  0.00     0.238 C 
ATOM     86  S   UNL A   1      35.272  23.536  24.519  1.00  0.00    -0.029 SA
ATOM     87  C   UNL A   1      32.914  22.683  23.886  1.00  0.00     0.263 C 
ATOM     88  C   UNL A   1      34.621  22.143  25.340  1.00  0.00     0.291 C 
ATOM     89  N   UNL A   1      33.372  21.854  24.884  1.00  0.00    -0.266 N 
ATOM     90  O   UNL A   1      31.969  22.445  23.137  1.00  0.00    -0.271 OA
ATOM     91  O   UNL A   1      35.274  21.494  26.146  1.00  0.00    -0.261 OA
BRANCH  89  92
ATOM     92  C   UNL A   1      32.747  20.588  25.237  1.00  0.00     0.165 C 
BRANCH  92  93
ATOM     93  C   UNL A   1      33.141  19.398  24.380  1.00  0.00    -0.028 A 
ATOM     94  C   UNL A   1      32.353  19.027  23.277  1.00  0.00     0.005 A 
ATOM     95  C   UNL A   1      34.212  18.562  24.730  1.00  0.00     0.005 A 
ATOM     96  C   UNL A   1      32.627  17.856  22.561  1.00  0.00     0.000 A 
ATOM     97  C   UNL A   1      34.493  17.400  24.008  1.00  0.00     0.000 A 
ATOM     98  C   UNL A   1      33.696  17.042  22.928  1.00  0.00     0.000 A 
ENDBRANCH  92  93
ENDBRANCH  89  92
ENDBRANCH  83  85
ENDBRANCH  79  83
ENDBRANCH  75  77
ENDBRANCH  74  75
ENDBRANCH   1  74
TORSDOF 18
ENDMDL
MODEL 2
REMARK VINA RESULT:     -11.8      2.638      8.726
REMARK SMILES O=C(OCCOC(=O)c1ccccc1N[C@H]1SC(=O)N(Cc2ccccc2)C1=O)c1ccc(-c2c3nc(c(-c4c(F)cc(S(=O)(=O)[O-])cc4F)c4ccc([nH]4)c(-c4c(F)cc(S(=O)(=O)[O-])cc4F)c4nc(c(-c5c(F)cc(S(=O)(=O)[O-])cc5F)c5ccc2[nH]5)C=C4)C=C3)cc1
REMARK SMILES IDX 5 1 4 2 3 3 2 4 1 5 30 6 31 7 95 8 32 9 94 10 33 11 34 12
REMARK SMILES IDX 35 13 88 14 36 15 93 16 87 17 89 18 37 19 92 20 86 21 85 22
REMARK SMILES IDX 38 24 72 25 51 26 71 27 52 28 55 29 70 30 90 31 53 32 54 33
REMARK SMILES IDX 69 35 91 36 56 37 39 38 40 39 49 40 41 41 42 42 48 43 50 44
REMARK SMILES IDX 43 45 44 46 45 47 46 48 47 49 73 50 74 51 83 52 75 53 76 54
REMARK SMILES IDX 82 55 84 56 77 57 78 58 79 59 80 60 81 61 57 62 58 63 67 64
REMARK SMILES IDX 59 65 60 66 66 67 68 68 61 69 62 70 63 71 64 72 65 73 6 74
REMARK SMILES IDX 7 75 8 76 9 77 10 78 14 79 11 80 13 81 12 82 15 83 16 85
REMARK SMILES IDX 17 86 28 87 18 88 20 89 29 90 19 91 21 92 22 93 23 94 27 95
REMARK SMILES IDX 24 96 26 97 25 98
REMARK H PARENT 89 23 55 34 15 84
REMARK Flexibility Score: inf
ROOT
ATOM      1  C   UNL A   1      34.457  29.081  27.418  1.00  0.00     0.275 C 
ENDROOT
BRANCH   1   2
ATOM      2  C   UNL A   1      34.980  30.463  27.827  1.00  0.00     0.275 C 
BRANCH   2   3
ATOM      3  O   UNL A   1      35.524  30.514  29.158  1.00  0.00    -0.458 OA
BRANCH   3   4
ATOM      4  C   UNL A   1      36.479  29.761  29.751  1.00  0.00     0.338 C 
ATOM      5  O   UNL A   1      36.224  29.279  30.855  1.00  0.00    -0.246 OA
BRANCH   4   6
ATOM      6  C   UNL A   1      37.868  29.555  29.211  1.00  0.00     0.060 A 
ATOM      7  C   UNL A   1      38.269  29.668  27.878  1.00  0.00     0.016 A 
ATOM      8  C   UNL A   1      38.862  29.239  30.161  1.00  0.00     0.016 A 
ATOM      9  C   UNL A   1      39.608  29.518  27.505  1.00  0.00     0.010 A 
ATOM     10  C   UNL A   1      40.204  29.077  29.797  1.00  0.00     0.010 A 
ATOM     11  C   UNL A   1      40.578  29.202  28.458  1.00  0.00    -0.014 A 
BRANCH  11  12
ATOM     12  C   UNL A   1      41.925  28.824  27.983  1.00  0.00     0.031 A 
ATOM     13  C   UNL A   1      43.021  29.816  28.139  1.00  0.00     0.074 A 
ATOM     14  C   UNL A   1      42.170  27.617  27.449  1.00  0.00     0.049 A 
ATOM     15  N   UNL A   1      44.295  29.660  27.929  1.00  0.00    -0.248 NA
ATOM     16  C   UNL A   1      42.620  31.174  28.535  1.00  0.00     0.031 C 
ATOM     17  C   UNL A   1      41.125  26.669  27.125  1.00  0.00     0.029 A 
ATOM     18  N   UNL A   1      43.325  26.966  27.090  1.00  0.00    -0.354 N 
ATOM     19  C   UNL A   1      44.848  30.916  28.103  1.00  0.00     0.074 A 
ATOM     20  C   UNL A   1      43.772  31.820  28.447  1.00  0.00     0.031 C 
ATOM     21  C   UNL A   1      41.676  25.533  26.679  1.00  0.00     0.029 A 
ATOM     22  C   UNL A   1      43.119  25.642  26.753  1.00  0.00     0.049 A 
ATOM     23  H   UNL A   1      44.209  27.400  27.075  1.00  0.00     0.167 HD
ATOM     24  C   UNL A   1      46.141  31.273  27.947  1.00  0.00     0.037 A 
ATOM     25  C   UNL A   1      43.999  24.631  26.590  1.00  0.00     0.037 A 
ATOM     26  C   UNL A   1      47.169  30.345  27.560  1.00  0.00     0.049 A 
ATOM     27  C   UNL A   1      45.453  25.013  26.608  1.00  0.00     0.074 A 
ATOM     28  C   UNL A   1      48.511  30.586  27.342  1.00  0.00     0.029 A 
ATOM     29  N   UNL A   1      46.959  28.991  27.316  1.00  0.00    -0.354 N 
ATOM     30  N   UNL A   1      45.983  26.196  26.823  1.00  0.00    -0.248 NA
ATOM     31  C   UNL A   1      46.427  23.959  26.303  1.00  0.00     0.031 C 
ATOM     32  C   UNL A   1      49.103  29.389  26.924  1.00  0.00     0.029 A 
ATOM     33  C   UNL A   1      48.146  28.384  26.946  1.00  0.00     0.049 A 
ATOM     34  H   UNL A   1      46.091  28.531  27.395  1.00  0.00     0.167 HD
ATOM     35  C   UNL A   1      47.348  26.037  26.653  1.00  0.00     0.074 A 
ATOM     36  C   UNL A   1      47.570  24.627  26.384  1.00  0.00     0.031 C 
ATOM     37  C   UNL A   1      48.324  26.977  26.674  1.00  0.00     0.037 A 
BRANCH  24  38
ATOM     38  C   UNL A   1      46.449  32.732  28.103  1.00  0.00     0.058 A 
ATOM     39  C   UNL A   1      46.327  33.637  27.035  1.00  0.00     0.135 A 
ATOM     40  C   UNL A   1      46.966  33.212  29.316  1.00  0.00     0.135 A 
ATOM     41  F   UNL A   1      45.879  33.219  25.840  1.00  0.00    -0.206 F 
ATOM     42  C   UNL A   1      46.754  34.955  27.151  1.00  0.00     0.059 A 
ATOM     43  C   UNL A   1      47.365  34.536  29.463  1.00  0.00     0.059 A 
ATOM     44  F   UNL A   1      47.123  32.385  30.360  1.00  0.00    -0.206 F 
ATOM     45  C   UNL A   1      47.276  35.393  28.368  1.00  0.00     0.060 A 
BRANCH  45  46
ATOM     46  S   UNL A   1      47.853  37.097  28.494  1.00  0.00     0.124 S 
ATOM     47  O   UNL A   1      47.167  37.549  29.700  1.00  0.00    -0.237 OA
ATOM     48  O   UNL A   1      49.298  36.928  28.614  1.00  0.00    -0.237 OA
ATOM     49  O   UNL A   1      47.398  37.703  27.247  1.00  0.00    -0.744 OA
ENDBRANCH  45  46
ENDBRANCH  24  38
BRANCH  25  50
ATOM     50  C   UNL A   1      43.567  23.198  26.492  1.00  0.00     0.058 A 
ATOM     51  C   UNL A   1      43.684  22.501  25.272  1.00  0.00     0.135 A 
ATOM     52  C   UNL A   1      43.056  22.473  27.580  1.00  0.00     0.135 A 
ATOM     53  F   UNL A   1      44.135  23.133  24.177  1.00  0.00    -0.206 F 
ATOM     54  C   UNL A   1      43.321  21.160  25.139  1.00  0.00     0.059 A 
ATOM     55  C   UNL A   1      42.718  21.121  27.482  1.00  0.00     0.059 A 
ATOM     56  F   UNL A   1      42.897  23.070  28.772  1.00  0.00    -0.206 F 
ATOM     57  C   UNL A   1      42.848  20.474  26.255  1.00  0.00     0.060 A 
BRANCH  57  58
ATOM     58  S   UNL A   1      42.441  18.719  26.090  1.00  0.00     0.124 S 
ATOM     59  O   UNL A   1      42.700  18.225  27.438  1.00  0.00    -0.237 OA
ATOM     60  O   UNL A   1      41.039  18.763  25.684  1.00  0.00    -0.237 OA
ATOM     61  O   UNL A   1      43.366  18.254  25.061  1.00  0.00    -0.744 OA
ENDBRANCH  57  58
ENDBRANCH  25  50
BRANCH  37  62
ATOM     62  C   UNL A   1      49.718  26.499  26.397  1.00  0.00     0.058 A 
ATOM     63  C   UNL A   1      50.285  26.590  25.117  1.00  0.00     0.135 A 
ATOM     64  C   UNL A   1      50.505  25.984  27.438  1.00  0.00     0.135 A 
ATOM     65  F   UNL A   1      49.568  27.070  24.088  1.00  0.00    -0.206 F 
ATOM     66  C   UNL A   1      51.582  26.158  24.870  1.00  0.00     0.059 A 
ATOM     67  C   UNL A   1      51.814  25.577  27.220  1.00  0.00     0.059 A 
ATOM     68  F   UNL A   1      50.006  25.887  28.679  1.00  0.00    -0.206 F 
ATOM     69  C   UNL A   1      52.339  25.655  25.931  1.00  0.00     0.060 A 
BRANCH  69  70
ATOM     70  S   UNL A   1      54.031  25.123  25.606  1.00  0.00     0.124 S 
ATOM     71  O   UNL A   1      53.914  23.675  25.740  1.00  0.00    -0.237 OA
ATOM     72  O   UNL A   1      54.258  25.621  24.252  1.00  0.00    -0.237 OA
ATOM     73  O   UNL A   1      54.802  25.791  26.650  1.00  0.00    -0.744 OA
ENDBRANCH  69  70
ENDBRANCH  37  62
ENDBRANCH  11  12
ENDBRANCH   4   6
ENDBRANCH   3   4
ENDBRANCH   2   3
ENDBRANCH   1   2
BRANCH   1  74
ATOM     74  O   UNL A   1      33.482  29.127  26.364  1.00  0.00    -0.458 OA
BRANCH  74  75
ATOM     75  C   UNL A   1      32.367  28.381  26.591  1.00  0.00     0.340 C 
ATOM     76  O   UNL A   1      32.022  27.924  27.668  1.00  0.00    -0.246 OA
BRANCH  75  77
ATOM     77  C   UNL A   1      31.525  28.281  25.375  1.00  0.00     0.083 A 
ATOM     78  C   UNL A   1      31.240  29.512  24.751  1.00  0.00     0.018 A 
ATOM     79  C   UNL A   1      30.985  27.061  24.901  1.00  0.00     0.050 A 
ATOM     80  C   UNL A   1      30.408  29.560  23.642  1.00  0.00     0.001 A 
ATOM     81  C   UNL A   1      30.024  27.178  23.887  1.00  0.00     0.026 A 
ATOM     82  C   UNL A   1      29.777  28.396  23.230  1.00  0.00     0.002 A 
BRANCH  79  83
ATOM     83  N   UNL A   1      31.418  25.845  25.397  1.00  0.00    -0.364 N 
ATOM     84  H   UNL A   1      32.288  25.881  25.857  1.00  0.00     0.162 HD
BRANCH  83  85
ATOM     85  C   UNL A   1      30.810  24.510  25.361  1.00  0.00     0.238 C 
ATOM     86  S   UNL A   1      30.892  23.633  23.814  1.00  0.00    -0.029 SA
ATOM     87  C   UNL A   1      31.612  23.586  26.298  1.00  0.00     0.263 C 
ATOM     88  C   UNL A   1      32.331  22.761  24.268  1.00  0.00     0.291 C 
ATOM     89  N   UNL A   1      32.554  22.861  25.606  1.00  0.00    -0.266 N 
ATOM     90  O   UNL A   1      31.446  23.565  27.515  1.00  0.00    -0.271 OA
ATOM     91  O   UNL A   1      32.970  22.092  23.467  1.00  0.00    -0.261 OA
BRANCH  89  92
ATOM     92  C   UNL A   1      33.543  22.004  26.241  1.00  0.00     0.165 C 
BRANCH  92  93
ATOM     93  C   UNL A   1      34.989  22.272  25.860  1.00  0.00    -0.028 A 
ATOM     94  C   UNL A   1      35.800  21.229  25.379  1.00  0.00     0.005 A 
ATOM     95  C   UNL A   1      35.594  23.516  26.096  1.00  0.00     0.005 A 
ATOM     96  C   UNL A   1      37.167  21.429  25.153  1.00  0.00     0.000 A 
ATOM     97  C   UNL A   1      36.954  23.719  25.858  1.00  0.00     0.000 A 
ATOM     98  C   UNL A   1      37.744  22.673  25.394  1.00  0.00     0.000 A 
ENDBRANCH  92  93
ENDBRANCH  89  92
ENDBRANCH  83  85
ENDBRANCH  79  83
ENDBRANCH  75  77
ENDBRANCH  74  75
ENDBRANCH   1  74
TORSDOF 18
ENDMDL
MODEL 3
REMARK VINA RESULT:     -11.8      4.148      7.131
REMARK SMILES O=C(OCCOC(=O)c1ccccc1N[C@H]1SC(=O)N(Cc2ccccc2)C1=O)c1ccc(-c2c3nc(c(-c4c(F)cc(S(=O)(=O)[O-])cc4F)c4ccc([nH]4)c(-c4c(F)cc(S(=O)(=O)[O-])cc4F)c4nc(c(-c5c(F)cc(S(=O)(=O)[O-])cc5F)c5ccc2[nH]5)C=C4)C=C3)cc1
REMARK SMILES IDX 5 1 4 2 3 3 2 4 1 5 30 6 31 7 95 8 32 9 94 10 33 11 34 12
REMARK SMILES IDX 35 13 88 14 36 15 93 16 87 17 89 18 37 19 92 20 86 21 85 22
REMARK SMILES IDX 38 24 72 25 51 26 71 27 52 28 55 29 70 30 90 31 53 32 54 33
REMARK SMILES IDX 69 35 91 36 56 37 39 38 40 39 49 40 41 41 42 42 48 43 50 44
REMARK SMILES IDX 43 45 44 46 45 47 46 48 47 49 73 50 74 51 83 52 75 53 76 54
REMARK SMILES IDX 82 55 84 56 77 57 78 58 79 59 80 60 81 61 57 62 58 63 67 64
REMARK SMILES IDX 59 65 60 66 66 67 68 68 61 69 62 70 63 71 64 72 65 73 6 74
REMARK SMILES IDX 7 75 8 76 9 77 10 78 14 79 11 80 13 81 12 82 15 83 16 85
REMARK SMILES IDX 17 86 28 87 18 88 20 89 29 90 19 91 21 92 22 93 23 94 27 95
REMARK SMILES IDX 24 96 26 97 25 98
REMARK H PARENT 89 23 55 34 15 84
REMARK Flexibility Score: inf
ROOT
ATOM      1  C   UNL A   1      32.780  33.793  27.709  1.00  0.00     0.275 C 
ENDROOT
BRANCH   1   2
ATOM      2  C   UNL A   1      32.817  32.266  27.574  1.00  0.00     0.275 C 
BRANCH   2   3
ATOM      3  O   UNL A   1      34.055  31.670  27.999  1.00  0.00    -0.458 OA
BRANCH   3   4
ATOM      4  C   UNL A   1      34.511  30.402  27.881  1.00  0.00     0.338 C 
ATOM      5  O   UNL A   1      33.698  29.527  27.583  1.00  0.00    -0.246 OA
BRANCH   4   6
ATOM      6  C   UNL A   1      35.916  29.962  28.191  1.00  0.00     0.060 A 
ATOM      7  C   UNL A   1      36.358  29.349  29.366  1.00  0.00     0.016 A 
ATOM      8  C   UNL A   1      36.872  30.175  27.174  1.00  0.00     0.016 A 
ATOM      9  C   UNL A   1      37.681  28.924  29.513  1.00  0.00     0.010 A 
ATOM     10  C   UNL A   1      38.201  29.761  27.315  1.00  0.00     0.010 A 
ATOM     11  C   UNL A   1      38.613  29.145  28.498  1.00  0.00    -0.014 A 
BRANCH  11  12
ATOM     12  C   UNL A   1      40.039  28.893  28.793  1.00  0.00     0.031 A 
ATOM     13  C   UNL A   1      40.633  27.617  28.313  1.00  0.00     0.074 A 
ATOM     14  C   UNL A   1      40.792  29.789  29.451  1.00  0.00     0.049 A 
ATOM     15  N   UNL A   1      41.879  27.243  28.329  1.00  0.00    -0.248 NA
ATOM     16  C   UNL A   1      39.691  26.614  27.794  1.00  0.00     0.031 C 
ATOM     17  C   UNL A   1      40.243  30.972  30.078  1.00  0.00     0.029 A 
ATOM     18  N   UNL A   1      42.138  29.879  29.704  1.00  0.00    -0.354 N 
ATOM     19  C   UNL A   1      41.870  25.933  27.884  1.00  0.00     0.074 A 
ATOM     20  C   UNL A   1      40.497  25.583  27.594  1.00  0.00     0.031 C 
ATOM     21  C   UNL A   1      41.238  31.709  30.589  1.00  0.00     0.029 A 
ATOM     22  C   UNL A   1      42.506  31.088  30.262  1.00  0.00     0.049 A 
ATOM     23  H   UNL A   1      42.776  29.154  29.509  1.00  0.00     0.167 HD
ATOM     24  C   UNL A   1      42.925  25.099  27.770  1.00  0.00     0.037 A 
ATOM     25  C   UNL A   1      43.725  31.645  30.423  1.00  0.00     0.037 A 
ATOM     26  C   UNL A   1      44.269  25.480  28.113  1.00  0.00     0.049 A 
ATOM     27  C   UNL A   1      44.901  30.763  30.108  1.00  0.00     0.074 A 
ATOM     28  C   UNL A   1      45.420  24.720  28.067  1.00  0.00     0.029 A 
ATOM     29  N   UNL A   1      44.635  26.738  28.584  1.00  0.00    -0.354 N 
ATOM     30  N   UNL A   1      44.896  29.536  29.637  1.00  0.00    -0.248 NA
ATOM     31  C   UNL A   1      46.236  31.295  30.399  1.00  0.00     0.031 C 
ATOM     32  C   UNL A   1      46.474  25.502  28.553  1.00  0.00     0.029 A 
ATOM     33  C   UNL A   1      45.995  26.773  28.837  1.00  0.00     0.049 A 
ATOM     34  H   UNL A   1      44.017  27.493  28.719  1.00  0.00     0.167 HD
ATOM     35  C   UNL A   1      46.222  29.139  29.600  1.00  0.00     0.074 A 
ATOM     36  C   UNL A   1      47.009  30.280  30.033  1.00  0.00     0.031 C 
ATOM     37  C   UNL A   1      46.740  27.929  29.279  1.00  0.00     0.037 A 
BRANCH  24  38
ATOM     38  C   UNL A   1      42.615  23.693  27.352  1.00  0.00     0.058 A 
ATOM     39  C   UNL A   1      42.351  22.679  28.288  1.00  0.00     0.135 A 
ATOM     40  C   UNL A   1      42.677  23.335  25.996  1.00  0.00     0.135 A 
ATOM     41  F   UNL A   1      42.324  22.959  29.601  1.00  0.00    -0.206 F 
ATOM     42  C   UNL A   1      42.210  21.352  27.898  1.00  0.00     0.059 A 
ATOM     43  C   UNL A   1      42.502  22.019  25.582  1.00  0.00     0.059 A 
ATOM     44  F   UNL A   1      42.946  24.260  25.063  1.00  0.00    -0.206 F 
ATOM     45  C   UNL A   1      42.293  21.032  26.543  1.00  0.00     0.060 A 
BRANCH  45  46
ATOM     46  S   UNL A   1      42.136  19.303  26.055  1.00  0.00     0.124 S 
ATOM     47  O   UNL A   1      40.713  19.214  25.744  1.00  0.00    -0.237 OA
ATOM     48  O   UNL A   1      43.040  19.220  24.911  1.00  0.00    -0.237 OA
ATOM     49  O   UNL A   1      42.567  18.574  27.244  1.00  0.00    -0.744 OA
ENDBRANCH  45  46
ENDBRANCH  24  38
BRANCH  25  50
ATOM     50  C   UNL A   1      43.907  33.086  30.801  1.00  0.00     0.058 A 
ATOM     51  C   UNL A   1      44.108  33.449  32.148  1.00  0.00     0.135 A 
ATOM     52  C   UNL A   1      43.912  34.131  29.864  1.00  0.00     0.135 A 
ATOM     53  F   UNL A   1      44.085  32.510  33.108  1.00  0.00    -0.206 F 
ATOM     54  C   UNL A   1      44.308  34.771  32.545  1.00  0.00     0.059 A 
ATOM     55  C   UNL A   1      44.145  35.459  30.231  1.00  0.00     0.059 A 
ATOM     56  F   UNL A   1      43.710  33.871  28.563  1.00  0.00    -0.206 F 
ATOM     57  C   UNL A   1      44.335  35.771  31.576  1.00  0.00     0.060 A 
BRANCH  57  58
ATOM     58  S   UNL A   1      44.661  37.474  32.090  1.00  0.00     0.124 S 
ATOM     59  O   UNL A   1      46.059  37.399  32.501  1.00  0.00    -0.237 OA
ATOM     60  O   UNL A   1      44.394  38.224  30.866  1.00  0.00    -0.237 OA
ATOM     61  O   UNL A   1      43.699  37.690  33.167  1.00  0.00    -0.744 OA
ENDBRANCH  57  58
ENDBRANCH  25  50
BRANCH  37  62
ATOM     62  C   UNL A   1      48.229  27.789  29.388  1.00  0.00     0.058 A 
ATOM     63  C   UNL A   1      48.837  27.278  30.546  1.00  0.00     0.135 A 
ATOM     64  C   UNL A   1      49.049  28.131  28.304  1.00  0.00     0.135 A 
ATOM     65  F   UNL A   1      48.092  26.942  31.613  1.00  0.00    -0.206 F 
ATOM     66  C   UNL A   1      50.216  27.138  30.635  1.00  0.00     0.059 A 
ATOM     67  C   UNL A   1      50.427  27.969  28.359  1.00  0.00     0.059 A 
ATOM     68  F   UNL A   1      48.511  28.616  27.174  1.00  0.00    -0.206 F 
ATOM     69  C   UNL A   1      51.001  27.485  29.534  1.00  0.00     0.060 A 
BRANCH  69  70
ATOM     70  S   UNL A   1      52.788  27.272  29.650  1.00  0.00     0.124 S 
ATOM     71  O   UNL A   1      53.254  28.653  29.565  1.00  0.00    -0.237 OA
ATOM     72  O   UNL A   1      52.941  26.629  30.951  1.00  0.00    -0.237 OA
ATOM     73  O   UNL A   1      53.104  26.431  28.500  1.00  0.00    -0.744 OA
ENDBRANCH  69  70
ENDBRANCH  37  62
ENDBRANCH  11  12
ENDBRANCH   4   6
ENDBRANCH   3   4
ENDBRANCH   2   3
ENDBRANCH   1   2
BRANCH   1  74
ATOM     74  O   UNL A   1      32.772  34.247  29.071  1.00  0.00    -0.458 OA
BRANCH  74  75
ATOM     75  C   UNL A   1      33.552  35.336  29.310  1.00  0.00     0.340 C 
ATOM     76  O   UNL A   1      34.002  36.091  28.463  1.00  0.00    -0.246 OA
BRANCH  75  77
ATOM     77  C   UNL A   1      33.702  35.588  30.763  1.00  0.00     0.083 A 
ATOM     78  C   UNL A   1      33.314  36.876  31.183  1.00  0.00     0.018 A 
ATOM     79  C   UNL A   1      34.254  34.644  31.663  1.00  0.00     0.050 A 
ATOM     80  C   UNL A   1      33.468  37.258  32.507  1.00  0.00     0.001 A 
ATOM     81  C   UNL A   1      34.543  35.129  32.946  1.00  0.00     0.026 A 
ATOM     82  C   UNL A   1      34.110  36.394  33.381  1.00  0.00     0.002 A 
BRANCH  79  83
ATOM     83  N   UNL A   1      34.454  33.328  31.288  1.00  0.00    -0.364 N 
ATOM     84  H   UNL A   1      33.648  32.765  31.339  1.00  0.00     0.162 HD
BRANCH  83  85
ATOM     85  C   UNL A   1      35.654  32.623  30.827  1.00  0.00     0.238 C 
ATOM     86  S   UNL A   1      37.041  33.629  30.343  1.00  0.00    -0.029 SA
ATOM     87  C   UNL A   1      36.233  31.825  32.012  1.00  0.00     0.263 C 
ATOM     88  C   UNL A   1      37.800  33.514  31.907  1.00  0.00     0.291 C 
ATOM     89  N   UNL A   1      37.236  32.521  32.647  1.00  0.00    -0.266 N 
ATOM     90  O   UNL A   1      35.793  30.731  32.357  1.00  0.00    -0.271 OA
ATOM     91  O   UNL A   1      38.766  34.198  32.217  1.00  0.00    -0.261 OA
BRANCH  89  92
ATOM     92  C   UNL A   1      37.879  32.076  33.874  1.00  0.00     0.165 C 
BRANCH  92  93
ATOM     93  C   UNL A   1      39.090  31.178  33.694  1.00  0.00    -0.028 A 
ATOM     94  C   UNL A   1      38.933  29.860  33.233  1.00  0.00     0.005 A 
ATOM     95  C   UNL A   1      40.372  31.582  34.099  1.00  0.00     0.005 A 
ATOM     96  C   UNL A   1      40.020  28.979  33.192  1.00  0.00     0.000 A 
ATOM     97  C   UNL A   1      41.459  30.708  34.046  1.00  0.00     0.000 A 
ATOM     98  C   UNL A   1      41.283  29.403  33.600  1.00  0.00     0.000 A 
ENDBRANCH  92  93
ENDBRANCH  89  92
ENDBRANCH  83  85
ENDBRANCH  79  83
ENDBRANCH  75  77
ENDBRANCH  74  75
ENDBRANCH   1  74
TORSDOF 18
ENDMDL
