MODEL 1
REMARK VINA RESULT:     -13.7      0.000      0.000
REMARK SMILES Cc1ccc(C(=O)OCCOC(=O)c2ccc(-c3c4nc(c(-c5c(F)cc(S(=O)(=O)[O-])cc5F)c5ccc([nH]5)c(-c5c(F)cc(S(=O)(=O)[O-])cc5F)c5nc(c(-c6c(F)cc(S(=O)(=O)[O-])cc6F)c6ccc3[nH]6)C=C5)C=C4)cc2)cc1N[C@@H]1CC(=O)N(c2ccccc2C)C1=O
REMARK SMILES IDX 9 1 8 2 6 3 7 4 5 5 1 6 2 7 3 8 81 9 4 10 80 11 82 12 83 14
REMARK SMILES IDX 84 15 95 16 85 17 87 18 96 19 86 20 88 21 89 22 93 23 90 24
REMARK SMILES IDX 92 25 94 26 91 27 10 28 11 29 12 30 13 31 14 32 15 33 79 34
REMARK SMILES IDX 16 35 78 36 17 37 18 38 19 39 72 40 20 41 77 42 71 43 73 44
REMARK SMILES IDX 21 45 76 46 70 47 69 48 22 50 56 51 35 52 55 53 36 54 39 55
REMARK SMILES IDX 54 56 74 57 37 58 38 59 53 61 75 62 40 63 23 64 24 65 33 66
REMARK SMILES IDX 25 67 26 68 32 69 34 70 27 71 28 72 29 73 30 74 31 75 57 76
REMARK SMILES IDX 58 77 67 78 59 79 60 80 66 81 68 82 61 83 62 84 63 85 64 86
REMARK SMILES IDX 65 87 41 88 42 89 51 90 43 91 44 92 50 93 52 94 45 95 46 96
REMARK SMILES IDX 47 97 48 98 49 99
REMARK H PARENT 82 13 73 49 39 60
REMARK Flexibility Score: inf
ROOT
ATOM      1  C   UNL A   1      33.508  29.919  26.710  1.00  0.00     0.275 C 
ENDROOT
BRANCH   1   2
ATOM      2  O   UNL A   1      32.210  29.591  27.236  1.00  0.00    -0.458 OA
BRANCH   2   3
ATOM      3  C   UNL A   1      31.757  28.384  26.828  1.00  0.00     0.338 C 
ATOM      4  O   UNL A   1      31.437  27.454  27.553  1.00  0.00    -0.246 OA
BRANCH   3   5
ATOM      5  C   UNL A   1      31.992  28.122  25.403  1.00  0.00     0.062 A 
ATOM      6  C   UNL A   1      31.770  25.724  21.852  1.00  0.00     0.046 C 
ATOM      7  C   UNL A   1      31.939  26.539  23.105  1.00  0.00    -0.028 A 
ATOM      8  C   UNL A   1      31.134  27.698  23.214  1.00  0.00     0.006 A 
ATOM      9  C   UNL A   1      32.794  26.186  24.168  1.00  0.00     0.038 A 
ATOM     10  C   UNL A   1      31.118  28.460  24.384  1.00  0.00     0.016 A 
ATOM     11  C   UNL A   1      32.886  27.076  25.232  1.00  0.00     0.041 A 
BRANCH   9  12
ATOM     12  N   UNL A   1      33.391  24.936  24.277  1.00  0.00    -0.373 N 
ATOM     13  H   UNL A   1      34.285  24.814  23.883  1.00  0.00     0.161 HD
BRANCH  12  14
ATOM     14  C   UNL A   1      32.760  23.778  24.951  1.00  0.00     0.179 C 
ATOM     15  C   UNL A   1      33.199  23.586  26.396  1.00  0.00     0.136 C 
ATOM     16  C   UNL A   1      32.989  22.421  24.292  1.00  0.00     0.256 C 
ATOM     17  C   UNL A   1      33.412  22.106  26.518  1.00  0.00     0.236 C 
ATOM     18  N   UNL A   1      33.320  21.520  25.279  1.00  0.00    -0.248 N 
ATOM     19  O   UNL A   1      32.851  22.194  23.095  1.00  0.00    -0.272 OA
ATOM     20  O   UNL A   1      33.667  21.560  27.581  1.00  0.00    -0.274 OA
BRANCH  18  21
ATOM     21  C   UNL A   1      33.604  20.151  25.043  1.00  0.00     0.055 A 
ATOM     22  C   UNL A   1      32.539  19.235  24.986  1.00  0.00     0.027 A 
ATOM     23  C   UNL A   1      34.920  19.681  24.845  1.00  0.00    -0.027 A 
ATOM     24  C   UNL A   1      32.762  17.888  24.687  1.00  0.00     0.002 A 
ATOM     25  C   UNL A   1      35.126  18.321  24.549  1.00  0.00     0.005 A 
ATOM     26  C   UNL A   1      36.135  20.563  24.962  1.00  0.00     0.046 C 
ATOM     27  C   UNL A   1      34.057  17.431  24.467  1.00  0.00     0.000 A 
ENDBRANCH  18  21
ENDBRANCH  12  14
ENDBRANCH   9  12
ENDBRANCH   3   5
ENDBRANCH   2   3
ENDBRANCH   1   2
BRANCH   1  28
ATOM     28  C   UNL A   1      34.631  29.145  27.422  1.00  0.00     0.275 C 
BRANCH  28  29
ATOM     29  O   UNL A   1      35.381  29.799  28.473  1.00  0.00    -0.458 OA
BRANCH  29  30
ATOM     30  C   UNL A   1      36.534  30.414  28.120  1.00  0.00     0.338 C 
ATOM     31  O   UNL A   1      36.639  31.637  27.992  1.00  0.00    -0.246 OA
BRANCH  30  32
ATOM     32  C   UNL A   1      37.649  29.442  28.210  1.00  0.00     0.060 A 
ATOM     33  C   UNL A   1      38.677  29.479  27.258  1.00  0.00     0.016 A 
ATOM     34  C   UNL A   1      37.820  28.749  29.413  1.00  0.00     0.016 A 
ATOM     35  C   UNL A   1      39.923  28.939  27.553  1.00  0.00     0.010 A 
ATOM     36  C   UNL A   1      39.075  28.330  29.763  1.00  0.00     0.010 A 
ATOM     37  C   UNL A   1      40.113  28.396  28.822  1.00  0.00    -0.014 A 
BRANCH  37  38
ATOM     38  C   UNL A   1      41.210  27.510  29.155  1.00  0.00     0.031 A 
ATOM     39  C   UNL A   1      41.260  26.105  28.729  1.00  0.00     0.074 A 
ATOM     40  C   UNL A   1      42.235  28.243  29.638  1.00  0.00     0.049 A 
ATOM     41  N   UNL A   1      42.049  25.223  29.234  1.00  0.00    -0.248 NA
ATOM     42  C   UNL A   1      40.388  25.550  27.700  1.00  0.00     0.031 C 
ATOM     43  C   UNL A   1      43.654  27.983  29.732  1.00  0.00     0.029 A 
ATOM     44  N   UNL A   1      42.076  29.474  30.290  1.00  0.00    -0.354 N 
ATOM     45  C   UNL A   1      42.053  24.139  28.373  1.00  0.00     0.074 A 
ATOM     46  C   UNL A   1      40.895  24.322  27.539  1.00  0.00     0.031 C 
ATOM     47  C   UNL A   1      44.178  28.835  30.639  1.00  0.00     0.029 A 
ATOM     48  C   UNL A   1      43.065  29.560  31.256  1.00  0.00     0.049 A 
ATOM     49  H   UNL A   1      41.388  30.151  30.097  1.00  0.00     0.167 HD
ATOM     50  C   UNL A   1      43.166  23.346  28.313  1.00  0.00     0.037 A 
ATOM     51  C   UNL A   1      42.655  29.433  32.555  1.00  0.00     0.037 A 
ATOM     52  C   UNL A   1      44.154  23.847  29.269  1.00  0.00     0.049 A 
ATOM     53  C   UNL A   1      43.172  28.135  33.128  1.00  0.00     0.074 A 
ATOM     54  C   UNL A   1      45.202  24.735  29.096  1.00  0.00     0.029 A 
ATOM     55  N   UNL A   1      43.883  23.808  30.632  1.00  0.00    -0.354 N 
ATOM     56  N   UNL A   1      43.310  27.026  32.448  1.00  0.00    -0.248 NA
ATOM     57  C   UNL A   1      43.714  28.050  34.477  1.00  0.00     0.031 C 
ATOM     58  C   UNL A   1      45.490  25.316  30.357  1.00  0.00     0.029 A 
ATOM     59  C   UNL A   1      44.616  24.781  31.289  1.00  0.00     0.049 A 
ATOM     60  H   UNL A   1      43.262  23.181  31.067  1.00  0.00     0.167 HD
ATOM     61  C   UNL A   1      44.040  26.138  33.196  1.00  0.00     0.074 A 
ATOM     62  C   UNL A   1      44.235  26.813  34.469  1.00  0.00     0.031 C 
ATOM     63  C   UNL A   1      44.512  24.945  32.727  1.00  0.00     0.037 A 
BRANCH  50  64
ATOM     64  C   UNL A   1      43.517  22.420  27.156  1.00  0.00     0.058 A 
ATOM     65  C   UNL A   1      42.823  21.198  26.984  1.00  0.00     0.135 A 
ATOM     66  C   UNL A   1      44.539  22.641  26.210  1.00  0.00     0.135 A 
ATOM     67  F   UNL A   1      41.758  20.882  27.732  1.00  0.00    -0.206 F 
ATOM     68  C   UNL A   1      43.180  20.235  26.039  1.00  0.00     0.059 A 
ATOM     69  C   UNL A   1      44.938  21.675  25.270  1.00  0.00     0.059 A 
ATOM     70  F   UNL A   1      45.158  23.827  26.122  1.00  0.00    -0.206 F 
ATOM     71  C   UNL A   1      44.259  20.465  25.201  1.00  0.00     0.060 A 
BRANCH  71  72
ATOM     72  S   UNL A   1      44.712  19.186  24.013  1.00  0.00     0.124 S 
ATOM     73  O   UNL A   1      44.505  19.863  22.736  1.00  0.00    -0.237 OA
ATOM     74  O   UNL A   1      46.102  18.916  24.368  1.00  0.00    -0.237 OA
ATOM     75  O   UNL A   1      43.774  18.104  24.299  1.00  0.00    -0.744 OA
ENDBRANCH  71  72
ENDBRANCH  50  64
BRANCH  51  76
ATOM     76  C   UNL A   1      41.322  30.077  32.850  1.00  0.00     0.058 A 
ATOM     77  C   UNL A   1      41.226  31.487  32.758  1.00  0.00     0.135 A 
ATOM     78  C   UNL A   1      40.108  29.381  32.941  1.00  0.00     0.135 A 
ATOM     79  F   UNL A   1      42.343  32.231  32.673  1.00  0.00    -0.206 F 
ATOM     80  C   UNL A   1      40.008  32.158  32.654  1.00  0.00     0.059 A 
ATOM     81  C   UNL A   1      38.866  30.037  32.857  1.00  0.00     0.059 A 
ATOM     82  F   UNL A   1      40.099  28.043  33.036  1.00  0.00    -0.206 F 
ATOM     83  C   UNL A   1      38.828  31.422  32.681  1.00  0.00     0.060 A 
BRANCH  83  84
ATOM     84  S   UNL A   1      37.273  32.276  32.297  1.00  0.00     0.124 S 
ATOM     85  O   UNL A   1      37.748  33.492  31.648  1.00  0.00    -0.237 OA
ATOM     86  O   UNL A   1      36.608  31.312  31.423  1.00  0.00    -0.237 OA
ATOM     87  O   UNL A   1      36.661  32.455  33.611  1.00  0.00    -0.744 OA
ENDBRANCH  83  84
ENDBRANCH  51  76
BRANCH  63  88
ATOM     88  C   UNL A   1      45.056  23.842  33.594  1.00  0.00     0.058 A 
ATOM     89  C   UNL A   1      46.400  23.781  33.990  1.00  0.00     0.135 A 
ATOM     90  C   UNL A   1      44.185  22.907  34.203  1.00  0.00     0.135 A 
ATOM     91  F   UNL A   1      47.295  24.687  33.571  1.00  0.00    -0.206 F 
ATOM     92  C   UNL A   1      46.867  22.810  34.869  1.00  0.00     0.059 A 
ATOM     93  C   UNL A   1      44.618  21.975  35.134  1.00  0.00     0.059 A 
ATOM     94  F   UNL A   1      42.872  22.876  33.927  1.00  0.00    -0.206 F 
ATOM     95  C   UNL A   1      45.969  21.912  35.436  1.00  0.00     0.060 A 
BRANCH  95  96
ATOM     96  S   UNL A   1      46.564  20.681  36.601  1.00  0.00     0.124 S 
ATOM     97  O   UNL A   1      46.162  19.443  35.940  1.00  0.00    -0.237 OA
ATOM     98  O   UNL A   1      47.999  20.940  36.639  1.00  0.00    -0.237 OA
ATOM     99  O   UNL A   1      45.844  21.004  37.829  1.00  0.00    -0.744 OA
ENDBRANCH  95  96
ENDBRANCH  63  88
ENDBRANCH  37  38
ENDBRANCH  30  32
ENDBRANCH  29  30
ENDBRANCH  28  29
ENDBRANCH   1  28
TORSDOF 17
ENDMDL
MODEL 2
REMARK VINA RESULT:     -13.2      1.278      2.098
REMARK SMILES Cc1ccc(C(=O)OCCOC(=O)c2ccc(-c3c4nc(c(-c5c(F)cc(S(=O)(=O)[O-])cc5F)c5ccc([nH]5)c(-c5c(F)cc(S(=O)(=O)[O-])cc5F)c5nc(c(-c6c(F)cc(S(=O)(=O)[O-])cc6F)c6ccc3[nH]6)C=C5)C=C4)cc2)cc1N[C@@H]1CC(=O)N(c2ccccc2C)C1=O
REMARK SMILES IDX 9 1 8 2 6 3 7 4 5 5 1 6 2 7 3 8 81 9 4 10 80 11 82 12 83 14
REMARK SMILES IDX 84 15 95 16 85 17 87 18 96 19 86 20 88 21 89 22 93 23 90 24
REMARK SMILES IDX 92 25 94 26 91 27 10 28 11 29 12 30 13 31 14 32 15 33 79 34
REMARK SMILES IDX 16 35 78 36 17 37 18 38 19 39 72 40 20 41 77 42 71 43 73 44
REMARK SMILES IDX 21 45 76 46 70 47 69 48 22 50 56 51 35 52 55 53 36 54 39 55
REMARK SMILES IDX 54 56 74 57 37 58 38 59 53 61 75 62 40 63 23 64 24 65 33 66
REMARK SMILES IDX 25 67 26 68 32 69 34 70 27 71 28 72 29 73 30 74 31 75 57 76
REMARK SMILES IDX 58 77 67 78 59 79 60 80 66 81 68 82 61 83 62 84 63 85 64 86
REMARK SMILES IDX 65 87 41 88 42 89 51 90 43 91 44 92 50 93 52 94 45 95 46 96
REMARK SMILES IDX 47 97 48 98 49 99
REMARK H PARENT 82 13 73 49 39 60
REMARK Flexibility Score: inf
ROOT
ATOM      1  C   UNL A   1      34.382  28.788  26.366  1.00  0.00     0.275 C 
ENDROOT
BRANCH   1   2
ATOM      2  O   UNL A   1      33.663  27.691  26.957  1.00  0.00    -0.458 OA
BRANCH   2   3
ATOM      3  C   UNL A   1      32.384  27.599  26.529  1.00  0.00     0.338 C 
ATOM      4  O   UNL A   1      31.580  26.734  26.847  1.00  0.00    -0.246 OA
BRANCH   3   5
ATOM      5  C   UNL A   1      32.096  28.436  25.358  1.00  0.00     0.062 A 
ATOM      6  C   UNL A   1      29.860  29.498  21.853  1.00  0.00     0.046 C 
ATOM      7  C   UNL A   1      30.710  29.088  23.025  1.00  0.00    -0.028 A 
ATOM      8  C   UNL A   1      30.620  29.899  24.181  1.00  0.00     0.006 A 
ATOM      9  C   UNL A   1      31.526  27.940  23.045  1.00  0.00     0.038 A 
ATOM     10  C   UNL A   1      31.267  29.545  25.366  1.00  0.00     0.016 A 
ATOM     11  C   UNL A   1      32.300  27.730  24.182  1.00  0.00     0.041 A 
BRANCH   9  12
ATOM     12  N   UNL A   1      31.454  26.941  22.083  1.00  0.00    -0.373 N 
ATOM     13  H   UNL A   1      31.468  27.209  21.136  1.00  0.00     0.161 HD
BRANCH  12  14
ATOM     14  C   UNL A   1      31.357  25.498  22.399  1.00  0.00     0.179 C 
ATOM     15  C   UNL A   1      30.417  25.176  23.553  1.00  0.00     0.136 C 
ATOM     16  C   UNL A   1      32.668  24.808  22.762  1.00  0.00     0.256 C 
ATOM     17  C   UNL A   1      31.163  24.151  24.355  1.00  0.00     0.236 C 
ATOM     18  N   UNL A   1      32.444  24.027  23.874  1.00  0.00    -0.248 N 
ATOM     19  O   UNL A   1      33.713  24.916  22.129  1.00  0.00    -0.272 OA
ATOM     20  O   UNL A   1      30.668  23.569  25.309  1.00  0.00    -0.274 OA
BRANCH  18  21
ATOM     21  C   UNL A   1      33.438  23.235  24.503  1.00  0.00     0.055 A 
ATOM     22  C   UNL A   1      34.372  23.860  25.348  1.00  0.00     0.027 A 
ATOM     23  C   UNL A   1      33.507  21.837  24.323  1.00  0.00    -0.027 A 
ATOM     24  C   UNL A   1      35.326  23.112  26.044  1.00  0.00     0.002 A 
ATOM     25  C   UNL A   1      34.477  21.102  25.030  1.00  0.00     0.005 A 
ATOM     26  C   UNL A   1      32.606  21.082  23.383  1.00  0.00     0.046 C 
ATOM     27  C   UNL A   1      35.378  21.732  25.886  1.00  0.00     0.000 A 
ENDBRANCH  18  21
ENDBRANCH  12  14
ENDBRANCH   9  12
ENDBRANCH   3   5
ENDBRANCH   2   3
ENDBRANCH   1   2
BRANCH   1  28
ATOM     28  C   UNL A   1      34.886  29.784  27.425  1.00  0.00     0.275 C 
BRANCH  28  29
ATOM     29  O   UNL A   1      36.153  30.453  27.216  1.00  0.00    -0.458 OA
BRANCH  29  30
ATOM     30  C   UNL A   1      36.906  30.708  28.311  1.00  0.00     0.338 C 
ATOM     31  O   UNL A   1      36.575  31.510  29.191  1.00  0.00    -0.246 OA
BRANCH  30  32
ATOM     32  C   UNL A   1      37.980  29.692  28.410  1.00  0.00     0.060 A 
ATOM     33  C   UNL A   1      38.911  29.567  27.371  1.00  0.00     0.016 A 
ATOM     34  C   UNL A   1      38.233  29.125  29.664  1.00  0.00     0.016 A 
ATOM     35  C   UNL A   1      40.155  28.993  27.612  1.00  0.00     0.010 A 
ATOM     36  C   UNL A   1      39.496  28.677  29.944  1.00  0.00     0.010 A 
ATOM     37  C   UNL A   1      40.441  28.583  28.912  1.00  0.00    -0.014 A 
BRANCH  37  38
ATOM     38  C   UNL A   1      41.524  27.678  29.242  1.00  0.00     0.031 A 
ATOM     39  C   UNL A   1      41.561  26.280  28.795  1.00  0.00     0.074 A 
ATOM     40  C   UNL A   1      42.551  28.391  29.748  1.00  0.00     0.049 A 
ATOM     41  N   UNL A   1      42.334  25.380  29.296  1.00  0.00    -0.248 NA
ATOM     42  C   UNL A   1      40.694  25.751  27.748  1.00  0.00     0.031 C 
ATOM     43  C   UNL A   1      43.966  28.113  29.854  1.00  0.00     0.029 A 
ATOM     44  N   UNL A   1      42.400  29.613  30.418  1.00  0.00    -0.354 N 
ATOM     45  C   UNL A   1      42.335  24.310  28.417  1.00  0.00     0.074 A 
ATOM     46  C   UNL A   1      41.189  24.519  27.574  1.00  0.00     0.031 C 
ATOM     47  C   UNL A   1      44.490  28.944  30.780  1.00  0.00     0.029 A 
ATOM     48  C   UNL A   1      43.379  29.672  31.397  1.00  0.00     0.049 A 
ATOM     49  H   UNL A   1      41.723  30.301  30.228  1.00  0.00     0.167 HD
ATOM     50  C   UNL A   1      43.438  23.504  28.357  1.00  0.00     0.037 A 
ATOM     51  C   UNL A   1      42.953  29.531  32.689  1.00  0.00     0.037 A 
ATOM     52  C   UNL A   1      44.421  23.978  29.332  1.00  0.00     0.049 A 
ATOM     53  C   UNL A   1      43.448  28.218  33.246  1.00  0.00     0.074 A 
ATOM     54  C   UNL A   1      45.482  24.856  29.185  1.00  0.00     0.029 A 
ATOM     55  N   UNL A   1      44.135  23.922  30.691  1.00  0.00    -0.354 N 
ATOM     56  N   UNL A   1      43.580  27.117  32.551  1.00  0.00    -0.248 NA
ATOM     57  C   UNL A   1      43.973  28.105  34.600  1.00  0.00     0.031 C 
ATOM     58  C   UNL A   1      45.763  25.414  30.457  1.00  0.00     0.029 A 
ATOM     59  C   UNL A   1      44.873  24.875  31.372  1.00  0.00     0.049 A 
ATOM     60  H   UNL A   1      43.502  23.296  31.109  1.00  0.00     0.167 HD
ATOM     61  C   UNL A   1      44.291  26.210  33.292  1.00  0.00     0.074 A 
ATOM     62  C   UNL A   1      44.480  26.862  34.579  1.00  0.00     0.031 C 
ATOM     63  C   UNL A   1      44.754  25.018  32.810  1.00  0.00     0.037 A 
BRANCH  50  64
ATOM     64  C   UNL A   1      43.792  22.592  27.190  1.00  0.00     0.058 A 
ATOM     65  C   UNL A   1      43.011  21.442  26.922  1.00  0.00     0.135 A 
ATOM     66  C   UNL A   1      44.894  22.757  26.325  1.00  0.00     0.135 A 
ATOM     67  F   UNL A   1      41.873  21.194  27.582  1.00  0.00    -0.206 F 
ATOM     68  C   UNL A   1      43.352  20.485  25.964  1.00  0.00     0.059 A 
ATOM     69  C   UNL A   1      45.275  21.793  25.376  1.00  0.00     0.059 A 
ATOM     70  F   UNL A   1      45.615  23.886  26.328  1.00  0.00    -0.206 F 
ATOM     71  C   UNL A   1      44.503  20.650  25.211  1.00  0.00     0.060 A 
BRANCH  71  72
ATOM     72  S   UNL A   1      44.929  19.378  24.005  1.00  0.00     0.124 S 
ATOM     73  O   UNL A   1      44.387  19.932  22.768  1.00  0.00    -0.237 OA
ATOM     74  O   UNL A   1      46.386  19.345  24.098  1.00  0.00    -0.237 OA
ATOM     75  O   UNL A   1      44.245  18.189  24.504  1.00  0.00    -0.744 OA
ENDBRANCH  71  72
ENDBRANCH  50  64
BRANCH  51  76
ATOM     76  C   UNL A   1      41.625  30.186  32.978  1.00  0.00     0.058 A 
ATOM     77  C   UNL A   1      40.551  29.365  33.400  1.00  0.00     0.135 A 
ATOM     78  C   UNL A   1      41.438  31.569  33.127  1.00  0.00     0.135 A 
ATOM     79  F   UNL A   1      40.646  28.029  33.287  1.00  0.00    -0.206 F 
ATOM     80  C   UNL A   1      39.413  29.869  34.027  1.00  0.00     0.059 A 
ATOM     81  C   UNL A   1      40.291  32.103  33.740  1.00  0.00     0.059 A 
ATOM     82  F   UNL A   1      42.398  32.426  32.751  1.00  0.00    -0.206 F 
ATOM     83  C   UNL A   1      39.298  31.242  34.216  1.00  0.00     0.060 A 
BRANCH  83  84
ATOM     84  S   UNL A   1      37.938  31.858  35.248  1.00  0.00     0.124 S 
ATOM     85  O   UNL A   1      38.463  33.138  35.709  1.00  0.00    -0.237 OA
ATOM     86  O   UNL A   1      36.842  31.936  34.285  1.00  0.00    -0.237 OA
ATOM     87  O   UNL A   1      37.802  30.822  36.268  1.00  0.00    -0.744 OA
ENDBRANCH  83  84
ENDBRANCH  51  76
BRANCH  63  88
ATOM     88  C   UNL A   1      45.275  23.896  33.666  1.00  0.00     0.058 A 
ATOM     89  C   UNL A   1      46.567  23.893  34.210  1.00  0.00     0.135 A 
ATOM     90  C   UNL A   1      44.411  22.867  34.112  1.00  0.00     0.135 A 
ATOM     91  F   UNL A   1      47.438  24.881  33.953  1.00  0.00    -0.206 F 
ATOM     92  C   UNL A   1      47.002  22.895  35.077  1.00  0.00     0.059 A 
ATOM     93  C   UNL A   1      44.802  21.903  35.029  1.00  0.00     0.059 A 
ATOM     94  F   UNL A   1      43.142  22.772  33.686  1.00  0.00    -0.206 F 
ATOM     95  C   UNL A   1      46.112  21.906  35.480  1.00  0.00     0.060 A 
BRANCH  95  96
ATOM     96  S   UNL A   1      46.660  20.638  36.630  1.00  0.00     0.124 S 
ATOM     97  O   UNL A   1      48.081  20.556  36.309  1.00  0.00    -0.237 OA
ATOM     98  O   UNL A   1      46.337  21.221  37.929  1.00  0.00    -0.237 OA
ATOM     99  O   UNL A   1      45.859  19.477  36.256  1.00  0.00    -0.744 OA
ENDBRANCH  95  96
ENDBRANCH  63  88
ENDBRANCH  37  38
ENDBRANCH  30  32
ENDBRANCH  29  30
ENDBRANCH  28  29
ENDBRANCH   1  28
TORSDOF 17
ENDMDL
MODEL 3
REMARK VINA RESULT:     -13.0      4.482     11.267
REMARK SMILES Cc1ccc(C(=O)OCCOC(=O)c2ccc(-c3c4nc(c(-c5c(F)cc(S(=O)(=O)[O-])cc5F)c5ccc([nH]5)c(-c5c(F)cc(S(=O)(=O)[O-])cc5F)c5nc(c(-c6c(F)cc(S(=O)(=O)[O-])cc6F)c6ccc3[nH]6)C=C5)C=C4)cc2)cc1N[C@@H]1CC(=O)N(c2ccccc2C)C1=O
REMARK SMILES IDX 9 1 8 2 6 3 7 4 5 5 1 6 2 7 3 8 81 9 4 10 80 11 82 12 83 14
REMARK SMILES IDX 84 15 95 16 85 17 87 18 96 19 86 20 88 21 89 22 93 23 90 24
REMARK SMILES IDX 92 25 94 26 91 27 10 28 11 29 12 30 13 31 14 32 15 33 79 34
REMARK SMILES IDX 16 35 78 36 17 37 18 38 19 39 72 40 20 41 77 42 71 43 73 44
REMARK SMILES IDX 21 45 76 46 70 47 69 48 22 50 56 51 35 52 55 53 36 54 39 55
REMARK SMILES IDX 54 56 74 57 37 58 38 59 53 61 75 62 40 63 23 64 24 65 33 66
REMARK SMILES IDX 25 67 26 68 32 69 34 70 27 71 28 72 29 73 30 74 31 75 57 76
REMARK SMILES IDX 58 77 67 78 59 79 60 80 66 81 68 82 61 83 62 84 63 85 64 86
REMARK SMILES IDX 65 87 41 88 42 89 51 90 43 91 44 92 50 93 52 94 45 95 46 96
REMARK SMILES IDX 47 97 48 98 49 99
REMARK H PARENT 82 13 73 49 39 60
REMARK Flexibility Score: inf
ROOT
ATOM      1  C   UNL A   1      39.733  21.654  25.730  1.00  0.00     0.275 C 
ENDROOT
BRANCH   1   2
ATOM      2  O   UNL A   1      38.679  20.676  25.718  1.00  0.00    -0.458 OA
BRANCH   2   3
ATOM      3  C   UNL A   1      37.618  21.044  24.964  1.00  0.00     0.338 C 
ATOM      4  O   UNL A   1      37.494  22.103  24.366  1.00  0.00    -0.246 OA
BRANCH   3   5
ATOM      5  C   UNL A   1      36.431  20.208  25.177  1.00  0.00     0.062 A 
ATOM      6  C   UNL A   1      32.491  18.814  24.203  1.00  0.00     0.046 C 
ATOM      7  C   UNL A   1      33.833  19.355  24.613  1.00  0.00    -0.028 A 
ATOM      8  C   UNL A   1      34.944  18.502  24.410  1.00  0.00     0.006 A 
ATOM      9  C   UNL A   1      34.039  20.652  25.124  1.00  0.00     0.038 A 
ATOM     10  C   UNL A   1      36.248  18.945  24.638  1.00  0.00     0.016 A 
ATOM     11  C   UNL A   1      35.332  20.983  25.515  1.00  0.00     0.041 A 
BRANCH   9  12
ATOM     12  N   UNL A   1      33.069  21.646  25.083  1.00  0.00    -0.373 N 
ATOM     13  H   UNL A   1      32.308  21.526  24.470  1.00  0.00     0.161 HD
BRANCH  12  14
ATOM     14  C   UNL A   1      33.114  22.875  25.908  1.00  0.00     0.179 C 
ATOM     15  C   UNL A   1      31.780  23.247  26.541  1.00  0.00     0.136 C 
ATOM     16  C   UNL A   1      33.569  24.142  25.189  1.00  0.00     0.256 C 
ATOM     17  C   UNL A   1      31.687  24.731  26.348  1.00  0.00     0.236 C 
ATOM     18  N   UNL A   1      32.710  25.160  25.537  1.00  0.00    -0.248 N 
ATOM     19  O   UNL A   1      34.558  24.218  24.467  1.00  0.00    -0.272 OA
ATOM     20  O   UNL A   1      30.791  25.406  26.832  1.00  0.00    -0.274 OA
BRANCH  18  21
ATOM     21  C   UNL A   1      32.819  26.490  25.059  1.00  0.00     0.055 A 
ATOM     22  C   UNL A   1      33.533  27.430  25.824  1.00  0.00     0.027 A 
ATOM     23  C   UNL A   1      32.251  26.897  23.833  1.00  0.00    -0.027 A 
ATOM     24  C   UNL A   1      33.728  28.736  25.362  1.00  0.00     0.002 A 
ATOM     25  C   UNL A   1      32.454  28.216  23.387  1.00  0.00     0.005 A 
ATOM     26  C   UNL A   1      31.404  25.992  22.978  1.00  0.00     0.046 C 
ATOM     27  C   UNL A   1      33.189  29.127  24.142  1.00  0.00     0.000 A 
ENDBRANCH  18  21
ENDBRANCH  12  14
ENDBRANCH   9  12
ENDBRANCH   3   5
ENDBRANCH   2   3
ENDBRANCH   1   2
BRANCH   1  28
ATOM     28  C   UNL A   1      40.285  21.890  27.147  1.00  0.00     0.275 C 
BRANCH  28  29
ATOM     29  O   UNL A   1      40.432  23.247  27.628  1.00  0.00    -0.458 OA
BRANCH  29  30
ATOM     30  C   UNL A   1      39.414  24.104  27.386  1.00  0.00     0.338 C 
ATOM     31  O   UNL A   1      38.278  23.736  27.069  1.00  0.00    -0.246 OA
BRANCH  30  32
ATOM     32  C   UNL A   1      39.801  25.461  27.838  1.00  0.00     0.060 A 
ATOM     33  C   UNL A   1      40.191  26.420  26.894  1.00  0.00     0.016 A 
ATOM     34  C   UNL A   1      39.450  25.844  29.137  1.00  0.00     0.016 A 
ATOM     35  C   UNL A   1      40.107  27.774  27.197  1.00  0.00     0.010 A 
ATOM     36  C   UNL A   1      39.241  27.170  29.402  1.00  0.00     0.010 A 
ATOM     37  C   UNL A   1      39.600  28.131  28.445  1.00  0.00    -0.014 A 
BRANCH  37  38
ATOM     38  C   UNL A   1      39.769  29.447  29.027  1.00  0.00     0.031 A 
ATOM     39  C   UNL A   1      38.756  30.504  28.919  1.00  0.00     0.074 A 
ATOM     40  C   UNL A   1      40.820  29.421  29.873  1.00  0.00     0.049 A 
ATOM     41  N   UNL A   1      38.979  31.749  29.160  1.00  0.00    -0.248 NA
ATOM     42  C   UNL A   1      37.383  30.256  28.491  1.00  0.00     0.031 C 
ATOM     43  C   UNL A   1      41.187  30.260  30.991  1.00  0.00     0.029 A 
ATOM     44  N   UNL A   1      41.905  28.542  29.744  1.00  0.00    -0.354 N 
ATOM     45  C   UNL A   1      37.747  32.368  29.284  1.00  0.00     0.074 A 
ATOM     46  C   UNL A   1      36.808  31.447  28.702  1.00  0.00     0.031 C 
ATOM     47  C   UNL A   1      42.499  30.072  31.245  1.00  0.00     0.029 A 
ATOM     48  C   UNL A   1      43.034  29.212  30.188  1.00  0.00     0.049 A 
ATOM     49  H   UNL A   1      41.871  27.620  29.402  1.00  0.00     0.167 HD
ATOM     50  C   UNL A   1      37.640  33.476  30.077  1.00  0.00     0.037 A 
ATOM     51  C   UNL A   1      43.927  29.595  29.225  1.00  0.00     0.037 A 
ATOM     52  C   UNL A   1      38.959  33.793  30.625  1.00  0.00     0.049 A 
ATOM     53  C   UNL A   1      43.927  31.100  29.101  1.00  0.00     0.074 A 
ATOM     54  C   UNL A   1      39.550  33.421  31.821  1.00  0.00     0.029 A 
ATOM     55  N   UNL A   1      39.989  34.182  29.775  1.00  0.00    -0.354 N 
ATOM     56  N   UNL A   1      42.871  31.859  29.253  1.00  0.00    -0.248 NA
ATOM     57  C   UNL A   1      45.160  31.861  28.946  1.00  0.00     0.031 C 
ATOM     58  C   UNL A   1      40.955  33.484  31.648  1.00  0.00     0.029 A 
ATOM     59  C   UNL A   1      41.215  33.893  30.350  1.00  0.00     0.049 A 
ATOM     60  H   UNL A   1      39.866  34.602  28.894  1.00  0.00     0.167 HD
ATOM     61  C   UNL A   1      43.275  33.166  29.334  1.00  0.00     0.074 A 
ATOM     62  C   UNL A   1      44.709  33.117  29.099  1.00  0.00     0.031 C 
ATOM     63  C   UNL A   1      42.451  34.206  29.660  1.00  0.00     0.037 A 
BRANCH  50  64
ATOM     64  C   UNL A   1      36.341  34.005  30.671  1.00  0.00     0.058 A 
ATOM     65  C   UNL A   1      35.290  34.430  29.823  1.00  0.00     0.135 A 
ATOM     66  C   UNL A   1      36.071  34.160  32.046  1.00  0.00     0.135 A 
ATOM     67  F   UNL A   1      35.342  34.256  28.495  1.00  0.00    -0.206 F 
ATOM     68  C   UNL A   1      34.131  35.055  30.285  1.00  0.00     0.059 A 
ATOM     69  C   UNL A   1      34.927  34.814  32.535  1.00  0.00     0.059 A 
ATOM     70  F   UNL A   1      36.881  33.635  32.975  1.00  0.00    -0.206 F 
ATOM     71  C   UNL A   1      33.966  35.272  31.643  1.00  0.00     0.060 A 
BRANCH  71  72
ATOM     72  S   UNL A   1      32.470  36.111  32.203  1.00  0.00     0.124 S 
ATOM     73  O   UNL A   1      32.074  36.860  31.014  1.00  0.00    -0.237 OA
ATOM     74  O   UNL A   1      31.606  34.990  32.561  1.00  0.00    -0.237 OA
ATOM     75  O   UNL A   1      32.932  36.925  33.323  1.00  0.00    -0.744 OA
ENDBRANCH  71  72
ENDBRANCH  50  64
BRANCH  51  76
ATOM     76  C   UNL A   1      44.092  28.601  28.102  1.00  0.00     0.058 A 
ATOM     77  C   UNL A   1      44.697  27.355  28.394  1.00  0.00     0.135 A 
ATOM     78  C   UNL A   1      43.453  28.699  26.856  1.00  0.00     0.135 A 
ATOM     79  F   UNL A   1      45.335  27.179  29.564  1.00  0.00    -0.206 F 
ATOM     80  C   UNL A   1      44.585  26.244  27.559  1.00  0.00     0.059 A 
ATOM     81  C   UNL A   1      43.344  27.598  25.988  1.00  0.00     0.059 A 
ATOM     82  F   UNL A   1      42.856  29.842  26.488  1.00  0.00    -0.206 F 
ATOM     83  C   UNL A   1      43.885  26.366  26.363  1.00  0.00     0.060 A 
BRANCH  83  84
ATOM     84  S   UNL A   1      43.539  24.860  25.412  1.00  0.00     0.124 S 
ATOM     85  O   UNL A   1      43.456  23.851  26.462  1.00  0.00    -0.237 OA
ATOM     86  O   UNL A   1      42.276  25.199  24.761  1.00  0.00    -0.237 OA
ATOM     87  O   UNL A   1      44.693  24.758  24.523  1.00  0.00    -0.744 OA
ENDBRANCH  83  84
ENDBRANCH  51  76
BRANCH  63  88
ATOM     88  C   UNL A   1      42.796  35.658  29.476  1.00  0.00     0.058 A 
ATOM     89  C   UNL A   1      42.282  36.433  28.426  1.00  0.00     0.135 A 
ATOM     90  C   UNL A   1      43.519  36.360  30.471  1.00  0.00     0.135 A 
ATOM     91  F   UNL A   1      41.486  35.901  27.488  1.00  0.00    -0.206 F 
ATOM     92  C   UNL A   1      42.534  37.798  28.323  1.00  0.00     0.059 A 
ATOM     93  C   UNL A   1      43.722  37.732  30.424  1.00  0.00     0.059 A 
ATOM     94  F   UNL A   1      44.042  35.739  31.539  1.00  0.00    -0.206 F 
ATOM     95  C   UNL A   1      43.253  38.438  29.327  1.00  0.00     0.060 A 
BRANCH  95  96
ATOM     96  S   UNL A   1      43.546  40.207  29.216  1.00  0.00     0.124 S 
ATOM     97  O   UNL A   1      44.832  40.241  28.526  1.00  0.00    -0.237 OA
ATOM     98  O   UNL A   1      42.400  40.674  28.443  1.00  0.00    -0.237 OA
ATOM     99  O   UNL A   1      43.566  40.632  30.612  1.00  0.00    -0.744 OA
ENDBRANCH  95  96
ENDBRANCH  63  88
ENDBRANCH  37  38
ENDBRANCH  30  32
ENDBRANCH  29  30
ENDBRANCH  28  29
ENDBRANCH   1  28
TORSDOF 17
ENDMDL
