MODEL 1
REMARK VINA RESULT:     -11.2      0.000      0.000
REMARK SMILES O=C(OCCOC(=O)c1cccc2c(=O)oc(=O)[nH]c12)c1ccc(-c2c3nc(c(-c4c(F)cc(S(=O)(=O)[O-])cc4F)c4ccc([nH]4)c(-c4c(F)cc(S(=O)(=O)[O-])cc4F)c4nc(c(-c5c(F)cc(S(=O)(=O)[O-])cc5F)c5ccc2[nH]5)C=C4)C=C3)cc1
REMARK SMILES IDX 3 1 2 2 1 3 21 4 22 5 86 6 23 7 85 8 24 9 25 10 26 11 79 12
REMARK SMILES IDX 27 13 84 14 78 15 80 16 28 17 83 18 77 19 76 20 29 22 63 23
REMARK SMILES IDX 42 24 62 25 43 26 46 27 61 28 81 29 44 30 45 31 60 33 82 34
REMARK SMILES IDX 47 35 30 36 31 37 40 38 32 39 33 40 39 41 41 42 34 43 35 44
REMARK SMILES IDX 36 45 37 46 38 47 64 48 65 49 74 50 66 51 67 52 73 53 75 54
REMARK SMILES IDX 68 55 69 56 70 57 71 58 72 59 48 60 49 61 58 62 50 63 51 64
REMARK SMILES IDX 57 65 59 66 52 67 53 68 54 69 55 70 56 71 4 72 5 73 6 74
REMARK SMILES IDX 7 75 8 76 9 77 10 78 20 79 11 80 13 81 19 82 12 83 14 84
REMARK SMILES IDX 17 85 15 87 16 88 18 89
REMARK H PARENT 80 21 46 32 19 86
REMARK Flexibility Score: inf
ROOT
ATOM      1  O   UNL A   1      33.243  30.985  27.644  1.00  0.00    -0.458 OA
ENDROOT
BRANCH   1   2
ATOM      2  C   UNL A   1      34.169  30.197  27.050  1.00  0.00     0.338 C 
ATOM      3  O   UNL A   1      33.851  29.577  26.038  1.00  0.00    -0.246 OA
BRANCH   2   4
ATOM      4  C   UNL A   1      35.503  29.902  27.660  1.00  0.00     0.060 A 
ATOM      5  C   UNL A   1      35.484  29.453  28.990  1.00  0.00     0.016 A 
ATOM      6  C   UNL A   1      36.744  30.053  27.041  1.00  0.00     0.016 A 
ATOM      7  C   UNL A   1      36.664  29.323  29.723  1.00  0.00     0.010 A 
ATOM      8  C   UNL A   1      37.934  29.897  27.762  1.00  0.00     0.010 A 
ATOM      9  C   UNL A   1      37.905  29.557  29.114  1.00  0.00    -0.014 A 
BRANCH   9  10
ATOM     10  C   UNL A   1      39.155  29.196  29.819  1.00  0.00     0.031 A 
ATOM     11  C   UNL A   1      39.992  28.007  29.443  1.00  0.00     0.074 A 
ATOM     12  C   UNL A   1      39.503  29.980  30.855  1.00  0.00     0.049 A 
ATOM     13  N   UNL A   1      41.201  27.706  29.839  1.00  0.00    -0.248 NA
ATOM     14  C   UNL A   1      39.427  27.042  28.490  1.00  0.00     0.031 C 
ATOM     15  C   UNL A   1      38.728  31.133  31.333  1.00  0.00     0.029 A 
ATOM     16  N   UNL A   1      40.574  29.928  31.701  1.00  0.00    -0.354 N 
ATOM     17  C   UNL A   1      41.584  26.592  29.100  1.00  0.00     0.074 A 
ATOM     18  C   UNL A   1      40.452  26.221  28.282  1.00  0.00     0.031 C 
ATOM     19  C   UNL A   1      39.353  31.678  32.382  1.00  0.00     0.029 A 
ATOM     20  C   UNL A   1      40.537  30.888  32.682  1.00  0.00     0.049 A 
ATOM     21  H   UNL A   1      41.299  29.267  31.617  1.00  0.00     0.167 HD
ATOM     22  C   UNL A   1      42.775  25.949  29.115  1.00  0.00     0.037 A 
ATOM     23  C   UNL A   1      41.356  31.088  33.727  1.00  0.00     0.037 A 
ATOM     24  C   UNL A   1      43.794  26.197  30.103  1.00  0.00     0.049 A 
ATOM     25  C   UNL A   1      42.554  30.202  33.871  1.00  0.00     0.074 A 
ATOM     26  C   UNL A   1      45.003  25.547  30.278  1.00  0.00     0.029 A 
ATOM     27  N   UNL A   1      43.683  27.120  31.135  1.00  0.00    -0.354 N 
ATOM     28  N   UNL A   1      42.967  29.246  33.071  1.00  0.00    -0.248 NA
ATOM     29  C   UNL A   1      43.397  30.416  35.050  1.00  0.00     0.031 C 
ATOM     30  C   UNL A   1      45.572  26.007  31.471  1.00  0.00     0.029 A 
ATOM     31  C   UNL A   1      44.762  27.002  31.993  1.00  0.00     0.049 A 
ATOM     32  H   UNL A   1      42.946  27.764  31.240  1.00  0.00     0.167 HD
ATOM     33  C   UNL A   1      44.141  28.765  33.634  1.00  0.00     0.074 A 
ATOM     34  C   UNL A   1      44.371  29.541  34.839  1.00  0.00     0.031 C 
ATOM     35  C   UNL A   1      44.959  27.778  33.193  1.00  0.00     0.037 A 
BRANCH  22  36
ATOM     36  C   UNL A   1      43.049  24.901  28.070  1.00  0.00     0.058 A 
ATOM     37  C   UNL A   1      43.633  25.252  26.841  1.00  0.00     0.135 A 
ATOM     38  C   UNL A   1      42.874  23.535  28.340  1.00  0.00     0.135 A 
ATOM     39  F   UNL A   1      43.808  26.545  26.522  1.00  0.00    -0.206 F 
ATOM     40  C   UNL A   1      44.054  24.287  25.929  1.00  0.00     0.059 A 
ATOM     41  C   UNL A   1      43.295  22.551  27.448  1.00  0.00     0.059 A 
ATOM     42  F   UNL A   1      42.311  23.144  29.494  1.00  0.00    -0.206 F 
ATOM     43  C   UNL A   1      43.892  22.937  26.247  1.00  0.00     0.060 A 
BRANCH  43  44
ATOM     44  S   UNL A   1      44.483  21.699  25.070  1.00  0.00     0.124 S 
ATOM     45  O   UNL A   1      45.837  21.454  25.559  1.00  0.00    -0.237 OA
ATOM     46  O   UNL A   1      43.531  20.611  25.264  1.00  0.00    -0.237 OA
ATOM     47  O   UNL A   1      44.399  22.385  23.784  1.00  0.00    -0.744 OA
ENDBRANCH  43  44
ENDBRANCH  22  36
BRANCH  23  48
ATOM     48  C   UNL A   1      41.039  32.159  34.705  1.00  0.00     0.058 A 
ATOM     49  C   UNL A   1      40.195  31.919  35.796  1.00  0.00     0.135 A 
ATOM     50  C   UNL A   1      41.615  33.437  34.588  1.00  0.00     0.135 A 
ATOM     51  F   UNL A   1      39.628  30.713  35.952  1.00  0.00    -0.206 F 
ATOM     52  C   UNL A   1      39.916  32.911  36.729  1.00  0.00     0.059 A 
ATOM     53  C   UNL A   1      41.376  34.434  35.524  1.00  0.00     0.059 A 
ATOM     54  F   UNL A   1      42.452  33.710  33.574  1.00  0.00    -0.206 F 
ATOM     55  C   UNL A   1      40.512  34.166  36.584  1.00  0.00     0.060 A 
BRANCH  55  56
ATOM     56  S   UNL A   1      40.153  35.442  37.808  1.00  0.00     0.124 S 
ATOM     57  O   UNL A   1      39.840  36.582  36.956  1.00  0.00    -0.237 OA
ATOM     58  O   UNL A   1      39.030  34.859  38.535  1.00  0.00    -0.237 OA
ATOM     59  O   UNL A   1      41.397  35.542  38.565  1.00  0.00    -0.744 OA
ENDBRANCH  55  56
ENDBRANCH  23  48
BRANCH  35  60
ATOM     60  C   UNL A   1      46.186  27.495  34.009  1.00  0.00     0.058 A 
ATOM     61  C   UNL A   1      46.186  26.529  35.026  1.00  0.00     0.135 A 
ATOM     62  C   UNL A   1      47.388  28.168  33.736  1.00  0.00     0.135 A 
ATOM     63  F   UNL A   1      45.060  25.865  35.331  1.00  0.00    -0.206 F 
ATOM     64  C   UNL A   1      47.332  26.258  35.764  1.00  0.00     0.059 A 
ATOM     65  C   UNL A   1      48.553  27.888  34.438  1.00  0.00     0.059 A 
ATOM     66  F   UNL A   1      47.440  29.094  32.765  1.00  0.00    -0.206 F 
ATOM     67  C   UNL A   1      48.512  26.940  35.459  1.00  0.00     0.060 A 
BRANCH  67  68
ATOM     68  S   UNL A   1      49.998  26.551  36.403  1.00  0.00     0.124 S 
ATOM     69  O   UNL A   1      50.083  27.697  37.302  1.00  0.00    -0.237 OA
ATOM     70  O   UNL A   1      49.643  25.280  37.029  1.00  0.00    -0.237 OA
ATOM     71  O   UNL A   1      51.040  26.473  35.384  1.00  0.00    -0.744 OA
ENDBRANCH  67  68
ENDBRANCH  35  60
ENDBRANCH   9  10
ENDBRANCH   2   4
ENDBRANCH   1   2
BRANCH   1  72
ATOM     72  C   UNL A   1      32.140  31.711  27.077  1.00  0.00     0.275 C 
BRANCH  72  73
ATOM     73  C   UNL A   1      32.212  33.236  27.213  1.00  0.00     0.275 C 
BRANCH  73  74
ATOM     74  O   UNL A   1      33.422  33.744  27.799  1.00  0.00    -0.458 OA
BRANCH  74  75
ATOM     75  C   UNL A   1      33.257  34.614  28.828  1.00  0.00     0.340 C 
ATOM     76  O   UNL A   1      32.503  35.574  28.852  1.00  0.00    -0.246 OA
BRANCH  75  77
ATOM     77  C   UNL A   1      34.035  34.170  30.006  1.00  0.00     0.084 A 
ATOM     78  C   UNL A   1      34.596  32.886  30.027  1.00  0.00     0.018 A 
ATOM     79  C   UNL A   1      34.188  35.015  31.120  1.00  0.00     0.073 A 
ATOM     80  C   UNL A   1      35.284  32.443  31.158  1.00  0.00     0.002 A 
ATOM     81  C   UNL A   1      34.838  34.549  32.252  1.00  0.00     0.085 A 
ATOM     82  N   UNL A   1      33.649  36.296  31.175  1.00  0.00    -0.289 N 
ATOM     83  C   UNL A   1      35.384  33.261  32.281  1.00  0.00     0.018 A 
ATOM     84  C   UNL A   1      34.904  35.415  33.438  1.00  0.00     0.349 A 
ATOM     85  C   UNL A   1      33.694  37.092  32.282  1.00  0.00     0.419 A 
ATOM     86  H   UNL A   1      33.210  36.650  30.367  1.00  0.00     0.173 HD
ATOM     87  O   UNL A   1      35.485  35.027  34.446  1.00  0.00    -0.246 OA
ATOM     88  O   UNL A   1      34.309  36.625  33.395  1.00  0.00    -0.372 OA
ATOM     89  O   UNL A   1      33.180  38.209  32.267  1.00  0.00    -0.224 OA
ENDBRANCH  75  77
ENDBRANCH  74  75
ENDBRANCH  73  74
ENDBRANCH  72  73
ENDBRANCH   1  72
TORSDOF 14
ENDMDL
MODEL 2
REMARK VINA RESULT:     -11.0      3.326     11.499
REMARK SMILES O=C(OCCOC(=O)c1cccc2c(=O)oc(=O)[nH]c12)c1ccc(-c2c3nc(c(-c4c(F)cc(S(=O)(=O)[O-])cc4F)c4ccc([nH]4)c(-c4c(F)cc(S(=O)(=O)[O-])cc4F)c4nc(c(-c5c(F)cc(S(=O)(=O)[O-])cc5F)c5ccc2[nH]5)C=C4)C=C3)cc1
REMARK SMILES IDX 3 1 2 2 1 3 21 4 22 5 86 6 23 7 85 8 24 9 25 10 26 11 79 12
REMARK SMILES IDX 27 13 84 14 78 15 80 16 28 17 83 18 77 19 76 20 29 22 63 23
REMARK SMILES IDX 42 24 62 25 43 26 46 27 61 28 81 29 44 30 45 31 60 33 82 34
REMARK SMILES IDX 47 35 30 36 31 37 40 38 32 39 33 40 39 41 41 42 34 43 35 44
REMARK SMILES IDX 36 45 37 46 38 47 64 48 65 49 74 50 66 51 67 52 73 53 75 54
REMARK SMILES IDX 68 55 69 56 70 57 71 58 72 59 48 60 49 61 58 62 50 63 51 64
REMARK SMILES IDX 57 65 59 66 52 67 53 68 54 69 55 70 56 71 4 72 5 73 6 74
REMARK SMILES IDX 7 75 8 76 9 77 10 78 20 79 11 80 13 81 19 82 12 83 14 84
REMARK SMILES IDX 17 85 15 87 16 88 18 89
REMARK H PARENT 80 21 46 32 19 86
REMARK Flexibility Score: inf
ROOT
ATOM      1  O   UNL A   1      39.658  24.376  26.002  1.00  0.00    -0.458 OA
ENDROOT
BRANCH   1   2
ATOM      2  C   UNL A   1      40.400  25.485  26.224  1.00  0.00     0.338 C 
ATOM      3  O   UNL A   1      41.337  25.729  25.466  1.00  0.00    -0.246 OA
BRANCH   2   4
ATOM      4  C   UNL A   1      40.255  26.334  27.448  1.00  0.00     0.060 A 
ATOM      5  C   UNL A   1      41.194  27.366  27.596  1.00  0.00     0.016 A 
ATOM      6  C   UNL A   1      39.296  26.177  28.451  1.00  0.00     0.016 A 
ATOM      7  C   UNL A   1      41.277  28.101  28.779  1.00  0.00     0.010 A 
ATOM      8  C   UNL A   1      39.354  26.931  29.629  1.00  0.00     0.010 A 
ATOM      9  C   UNL A   1      40.359  27.881  29.815  1.00  0.00    -0.014 A 
BRANCH   9  10
ATOM     10  C   UNL A   1      40.300  28.812  30.963  1.00  0.00     0.031 A 
ATOM     11  C   UNL A   1      41.115  28.625  32.210  1.00  0.00     0.074 A 
ATOM     12  C   UNL A   1      39.443  29.843  30.851  1.00  0.00     0.049 A 
ATOM     13  N   UNL A   1      41.310  29.471  33.189  1.00  0.00    -0.248 NA
ATOM     14  C   UNL A   1      41.822  27.349  32.385  1.00  0.00     0.031 C 
ATOM     15  C   UNL A   1      38.568  30.085  29.697  1.00  0.00     0.029 A 
ATOM     16  N   UNL A   1      39.150  30.864  31.709  1.00  0.00    -0.354 N 
ATOM     17  C   UNL A   1      42.248  28.880  34.029  1.00  0.00     0.074 A 
ATOM     18  C   UNL A   1      42.531  27.570  33.488  1.00  0.00     0.031 C 
ATOM     19  C   UNL A   1      37.841  31.185  29.920  1.00  0.00     0.029 A 
ATOM     20  C   UNL A   1      38.160  31.694  31.245  1.00  0.00     0.049 A 
ATOM     21  H   UNL A   1      39.603  30.992  32.574  1.00  0.00     0.167 HD
ATOM     22  C   UNL A   1      42.810  29.397  35.147  1.00  0.00     0.037 A 
ATOM     23  C   UNL A   1      37.554  32.735  31.840  1.00  0.00     0.037 A 
ATOM     24  C   UNL A   1      42.338  30.600  35.785  1.00  0.00     0.049 A 
ATOM     25  C   UNL A   1      38.028  33.151  33.198  1.00  0.00     0.074 A 
ATOM     26  C   UNL A   1      42.766  31.173  36.969  1.00  0.00     0.029 A 
ATOM     27  N   UNL A   1      41.274  31.367  35.330  1.00  0.00    -0.354 N 
ATOM     28  N   UNL A   1      39.018  32.660  33.906  1.00  0.00    -0.248 NA
ATOM     29  C   UNL A   1      37.312  34.258  33.838  1.00  0.00     0.031 C 
ATOM     30  C   UNL A   1      41.895  32.224  37.279  1.00  0.00     0.029 A 
ATOM     31  C   UNL A   1      40.979  32.359  36.249  1.00  0.00     0.049 A 
ATOM     32  H   UNL A   1      40.799  31.227  34.479  1.00  0.00     0.167 HD
ATOM     33  C   UNL A   1      39.066  33.421  35.066  1.00  0.00     0.074 A 
ATOM     34  C   UNL A   1      38.008  34.408  34.957  1.00  0.00     0.031 C 
ATOM     35  C   UNL A   1      39.911  33.320  36.121  1.00  0.00     0.037 A 
BRANCH  22  36
ATOM     36  C   UNL A   1      43.970  28.674  35.778  1.00  0.00     0.058 A 
ATOM     37  C   UNL A   1      43.752  27.576  36.626  1.00  0.00     0.135 A 
ATOM     38  C   UNL A   1      45.295  28.973  35.428  1.00  0.00     0.135 A 
ATOM     39  F   UNL A   1      42.505  27.255  37.009  1.00  0.00    -0.206 F 
ATOM     40  C   UNL A   1      44.804  26.786  37.085  1.00  0.00     0.059 A 
ATOM     41  C   UNL A   1      46.363  28.192  35.866  1.00  0.00     0.059 A 
ATOM     42  F   UNL A   1      45.562  30.018  34.629  1.00  0.00    -0.206 F 
ATOM     43  C   UNL A   1      46.107  27.095  36.688  1.00  0.00     0.060 A 
BRANCH  43  44
ATOM     44  S   UNL A   1      47.453  26.033  37.259  1.00  0.00     0.124 S 
ATOM     45  O   UNL A   1      48.608  26.656  36.620  1.00  0.00    -0.237 OA
ATOM     46  O   UNL A   1      47.371  26.183  38.708  1.00  0.00    -0.237 OA
ATOM     47  O   UNL A   1      47.091  24.716  36.743  1.00  0.00    -0.744 OA
ENDBRANCH  43  44
ENDBRANCH  22  36
BRANCH  23  48
ATOM     48  C   UNL A   1      36.435  33.420  31.146  1.00  0.00     0.058 A 
ATOM     49  C   UNL A   1      35.119  33.312  31.611  1.00  0.00     0.135 A 
ATOM     50  C   UNL A   1      36.672  34.234  30.025  1.00  0.00     0.135 A 
ATOM     51  F   UNL A   1      34.846  32.551  32.682  1.00  0.00    -0.206 F 
ATOM     52  C   UNL A   1      34.071  33.973  30.980  1.00  0.00     0.059 A 
ATOM     53  C   UNL A   1      35.646  34.929  29.396  1.00  0.00     0.059 A 
ATOM     54  F   UNL A   1      37.920  34.391  29.555  1.00  0.00    -0.206 F 
ATOM     55  C   UNL A   1      34.345  34.779  29.873  1.00  0.00     0.060 A 
BRANCH  55  56
ATOM     56  S   UNL A   1      32.979  35.642  29.070  1.00  0.00     0.124 S 
ATOM     57  O   UNL A   1      32.426  34.589  28.227  1.00  0.00    -0.237 OA
ATOM     58  O   UNL A   1      32.161  36.044  30.210  1.00  0.00    -0.237 OA
ATOM     59  O   UNL A   1      33.639  36.735  28.363  1.00  0.00    -0.744 OA
ENDBRANCH  55  56
ENDBRANCH  23  48
BRANCH  35  60
ATOM     60  C   UNL A   1      39.735  34.314  37.232  1.00  0.00     0.058 A 
ATOM     61  C   UNL A   1      39.072  33.977  38.422  1.00  0.00     0.135 A 
ATOM     62  C   UNL A   1      40.279  35.603  37.120  1.00  0.00     0.135 A 
ATOM     63  F   UNL A   1      38.527  32.759  38.572  1.00  0.00    -0.206 F 
ATOM     64  C   UNL A   1      38.930  34.895  39.454  1.00  0.00     0.059 A 
ATOM     65  C   UNL A   1      40.179  36.526  38.153  1.00  0.00     0.059 A 
ATOM     66  F   UNL A   1      40.932  35.969  36.005  1.00  0.00    -0.206 F 
ATOM     67  C   UNL A   1      39.492  36.166  39.312  1.00  0.00     0.060 A 
BRANCH  67  68
ATOM     68  S   UNL A   1      39.329  37.335  40.676  1.00  0.00     0.124 S 
ATOM     69  O   UNL A   1      38.476  38.360  40.084  1.00  0.00    -0.237 OA
ATOM     70  O   UNL A   1      38.708  36.516  41.713  1.00  0.00    -0.237 OA
ATOM     71  O   UNL A   1      40.705  37.740  40.945  1.00  0.00    -0.744 OA
ENDBRANCH  67  68
ENDBRANCH  35  60
ENDBRANCH   9  10
ENDBRANCH   2   4
ENDBRANCH   1   2
BRANCH   1  72
ATOM     72  C   UNL A   1      39.330  23.288  26.881  1.00  0.00     0.275 C 
BRANCH  72  73
ATOM     73  C   UNL A   1      40.333  22.130  26.906  1.00  0.00     0.275 C 
BRANCH  73  74
ATOM     74  O   UNL A   1      41.509  22.319  26.103  1.00  0.00    -0.458 OA
BRANCH  74  75
ATOM     75  C   UNL A   1      42.638  22.653  26.781  1.00  0.00     0.340 C 
ATOM     76  O   UNL A   1      42.697  23.092  27.918  1.00  0.00    -0.246 OA
BRANCH  75  77
ATOM     77  C   UNL A   1      43.836  22.286  25.993  1.00  0.00     0.084 A 
ATOM     78  C   UNL A   1      44.735  23.282  25.589  1.00  0.00     0.018 A 
ATOM     79  C   UNL A   1      44.062  20.950  25.619  1.00  0.00     0.073 A 
ATOM     80  C   UNL A   1      45.838  22.948  24.799  1.00  0.00     0.002 A 
ATOM     81  C   UNL A   1      45.137  20.637  24.802  1.00  0.00     0.085 A 
ATOM     82  N   UNL A   1      43.207  19.911  25.975  1.00  0.00    -0.289 N 
ATOM     83  C   UNL A   1      46.027  21.632  24.383  1.00  0.00     0.018 A 
ATOM     84  C   UNL A   1      45.301  19.249  24.346  1.00  0.00     0.349 A 
ATOM     85  C   UNL A   1      43.349  18.628  25.537  1.00  0.00     0.419 A 
ATOM     86  H   UNL A   1      42.456  20.115  26.578  1.00  0.00     0.173 HD
ATOM     87  O   UNL A   1      46.253  18.949  23.633  1.00  0.00    -0.246 OA
ATOM     88  O   UNL A   1      44.387  18.329  24.718  1.00  0.00    -0.372 OA
ATOM     89  O   UNL A   1      42.544  17.762  25.876  1.00  0.00    -0.224 OA
ENDBRANCH  75  77
ENDBRANCH  74  75
ENDBRANCH  73  74
ENDBRANCH  72  73
ENDBRANCH   1  72
TORSDOF 14
ENDMDL
MODEL 3
REMARK VINA RESULT:     -11.0      3.367     12.162
REMARK SMILES O=C(OCCOC(=O)c1cccc2c(=O)oc(=O)[nH]c12)c1ccc(-c2c3nc(c(-c4c(F)cc(S(=O)(=O)[O-])cc4F)c4ccc([nH]4)c(-c4c(F)cc(S(=O)(=O)[O-])cc4F)c4nc(c(-c5c(F)cc(S(=O)(=O)[O-])cc5F)c5ccc2[nH]5)C=C4)C=C3)cc1
REMARK SMILES IDX 3 1 2 2 1 3 21 4 22 5 86 6 23 7 85 8 24 9 25 10 26 11 79 12
REMARK SMILES IDX 27 13 84 14 78 15 80 16 28 17 83 18 77 19 76 20 29 22 63 23
REMARK SMILES IDX 42 24 62 25 43 26 46 27 61 28 81 29 44 30 45 31 60 33 82 34
REMARK SMILES IDX 47 35 30 36 31 37 40 38 32 39 33 40 39 41 41 42 34 43 35 44
REMARK SMILES IDX 36 45 37 46 38 47 64 48 65 49 74 50 66 51 67 52 73 53 75 54
REMARK SMILES IDX 68 55 69 56 70 57 71 58 72 59 48 60 49 61 58 62 50 63 51 64
REMARK SMILES IDX 57 65 59 66 52 67 53 68 54 69 55 70 56 71 4 72 5 73 6 74
REMARK SMILES IDX 7 75 8 76 9 77 10 78 20 79 11 80 13 81 19 82 12 83 14 84
REMARK SMILES IDX 17 85 15 87 16 88 18 89
REMARK H PARENT 80 21 46 32 19 86
REMARK Flexibility Score: inf
ROOT
ATOM      1  O   UNL A   1      43.779  25.612  25.372  1.00  0.00    -0.458 OA
ENDROOT
BRANCH   1   2
ATOM      2  C   UNL A   1      42.822  25.231  26.250  1.00  0.00     0.338 C 
ATOM      3  O   UNL A   1      42.180  24.210  26.013  1.00  0.00    -0.246 OA
BRANCH   2   4
ATOM      4  C   UNL A   1      42.382  26.082  27.399  1.00  0.00     0.060 A 
ATOM      5  C   UNL A   1      43.224  27.155  27.727  1.00  0.00     0.016 A 
ATOM      6  C   UNL A   1      41.238  25.891  28.175  1.00  0.00     0.016 A 
ATOM      7  C   UNL A   1      43.020  27.904  28.886  1.00  0.00     0.010 A 
ATOM      8  C   UNL A   1      41.010  26.657  29.325  1.00  0.00     0.010 A 
ATOM      9  C   UNL A   1      41.911  27.651  29.705  1.00  0.00    -0.014 A 
BRANCH   9  10
ATOM     10  C   UNL A   1      41.569  28.589  30.798  1.00  0.00     0.031 A 
ATOM     11  C   UNL A   1      40.550  29.680  30.650  1.00  0.00     0.074 A 
ATOM     12  C   UNL A   1      42.249  28.436  31.949  1.00  0.00     0.049 A 
ATOM     13  N   UNL A   1      40.014  30.425  31.581  1.00  0.00    -0.248 NA
ATOM     14  C   UNL A   1      40.042  29.968  29.301  1.00  0.00     0.031 C 
ATOM     15  C   UNL A   1      43.298  27.434  32.178  1.00  0.00     0.029 A 
ATOM     16  N   UNL A   1      42.179  29.118  33.130  1.00  0.00    -0.354 N 
ATOM     17  C   UNL A   1      39.029  31.180  30.954  1.00  0.00     0.074 A 
ATOM     18  C   UNL A   1      39.087  30.862  29.546  1.00  0.00     0.031 C 
ATOM     19  C   UNL A   1      43.768  27.567  33.423  1.00  0.00     0.029 A 
ATOM     20  C   UNL A   1      43.095  28.689  34.059  1.00  0.00     0.049 A 
ATOM     21  H   UNL A   1      41.537  29.846  33.298  1.00  0.00     0.167 HD
ATOM     22  C   UNL A   1      38.163  32.057  31.516  1.00  0.00     0.037 A 
ATOM     23  C   UNL A   1      43.380  29.170  35.280  1.00  0.00     0.037 A 
ATOM     24  C   UNL A   1      38.284  32.525  32.874  1.00  0.00     0.049 A 
ATOM     25  C   UNL A   1      42.564  30.314  35.800  1.00  0.00     0.074 A 
ATOM     26  C   UNL A   1      37.524  33.478  33.528  1.00  0.00     0.029 A 
ATOM     27  N   UNL A   1      39.279  32.129  33.758  1.00  0.00    -0.354 N 
ATOM     28  N   UNL A   1      41.541  30.913  35.237  1.00  0.00    -0.248 NA
ATOM     29  C   UNL A   1      42.935  30.846  37.114  1.00  0.00     0.031 C 
ATOM     30  C   UNL A   1      38.123  33.731  34.767  1.00  0.00     0.029 A 
ATOM     31  C   UNL A   1      39.202  32.876  34.920  1.00  0.00     0.049 A 
ATOM     32  H   UNL A   1      39.941  31.422  33.584  1.00  0.00     0.167 HD
ATOM     33  C   UNL A   1      41.122  31.876  36.146  1.00  0.00     0.074 A 
ATOM     34  C   UNL A   1      42.002  31.770  37.295  1.00  0.00     0.031 C 
ATOM     35  C   UNL A   1      40.100  32.760  36.044  1.00  0.00     0.037 A 
BRANCH  22  36
ATOM     36  C   UNL A   1      37.031  32.597  30.684  1.00  0.00     0.058 A 
ATOM     37  C   UNL A   1      35.718  32.140  30.881  1.00  0.00     0.135 A 
ATOM     38  C   UNL A   1      37.221  33.669  29.799  1.00  0.00     0.135 A 
ATOM     39  F   UNL A   1      35.478  31.105  31.703  1.00  0.00    -0.206 F 
ATOM     40  C   UNL A   1      34.632  32.742  30.249  1.00  0.00     0.059 A 
ATOM     41  C   UNL A   1      36.150  34.293  29.163  1.00  0.00     0.059 A 
ATOM     42  F   UNL A   1      38.457  34.138  29.566  1.00  0.00    -0.206 F 
ATOM     43  C   UNL A   1      34.857  33.828  29.400  1.00  0.00     0.060 A 
BRANCH  43  44
ATOM     44  S   UNL A   1      33.432  34.622  28.623  1.00  0.00     0.124 S 
ATOM     45  O   UNL A   1      32.563  34.853  29.773  1.00  0.00    -0.237 OA
ATOM     46  O   UNL A   1      34.029  35.813  28.029  1.00  0.00    -0.237 OA
ATOM     47  O   UNL A   1      32.957  33.619  27.675  1.00  0.00    -0.744 OA
ENDBRANCH  43  44
ENDBRANCH  22  36
BRANCH  23  48
ATOM     48  C   UNL A   1      44.492  28.570  36.057  1.00  0.00     0.058 A 
ATOM     49  C   UNL A   1      45.805  29.038  35.924  1.00  0.00     0.135 A 
ATOM     50  C   UNL A   1      44.251  27.542  36.986  1.00  0.00     0.135 A 
ATOM     51  F   UNL A   1      46.081  30.022  35.054  1.00  0.00    -0.206 F 
ATOM     52  C   UNL A   1      46.846  28.497  36.669  1.00  0.00     0.059 A 
ATOM     53  C   UNL A   1      45.270  27.008  37.765  1.00  0.00     0.059 A 
ATOM     54  F   UNL A   1      43.006  27.077  37.170  1.00  0.00    -0.206 F 
ATOM     55  C   UNL A   1      46.568  27.482  37.587  1.00  0.00     0.060 A 
BRANCH  55  56
ATOM     56  S   UNL A   1      47.926  26.797  38.558  1.00  0.00     0.124 S 
ATOM     57  O   UNL A   1      49.085  27.264  37.808  1.00  0.00    -0.237 OA
ATOM     58  O   UNL A   1      47.714  27.420  39.861  1.00  0.00    -0.237 OA
ATOM     59  O   UNL A   1      47.681  25.358  38.511  1.00  0.00    -0.744 OA
ENDBRANCH  55  56
ENDBRANCH  23  48
BRANCH  35  60
ATOM     60  C   UNL A   1      39.869  33.671  37.214  1.00  0.00     0.058 A 
ATOM     61  C   UNL A   1      40.517  34.910  37.321  1.00  0.00     0.135 A 
ATOM     62  C   UNL A   1      38.951  33.316  38.216  1.00  0.00     0.135 A 
ATOM     63  F   UNL A   1      41.409  35.290  36.393  1.00  0.00    -0.206 F 
ATOM     64  C   UNL A   1      40.282  35.757  38.397  1.00  0.00     0.059 A 
ATOM     65  C   UNL A   1      38.675  34.162  39.282  1.00  0.00     0.059 A 
ATOM     66  F   UNL A   1      38.298  32.144  38.152  1.00  0.00    -0.206 F 
ATOM     67  C   UNL A   1      39.356  35.376  39.370  1.00  0.00     0.060 A 
BRANCH  67  68
ATOM     68  S   UNL A   1      39.038  36.503  40.741  1.00  0.00     0.124 S 
ATOM     69  O   UNL A   1      38.599  37.705  40.038  1.00  0.00    -0.237 OA
ATOM     70  O   UNL A   1      38.004  35.795  41.490  1.00  0.00    -0.237 OA
ATOM     71  O   UNL A   1      40.332  36.603  41.409  1.00  0.00    -0.744 OA
ENDBRANCH  67  68
ENDBRANCH  35  60
ENDBRANCH   9  10
ENDBRANCH   2   4
ENDBRANCH   1   2
BRANCH   1  72
ATOM     72  C   UNL A   1      45.209  25.504  25.454  1.00  0.00     0.275 C 
BRANCH  72  73
ATOM     73  C   UNL A   1      45.757  24.086  25.645  1.00  0.00     0.275 C 
BRANCH  73  74
ATOM     74  O   UNL A   1      45.853  23.298  24.448  1.00  0.00    -0.458 OA
BRANCH  74  75
ATOM     75  C   UNL A   1      44.775  22.522  24.166  1.00  0.00     0.340 C 
ATOM     76  O   UNL A   1      43.813  22.837  23.484  1.00  0.00    -0.246 OA
BRANCH  75  77
ATOM     77  C   UNL A   1      44.973  21.155  24.699  1.00  0.00     0.084 A 
ATOM     78  C   UNL A   1      46.204  20.511  24.524  1.00  0.00     0.018 A 
ATOM     79  C   UNL A   1      43.922  20.486  25.351  1.00  0.00     0.073 A 
ATOM     80  C   UNL A   1      46.378  19.201  24.977  1.00  0.00     0.002 A 
ATOM     81  C   UNL A   1      44.093  19.172  25.760  1.00  0.00     0.085 A 
ATOM     82  N   UNL A   1      42.670  21.058  25.550  1.00  0.00    -0.289 N 
ATOM     83  C   UNL A   1      45.317  18.521  25.572  1.00  0.00     0.018 A 
ATOM     84  C   UNL A   1      42.953  18.461  26.355  1.00  0.00     0.349 A 
ATOM     85  C   UNL A   1      41.607  20.392  26.085  1.00  0.00     0.419 A 
ATOM     86  H   UNL A   1      42.544  22.000  25.290  1.00  0.00     0.173 HD
ATOM     87  O   UNL A   1      43.087  17.303  26.735  1.00  0.00    -0.246 OA
ATOM     88  O   UNL A   1      41.770  19.101  26.462  1.00  0.00    -0.372 OA
ATOM     89  O   UNL A   1      40.521  20.955  26.215  1.00  0.00    -0.224 OA
ENDBRANCH  75  77
ENDBRANCH  74  75
ENDBRANCH  73  74
ENDBRANCH  72  73
ENDBRANCH   1  72
TORSDOF 14
ENDMDL
