MODEL 1
REMARK VINA RESULT:     -11.2      0.000      0.000
REMARK SMILES C[NH2+][C@]1(C(=O)OCCOC(=O)c2ccc(-c3c4nc(c(-c5c(F)cc(S(=O)(=O)[O-])cc5F)c5ccc([nH]5)c(-c5c(F)cc(S(=O)(=O)[O-])cc5F)c5nc(c(-c6c(F)cc(S(=O)(=O)[O-])cc6F)c6ccc3[nH]6)C=C5)C=C4)cc2)CCC[C@@H]([N@H+]2CC[C@@H](C)C2)C1
REMARK SMILES IDX 8 1 7 2 6 3 4 4 5 5 3 6 78 7 88 8 79 9 81 10 80 11 2 12 1 13
REMARK SMILES IDX 82 16 83 17 87 18 84 20 85 21 86 22 9 23 10 24 11 25 12 26
REMARK SMILES IDX 13 27 77 28 14 29 76 30 15 31 16 32 17 33 70 34 18 35 75 36
REMARK SMILES IDX 69 37 71 38 19 39 74 40 68 41 67 42 20 44 54 45 33 46 53 47
REMARK SMILES IDX 34 48 37 49 52 50 72 51 35 52 36 53 51 55 73 56 38 57 21 58
REMARK SMILES IDX 22 59 31 60 23 61 24 62 30 63 32 64 25 65 26 66 27 67 28 68
REMARK SMILES IDX 29 69 55 70 56 71 65 72 57 73 58 74 64 75 66 76 59 77 60 78
REMARK SMILES IDX 61 79 62 80 63 81 39 82 40 83 49 84 41 85 42 86 48 87 50 88
REMARK SMILES IDX 43 89 44 90 45 91 46 92 47 93
REMARK H PARENT 2 14 2 15 82 19 71 43 37 54
REMARK Flexibility Score: inf
ROOT
ATOM      1  C   UNL A   1      39.471  22.718  26.609  1.00  0.00     0.275 C 
ENDROOT
BRANCH   1   2
ATOM      2  C   UNL A   1      38.409  22.069  25.715  1.00  0.00     0.274 C 
BRANCH   2   3
ATOM      3  O   UNL A   1      37.242  22.898  25.567  1.00  0.00    -0.457 OA
BRANCH   3   4
ATOM      4  C   UNL A   1      36.510  22.670  24.436  1.00  0.00     0.368 C 
ATOM      5  O   UNL A   1      36.943  22.909  23.312  1.00  0.00    -0.245 OA
BRANCH   4   6
ATOM      6  C   UNL A   1      35.031  22.266  24.745  1.00  0.00     0.199 C 
ATOM      7  C   UNL A   1      34.047  22.592  23.595  1.00  0.00     0.081 C 
ATOM      8  C   UNL A   1      35.083  20.748  24.885  1.00  0.00     0.146 C 
ATOM      9  C   UNL A   1      32.667  21.934  23.765  1.00  0.00     0.013 C 
ATOM     10  C   UNL A   1      33.731  20.102  25.186  1.00  0.00     0.190 C 
ATOM     11  C   UNL A   1      32.748  20.423  24.042  1.00  0.00     0.065 C 
BRANCH   6  12
ATOM     12  N   UNL A   1      34.524  22.919  25.990  1.00  0.00    -0.334 N 
ATOM     13  C   UNL A   1      34.049  24.297  25.882  1.00  0.00     0.331 C 
ATOM     14  H   UNL A   1      33.748  22.354  26.337  1.00  0.00     0.347 HD
ATOM     15  H   UNL A   1      35.336  22.971  26.607  1.00  0.00     0.347 HD
ENDBRANCH   6  12
BRANCH  10  16
ATOM     16  N   UNL A   1      33.855  18.670  25.520  1.00  0.00    -0.332 N 
ATOM     17  C   UNL A   1      32.610  17.913  25.639  1.00  0.00     0.262 C 
ATOM     18  C   UNL A   1      34.743  17.942  24.593  1.00  0.00     0.265 C 
ATOM     19  H   UNL A   1      34.261  18.720  26.454  1.00  0.00     0.348 HD
ATOM     20  C   UNL A   1      32.774  16.635  24.818  1.00  0.00     0.070 C 
ATOM     21  C   UNL A   1      33.896  16.922  23.831  1.00  0.00     0.047 C 
ATOM     22  C   UNL A   1      33.354  17.374  22.472  1.00  0.00     0.014 C 
ENDBRANCH  10  16
ENDBRANCH   4   6
ENDBRANCH   3   4
ENDBRANCH   2   3
ENDBRANCH   1   2
BRANCH   1  23
ATOM     23  O   UNL A   1      39.394  24.155  26.593  1.00  0.00    -0.458 OA
BRANCH  23  24
ATOM     24  C   UNL A   1      40.596  24.789  26.556  1.00  0.00     0.338 C 
ATOM     25  O   UNL A   1      41.450  24.668  25.699  1.00  0.00    -0.246 OA
BRANCH  24  26
ATOM     26  C   UNL A   1      40.650  25.825  27.611  1.00  0.00     0.060 A 
ATOM     27  C   UNL A   1      39.601  25.839  28.531  1.00  0.00     0.016 A 
ATOM     28  C   UNL A   1      41.675  26.765  27.717  1.00  0.00     0.016 A 
ATOM     29  C   UNL A   1      39.610  26.713  29.614  1.00  0.00     0.010 A 
ATOM     30  C   UNL A   1      41.649  27.698  28.766  1.00  0.00     0.010 A 
ATOM     31  C   UNL A   1      40.626  27.664  29.730  1.00  0.00    -0.014 A 
BRANCH  31  32
ATOM     32  C   UNL A   1      40.508  28.702  30.780  1.00  0.00     0.031 A 
ATOM     33  C   UNL A   1      41.413  28.617  31.975  1.00  0.00     0.074 A 
ATOM     34  C   UNL A   1      39.660  29.739  30.645  1.00  0.00     0.049 A 
ATOM     35  N   UNL A   1      41.455  29.375  33.039  1.00  0.00    -0.248 NA
ATOM     36  C   UNL A   1      42.416  27.541  31.957  1.00  0.00     0.031 C 
ATOM     37  C   UNL A   1      38.813  29.993  29.481  1.00  0.00     0.029 A 
ATOM     38  N   UNL A   1      39.373  30.773  31.502  1.00  0.00    -0.354 N 
ATOM     39  C   UNL A   1      42.487  28.868  33.819  1.00  0.00     0.074 A 
ATOM     40  C   UNL A   1      43.039  27.733  33.110  1.00  0.00     0.031 C 
ATOM     41  C   UNL A   1      38.075  31.094  29.712  1.00  0.00     0.029 A 
ATOM     42  C   UNL A   1      38.370  31.600  31.053  1.00  0.00     0.049 A 
ATOM     43  H   UNL A   1      39.840  30.910  32.358  1.00  0.00     0.167 HD
ATOM     44  C   UNL A   1      42.928  29.304  35.021  1.00  0.00     0.037 A 
ATOM     45  C   UNL A   1      37.739  32.620  31.671  1.00  0.00     0.037 A 
ATOM     46  C   UNL A   1      42.350  30.410  35.737  1.00  0.00     0.049 A 
ATOM     47  C   UNL A   1      38.159  33.007  33.069  1.00  0.00     0.074 A 
ATOM     48  C   UNL A   1      42.699  30.907  36.981  1.00  0.00     0.029 A 
ATOM     49  N   UNL A   1      41.291  31.183  35.282  1.00  0.00    -0.354 N 
ATOM     50  N   UNL A   1      39.121  32.510  33.811  1.00  0.00    -0.248 NA
ATOM     51  C   UNL A   1      37.408  34.093  33.716  1.00  0.00     0.031 C 
ATOM     52  C   UNL A   1      41.814  31.940  37.303  1.00  0.00     0.029 A 
ATOM     53  C   UNL A   1      40.956  32.134  36.231  1.00  0.00     0.049 A 
ATOM     54  H   UNL A   1      40.844  31.071  34.412  1.00  0.00     0.167 HD
ATOM     55  C   UNL A   1      39.110  33.240  34.997  1.00  0.00     0.074 A 
ATOM     56  C   UNL A   1      38.052  34.221  34.869  1.00  0.00     0.031 C 
ATOM     57  C   UNL A   1      39.906  33.113  36.089  1.00  0.00     0.037 A 
BRANCH  44  58
ATOM     58  C   UNL A   1      44.050  28.537  35.663  1.00  0.00     0.058 A 
ATOM     59  C   UNL A   1      45.398  28.846  35.416  1.00  0.00     0.135 A 
ATOM     60  C   UNL A   1      43.772  27.482  36.545  1.00  0.00     0.135 A 
ATOM     61  F   UNL A   1      45.721  29.829  34.561  1.00  0.00    -0.206 F 
ATOM     62  C   UNL A   1      46.428  28.117  36.000  1.00  0.00     0.059 A 
ATOM     63  C   UNL A   1      44.786  26.758  37.163  1.00  0.00     0.059 A 
ATOM     64  F   UNL A   1      42.501  27.140  36.810  1.00  0.00    -0.206 F 
ATOM     65  C   UNL A   1      46.111  27.074  36.872  1.00  0.00     0.060 A 
BRANCH  65  66
ATOM     66  S   UNL A   1      47.460  26.134  37.620  1.00  0.00     0.124 S 
ATOM     67  O   UNL A   1      46.921  24.778  37.592  1.00  0.00    -0.237 OA
ATOM     68  O   UNL A   1      48.565  26.396  36.704  1.00  0.00    -0.237 OA
ATOM     69  O   UNL A   1      47.594  26.729  38.946  1.00  0.00    -0.744 OA
ENDBRANCH  65  66
ENDBRANCH  44  58
BRANCH  45  70
ATOM     70  C   UNL A   1      36.607  33.319  31.000  1.00  0.00     0.058 A 
ATOM     71  C   UNL A   1      35.276  33.101  31.388  1.00  0.00     0.135 A 
ATOM     72  C   UNL A   1      36.833  34.203  29.932  1.00  0.00     0.135 A 
ATOM     73  F   UNL A   1      35.000  32.250  32.389  1.00  0.00    -0.206 F 
ATOM     74  C   UNL A   1      34.213  33.720  30.736  1.00  0.00     0.059 A 
ATOM     75  C   UNL A   1      35.790  34.857  29.284  1.00  0.00     0.059 A 
ATOM     76  F   UNL A   1      38.086  34.450  29.517  1.00  0.00    -0.206 F 
ATOM     77  C   UNL A   1      34.482  34.600  29.686  1.00  0.00     0.060 A 
BRANCH  77  78
ATOM     78  S   UNL A   1      33.097  35.432  28.875  1.00  0.00     0.124 S 
ATOM     79  O   UNL A   1      32.504  34.341  28.110  1.00  0.00    -0.237 OA
ATOM     80  O   UNL A   1      32.320  35.911  30.014  1.00  0.00    -0.237 OA
ATOM     81  O   UNL A   1      33.747  36.475  28.088  1.00  0.00    -0.744 OA
ENDBRANCH  77  78
ENDBRANCH  45  70
BRANCH  57  82
ATOM     82  C   UNL A   1      39.701  34.084  37.223  1.00  0.00     0.058 A 
ATOM     83  C   UNL A   1      39.021  33.725  38.397  1.00  0.00     0.135 A 
ATOM     84  C   UNL A   1      40.257  35.373  37.158  1.00  0.00     0.135 A 
ATOM     85  F   UNL A   1      38.467  32.508  38.512  1.00  0.00    -0.206 F 
ATOM     86  C   UNL A   1      38.880  34.616  39.457  1.00  0.00     0.059 A 
ATOM     87  C   UNL A   1      40.156  36.269  38.219  1.00  0.00     0.059 A 
ATOM     88  F   UNL A   1      40.929  35.766  36.065  1.00  0.00    -0.206 F 
ATOM     89  C   UNL A   1      39.455  35.885  39.360  1.00  0.00     0.060 A 
BRANCH  89  90
ATOM     90  S   UNL A   1      39.299  37.016  40.759  1.00  0.00     0.124 S 
ATOM     91  O   UNL A   1      40.697  37.249  41.107  1.00  0.00    -0.237 OA
ATOM     92  O   UNL A   1      38.596  38.150  40.167  1.00  0.00    -0.237 OA
ATOM     93  O   UNL A   1      38.529  36.248  41.735  1.00  0.00    -0.744 OA
ENDBRANCH  89  90
ENDBRANCH  57  82
ENDBRANCH  31  32
ENDBRANCH  24  26
ENDBRANCH  23  24
ENDBRANCH   1  23
TORSDOF 16
ENDMDL
MODEL 2
REMARK VINA RESULT:     -11.2      7.266     12.673
REMARK SMILES C[NH2+][C@]1(C(=O)OCCOC(=O)c2ccc(-c3c4nc(c(-c5c(F)cc(S(=O)(=O)[O-])cc5F)c5ccc([nH]5)c(-c5c(F)cc(S(=O)(=O)[O-])cc5F)c5nc(c(-c6c(F)cc(S(=O)(=O)[O-])cc6F)c6ccc3[nH]6)C=C5)C=C4)cc2)CCC[C@@H]([N@H+]2CC[C@@H](C)C2)C1
REMARK SMILES IDX 8 1 7 2 6 3 4 4 5 5 3 6 78 7 88 8 79 9 81 10 80 11 2 12 1 13
REMARK SMILES IDX 82 16 83 17 87 18 84 20 85 21 86 22 9 23 10 24 11 25 12 26
REMARK SMILES IDX 13 27 77 28 14 29 76 30 15 31 16 32 17 33 70 34 18 35 75 36
REMARK SMILES IDX 69 37 71 38 19 39 74 40 68 41 67 42 20 44 54 45 33 46 53 47
REMARK SMILES IDX 34 48 37 49 52 50 72 51 35 52 36 53 51 55 73 56 38 57 21 58
REMARK SMILES IDX 22 59 31 60 23 61 24 62 30 63 32 64 25 65 26 66 27 67 28 68
REMARK SMILES IDX 29 69 55 70 56 71 65 72 57 73 58 74 64 75 66 76 59 77 60 78
REMARK SMILES IDX 61 79 62 80 63 81 39 82 40 83 49 84 41 85 42 86 48 87 50 88
REMARK SMILES IDX 43 89 44 90 45 91 46 92 47 93
REMARK H PARENT 2 14 2 15 82 19 71 43 37 54
REMARK Flexibility Score: inf
ROOT
ATOM      1  C   UNL A   1      34.468  31.146  27.924  1.00  0.00     0.275 C 
ENDROOT
BRANCH   1   2
ATOM      2  C   UNL A   1      33.275  30.452  27.260  1.00  0.00     0.274 C 
BRANCH   2   3
ATOM      3  O   UNL A   1      33.396  29.017  27.287  1.00  0.00    -0.457 OA
BRANCH   3   4
ATOM      4  C   UNL A   1      32.217  28.336  27.183  1.00  0.00     0.368 C 
ATOM      5  O   UNL A   1      31.550  28.020  28.165  1.00  0.00    -0.245 OA
BRANCH   4   6
ATOM      6  C   UNL A   1      31.926  27.850  25.725  1.00  0.00     0.199 C 
ATOM      7  C   UNL A   1      30.947  26.652  25.655  1.00  0.00     0.081 C 
ATOM      8  C   UNL A   1      31.237  29.041  25.068  1.00  0.00     0.146 C 
ATOM      9  C   UNL A   1      30.429  26.367  24.235  1.00  0.00     0.013 C 
ATOM     10  C   UNL A   1      30.839  28.807  23.610  1.00  0.00     0.190 C 
ATOM     11  C   UNL A   1      29.862  27.616  23.537  1.00  0.00     0.065 C 
BRANCH   6  12
ATOM     12  N   UNL A   1      33.179  27.469  25.005  1.00  0.00    -0.334 N 
ATOM     13  C   UNL A   1      33.813  26.206  25.379  1.00  0.00     0.331 C 
ATOM     14  H   UNL A   1      32.957  27.417  24.011  1.00  0.00     0.347 HD
ATOM     15  H   UNL A   1      33.857  28.187  25.263  1.00  0.00     0.347 HD
ENDBRANCH   6  12
BRANCH  10  16
ATOM     16  N   UNL A   1      30.370  30.041  22.952  1.00  0.00    -0.332 N 
ATOM     17  C   UNL A   1      29.903  29.912  21.572  1.00  0.00     0.262 C 
ATOM     18  C   UNL A   1      29.323  30.739  23.722  1.00  0.00     0.265 C 
ATOM     19  H   UNL A   1      31.231  30.588  22.923  1.00  0.00     0.348 HD
ATOM     20  C   UNL A   1      28.557  30.628  21.479  1.00  0.00     0.070 C 
ATOM     21  C   UNL A   1      28.032  30.704  22.904  1.00  0.00     0.047 C 
ATOM     22  C   UNL A   1      27.066  29.557  23.215  1.00  0.00     0.014 C 
ENDBRANCH  10  16
ENDBRANCH   4   6
ENDBRANCH   3   4
ENDBRANCH   2   3
ENDBRANCH   1   2
BRANCH   1  23
ATOM     23  O   UNL A   1      35.469  30.210  28.365  1.00  0.00    -0.458 OA
BRANCH  23  24
ATOM     24  C   UNL A   1      36.164  30.597  29.468  1.00  0.00     0.338 C 
ATOM     25  O   UNL A   1      35.693  31.037  30.499  1.00  0.00    -0.246 OA
BRANCH  24  26
ATOM     26  C   UNL A   1      37.586  30.214  29.325  1.00  0.00     0.060 A 
ATOM     27  C   UNL A   1      38.029  29.915  28.036  1.00  0.00     0.016 A 
ATOM     28  C   UNL A   1      38.475  30.137  30.398  1.00  0.00     0.016 A 
ATOM     29  C   UNL A   1      39.370  29.638  27.787  1.00  0.00     0.010 A 
ATOM     30  C   UNL A   1      39.812  29.783  30.160  1.00  0.00     0.010 A 
ATOM     31  C   UNL A   1      40.270  29.550  28.851  1.00  0.00    -0.014 A 
BRANCH  31  32
ATOM     32  C   UNL A   1      41.644  29.065  28.579  1.00  0.00     0.031 A 
ATOM     33  C   UNL A   1      42.775  30.051  28.639  1.00  0.00     0.074 A 
ATOM     34  C   UNL A   1      41.892  27.763  28.349  1.00  0.00     0.049 A 
ATOM     35  N   UNL A   1      44.044  29.873  28.387  1.00  0.00    -0.248 NA
ATOM     36  C   UNL A   1      42.426  31.419  29.056  1.00  0.00     0.031 C 
ATOM     37  C   UNL A   1      40.895  26.694  28.377  1.00  0.00     0.029 A 
ATOM     38  N   UNL A   1      43.066  27.120  28.043  1.00  0.00    -0.354 N 
ATOM     39  C   UNL A   1      44.648  31.103  28.613  1.00  0.00     0.074 A 
ATOM     40  C   UNL A   1      43.604  32.022  29.014  1.00  0.00     0.031 C 
ATOM     41  C   UNL A   1      41.496  25.531  28.066  1.00  0.00     0.029 A 
ATOM     42  C   UNL A   1      42.909  25.779  27.781  1.00  0.00     0.049 A 
ATOM     43  H   UNL A   1      43.938  27.575  28.014  1.00  0.00     0.167 HD
ATOM     44  C   UNL A   1      45.952  31.439  28.488  1.00  0.00     0.037 A 
ATOM     45  C   UNL A   1      43.796  24.870  27.324  1.00  0.00     0.037 A 
ATOM     46  C   UNL A   1      46.979  30.528  28.053  1.00  0.00     0.049 A 
ATOM     47  C   UNL A   1      45.221  25.298  27.066  1.00  0.00     0.074 A 
ATOM     48  C   UNL A   1      48.326  30.781  27.856  1.00  0.00     0.029 A 
ATOM     49  N   UNL A   1      46.772  29.195  27.731  1.00  0.00    -0.354 N 
ATOM     50  N   UNL A   1      45.781  26.469  27.260  1.00  0.00    -0.248 NA
ATOM     51  C   UNL A   1      46.136  24.283  26.524  1.00  0.00     0.031 C 
ATOM     52  C   UNL A   1      48.920  29.616  27.360  1.00  0.00     0.029 A 
ATOM     53  C   UNL A   1      47.959  28.619  27.311  1.00  0.00     0.049 A 
ATOM     54  H   UNL A   1      45.908  28.727  27.792  1.00  0.00     0.167 HD
ATOM     55  C   UNL A   1      47.117  26.323  26.894  1.00  0.00     0.074 A 
ATOM     56  C   UNL A   1      47.284  24.946  26.475  1.00  0.00     0.031 C 
ATOM     57  C   UNL A   1      48.115  27.243  26.906  1.00  0.00     0.037 A 
BRANCH  44  58
ATOM     58  C   UNL A   1      46.326  32.868  28.766  1.00  0.00     0.058 A 
ATOM     59  C   UNL A   1      46.362  33.837  27.750  1.00  0.00     0.135 A 
ATOM     60  C   UNL A   1      46.647  33.274  30.070  1.00  0.00     0.135 A 
ATOM     61  F   UNL A   1      46.089  33.498  26.481  1.00  0.00    -0.206 F 
ATOM     62  C   UNL A   1      46.729  35.152  28.015  1.00  0.00     0.059 A 
ATOM     63  C   UNL A   1      46.988  34.590  30.363  1.00  0.00     0.059 A 
ATOM     64  F   UNL A   1      46.636  32.386  31.077  1.00  0.00    -0.206 F 
ATOM     65  C   UNL A   1      47.041  35.519  29.326  1.00  0.00     0.060 A 
BRANCH  65  66
ATOM     66  S   UNL A   1      47.518  37.229  29.654  1.00  0.00     0.124 S 
ATOM     67  O   UNL A   1      48.687  37.047  30.508  1.00  0.00    -0.237 OA
ATOM     68  O   UNL A   1      47.787  37.738  28.313  1.00  0.00    -0.237 OA
ATOM     69  O   UNL A   1      46.342  37.791  30.311  1.00  0.00    -0.744 OA
ENDBRANCH  65  66
ENDBRANCH  44  58
BRANCH  45  70
ATOM     70  C   UNL A   1      43.360  23.476  27.031  1.00  0.00     0.058 A 
ATOM     71  C   UNL A   1      43.161  23.031  25.715  1.00  0.00     0.135 A 
ATOM     72  C   UNL A   1      43.103  22.565  28.069  1.00  0.00     0.135 A 
ATOM     73  F   UNL A   1      43.370  23.866  24.686  1.00  0.00    -0.206 F 
ATOM     74  C   UNL A   1      42.711  21.742  25.439  1.00  0.00     0.059 A 
ATOM     75  C   UNL A   1      42.682  21.262  27.817  1.00  0.00     0.059 A 
ATOM     76  F   UNL A   1      43.274  22.936  29.348  1.00  0.00    -0.206 F 
ATOM     77  C   UNL A   1      42.479  20.864  26.499  1.00  0.00     0.060 A 
BRANCH  77  78
ATOM     78  S   UNL A   1      41.938  19.180  26.127  1.00  0.00     0.124 S 
ATOM     79  O   UNL A   1      42.696  18.886  24.917  1.00  0.00    -0.237 OA
ATOM     80  O   UNL A   1      42.345  18.457  27.327  1.00  0.00    -0.237 OA
ATOM     81  O   UNL A   1      40.496  19.321  25.950  1.00  0.00    -0.744 OA
ENDBRANCH  77  78
ENDBRANCH  45  70
BRANCH  57  82
ATOM     82  C   UNL A   1      49.493  26.789  26.499  1.00  0.00     0.058 A 
ATOM     83  C   UNL A   1      50.364  26.154  27.398  1.00  0.00     0.135 A 
ATOM     84  C   UNL A   1      49.919  26.931  25.168  1.00  0.00     0.135 A 
ATOM     85  F   UNL A   1      50.011  25.995  28.683  1.00  0.00    -0.206 F 
ATOM     86  C   UNL A   1      51.616  25.696  26.997  1.00  0.00     0.059 A 
ATOM     87  C   UNL A   1      51.153  26.452  24.737  1.00  0.00     0.059 A 
ATOM     88  F   UNL A   1      49.123  27.519  24.261  1.00  0.00    -0.206 F 
ATOM     89  C   UNL A   1      52.000  25.846  25.664  1.00  0.00     0.060 A 
BRANCH  89  90
ATOM     90  S   UNL A   1      53.610  25.212  25.149  1.00  0.00     0.124 S 
ATOM     91  O   UNL A   1      53.422  23.772  25.301  1.00  0.00    -0.237 OA
ATOM     92  O   UNL A   1      53.713  25.696  23.776  1.00  0.00    -0.237 OA
ATOM     93  O   UNL A   1      54.538  25.826  26.096  1.00  0.00    -0.744 OA
ENDBRANCH  89  90
ENDBRANCH  57  82
ENDBRANCH  31  32
ENDBRANCH  24  26
ENDBRANCH  23  24
ENDBRANCH   1  23
TORSDOF 16
ENDMDL
MODEL 3
REMARK VINA RESULT:     -11.1      7.604     12.972
REMARK SMILES C[NH2+][C@]1(C(=O)OCCOC(=O)c2ccc(-c3c4nc(c(-c5c(F)cc(S(=O)(=O)[O-])cc5F)c5ccc([nH]5)c(-c5c(F)cc(S(=O)(=O)[O-])cc5F)c5nc(c(-c6c(F)cc(S(=O)(=O)[O-])cc6F)c6ccc3[nH]6)C=C5)C=C4)cc2)CCC[C@@H]([N@H+]2CC[C@@H](C)C2)C1
REMARK SMILES IDX 8 1 7 2 6 3 4 4 5 5 3 6 78 7 88 8 79 9 81 10 80 11 2 12 1 13
REMARK SMILES IDX 82 16 83 17 87 18 84 20 85 21 86 22 9 23 10 24 11 25 12 26
REMARK SMILES IDX 13 27 77 28 14 29 76 30 15 31 16 32 17 33 70 34 18 35 75 36
REMARK SMILES IDX 69 37 71 38 19 39 74 40 68 41 67 42 20 44 54 45 33 46 53 47
REMARK SMILES IDX 34 48 37 49 52 50 72 51 35 52 36 53 51 55 73 56 38 57 21 58
REMARK SMILES IDX 22 59 31 60 23 61 24 62 30 63 32 64 25 65 26 66 27 67 28 68
REMARK SMILES IDX 29 69 55 70 56 71 65 72 57 73 58 74 64 75 66 76 59 77 60 78
REMARK SMILES IDX 61 79 62 80 63 81 39 82 40 83 49 84 41 85 42 86 48 87 50 88
REMARK SMILES IDX 43 89 44 90 45 91 46 92 47 93
REMARK H PARENT 2 14 2 15 82 19 71 43 37 54
REMARK Flexibility Score: inf
ROOT
ATOM      1  C   UNL A   1      34.611  30.801  27.641  1.00  0.00     0.275 C 
ENDROOT
BRANCH   1   2
ATOM      2  C   UNL A   1      33.337  30.044  27.253  1.00  0.00     0.274 C 
BRANCH   2   3
ATOM      3  O   UNL A   1      33.175  29.947  25.826  1.00  0.00    -0.457 OA
BRANCH   3   4
ATOM      4  C   UNL A   1      33.024  28.677  25.346  1.00  0.00     0.368 C 
ATOM      5  O   UNL A   1      33.634  27.720  25.813  1.00  0.00    -0.245 OA
BRANCH   4   6
ATOM      6  C   UNL A   1      32.157  28.622  24.046  1.00  0.00     0.199 C 
ATOM      7  C   UNL A   1      31.718  27.189  23.654  1.00  0.00     0.081 C 
ATOM      8  C   UNL A   1      30.897  29.403  24.406  1.00  0.00     0.146 C 
ATOM      9  C   UNL A   1      30.632  27.158  22.565  1.00  0.00     0.013 C 
ATOM     10  C   UNL A   1      29.870  29.487  23.277  1.00  0.00     0.190 C 
ATOM     11  C   UNL A   1      29.428  28.062  22.886  1.00  0.00     0.065 C 
BRANCH   6  12
ATOM     12  N   UNL A   1      32.867  29.226  22.877  1.00  0.00    -0.334 N 
ATOM     13  C   UNL A   1      34.049  28.528  22.373  1.00  0.00     0.331 C 
ATOM     14  H   UNL A   1      32.197  29.287  22.110  1.00  0.00     0.347 HD
ATOM     15  H   UNL A   1      33.219  30.121  23.220  1.00  0.00     0.347 HD
ENDBRANCH   6  12
BRANCH  10  16
ATOM     16  N   UNL A   1      28.769  30.418  23.588  1.00  0.00    -0.332 N 
ATOM     17  C   UNL A   1      29.125  31.828  23.743  1.00  0.00     0.262 C 
ATOM     18  C   UNL A   1      27.656  30.334  22.622  1.00  0.00     0.265 C 
ATOM     19  H   UNL A   1      28.482  30.083  24.508  1.00  0.00     0.348 HD
ATOM     20  C   UNL A   1      28.142  32.640  22.901  1.00  0.00     0.070 C 
ATOM     21  C   UNL A   1      27.574  31.667  21.880  1.00  0.00     0.047 C 
ATOM     22  C   UNL A   1      28.322  31.745  20.545  1.00  0.00     0.014 C 
ENDBRANCH  10  16
ENDBRANCH   4   6
ENDBRANCH   3   4
ENDBRANCH   2   3
ENDBRANCH   1   2
BRANCH   1  23
ATOM     23  O   UNL A   1      35.588  29.944  28.261  1.00  0.00    -0.458 OA
BRANCH  23  24
ATOM     24  C   UNL A   1      36.332  30.539  29.232  1.00  0.00     0.338 C 
ATOM     25  O   UNL A   1      35.907  31.164  30.185  1.00  0.00    -0.246 OA
BRANCH  24  26
ATOM     26  C   UNL A   1      37.751  30.144  29.089  1.00  0.00     0.060 A 
ATOM     27  C   UNL A   1      38.164  29.733  27.822  1.00  0.00     0.016 A 
ATOM     28  C   UNL A   1      38.665  30.162  30.143  1.00  0.00     0.016 A 
ATOM     29  C   UNL A   1      39.498  29.434  27.566  1.00  0.00     0.010 A 
ATOM     30  C   UNL A   1      39.997  29.787  29.905  1.00  0.00     0.010 A 
ATOM     31  C   UNL A   1      40.424  29.440  28.611  1.00  0.00    -0.014 A 
BRANCH  31  32
ATOM     32  C   UNL A   1      41.791  28.933  28.350  1.00  0.00     0.031 A 
ATOM     33  C   UNL A   1      42.932  29.908  28.375  1.00  0.00     0.074 A 
ATOM     34  C   UNL A   1      42.025  27.621  28.161  1.00  0.00     0.049 A 
ATOM     35  N   UNL A   1      44.199  29.708  28.124  1.00  0.00    -0.248 NA
ATOM     36  C   UNL A   1      42.600  31.292  28.749  1.00  0.00     0.031 C 
ATOM     37  C   UNL A   1      41.017  26.563  28.227  1.00  0.00     0.029 A 
ATOM     38  N   UNL A   1      43.192  26.956  27.872  1.00  0.00    -0.354 N 
ATOM     39  C   UNL A   1      44.816  30.939  28.309  1.00  0.00     0.074 A 
ATOM     40  C   UNL A   1      43.783  31.881  28.684  1.00  0.00     0.031 C 
ATOM     41  C   UNL A   1      41.605  25.385  27.951  1.00  0.00     0.029 A 
ATOM     42  C   UNL A   1      43.020  25.609  27.653  1.00  0.00     0.049 A 
ATOM     43  H   UNL A   1      44.069  27.401  27.825  1.00  0.00     0.167 HD
ATOM     44  C   UNL A   1      46.124  31.257  28.169  1.00  0.00     0.037 A 
ATOM     45  C   UNL A   1      43.896  24.678  27.222  1.00  0.00     0.037 A 
ATOM     46  C   UNL A   1      47.140  30.322  27.759  1.00  0.00     0.049 A 
ATOM     47  C   UNL A   1      45.324  25.081  26.946  1.00  0.00     0.074 A 
ATOM     48  C   UNL A   1      48.488  30.555  27.550  1.00  0.00     0.029 A 
ATOM     49  N   UNL A   1      46.917  28.981  27.481  1.00  0.00    -0.354 N 
ATOM     50  N   UNL A   1      45.897  26.253  27.100  1.00  0.00    -0.248 NA
ATOM     51  C   UNL A   1      46.227  24.040  26.433  1.00  0.00     0.031 C 
ATOM     52  C   UNL A   1      49.068  29.369  27.089  1.00  0.00     0.029 A 
ATOM     53  C   UNL A   1      48.097  28.380  27.075  1.00  0.00     0.049 A 
ATOM     54  H   UNL A   1      46.049  28.525  27.560  1.00  0.00     0.167 HD
ATOM     55  C   UNL A   1      47.230  26.081  26.735  1.00  0.00     0.074 A 
ATOM     56  C   UNL A   1      47.381  24.690  26.360  1.00  0.00     0.031 C 
ATOM     57  C   UNL A   1      48.237  26.990  26.714  1.00  0.00     0.037 A 
BRANCH  44  58
ATOM     58  C   UNL A   1      46.513  32.690  28.399  1.00  0.00     0.058 A 
ATOM     59  C   UNL A   1      46.931  33.154  29.657  1.00  0.00     0.135 A 
ATOM     60  C   UNL A   1      46.475  33.611  27.342  1.00  0.00     0.135 A 
ATOM     61  F   UNL A   1      46.962  32.321  30.709  1.00  0.00    -0.206 F 
ATOM     62  C   UNL A   1      47.270  34.487  29.863  1.00  0.00     0.059 A 
ATOM     63  C   UNL A   1      46.838  34.942  27.517  1.00  0.00     0.059 A 
ATOM     64  F   UNL A   1      46.076  33.223  26.120  1.00  0.00    -0.206 F 
ATOM     65  C   UNL A   1      47.219  35.374  28.786  1.00  0.00     0.060 A 
BRANCH  65  66
ATOM     66  S   UNL A   1      47.659  37.102  29.070  1.00  0.00     0.124 S 
ATOM     67  O   UNL A   1      46.930  37.769  27.996  1.00  0.00    -0.237 OA
ATOM     68  O   UNL A   1      47.152  37.334  30.419  1.00  0.00    -0.237 OA
ATOM     69  O   UNL A   1      49.113  37.109  28.940  1.00  0.00    -0.744 OA
ENDBRANCH  65  66
ENDBRANCH  44  58
BRANCH  45  70
ATOM     70  C   UNL A   1      43.444  23.279  26.975  1.00  0.00     0.058 A 
ATOM     71  C   UNL A   1      43.148  22.406  28.033  1.00  0.00     0.135 A 
ATOM     72  C   UNL A   1      43.327  22.777  25.669  1.00  0.00     0.135 A 
ATOM     73  F   UNL A   1      43.263  22.827  29.302  1.00  0.00    -0.206 F 
ATOM     74  C   UNL A   1      42.766  21.086  27.808  1.00  0.00     0.059 A 
ATOM     75  C   UNL A   1      42.918  21.470  25.416  1.00  0.00     0.059 A 
ATOM     76  F   UNL A   1      43.599  23.566  24.617  1.00  0.00    -0.206 F 
ATOM     77  C   UNL A   1      42.651  20.629  26.493  1.00  0.00     0.060 A 
BRANCH  77  78
ATOM     78  S   UNL A   1      42.113  18.927  26.210  1.00  0.00     0.124 S 
ATOM     79  O   UNL A   1      42.344  18.323  27.517  1.00  0.00    -0.237 OA
ATOM     80  O   UNL A   1      40.717  19.108  25.828  1.00  0.00    -0.237 OA
ATOM     81  O   UNL A   1      42.993  18.470  25.139  1.00  0.00    -0.744 OA
ENDBRANCH  77  78
ENDBRANCH  45  70
BRANCH  57  82
ATOM     82  C   UNL A   1      49.609  26.509  26.317  1.00  0.00     0.058 A 
ATOM     83  C   UNL A   1      50.081  26.611  24.999  1.00  0.00     0.135 A 
ATOM     84  C   UNL A   1      50.489  26.003  27.289  1.00  0.00     0.135 A 
ATOM     85  F   UNL A   1      49.283  27.083  24.029  1.00  0.00    -0.206 F 
ATOM     86  C   UNL A   1      51.369  26.207  24.655  1.00  0.00     0.059 A 
ATOM     87  C   UNL A   1      51.790  25.623  26.974  1.00  0.00     0.059 A 
ATOM     88  F   UNL A   1      50.095  25.896  28.568  1.00  0.00    -0.206 F 
ATOM     89  C   UNL A   1      52.217  25.719  25.650  1.00  0.00     0.060 A 
BRANCH  89  90
ATOM     90  S   UNL A   1      53.897  25.236  25.197  1.00  0.00     0.124 S 
ATOM     91  O   UNL A   1      54.625  25.506  26.433  1.00  0.00    -0.237 OA
ATOM     92  O   UNL A   1      53.735  23.827  24.852  1.00  0.00    -0.237 OA
ATOM     93  O   UNL A   1      54.215  26.118  24.077  1.00  0.00    -0.744 OA
ENDBRANCH  89  90
ENDBRANCH  57  82
ENDBRANCH  31  32
ENDBRANCH  24  26
ENDBRANCH  23  24
ENDBRANCH   1  23
TORSDOF 16
ENDMDL
