MODEL 1
REMARK VINA RESULT:     -11.1      0.000      0.000
REMARK SMILES CC(=O)NCCc1ccc(OCC(=O)OCCOC(=O)c2ccc(-c3c4nc(c(-c5c(F)cc(S(=O)(=O)[O-])cc5F)c5ccc([nH]5)c(-c5c(F)cc(S(=O)(=O)[O-])cc5F)c5nc(c(-c6c(F)cc(S(=O)(=O)[O-])cc6F)c6ccc3[nH]6)C=C5)C=C4)cc2)cc1
REMARK SMILES IDX 16 1 15 2 13 3 14 4 12 5 11 6 10 7 7 8 8 9 88 10 9 11 87 12
REMARK SMILES IDX 6 13 5 14 4 15 1 16 2 17 3 18 17 20 18 21 19 22 20 23 21 24
REMARK SMILES IDX 22 25 86 26 23 27 85 28 24 29 25 30 26 31 79 32 27 33 84 34
REMARK SMILES IDX 78 35 80 36 28 37 83 38 77 39 76 40 29 42 63 43 42 44 62 45
REMARK SMILES IDX 43 46 46 47 61 48 81 49 44 50 45 51 60 53 82 54 47 55 30 56
REMARK SMILES IDX 31 57 40 58 32 59 33 60 39 61 41 62 34 63 35 64 36 65 37 66
REMARK SMILES IDX 38 67 64 68 65 69 74 70 66 71 67 72 73 73 75 74 68 75 69 76
REMARK SMILES IDX 70 77 71 78 72 79 48 80 49 81 58 82 50 83 51 84 57 85 59 86
REMARK SMILES IDX 52 87 53 88 54 89 55 90 56 91
REMARK H PARENT 4 19 80 41 46 52
REMARK Flexibility Score: inf
ROOT
ATOM      1  C   UNL A   1      33.110  30.205  27.175  1.00  0.00     0.274 C 
ENDROOT
BRANCH   1   2
ATOM      2  O   UNL A   1      33.482  28.820  27.304  1.00  0.00    -0.460 OA
BRANCH   2   3
ATOM      3  C   UNL A   1      32.455  27.926  27.270  1.00  0.00     0.344 C 
ATOM      4  O   UNL A   1      31.476  27.957  28.007  1.00  0.00    -0.248 OA
BRANCH   3   5
ATOM      5  C   UNL A   1      32.651  26.835  26.219  1.00  0.00     0.351 C 
BRANCH   5   6
ATOM      6  O   UNL A   1      31.495  26.286  25.608  1.00  0.00    -0.482 OA
BRANCH   6   7
ATOM      7  C   UNL A   1      30.752  27.102  24.806  1.00  0.00     0.120 A 
ATOM      8  C   UNL A   1      28.994  28.593  23.167  1.00  0.00    -0.046 A 
ATOM      9  C   UNL A   1      28.654  27.306  23.597  1.00  0.00     0.007 A 
ATOM     10  C   UNL A   1      30.227  29.122  23.583  1.00  0.00     0.007 A 
ATOM     11  C   UNL A   1      29.519  26.579  24.419  1.00  0.00     0.047 A 
ATOM     12  C   UNL A   1      31.094  28.390  24.405  1.00  0.00     0.047 A 
BRANCH   8  13
ATOM     13  C   UNL A   1      28.130  29.435  22.250  1.00  0.00     0.057 C 
BRANCH  13  14
ATOM     14  C   UNL A   1      28.825  30.327  21.214  1.00  0.00     0.120 C 
BRANCH  14  15
ATOM     15  N   UNL A   1      28.032  31.490  20.845  1.00  0.00    -0.356 N 
ATOM     16  C   UNL A   1      28.861  32.957  22.642  1.00  0.00     0.114 C 
ATOM     17  C   UNL A   1      28.038  32.734  21.405  1.00  0.00     0.216 C 
ATOM     18  O   UNL A   1      27.389  33.638  20.882  1.00  0.00    -0.275 OA
ATOM     19  H   UNL A   1      27.408  31.362  20.095  1.00  0.00     0.163 HD
ENDBRANCH  14  15
ENDBRANCH  13  14
ENDBRANCH   8  13
ENDBRANCH   6   7
ENDBRANCH   5   6
ENDBRANCH   3   5
ENDBRANCH   2   3
ENDBRANCH   1   2
BRANCH   1  20
ATOM     20  C   UNL A   1      34.249  31.105  27.645  1.00  0.00     0.275 C 
BRANCH  20  21
ATOM     21  O   UNL A   1      35.373  30.291  28.012  1.00  0.00    -0.458 OA
BRANCH  21  22
ATOM     22  C   UNL A   1      36.107  30.745  29.053  1.00  0.00     0.338 C 
ATOM     23  O   UNL A   1      35.728  31.504  29.934  1.00  0.00    -0.246 OA
BRANCH  22  24
ATOM     24  C   UNL A   1      37.489  30.224  28.963  1.00  0.00     0.060 A 
ATOM     25  C   UNL A   1      38.302  30.079  30.093  1.00  0.00     0.016 A 
ATOM     26  C   UNL A   1      37.997  29.912  27.701  1.00  0.00     0.016 A 
ATOM     27  C   UNL A   1      39.633  29.678  29.954  1.00  0.00     0.010 A 
ATOM     28  C   UNL A   1      39.304  29.438  27.572  1.00  0.00     0.010 A 
ATOM     29  C   UNL A   1      40.144  29.335  28.694  1.00  0.00    -0.014 A 
BRANCH  29  30
ATOM     30  C   UNL A   1      41.546  28.865  28.521  1.00  0.00     0.031 A 
ATOM     31  C   UNL A   1      42.687  29.843  28.605  1.00  0.00     0.074 A 
ATOM     32  C   UNL A   1      41.795  27.573  28.234  1.00  0.00     0.049 A 
ATOM     33  N   UNL A   1      43.947  29.676  28.293  1.00  0.00    -0.248 NA
ATOM     34  C   UNL A   1      42.364  31.194  29.092  1.00  0.00     0.031 C 
ATOM     35  C   UNL A   1      40.791  26.511  28.148  1.00  0.00     0.029 A 
ATOM     36  N   UNL A   1      42.977  26.934  27.949  1.00  0.00    -0.354 N 
ATOM     37  C   UNL A   1      44.557  30.909  28.494  1.00  0.00     0.074 A 
ATOM     38  C   UNL A   1      43.526  31.816  28.955  1.00  0.00     0.031 C 
ATOM     39  C   UNL A   1      41.399  25.352  27.854  1.00  0.00     0.029 A 
ATOM     40  C   UNL A   1      42.823  25.599  27.659  1.00  0.00     0.049 A 
ATOM     41  H   UNL A   1      43.850  27.387  27.952  1.00  0.00     0.167 HD
ATOM     42  C   UNL A   1      45.855  31.252  28.310  1.00  0.00     0.037 A 
ATOM     43  C   UNL A   1      43.719  24.681  27.245  1.00  0.00     0.037 A 
ATOM     44  C   UNL A   1      46.886  30.337  27.894  1.00  0.00     0.049 A 
ATOM     45  C   UNL A   1      45.145  25.092  27.012  1.00  0.00     0.074 A 
ATOM     46  C   UNL A   1      48.238  30.582  27.723  1.00  0.00     0.029 A 
ATOM     47  N   UNL A   1      46.681  29.001  27.586  1.00  0.00    -0.354 N 
ATOM     48  N   UNL A   1      45.701  26.267  27.183  1.00  0.00    -0.248 NA
ATOM     49  C   UNL A   1      46.059  24.057  26.511  1.00  0.00     0.031 C 
ATOM     50  C   UNL A   1      48.845  29.400  27.280  1.00  0.00     0.029 A 
ATOM     51  C   UNL A   1      47.877  28.411  27.208  1.00  0.00     0.049 A 
ATOM     52  H   UNL A   1      45.813  28.538  27.629  1.00  0.00     0.167 HD
ATOM     53  C   UNL A   1      47.034  26.111  26.824  1.00  0.00     0.074 A 
ATOM     54  C   UNL A   1      47.202  24.725  26.434  1.00  0.00     0.031 C 
ATOM     55  C   UNL A   1      48.029  27.032  26.819  1.00  0.00     0.037 A 
BRANCH  42  56
ATOM     56  C   UNL A   1      46.225  32.693  28.528  1.00  0.00     0.058 A 
ATOM     57  C   UNL A   1      46.261  33.619  27.475  1.00  0.00     0.135 A 
ATOM     58  C   UNL A   1      46.541  33.152  29.817  1.00  0.00     0.135 A 
ATOM     59  F   UNL A   1      45.983  33.228  26.221  1.00  0.00    -0.206 F 
ATOM     60  C   UNL A   1      46.633  34.944  27.686  1.00  0.00     0.059 A 
ATOM     61  C   UNL A   1      46.894  34.477  30.055  1.00  0.00     0.059 A 
ATOM     62  F   UNL A   1      46.521  32.307  30.860  1.00  0.00    -0.206 F 
ATOM     63  C   UNL A   1      46.957  35.360  28.977  1.00  0.00     0.060 A 
BRANCH  63  64
ATOM     64  S   UNL A   1      47.469  37.073  29.238  1.00  0.00     0.124 S 
ATOM     65  O   UNL A   1      46.177  37.747  29.330  1.00  0.00    -0.237 OA
ATOM     66  O   UNL A   1      48.230  36.991  30.479  1.00  0.00    -0.237 OA
ATOM     67  O   UNL A   1      48.252  37.376  28.044  1.00  0.00    -0.744 OA
ENDBRANCH  63  64
ENDBRANCH  42  56
BRANCH  43  68
ATOM     68  C   UNL A   1      43.280  23.281  27.012  1.00  0.00     0.058 A 
ATOM     69  C   UNL A   1      43.108  22.796  25.709  1.00  0.00     0.135 A 
ATOM     70  C   UNL A   1      43.070  22.394  28.078  1.00  0.00     0.135 A 
ATOM     71  F   UNL A   1      43.287  23.614  24.660  1.00  0.00    -0.206 F 
ATOM     72  C   UNL A   1      42.747  21.475  25.467  1.00  0.00     0.059 A 
ATOM     73  C   UNL A   1      42.730  21.062  27.861  1.00  0.00     0.059 A 
ATOM     74  F   UNL A   1      43.234  22.810  29.343  1.00  0.00    -0.206 F 
ATOM     75  C   UNL A   1      42.568  20.614  26.551  1.00  0.00     0.060 A 
BRANCH  75  76
ATOM     76  S   UNL A   1      42.185  18.878  26.227  1.00  0.00     0.124 S 
ATOM     77  O   UNL A   1      42.394  18.283  27.541  1.00  0.00    -0.237 OA
ATOM     78  O   UNL A   1      40.801  18.947  25.769  1.00  0.00    -0.237 OA
ATOM     79  O   UNL A   1      43.156  18.509  25.202  1.00  0.00    -0.744 OA
ENDBRANCH  75  76
ENDBRANCH  43  68
BRANCH  55  80
ATOM     80  C   UNL A   1      49.392  26.563  26.401  1.00  0.00     0.058 A 
ATOM     81  C   UNL A   1      49.885  26.798  25.108  1.00  0.00     0.135 A 
ATOM     82  C   UNL A   1      50.227  25.898  27.312  1.00  0.00     0.135 A 
ATOM     83  F   UNL A   1      49.121  27.423  24.197  1.00  0.00    -0.206 F 
ATOM     84  C   UNL A   1      51.151  26.369  24.726  1.00  0.00     0.059 A 
ATOM     85  C   UNL A   1      51.504  25.477  26.959  1.00  0.00     0.059 A 
ATOM     86  F   UNL A   1      49.803  25.656  28.563  1.00  0.00    -0.206 F 
ATOM     87  C   UNL A   1      51.953  25.706  25.657  1.00  0.00     0.060 A 
BRANCH  87  88
ATOM     88  S   UNL A   1      53.605  25.171  25.161  1.00  0.00     0.124 S 
ATOM     89  O   UNL A   1      53.696  25.713  23.810  1.00  0.00    -0.237 OA
ATOM     90  O   UNL A   1      54.457  25.810  26.160  1.00  0.00    -0.237 OA
ATOM     91  O   UNL A   1      53.530  23.715  25.252  1.00  0.00    -0.744 OA
ENDBRANCH  87  88
ENDBRANCH  55  80
ENDBRANCH  29  30
ENDBRANCH  22  24
ENDBRANCH  21  22
ENDBRANCH  20  21
ENDBRANCH   1  20
TORSDOF 19
ENDMDL
MODEL 2
REMARK VINA RESULT:     -11.0      3.806      6.420
REMARK SMILES CC(=O)NCCc1ccc(OCC(=O)OCCOC(=O)c2ccc(-c3c4nc(c(-c5c(F)cc(S(=O)(=O)[O-])cc5F)c5ccc([nH]5)c(-c5c(F)cc(S(=O)(=O)[O-])cc5F)c5nc(c(-c6c(F)cc(S(=O)(=O)[O-])cc6F)c6ccc3[nH]6)C=C5)C=C4)cc2)cc1
REMARK SMILES IDX 16 1 15 2 13 3 14 4 12 5 11 6 10 7 7 8 8 9 88 10 9 11 87 12
REMARK SMILES IDX 6 13 5 14 4 15 1 16 2 17 3 18 17 20 18 21 19 22 20 23 21 24
REMARK SMILES IDX 22 25 86 26 23 27 85 28 24 29 25 30 26 31 79 32 27 33 84 34
REMARK SMILES IDX 78 35 80 36 28 37 83 38 77 39 76 40 29 42 63 43 42 44 62 45
REMARK SMILES IDX 43 46 46 47 61 48 81 49 44 50 45 51 60 53 82 54 47 55 30 56
REMARK SMILES IDX 31 57 40 58 32 59 33 60 39 61 41 62 34 63 35 64 36 65 37 66
REMARK SMILES IDX 38 67 64 68 65 69 74 70 66 71 67 72 73 73 75 74 68 75 69 76
REMARK SMILES IDX 70 77 71 78 72 79 48 80 49 81 58 82 50 83 51 84 57 85 59 86
REMARK SMILES IDX 52 87 53 88 54 89 55 90 56 91
REMARK H PARENT 4 19 80 41 46 52
REMARK Flexibility Score: inf
ROOT
ATOM      1  C   UNL A   1      33.721  33.950  28.010  1.00  0.00     0.274 C 
ENDROOT
BRANCH   1   2
ATOM      2  O   UNL A   1      32.657  34.558  28.766  1.00  0.00    -0.460 OA
BRANCH   2   3
ATOM      3  C   UNL A   1      33.046  35.313  29.831  1.00  0.00     0.344 C 
ATOM      4  O   UNL A   1      32.439  36.290  30.255  1.00  0.00    -0.248 OA
BRANCH   3   5
ATOM      5  C   UNL A   1      34.357  34.836  30.451  1.00  0.00     0.351 C 
BRANCH   5   6
ATOM      6  O   UNL A   1      34.310  33.728  31.335  1.00  0.00    -0.482 OA
BRANCH   6   7
ATOM      7  C   UNL A   1      35.496  33.177  31.725  1.00  0.00     0.120 A 
ATOM      8  C   UNL A   1      37.794  31.809  32.647  1.00  0.00    -0.046 A 
ATOM      9  C   UNL A   1      36.511  31.357  32.976  1.00  0.00     0.007 A 
ATOM     10  C   UNL A   1      37.901  32.953  31.840  1.00  0.00     0.007 A 
ATOM     11  C   UNL A   1      35.378  32.028  32.506  1.00  0.00     0.047 A 
ATOM     12  C   UNL A   1      36.764  33.625  31.371  1.00  0.00     0.047 A 
BRANCH   8  13
ATOM     13  C   UNL A   1      39.071  31.162  33.141  1.00  0.00     0.057 C 
BRANCH  13  14
ATOM     14  C   UNL A   1      39.639  31.613  34.492  1.00  0.00     0.120 C 
BRANCH  14  15
ATOM     15  N   UNL A   1      39.024  30.931  35.621  1.00  0.00    -0.356 N 
ATOM     16  C   UNL A   1      37.719  32.861  36.420  1.00  0.00     0.114 C 
ATOM     17  C   UNL A   1      38.100  31.410  36.501  1.00  0.00     0.216 C 
ATOM     18  O   UNL A   1      37.593  30.648  37.323  1.00  0.00    -0.275 OA
ATOM     19  H   UNL A   1      39.314  30.002  35.768  1.00  0.00     0.163 HD
ENDBRANCH  14  15
ENDBRANCH  13  14
ENDBRANCH   8  13
ENDBRANCH   6   7
ENDBRANCH   5   6
ENDBRANCH   3   5
ENDBRANCH   2   3
ENDBRANCH   1   2
BRANCH   1  20
ATOM     20  C   UNL A   1      33.401  32.484  27.733  1.00  0.00     0.275 C 
BRANCH  20  21
ATOM     21  O   UNL A   1      34.216  31.655  28.577  1.00  0.00    -0.458 OA
BRANCH  21  22
ATOM     22  C   UNL A   1      34.435  30.399  28.125  1.00  0.00     0.338 C 
ATOM     23  O   UNL A   1      33.610  29.656  27.612  1.00  0.00    -0.246 OA
BRANCH  22  24
ATOM     24  C   UNL A   1      35.840  30.010  28.377  1.00  0.00     0.060 A 
ATOM     25  C   UNL A   1      36.289  29.635  29.648  1.00  0.00     0.016 A 
ATOM     26  C   UNL A   1      36.742  30.065  27.312  1.00  0.00     0.016 A 
ATOM     27  C   UNL A   1      37.644  29.371  29.865  1.00  0.00     0.010 A 
ATOM     28  C   UNL A   1      38.081  29.726  27.515  1.00  0.00     0.010 A 
ATOM     29  C   UNL A   1      38.553  29.396  28.797  1.00  0.00    -0.014 A 
BRANCH  29  30
ATOM     30  C   UNL A   1      39.994  29.078  28.991  1.00  0.00     0.031 A 
ATOM     31  C   UNL A   1      40.944  30.142  29.473  1.00  0.00     0.074 A 
ATOM     32  C   UNL A   1      40.464  27.854  28.683  1.00  0.00     0.049 A 
ATOM     33  N   UNL A   1      42.252  30.126  29.517  1.00  0.00    -0.248 NA
ATOM     34  C   UNL A   1      40.343  31.394  29.955  1.00  0.00     0.031 C 
ATOM     35  C   UNL A   1      39.655  26.721  28.230  1.00  0.00     0.029 A 
ATOM     36  N   UNL A   1      41.746  27.361  28.693  1.00  0.00    -0.354 N 
ATOM     37  C   UNL A   1      42.633  31.380  29.981  1.00  0.00     0.074 A 
ATOM     38  C   UNL A   1      41.415  32.132  30.203  1.00  0.00     0.031 C 
ATOM     39  C   UNL A   1      40.453  25.661  28.028  1.00  0.00     0.029 A 
ATOM     40  C   UNL A   1      41.837  26.058  28.265  1.00  0.00     0.049 A 
ATOM     41  H   UNL A   1      42.525  27.890  28.979  1.00  0.00     0.167 HD
ATOM     42  C   UNL A   1      43.881  31.859  30.200  1.00  0.00     0.037 A 
ATOM     43  C   UNL A   1      42.914  25.278  28.049  1.00  0.00     0.037 A 
ATOM     44  C   UNL A   1      45.088  31.094  30.020  1.00  0.00     0.049 A 
ATOM     45  C   UNL A   1      44.290  25.841  28.263  1.00  0.00     0.074 A 
ATOM     46  C   UNL A   1      46.397  31.479  30.259  1.00  0.00     0.029 A 
ATOM     47  N   UNL A   1      45.135  29.786  29.561  1.00  0.00    -0.354 N 
ATOM     48  N   UNL A   1      44.635  27.036  28.678  1.00  0.00    -0.248 NA
ATOM     49  C   UNL A   1      45.423  24.956  27.959  1.00  0.00     0.031 C 
ATOM     50  C   UNL A   1      47.238  30.414  29.912  1.00  0.00     0.029 A 
ATOM     51  C   UNL A   1      46.450  29.355  29.490  1.00  0.00     0.049 A 
ATOM     52  H   UNL A   1      44.350  29.244  29.319  1.00  0.00     0.167 HD
ATOM     53  C   UNL A   1      46.024  27.043  28.699  1.00  0.00     0.074 A 
ATOM     54  C   UNL A   1      46.456  25.731  28.263  1.00  0.00     0.031 C 
ATOM     55  C   UNL A   1      46.865  28.047  29.050  1.00  0.00     0.037 A 
BRANCH  42  56
ATOM     56  C   UNL A   1      44.005  33.294  30.628  1.00  0.00     0.058 A 
ATOM     57  C   UNL A   1      44.021  34.349  29.703  1.00  0.00     0.135 A 
ATOM     58  C   UNL A   1      44.099  33.617  31.993  1.00  0.00     0.135 A 
ATOM     59  F   UNL A   1      43.950  34.094  28.387  1.00  0.00    -0.206 F 
ATOM     60  C   UNL A   1      44.163  35.671  30.112  1.00  0.00     0.059 A 
ATOM     61  C   UNL A   1      44.219  34.934  32.425  1.00  0.00     0.059 A 
ATOM     62  F   UNL A   1      44.087  32.646  32.920  1.00  0.00    -0.206 F 
ATOM     63  C   UNL A   1      44.273  35.953  31.475  1.00  0.00     0.060 A 
BRANCH  63  64
ATOM     64  S   UNL A   1      44.488  37.669  31.995  1.00  0.00     0.124 S 
ATOM     65  O   UNL A   1      44.086  38.387  30.789  1.00  0.00    -0.237 OA
ATOM     66  O   UNL A   1      43.576  37.773  33.129  1.00  0.00    -0.237 OA
ATOM     67  O   UNL A   1      45.908  37.744  32.328  1.00  0.00    -0.744 OA
ENDBRANCH  63  64
ENDBRANCH  42  56
BRANCH  43  68
ATOM     68  C   UNL A   1      42.725  23.878  27.590  1.00  0.00     0.058 A 
ATOM     69  C   UNL A   1      42.627  22.831  28.517  1.00  0.00     0.135 A 
ATOM     70  C   UNL A   1      42.594  23.566  26.229  1.00  0.00     0.135 A 
ATOM     71  F   UNL A   1      42.758  23.083  29.829  1.00  0.00    -0.206 F 
ATOM     72  C   UNL A   1      42.399  21.521  28.111  1.00  0.00     0.059 A 
ATOM     73  C   UNL A   1      42.343  22.266  25.800  1.00  0.00     0.059 A 
ATOM     74  F   UNL A   1      42.669  24.537  25.305  1.00  0.00    -0.206 F 
ATOM     75  C   UNL A   1      42.251  21.250  26.750  1.00  0.00     0.060 A 
BRANCH  75  76
ATOM     76  S   UNL A   1      41.868  19.561  26.237  1.00  0.00     0.124 S 
ATOM     77  O   UNL A   1      42.327  18.794  27.388  1.00  0.00    -0.237 OA
ATOM     78  O   UNL A   1      40.422  19.618  26.041  1.00  0.00    -0.237 OA
ATOM     79  O   UNL A   1      42.650  19.399  25.015  1.00  0.00    -0.744 OA
ENDBRANCH  75  76
ENDBRANCH  43  68
BRANCH  55  80
ATOM     80  C   UNL A   1      48.337  27.754  28.999  1.00  0.00     0.058 A 
ATOM     81  C   UNL A   1      49.109  28.069  27.869  1.00  0.00     0.135 A 
ATOM     82  C   UNL A   1      48.987  27.179  30.101  1.00  0.00     0.135 A 
ATOM     83  F   UNL A   1      48.531  28.612  26.786  1.00  0.00    -0.206 F 
ATOM     84  C   UNL A   1      50.474  27.803  27.828  1.00  0.00     0.059 A 
ATOM     85  C   UNL A   1      50.354  26.922  30.089  1.00  0.00     0.059 A 
ATOM     86  F   UNL A   1      48.294  26.866  31.207  1.00  0.00    -0.206 F 
ATOM     87  C   UNL A   1      51.087  27.226  28.942  1.00  0.00     0.060 A 
BRANCH  87  88
ATOM     88  S   UNL A   1      52.863  26.904  28.889  1.00  0.00     0.124 S 
ATOM     89  O   UNL A   1      53.398  28.245  28.679  1.00  0.00    -0.237 OA
ATOM     90  O   UNL A   1      53.118  26.318  30.201  1.00  0.00    -0.237 OA
ATOM     91  O   UNL A   1      53.007  25.986  27.762  1.00  0.00    -0.744 OA
ENDBRANCH  87  88
ENDBRANCH  55  80
ENDBRANCH  29  30
ENDBRANCH  22  24
ENDBRANCH  21  22
ENDBRANCH  20  21
ENDBRANCH   1  20
TORSDOF 19
ENDMDL
MODEL 3
REMARK VINA RESULT:     -10.8      2.292      4.037
REMARK SMILES CC(=O)NCCc1ccc(OCC(=O)OCCOC(=O)c2ccc(-c3c4nc(c(-c5c(F)cc(S(=O)(=O)[O-])cc5F)c5ccc([nH]5)c(-c5c(F)cc(S(=O)(=O)[O-])cc5F)c5nc(c(-c6c(F)cc(S(=O)(=O)[O-])cc6F)c6ccc3[nH]6)C=C5)C=C4)cc2)cc1
REMARK SMILES IDX 16 1 15 2 13 3 14 4 12 5 11 6 10 7 7 8 8 9 88 10 9 11 87 12
REMARK SMILES IDX 6 13 5 14 4 15 1 16 2 17 3 18 17 20 18 21 19 22 20 23 21 24
REMARK SMILES IDX 22 25 86 26 23 27 85 28 24 29 25 30 26 31 79 32 27 33 84 34
REMARK SMILES IDX 78 35 80 36 28 37 83 38 77 39 76 40 29 42 63 43 42 44 62 45
REMARK SMILES IDX 43 46 46 47 61 48 81 49 44 50 45 51 60 53 82 54 47 55 30 56
REMARK SMILES IDX 31 57 40 58 32 59 33 60 39 61 41 62 34 63 35 64 36 65 37 66
REMARK SMILES IDX 38 67 64 68 65 69 74 70 66 71 67 72 73 73 75 74 68 75 69 76
REMARK SMILES IDX 70 77 71 78 72 79 48 80 49 81 58 82 50 83 51 84 57 85 59 86
REMARK SMILES IDX 52 87 53 88 54 89 55 90 56 91
REMARK H PARENT 4 19 80 41 46 52
REMARK Flexibility Score: inf
ROOT
ATOM      1  C   UNL A   1      33.855  29.616  26.100  1.00  0.00     0.274 C 
ENDROOT
BRANCH   1   2
ATOM      2  O   UNL A   1      32.506  29.886  25.674  1.00  0.00    -0.460 OA
BRANCH   2   3
ATOM      3  C   UNL A   1      31.888  28.879  24.997  1.00  0.00     0.344 C 
ATOM      4  O   UNL A   1      31.726  28.850  23.782  1.00  0.00    -0.248 OA
BRANCH   3   5
ATOM      5  C   UNL A   1      31.375  27.772  25.914  1.00  0.00     0.351 C 
BRANCH   5   6
ATOM      6  O   UNL A   1      30.989  26.543  25.322  1.00  0.00    -0.482 OA
BRANCH   6   7
ATOM      7  C   UNL A   1      31.547  25.399  25.813  1.00  0.00     0.120 A 
ATOM      8  C   UNL A   1      32.968  23.157  26.790  1.00  0.00    -0.046 A 
ATOM      9  C   UNL A   1      33.644  24.240  26.219  1.00  0.00     0.007 A 
ATOM     10  C   UNL A   1      31.567  23.224  26.871  1.00  0.00     0.007 A 
ATOM     11  C   UNL A   1      32.939  25.352  25.750  1.00  0.00     0.047 A 
ATOM     12  C   UNL A   1      30.862  24.339  26.399  1.00  0.00     0.047 A 
BRANCH   8  13
ATOM     13  C   UNL A   1      33.652  21.901  27.292  1.00  0.00     0.057 C 
BRANCH  13  14
ATOM     14  C   UNL A   1      34.237  20.931  26.258  1.00  0.00     0.120 C 
BRANCH  14  15
ATOM     15  N   UNL A   1      33.427  19.734  26.084  1.00  0.00    -0.356 N 
ATOM     16  C   UNL A   1      32.535  20.336  23.868  1.00  0.00     0.114 C 
ATOM     17  C   UNL A   1      32.679  19.365  25.006  1.00  0.00     0.216 C 
ATOM     18  O   UNL A   1      32.156  18.252  24.982  1.00  0.00    -0.275 OA
ATOM     19  H   UNL A   1      33.418  19.110  26.845  1.00  0.00     0.163 HD
ENDBRANCH  14  15
ENDBRANCH  13  14
ENDBRANCH   8  13
ENDBRANCH   6   7
ENDBRANCH   5   6
ENDBRANCH   3   5
ENDBRANCH   2   3
ENDBRANCH   1   2
BRANCH   1  20
ATOM     20  C   UNL A   1      34.187  30.427  27.349  1.00  0.00     0.275 C 
BRANCH  20  21
ATOM     21  O   UNL A   1      35.113  29.687  28.160  1.00  0.00    -0.458 OA
BRANCH  21  22
ATOM     22  C   UNL A   1      35.925  30.431  28.944  1.00  0.00     0.338 C 
ATOM     23  O   UNL A   1      35.601  31.401  29.615  1.00  0.00    -0.246 OA
BRANCH  22  24
ATOM     24  C   UNL A   1      37.315  29.931  28.852  1.00  0.00     0.060 A 
ATOM     25  C   UNL A   1      38.041  29.546  29.984  1.00  0.00     0.016 A 
ATOM     26  C   UNL A   1      37.920  29.889  27.594  1.00  0.00     0.016 A 
ATOM     27  C   UNL A   1      39.383  29.174  29.865  1.00  0.00     0.010 A 
ATOM     28  C   UNL A   1      39.237  29.444  27.469  1.00  0.00     0.010 A 
ATOM     29  C   UNL A   1      39.991  29.101  28.603  1.00  0.00    -0.014 A 
BRANCH  29  30
ATOM     30  C   UNL A   1      41.406  28.669  28.443  1.00  0.00     0.031 A 
ATOM     31  C   UNL A   1      42.521  29.676  28.542  1.00  0.00     0.074 A 
ATOM     32  C   UNL A   1      41.692  27.384  28.153  1.00  0.00     0.049 A 
ATOM     33  N   UNL A   1      43.787  29.542  28.241  1.00  0.00    -0.248 NA
ATOM     34  C   UNL A   1      42.158  31.015  29.030  1.00  0.00     0.031 C 
ATOM     35  C   UNL A   1      40.716  26.297  28.053  1.00  0.00     0.029 A 
ATOM     36  N   UNL A   1      42.893  26.777  27.877  1.00  0.00    -0.354 N 
ATOM     37  C   UNL A   1      44.363  30.790  28.453  1.00  0.00     0.074 A 
ATOM     38  C   UNL A   1      43.305  31.668  28.907  1.00  0.00     0.031 C 
ATOM     39  C   UNL A   1      41.357  25.155  27.761  1.00  0.00     0.029 A 
ATOM     40  C   UNL A   1      42.776  25.440  27.581  1.00  0.00     0.049 A 
ATOM     41  H   UNL A   1      43.753  27.254  27.890  1.00  0.00     0.167 HD
ATOM     42  C   UNL A   1      45.653  31.168  28.282  1.00  0.00     0.037 A 
ATOM     43  C   UNL A   1      43.700  24.548  27.172  1.00  0.00     0.037 A 
ATOM     44  C   UNL A   1      46.712  30.282  27.872  1.00  0.00     0.049 A 
ATOM     45  C   UNL A   1      45.116  24.997  26.955  1.00  0.00     0.074 A 
ATOM     46  C   UNL A   1      48.059  30.562  27.715  1.00  0.00     0.029 A 
ATOM     47  N   UNL A   1      46.545  28.941  27.558  1.00  0.00    -0.354 N 
ATOM     48  N   UNL A   1      45.640  26.185  27.136  1.00  0.00    -0.248 NA
ATOM     49  C   UNL A   1      46.062  23.988  26.458  1.00  0.00     0.031 C 
ATOM     50  C   UNL A   1      48.701  29.398  27.274  1.00  0.00     0.029 A 
ATOM     51  C   UNL A   1      47.759  28.385  27.190  1.00  0.00     0.049 A 
ATOM     52  H   UNL A   1      45.689  28.456  27.590  1.00  0.00     0.167 HD
ATOM     53  C   UNL A   1      46.981  26.065  26.788  1.00  0.00     0.074 A 
ATOM     54  C   UNL A   1      47.188  24.686  26.395  1.00  0.00     0.031 C 
ATOM     55  C   UNL A   1      47.951  27.012  26.796  1.00  0.00     0.037 A 
BRANCH  42  56
ATOM     56  C   UNL A   1      45.984  32.617  28.509  1.00  0.00     0.058 A 
ATOM     57  C   UNL A   1      45.901  33.568  27.481  1.00  0.00     0.135 A 
ATOM     58  C   UNL A   1      46.382  33.058  29.782  1.00  0.00     0.135 A 
ATOM     59  F   UNL A   1      45.542  33.196  26.243  1.00  0.00    -0.206 F 
ATOM     60  C   UNL A   1      46.237  34.901  27.698  1.00  0.00     0.059 A 
ATOM     61  C   UNL A   1      46.701  34.390  30.026  1.00  0.00     0.059 A 
ATOM     62  F   UNL A   1      46.476  32.189  30.800  1.00  0.00    -0.206 F 
ATOM     63  C   UNL A   1      46.646  35.300  28.971  1.00  0.00     0.060 A 
BRANCH  63  64
ATOM     64  S   UNL A   1      47.110  37.026  29.237  1.00  0.00     0.124 S 
ATOM     65  O   UNL A   1      48.544  36.981  28.967  1.00  0.00    -0.237 OA
ATOM     66  O   UNL A   1      46.300  37.727  28.247  1.00  0.00    -0.237 OA
ATOM     67  O   UNL A   1      46.739  37.264  30.628  1.00  0.00    -0.744 OA
ENDBRANCH  63  64
ENDBRANCH  42  56
BRANCH  43  68
ATOM     68  C   UNL A   1      43.300  23.138  26.930  1.00  0.00     0.058 A 
ATOM     69  C   UNL A   1      43.200  22.640  25.624  1.00  0.00     0.135 A 
ATOM     70  C   UNL A   1      43.056  22.254  27.992  1.00  0.00     0.135 A 
ATOM     71  F   UNL A   1      43.413  23.454  24.578  1.00  0.00    -0.206 F 
ATOM     72  C   UNL A   1      42.877  21.311  25.376  1.00  0.00     0.059 A 
ATOM     73  C   UNL A   1      42.753  20.914  27.769  1.00  0.00     0.059 A 
ATOM     74  F   UNL A   1      43.152  22.682  29.260  1.00  0.00    -0.206 F 
ATOM     75  C   UNL A   1      42.663  20.454  26.456  1.00  0.00     0.060 A 
BRANCH  75  76
ATOM     76  S   UNL A   1      42.330  18.708  26.129  1.00  0.00     0.124 S 
ATOM     77  O   UNL A   1      42.642  18.104  27.418  1.00  0.00    -0.237 OA
ATOM     78  O   UNL A   1      40.918  18.728  25.757  1.00  0.00    -0.237 OA
ATOM     79  O   UNL A   1      43.249  18.392  25.041  1.00  0.00    -0.744 OA
ENDBRANCH  75  76
ENDBRANCH  43  68
BRANCH  55  80
ATOM     80  C   UNL A   1      49.330  26.580  26.390  1.00  0.00     0.058 A 
ATOM     81  C   UNL A   1      50.208  25.977  27.304  1.00  0.00     0.135 A 
ATOM     82  C   UNL A   1      49.768  26.746  25.067  1.00  0.00     0.135 A 
ATOM     83  F   UNL A   1      49.840  25.805  28.583  1.00  0.00    -0.206 F 
ATOM     84  C   UNL A   1      51.483  25.571  26.923  1.00  0.00     0.059 A 
ATOM     85  C   UNL A   1      51.031  26.330  24.659  1.00  0.00     0.059 A 
ATOM     86  F   UNL A   1      48.961  27.312  24.154  1.00  0.00    -0.206 F 
ATOM     87  C   UNL A   1      51.887  25.755  25.599  1.00  0.00     0.060 A 
BRANCH  87  88
ATOM     88  S   UNL A   1      53.535  25.205  25.106  1.00  0.00     0.124 S 
ATOM     89  O   UNL A   1      53.565  25.592  23.700  1.00  0.00    -0.237 OA
ATOM     90  O   UNL A   1      54.403  25.974  25.993  1.00  0.00    -0.237 OA
ATOM     91  O   UNL A   1      53.503  23.768  25.364  1.00  0.00    -0.744 OA
ENDBRANCH  87  88
ENDBRANCH  55  80
ENDBRANCH  29  30
ENDBRANCH  22  24
ENDBRANCH  21  22
ENDBRANCH  20  21
ENDBRANCH   1  20
TORSDOF 19
ENDMDL
