MODEL 1
REMARK VINA RESULT:     -10.4      0.000      0.000
REMARK SMILES CC[C@@H](C)[C@@H](NC(N)=O)C(=O)N1CCC[C@H](C(=O)OCCOC(=O)c2ccc(-c3c4nc(c(-c5c(F)cc(S(=O)(=O)[O-])cc5F)c5ccc([nH]5)c(-c5c(F)cc(S(=O)(=O)[O-])cc5F)c5nc(c(-c6c(F)cc(S(=O)(=O)[O-])cc6F)c6ccc3[nH]6)C=C5)C=C4)cc2)C1
REMARK SMILES IDX 20 1 19 2 17 3 18 4 16 5 12 6 13 7 91 8 14 9 15 10 10 11
REMARK SMILES IDX 11 12 5 13 3 14 4 15 2 16 1 17 6 18 7 19 8 21 9 22 21 25
REMARK SMILES IDX 22 26 23 27 24 28 25 29 26 30 90 31 27 32 89 33 28 34 29 35
REMARK SMILES IDX 30 36 83 37 31 38 88 39 82 40 84 41 32 42 87 43 81 44 80 45
REMARK SMILES IDX 33 47 67 48 46 49 66 50 47 51 50 52 65 53 85 54 48 55 49 56
REMARK SMILES IDX 64 58 86 59 51 60 34 61 35 62 44 63 36 64 37 65 43 66 45 67
REMARK SMILES IDX 38 68 39 69 40 70 41 71 42 72 68 73 69 74 78 75 70 76 71 77
REMARK SMILES IDX 77 78 79 79 72 80 73 81 74 82 75 83 76 84 52 85 53 86 62 87
REMARK SMILES IDX 54 88 55 89 61 90 63 91 56 92 57 93 58 94 59 95 60 96
REMARK H PARENT 6 20 8 23 8 24 84 46 50 57
REMARK Flexibility Score: inf
ROOT
ATOM      1  C   UNL A   1      31.798  27.909  26.300  1.00  0.00     0.274 C 
ENDROOT
BRANCH   1   2
ATOM      2  O   UNL A   1      32.388  26.630  25.997  1.00  0.00    -0.462 OA
BRANCH   2   3
ATOM      3  C   UNL A   1      32.832  26.409  24.738  1.00  0.00     0.310 C 
ATOM      4  O   UNL A   1      33.979  26.607  24.354  1.00  0.00    -0.252 OA
BRANCH   3   5
ATOM      5  C   UNL A   1      31.741  25.904  23.800  1.00  0.00     0.119 C 
ATOM      6  N   UNL A   1      32.065  23.561  24.348  1.00  0.00    -0.340 N 
ATOM      7  C   UNL A   1      32.514  23.190  23.014  1.00  0.00     0.119 C 
ATOM      8  C   UNL A   1      31.105  24.650  24.394  1.00  0.00     0.134 C 
ATOM      9  C   UNL A   1      33.038  24.374  22.205  1.00  0.00     0.022 C 
ATOM     10  C   UNL A   1      32.182  25.637  22.355  1.00  0.00     0.019 C 
BRANCH   6  11
ATOM     11  C   UNL A   1      32.763  23.107  25.465  1.00  0.00     0.245 C 
ATOM     12  O   UNL A   1      32.515  23.552  26.590  1.00  0.00    -0.272 OA
BRANCH  11  13
ATOM     13  C   UNL A   1      33.837  21.980  25.271  1.00  0.00     0.176 C 
BRANCH  13  14
ATOM     14  C   UNL A   1      35.317  22.404  25.493  1.00  0.00     0.018 C 
ATOM     15  C   UNL A   1      35.473  23.926  25.585  1.00  0.00     0.010 C 
BRANCH  14  16
ATOM     16  C   UNL A   1      36.243  21.853  24.377  1.00  0.00     0.002 C 
ATOM     17  C   UNL A   1      36.606  22.907  23.336  1.00  0.00     0.004 C 
ENDBRANCH  14  16
ENDBRANCH  13  14
BRANCH  13  18
ATOM     18  N   UNL A   1      33.464  20.846  26.130  1.00  0.00    -0.326 N 
ATOM     19  C   UNL A   1      33.215  19.617  25.599  1.00  0.00     0.312 C 
ATOM     20  H   UNL A   1      33.394  20.977  27.103  1.00  0.00     0.166 HD
ATOM     21  N   UNL A   1      32.882  18.693  26.527  1.00  0.00    -0.352 N 
ATOM     22  O   UNL A   1      33.239  19.337  24.410  1.00  0.00    -0.249 OA
ATOM     23  H   UNL A   1      32.867  18.936  27.481  1.00  0.00     0.161 HD
ATOM     24  H   UNL A   1      32.655  17.777  26.250  1.00  0.00     0.161 HD
ENDBRANCH  13  18
ENDBRANCH  11  13
ENDBRANCH   6  11
ENDBRANCH   3   5
ENDBRANCH   2   3
ENDBRANCH   1   2
BRANCH   1  25
ATOM     25  C   UNL A   1      32.484  28.538  27.513  1.00  0.00     0.275 C 
BRANCH  25  26
ATOM     26  O   UNL A   1      33.870  28.801  27.230  1.00  0.00    -0.458 OA
BRANCH  26  27
ATOM     27  C   UNL A   1      34.338  29.975  27.713  1.00  0.00     0.338 C 
ATOM     28  O   UNL A   1      33.708  30.992  27.942  1.00  0.00    -0.246 OA
BRANCH  27  29
ATOM     29  C   UNL A   1      35.745  29.803  28.089  1.00  0.00     0.060 A 
ATOM     30  C   UNL A   1      36.712  29.964  27.096  1.00  0.00     0.016 A 
ATOM     31  C   UNL A   1      36.104  29.418  29.380  1.00  0.00     0.016 A 
ATOM     32  C   UNL A   1      38.050  29.733  27.378  1.00  0.00     0.010 A 
ATOM     33  C   UNL A   1      37.450  29.188  29.667  1.00  0.00     0.010 A 
ATOM     34  C   UNL A   1      38.427  29.332  28.664  1.00  0.00    -0.014 A 
BRANCH  34  35
ATOM     35  C   UNL A   1      39.839  28.987  28.931  1.00  0.00     0.031 A 
ATOM     36  C   UNL A   1      40.736  30.012  29.561  1.00  0.00     0.074 A 
ATOM     37  C   UNL A   1      40.293  27.754  28.646  1.00  0.00     0.049 A 
ATOM     38  N   UNL A   1      42.022  29.959  29.784  1.00  0.00    -0.248 NA
ATOM     39  C   UNL A   1      40.096  31.262  30.000  1.00  0.00     0.031 C 
ATOM     40  C   UNL A   1      39.484  26.661  28.104  1.00  0.00     0.029 A 
ATOM     41  N   UNL A   1      41.545  27.214  28.773  1.00  0.00    -0.354 N 
ATOM     42  C   UNL A   1      42.353  31.177  30.364  1.00  0.00     0.074 A 
ATOM     43  C   UNL A   1      41.135  31.953  30.448  1.00  0.00     0.031 C 
ATOM     44  C   UNL A   1      40.262  25.577  27.949  1.00  0.00     0.029 A 
ATOM     45  C   UNL A   1      41.631  25.917  28.327  1.00  0.00     0.049 A 
ATOM     46  H   UNL A   1      42.310  27.706  29.148  1.00  0.00     0.167 HD
ATOM     47  C   UNL A   1      43.567  31.603  30.787  1.00  0.00     0.037 A 
ATOM     48  C   UNL A   1      42.702  25.110  28.207  1.00  0.00     0.037 A 
ATOM     49  C   UNL A   1      44.767  30.813  30.700  1.00  0.00     0.049 A 
ATOM     50  C   UNL A   1      44.053  25.634  28.609  1.00  0.00     0.074 A 
ATOM     51  C   UNL A   1      46.054  31.151  31.079  1.00  0.00     0.029 A 
ATOM     52  N   UNL A   1      44.825  29.520  30.197  1.00  0.00    -0.354 N 
ATOM     53  N   UNL A   1      44.366  26.803  29.116  1.00  0.00    -0.248 NA
ATOM     54  C   UNL A   1      45.198  24.737  28.409  1.00  0.00     0.031 C 
ATOM     55  C   UNL A   1      46.895  30.076  30.774  1.00  0.00     0.029 A 
ATOM     56  C   UNL A   1      46.127  29.051  30.243  1.00  0.00     0.049 A 
ATOM     57  H   UNL A   1      44.054  29.012  29.857  1.00  0.00     0.167 HD
ATOM     58  C   UNL A   1      45.741  26.776  29.313  1.00  0.00     0.074 A 
ATOM     59  C   UNL A   1      46.197  25.470  28.880  1.00  0.00     0.031 C 
ATOM     60  C   UNL A   1      46.554  27.744  29.808  1.00  0.00     0.037 A 
BRANCH  47  61
ATOM     61  C   UNL A   1      43.652  32.999  31.336  1.00  0.00     0.058 A 
ATOM     62  C   UNL A   1      43.942  34.101  30.515  1.00  0.00     0.135 A 
ATOM     63  C   UNL A   1      43.449  33.238  32.704  1.00  0.00     0.135 A 
ATOM     64  F   UNL A   1      44.165  33.927  29.203  1.00  0.00    -0.206 F 
ATOM     65  C   UNL A   1      44.065  35.385  31.039  1.00  0.00     0.059 A 
ATOM     66  C   UNL A   1      43.544  34.516  33.246  1.00  0.00     0.059 A 
ATOM     67  F   UNL A   1      43.173  32.219  33.534  1.00  0.00    -0.206 F 
ATOM     68  C   UNL A   1      43.871  35.581  32.408  1.00  0.00     0.060 A 
BRANCH  68  69
ATOM     69  S   UNL A   1      44.058  37.246  33.079  1.00  0.00     0.124 S 
ATOM     70  O   UNL A   1      45.271  37.102  33.879  1.00  0.00    -0.237 OA
ATOM     71  O   UNL A   1      44.187  38.059  31.875  1.00  0.00    -0.237 OA
ATOM     72  O   UNL A   1      42.826  37.447  33.837  1.00  0.00    -0.744 OA
ENDBRANCH  68  69
ENDBRANCH  47  61
BRANCH  48  73
ATOM     73  C   UNL A   1      42.537  23.735  27.666  1.00  0.00     0.058 A 
ATOM     74  C   UNL A   1      42.587  23.494  26.287  1.00  0.00     0.135 A 
ATOM     75  C   UNL A   1      42.351  22.634  28.518  1.00  0.00     0.135 A 
ATOM     76  F   UNL A   1      42.753  24.514  25.433  1.00  0.00    -0.206 F 
ATOM     77  C   UNL A   1      42.457  22.209  25.768  1.00  0.00     0.059 A 
ATOM     78  C   UNL A   1      42.242  21.338  28.025  1.00  0.00     0.059 A 
ATOM     79  F   UNL A   1      42.306  22.814  29.848  1.00  0.00    -0.206 F 
ATOM     80  C   UNL A   1      42.290  21.137  26.646  1.00  0.00     0.060 A 
BRANCH  80  81
ATOM     81  S   UNL A   1      42.188  19.466  25.967  1.00  0.00     0.124 S 
ATOM     82  O   UNL A   1      43.019  19.584  24.773  1.00  0.00    -0.237 OA
ATOM     83  O   UNL A   1      42.739  18.659  27.051  1.00  0.00    -0.237 OA
ATOM     84  O   UNL A   1      40.760  19.288  25.728  1.00  0.00    -0.744 OA
ENDBRANCH  80  81
ENDBRANCH  48  73
BRANCH  60  85
ATOM     85  C   UNL A   1      48.013  27.411  29.935  1.00  0.00     0.058 A 
ATOM     86  C   UNL A   1      48.906  27.601  28.869  1.00  0.00     0.135 A 
ATOM     87  C   UNL A   1      48.529  26.939  31.152  1.00  0.00     0.135 A 
ATOM     88  F   UNL A   1      48.459  28.043  27.683  1.00  0.00    -0.206 F 
ATOM     89  C   UNL A   1      50.260  27.316  29.000  1.00  0.00     0.059 A 
ATOM     90  C   UNL A   1      49.884  26.670  31.312  1.00  0.00     0.059 A 
ATOM     91  F   UNL A   1      47.716  26.749  32.203  1.00  0.00    -0.206 F 
ATOM     92  C   UNL A   1      50.740  26.850  30.226  1.00  0.00     0.060 A 
BRANCH  92  93
ATOM     93  S   UNL A   1      52.506  26.514  30.395  1.00  0.00     0.124 S 
ATOM     94  O   UNL A   1      52.500  25.355  31.281  1.00  0.00    -0.237 OA
ATOM     95  O   UNL A   1      52.911  26.257  29.017  1.00  0.00    -0.237 OA
ATOM     96  O   UNL A   1      53.030  27.747  30.977  1.00  0.00    -0.744 OA
ENDBRANCH  92  93
ENDBRANCH  60  85
ENDBRANCH  34  35
ENDBRANCH  27  29
ENDBRANCH  26  27
ENDBRANCH  25  26
ENDBRANCH   1  25
TORSDOF 19
ENDMDL
MODEL 2
REMARK VINA RESULT:     -10.3      3.061      9.382
REMARK SMILES CC[C@@H](C)[C@@H](NC(N)=O)C(=O)N1CCC[C@H](C(=O)OCCOC(=O)c2ccc(-c3c4nc(c(-c5c(F)cc(S(=O)(=O)[O-])cc5F)c5ccc([nH]5)c(-c5c(F)cc(S(=O)(=O)[O-])cc5F)c5nc(c(-c6c(F)cc(S(=O)(=O)[O-])cc6F)c6ccc3[nH]6)C=C5)C=C4)cc2)C1
REMARK SMILES IDX 20 1 19 2 17 3 18 4 16 5 12 6 13 7 91 8 14 9 15 10 10 11
REMARK SMILES IDX 11 12 5 13 3 14 4 15 2 16 1 17 6 18 7 19 8 21 9 22 21 25
REMARK SMILES IDX 22 26 23 27 24 28 25 29 26 30 90 31 27 32 89 33 28 34 29 35
REMARK SMILES IDX 30 36 83 37 31 38 88 39 82 40 84 41 32 42 87 43 81 44 80 45
REMARK SMILES IDX 33 47 67 48 46 49 66 50 47 51 50 52 65 53 85 54 48 55 49 56
REMARK SMILES IDX 64 58 86 59 51 60 34 61 35 62 44 63 36 64 37 65 43 66 45 67
REMARK SMILES IDX 38 68 39 69 40 70 41 71 42 72 68 73 69 74 78 75 70 76 71 77
REMARK SMILES IDX 77 78 79 79 72 80 73 81 74 82 75 83 76 84 52 85 53 86 62 87
REMARK SMILES IDX 54 88 55 89 61 90 63 91 56 92 57 93 58 94 59 95 60 96
REMARK H PARENT 6 20 8 23 8 24 84 46 50 57
REMARK Flexibility Score: inf
ROOT
ATOM      1  C   UNL A   1      35.564  23.127  23.888  1.00  0.00     0.274 C 
ENDROOT
BRANCH   1   2
ATOM      2  O   UNL A   1      34.934  24.360  24.285  1.00  0.00    -0.462 OA
BRANCH   2   3
ATOM      3  C   UNL A   1      33.812  24.296  25.040  1.00  0.00     0.310 C 
ATOM      4  O   UNL A   1      33.718  24.697  26.194  1.00  0.00    -0.252 OA
BRANCH   3   5
ATOM      5  C   UNL A   1      32.645  23.631  24.317  1.00  0.00     0.119 C 
ATOM      6  N   UNL A   1      31.678  25.714  23.529  1.00  0.00    -0.340 N 
ATOM      7  C   UNL A   1      30.457  25.580  24.311  1.00  0.00     0.119 C 
ATOM      8  C   UNL A   1      32.270  24.462  23.093  1.00  0.00     0.134 C 
ATOM      9  C   UNL A   1      30.608  24.637  25.503  1.00  0.00     0.022 C 
ATOM     10  C   UNL A   1      31.401  23.367  25.175  1.00  0.00     0.019 C 
BRANCH   6  11
ATOM     11  C   UNL A   1      32.354  26.932  23.503  1.00  0.00     0.245 C 
ATOM     12  O   UNL A   1      33.443  27.039  22.931  1.00  0.00    -0.272 OA
BRANCH  11  13
ATOM     13  C   UNL A   1      31.679  28.179  24.175  1.00  0.00     0.176 C 
BRANCH  13  14
ATOM     14  C   UNL A   1      32.381  28.731  25.448  1.00  0.00     0.018 C 
ATOM     15  C   UNL A   1      32.135  27.844  26.673  1.00  0.00     0.010 C 
BRANCH  14  16
ATOM     16  C   UNL A   1      31.937  30.185  25.760  1.00  0.00     0.002 C 
ATOM     17  C   UNL A   1      32.579  30.739  27.028  1.00  0.00     0.004 C 
ENDBRANCH  14  16
ENDBRANCH  13  14
BRANCH  13  18
ATOM     18  N   UNL A   1      31.525  29.218  23.147  1.00  0.00    -0.326 N 
ATOM     19  C   UNL A   1      30.435  29.242  22.331  1.00  0.00     0.312 C 
ATOM     20  H   UNL A   1      32.220  29.908  23.047  1.00  0.00     0.166 HD
ATOM     21  N   UNL A   1      30.455  30.260  21.443  1.00  0.00    -0.352 N 
ATOM     22  O   UNL A   1      29.523  28.427  22.336  1.00  0.00    -0.249 OA
ATOM     23  H   UNL A   1      31.196  30.907  21.452  1.00  0.00     0.161 HD
ATOM     24  H   UNL A   1      29.728  30.355  20.786  1.00  0.00     0.161 HD
ENDBRANCH  13  18
ENDBRANCH  11  13
ENDBRANCH   6  11
ENDBRANCH   3   5
ENDBRANCH   2   3
ENDBRANCH   1   2
BRANCH   1  25
ATOM     25  C   UNL A   1      36.499  22.628  24.989  1.00  0.00     0.275 C 
BRANCH  25  26
ATOM     26  O   UNL A   1      37.471  23.634  25.323  1.00  0.00    -0.458 OA
BRANCH  26  27
ATOM     27  C   UNL A   1      38.577  23.173  25.950  1.00  0.00     0.338 C 
ATOM     28  O   UNL A   1      39.098  22.078  25.837  1.00  0.00    -0.246 OA
BRANCH  27  29
ATOM     29  C   UNL A   1      39.186  24.274  26.705  1.00  0.00     0.060 A 
ATOM     30  C   UNL A   1      38.826  24.425  28.045  1.00  0.00     0.016 A 
ATOM     31  C   UNL A   1      40.037  25.187  26.086  1.00  0.00     0.016 A 
ATOM     32  C   UNL A   1      39.308  25.498  28.782  1.00  0.00     0.010 A 
ATOM     33  C   UNL A   1      40.526  26.265  26.826  1.00  0.00     0.010 A 
ATOM     34  C   UNL A   1      40.153  26.432  28.173  1.00  0.00    -0.014 A 
BRANCH  34  35
ATOM     35  C   UNL A   1      40.579  27.626  28.932  1.00  0.00     0.031 A 
ATOM     36  C   UNL A   1      41.942  27.647  29.559  1.00  0.00     0.074 A 
ATOM     37  C   UNL A   1      39.762  28.691  29.018  1.00  0.00     0.049 A 
ATOM     38  N   UNL A   1      42.473  28.541  30.349  1.00  0.00    -0.248 NA
ATOM     39  C   UNL A   1      42.823  26.509  29.251  1.00  0.00     0.031 C 
ATOM     40  C   UNL A   1      38.450  28.802  28.380  1.00  0.00     0.029 A 
ATOM     41  N   UNL A   1      39.917  29.882  29.677  1.00  0.00    -0.354 N 
ATOM     42  C   UNL A   1      43.741  28.063  30.658  1.00  0.00     0.074 A 
ATOM     43  C   UNL A   1      43.894  26.795  29.977  1.00  0.00     0.031 C 
ATOM     44  C   UNL A   1      37.920  30.000  28.677  1.00  0.00     0.029 A 
ATOM     45  C   UNL A   1      38.829  30.714  29.569  1.00  0.00     0.049 A 
ATOM     46  H   UNL A   1      40.729  30.119  30.181  1.00  0.00     0.167 HD
ATOM     47  C   UNL A   1      44.688  28.635  31.439  1.00  0.00     0.037 A 
ATOM     48  C   UNL A   1      38.586  31.903  30.152  1.00  0.00     0.037 A 
ATOM     49  C   UNL A   1      44.518  29.901  32.102  1.00  0.00     0.049 A 
ATOM     50  C   UNL A   1      39.619  32.482  31.079  1.00  0.00     0.074 A 
ATOM     51  C   UNL A   1      45.402  30.567  32.933  1.00  0.00     0.029 A 
ATOM     52  N   UNL A   1      43.383  30.695  32.008  1.00  0.00    -0.354 N 
ATOM     53  N   UNL A   1      40.798  32.003  31.400  1.00  0.00    -0.248 NA
ATOM     54  C   UNL A   1      39.285  33.752  31.734  1.00  0.00     0.031 C 
ATOM     55  C   UNL A   1      44.788  31.746  33.368  1.00  0.00     0.029 A 
ATOM     56  C   UNL A   1      43.537  31.837  32.776  1.00  0.00     0.049 A 
ATOM     57  H   UNL A   1      42.585  30.478  31.475  1.00  0.00     0.167 HD
ATOM     58  C   UNL A   1      41.355  32.923  32.280  1.00  0.00     0.074 A 
ATOM     59  C   UNL A   1      40.387  33.991  32.432  1.00  0.00     0.031 C 
ATOM     60  C   UNL A   1      42.558  32.888  32.906  1.00  0.00     0.037 A 
BRANCH  47  61
ATOM     61  C   UNL A   1      45.964  27.870  31.645  1.00  0.00     0.058 A 
ATOM     62  C   UNL A   1      47.058  28.006  30.775  1.00  0.00     0.135 A 
ATOM     63  C   UNL A   1      46.092  26.979  32.722  1.00  0.00     0.135 A 
ATOM     64  F   UNL A   1      46.982  28.828  29.716  1.00  0.00    -0.206 F 
ATOM     65  C   UNL A   1      48.220  27.258  30.946  1.00  0.00     0.059 A 
ATOM     66  C   UNL A   1      47.253  26.240  32.926  1.00  0.00     0.059 A 
ATOM     67  F   UNL A   1      45.075  26.808  33.581  1.00  0.00    -0.206 F 
ATOM     68  C   UNL A   1      48.304  26.372  32.021  1.00  0.00     0.060 A 
BRANCH  68  69
ATOM     69  S   UNL A   1      49.807  25.390  32.217  1.00  0.00     0.124 S 
ATOM     70  O   UNL A   1      50.728  26.378  32.770  1.00  0.00    -0.237 OA
ATOM     71  O   UNL A   1      49.379  24.339  33.135  1.00  0.00    -0.237 OA
ATOM     72  O   UNL A   1      50.103  24.948  30.858  1.00  0.00    -0.744 OA
ENDBRANCH  68  69
ENDBRANCH  47  61
BRANCH  48  73
ATOM     73  C   UNL A   1      37.303  32.607  29.890  1.00  0.00     0.058 A 
ATOM     74  C   UNL A   1      36.125  32.226  30.546  1.00  0.00     0.135 A 
ATOM     75  C   UNL A   1      37.236  33.690  28.998  1.00  0.00     0.135 A 
ATOM     76  F   UNL A   1      36.137  31.191  31.399  1.00  0.00    -0.206 F 
ATOM     77  C   UNL A   1      34.923  32.891  30.328  1.00  0.00     0.059 A 
ATOM     78  C   UNL A   1      36.051  34.386  28.781  1.00  0.00     0.059 A 
ATOM     79  F   UNL A   1      38.340  34.100  28.353  1.00  0.00    -0.206 F 
ATOM     80  C   UNL A   1      34.897  33.973  29.446  1.00  0.00     0.060 A 
BRANCH  80  81
ATOM     81  S   UNL A   1      33.346  34.872  29.220  1.00  0.00     0.124 S 
ATOM     82  O   UNL A   1      32.809  34.875  30.576  1.00  0.00    -0.237 OA
ATOM     83  O   UNL A   1      33.808  36.160  28.713  1.00  0.00    -0.237 OA
ATOM     84  O   UNL A   1      32.622  34.051  28.255  1.00  0.00    -0.744 OA
ENDBRANCH  80  81
ENDBRANCH  48  73
BRANCH  60  85
ATOM     85  C   UNL A   1      42.904  34.054  33.787  1.00  0.00     0.058 A 
ATOM     86  C   UNL A   1      42.530  34.091  35.139  1.00  0.00     0.135 A 
ATOM     87  C   UNL A   1      43.656  35.126  33.281  1.00  0.00     0.135 A 
ATOM     88  F   UNL A   1      41.803  33.094  35.667  1.00  0.00    -0.206 F 
ATOM     89  C   UNL A   1      42.875  35.162  35.956  1.00  0.00     0.059 A 
ATOM     90  C   UNL A   1      44.032  36.195  34.087  1.00  0.00     0.059 A 
ATOM     91  F   UNL A   1      44.045  35.132  31.996  1.00  0.00    -0.206 F 
ATOM     92  C   UNL A   1      43.626  36.210  35.420  1.00  0.00     0.060 A 
BRANCH  92  93
ATOM     93  S   UNL A   1      44.097  37.580  36.499  1.00  0.00     0.124 S 
ATOM     94  O   UNL A   1      45.506  37.290  36.741  1.00  0.00    -0.237 OA
ATOM     95  O   UNL A   1      43.823  38.746  35.665  1.00  0.00    -0.237 OA
ATOM     96  O   UNL A   1      43.215  37.421  37.651  1.00  0.00    -0.744 OA
ENDBRANCH  92  93
ENDBRANCH  60  85
ENDBRANCH  34  35
ENDBRANCH  27  29
ENDBRANCH  26  27
ENDBRANCH  25  26
ENDBRANCH   1  25
TORSDOF 19
ENDMDL
MODEL 3
REMARK VINA RESULT:     -10.1      1.141      1.956
REMARK SMILES CC[C@@H](C)[C@@H](NC(N)=O)C(=O)N1CCC[C@H](C(=O)OCCOC(=O)c2ccc(-c3c4nc(c(-c5c(F)cc(S(=O)(=O)[O-])cc5F)c5ccc([nH]5)c(-c5c(F)cc(S(=O)(=O)[O-])cc5F)c5nc(c(-c6c(F)cc(S(=O)(=O)[O-])cc6F)c6ccc3[nH]6)C=C5)C=C4)cc2)C1
REMARK SMILES IDX 20 1 19 2 17 3 18 4 16 5 12 6 13 7 91 8 14 9 15 10 10 11
REMARK SMILES IDX 11 12 5 13 3 14 4 15 2 16 1 17 6 18 7 19 8 21 9 22 21 25
REMARK SMILES IDX 22 26 23 27 24 28 25 29 26 30 90 31 27 32 89 33 28 34 29 35
REMARK SMILES IDX 30 36 83 37 31 38 88 39 82 40 84 41 32 42 87 43 81 44 80 45
REMARK SMILES IDX 33 47 67 48 46 49 66 50 47 51 50 52 65 53 85 54 48 55 49 56
REMARK SMILES IDX 64 58 86 59 51 60 34 61 35 62 44 63 36 64 37 65 43 66 45 67
REMARK SMILES IDX 38 68 39 69 40 70 41 71 42 72 68 73 69 74 78 75 70 76 71 77
REMARK SMILES IDX 77 78 79 79 72 80 73 81 74 82 75 83 76 84 52 85 53 86 62 87
REMARK SMILES IDX 54 88 55 89 61 90 63 91 56 92 57 93 58 94 59 95 60 96
REMARK H PARENT 6 20 8 23 8 24 84 46 50 57
REMARK Flexibility Score: inf
ROOT
ATOM      1  C   UNL A   1      31.866  28.247  27.382  1.00  0.00     0.274 C 
ENDROOT
BRANCH   1   2
ATOM      2  O   UNL A   1      31.462  27.732  26.099  1.00  0.00    -0.462 OA
BRANCH   2   3
ATOM      3  C   UNL A   1      30.967  26.474  26.038  1.00  0.00     0.310 C 
ATOM      4  O   UNL A   1      31.194  25.589  26.856  1.00  0.00    -0.252 OA
BRANCH   3   5
ATOM      5  C   UNL A   1      30.098  26.234  24.808  1.00  0.00     0.119 C 
ATOM      6  N   UNL A   1      31.790  24.975  23.604  1.00  0.00    -0.340 N 
ATOM      7  C   UNL A   1      31.932  25.959  22.540  1.00  0.00     0.119 C 
ATOM      8  C   UNL A   1      30.464  24.887  24.187  1.00  0.00     0.134 C 
ATOM      9  C   UNL A   1      31.452  27.352  22.941  1.00  0.00     0.022 C 
ATOM     10  C   UNL A   1      30.144  27.335  23.741  1.00  0.00     0.019 C 
BRANCH   6  11
ATOM     11  C   UNL A   1      32.926  24.424  24.194  1.00  0.00     0.245 C 
ATOM     12  O   UNL A   1      33.985  25.059  24.241  1.00  0.00    -0.272 OA
BRANCH  11  13
ATOM     13  C   UNL A   1      32.818  23.000  24.842  1.00  0.00     0.176 C 
BRANCH  13  14
ATOM     14  C   UNL A   1      32.913  21.796  23.861  1.00  0.00     0.018 C 
ATOM     15  C   UNL A   1      31.963  21.950  22.667  1.00  0.00     0.010 C 
BRANCH  14  16
ATOM     16  C   UNL A   1      32.632  20.450  24.579  1.00  0.00     0.002 C 
ATOM     17  C   UNL A   1      32.594  19.265  23.619  1.00  0.00     0.004 C 
ENDBRANCH  14  16
ENDBRANCH  13  14
BRANCH  13  18
ATOM     18  N   UNL A   1      33.826  22.910  25.908  1.00  0.00    -0.326 N 
ATOM     19  C   UNL A   1      33.459  22.749  27.209  1.00  0.00     0.312 C 
ATOM     20  H   UNL A   1      34.782  22.967  25.678  1.00  0.00     0.166 HD
ATOM     21  N   UNL A   1      34.509  22.689  28.057  1.00  0.00    -0.352 N 
ATOM     22  O   UNL A   1      32.310  22.695  27.623  1.00  0.00    -0.249 OA
ATOM     23  H   UNL A   1      35.428  22.734  27.707  1.00  0.00     0.161 HD
ATOM     24  H   UNL A   1      34.355  22.602  29.025  1.00  0.00     0.161 HD
ENDBRANCH  13  18
ENDBRANCH  11  13
ENDBRANCH   6  11
ENDBRANCH   3   5
ENDBRANCH   2   3
ENDBRANCH   1   2
BRANCH   1  25
ATOM     25  C   UNL A   1      32.392  29.675  27.241  1.00  0.00     0.275 C 
BRANCH  25  26
ATOM     26  O   UNL A   1      33.821  29.675  27.081  1.00  0.00    -0.458 OA
BRANCH  26  27
ATOM     27  C   UNL A   1      34.486  30.533  27.889  1.00  0.00     0.338 C 
ATOM     28  O   UNL A   1      34.038  31.493  28.490  1.00  0.00    -0.246 OA
BRANCH  27  29
ATOM     29  C   UNL A   1      35.854  30.038  28.079  1.00  0.00     0.060 A 
ATOM     30  C   UNL A   1      36.221  29.602  29.353  1.00  0.00     0.016 A 
ATOM     31  C   UNL A   1      36.783  30.071  27.040  1.00  0.00     0.016 A 
ATOM     32  C   UNL A   1      37.525  29.202  29.607  1.00  0.00     0.010 A 
ATOM     33  C   UNL A   1      38.094  29.666  27.292  1.00  0.00     0.010 A 
ATOM     34  C   UNL A   1      38.473  29.242  28.580  1.00  0.00    -0.014 A 
BRANCH  34  35
ATOM     35  C   UNL A   1      39.882  28.914  28.881  1.00  0.00     0.031 A 
ATOM     36  C   UNL A   1      40.753  29.949  29.532  1.00  0.00     0.074 A 
ATOM     37  C   UNL A   1      40.357  27.685  28.608  1.00  0.00     0.049 A 
ATOM     38  N   UNL A   1      42.033  29.910  29.785  1.00  0.00    -0.248 NA
ATOM     39  C   UNL A   1      40.089  31.192  29.954  1.00  0.00     0.031 C 
ATOM     40  C   UNL A   1      39.573  26.583  28.048  1.00  0.00     0.029 A 
ATOM     41  N   UNL A   1      41.611  27.159  28.766  1.00  0.00    -0.354 N 
ATOM     42  C   UNL A   1      42.337  31.132  30.372  1.00  0.00     0.074 A 
ATOM     43  C   UNL A   1      41.108  31.895  30.426  1.00  0.00     0.031 C 
ATOM     44  C   UNL A   1      40.367  25.508  27.912  1.00  0.00     0.029 A 
ATOM     45  C   UNL A   1      41.722  25.863  28.322  1.00  0.00     0.049 A 
ATOM     46  H   UNL A   1      42.362  27.661  29.158  1.00  0.00     0.167 HD
ATOM     47  C   UNL A   1      43.536  31.573  30.823  1.00  0.00     0.037 A 
ATOM     48  C   UNL A   1      42.805  25.068  28.229  1.00  0.00     0.037 A 
ATOM     49  C   UNL A   1      44.746  30.796  30.765  1.00  0.00     0.049 A 
ATOM     50  C   UNL A   1      44.140  25.607  28.662  1.00  0.00     0.074 A 
ATOM     51  C   UNL A   1      46.020  31.149  31.175  1.00  0.00     0.029 A 
ATOM     52  N   UNL A   1      44.831  29.503  30.265  1.00  0.00    -0.354 N 
ATOM     53  N   UNL A   1      44.428  26.781  29.176  1.00  0.00    -0.248 NA
ATOM     54  C   UNL A   1      45.299  24.724  28.491  1.00  0.00     0.031 C 
ATOM     55  C   UNL A   1      46.880  30.082  30.891  1.00  0.00     0.029 A 
ATOM     56  C   UNL A   1      46.136  29.048  30.343  1.00  0.00     0.049 A 
ATOM     57  H   UNL A   1      44.073  28.986  29.908  1.00  0.00     0.167 HD
ATOM     58  C   UNL A   1      45.798  26.769  29.406  1.00  0.00     0.074 A 
ATOM     59  C   UNL A   1      46.279  25.468  28.985  1.00  0.00     0.031 C 
ATOM     60  C   UNL A   1      46.588  27.746  29.919  1.00  0.00     0.037 A 
BRANCH  47  61
ATOM     61  C   UNL A   1      43.592  32.970  31.372  1.00  0.00     0.058 A 
ATOM     62  C   UNL A   1      43.800  34.084  30.543  1.00  0.00     0.135 A 
ATOM     63  C   UNL A   1      43.446  33.197  32.750  1.00  0.00     0.135 A 
ATOM     64  F   UNL A   1      43.966  33.921  29.221  1.00  0.00    -0.206 F 
ATOM     65  C   UNL A   1      43.897  35.371  31.066  1.00  0.00     0.059 A 
ATOM     66  C   UNL A   1      43.516  34.478  33.291  1.00  0.00     0.059 A 
ATOM     67  F   UNL A   1      43.249  32.167  33.587  1.00  0.00    -0.206 F 
ATOM     68  C   UNL A   1      43.761  35.556  32.442  1.00  0.00     0.060 A 
BRANCH  68  69
ATOM     69  S   UNL A   1      43.914  37.226  33.110  1.00  0.00     0.124 S 
ATOM     70  O   UNL A   1      43.859  38.031  31.893  1.00  0.00    -0.237 OA
ATOM     71  O   UNL A   1      42.752  37.323  33.987  1.00  0.00    -0.237 OA
ATOM     72  O   UNL A   1      45.206  37.203  33.789  1.00  0.00    -0.744 OA
ENDBRANCH  68  69
ENDBRANCH  47  61
BRANCH  48  73
ATOM     73  C   UNL A   1      42.668  23.692  27.686  1.00  0.00     0.058 A 
ATOM     74  C   UNL A   1      42.524  22.591  28.542  1.00  0.00     0.135 A 
ATOM     75  C   UNL A   1      42.652  23.452  26.302  1.00  0.00     0.135 A 
ATOM     76  F   UNL A   1      42.544  22.768  29.871  1.00  0.00    -0.206 F 
ATOM     77  C   UNL A   1      42.372  21.299  28.046  1.00  0.00     0.059 A 
ATOM     78  C   UNL A   1      42.478  22.174  25.783  1.00  0.00     0.059 A 
ATOM     79  F   UNL A   1      42.776  24.475  25.441  1.00  0.00    -0.206 F 
ATOM     80  C   UNL A   1      42.345  21.102  26.665  1.00  0.00     0.060 A 
BRANCH  80  81
ATOM     81  S   UNL A   1      42.081  19.431  26.032  1.00  0.00     0.124 S 
ATOM     82  O   UNL A   1      42.930  19.429  24.846  1.00  0.00    -0.237 OA
ATOM     83  O   UNL A   1      42.537  18.604  27.146  1.00  0.00    -0.237 OA
ATOM     84  O   UNL A   1      40.643  19.391  25.782  1.00  0.00    -0.744 OA
ENDBRANCH  80  81
ENDBRANCH  48  73
BRANCH  60  85
ATOM     85  C   UNL A   1      48.047  27.430  30.081  1.00  0.00     0.058 A 
ATOM     86  C   UNL A   1      48.982  27.739  29.081  1.00  0.00     0.135 A 
ATOM     87  C   UNL A   1      48.520  26.851  31.269  1.00  0.00     0.135 A 
ATOM     88  F   UNL A   1      48.578  28.286  27.924  1.00  0.00    -0.206 F 
ATOM     89  C   UNL A   1      50.335  27.468  29.247  1.00  0.00     0.059 A 
ATOM     90  C   UNL A   1      49.872  26.593  31.466  1.00  0.00     0.059 A 
ATOM     91  F   UNL A   1      47.665  26.545  32.259  1.00  0.00    -0.206 F 
ATOM     92  C   UNL A   1      50.771  26.894  30.443  1.00  0.00     0.060 A 
BRANCH  92  93
ATOM     93  S   UNL A   1      52.535  26.576  30.661  1.00  0.00     0.124 S 
ATOM     94  O   UNL A   1      52.956  26.310  29.290  1.00  0.00    -0.237 OA
ATOM     95  O   UNL A   1      53.011  27.828  31.240  1.00  0.00    -0.237 OA
ATOM     96  O   UNL A   1      52.562  25.426  31.561  1.00  0.00    -0.744 OA
ENDBRANCH  92  93
ENDBRANCH  60  85
ENDBRANCH  34  35
ENDBRANCH  27  29
ENDBRANCH  26  27
ENDBRANCH  25  26
ENDBRANCH   1  25
TORSDOF 19
ENDMDL
