MODEL 1
REMARK VINA RESULT:     -12.6      0.000      0.000
REMARK SMILES Cc1ccc(CN(CC(=O)OCCOC(=O)c2ccc(-c3c4nc(c(-c5c(F)cc(S(=O)(=O)[O-])cc5F)c5ccc([nH]5)c(-c5c(F)cc(S(=O)(=O)[O-])cc5F)c5nc(c(-c6c(F)cc(S(=O)(=O)[O-])cc6F)c6ccc3[nH]6)C=C5)C=C4)cc2)C(=O)c2cc3c(s2)CCOC3)cc1
REMARK SMILES IDX 12 1 11 2 9 3 10 4 8 5 7 6 6 7 5 8 1 9 2 10 3 11 95 12 4 13
REMARK SMILES IDX 94 14 83 15 84 16 85 17 86 18 89 19 87 20 88 21 93 22 90 23
REMARK SMILES IDX 92 24 91 25 13 26 14 27 15 28 16 29 17 30 18 31 82 32 19 33
REMARK SMILES IDX 81 34 20 35 21 36 22 37 75 38 23 39 80 40 74 41 76 42 24 43
REMARK SMILES IDX 79 44 73 45 72 46 25 48 59 49 38 50 58 51 39 52 42 53 57 54
REMARK SMILES IDX 77 55 40 56 41 57 56 59 78 60 43 61 26 62 27 63 36 64 28 65
REMARK SMILES IDX 29 66 35 67 37 68 30 69 31 70 32 71 33 72 34 73 60 74 61 75
REMARK SMILES IDX 70 76 62 77 63 78 69 79 71 80 64 81 65 82 66 83 67 84 68 85
REMARK SMILES IDX 44 86 45 87 54 88 46 89 47 90 53 91 55 92 48 93 49 94 50 95
REMARK SMILES IDX 51 96 52 97
REMARK H PARENT 76 47 42 58
REMARK Flexibility Score: inf
ROOT
ATOM      1  C   UNL A   1      33.633  27.930  26.195  1.00  0.00     0.274 C 
ENDROOT
BRANCH   1   2
ATOM      2  O   UNL A   1      32.627  26.931  26.328  1.00  0.00    -0.461 OA
BRANCH   2   3
ATOM      3  C   UNL A   1      32.884  25.729  25.742  1.00  0.00     0.325 C 
ATOM      4  O   UNL A   1      32.749  24.641  26.286  1.00  0.00    -0.250 OA
BRANCH   3   5
ATOM      5  C   UNL A   1      33.308  25.928  24.293  1.00  0.00     0.242 C 
BRANCH   5   6
ATOM      6  N   UNL A   1      32.433  25.103  23.469  1.00  0.00    -0.323 N 
BRANCH   6   7
ATOM      7  C   UNL A   1      33.125  24.350  22.430  1.00  0.00     0.156 C 
BRANCH   7   8
ATOM      8  C   UNL A   1      34.046  23.332  23.048  1.00  0.00    -0.029 A 
ATOM      9  C   UNL A   1      36.626  20.792  25.356  1.00  0.00     0.044 C 
ATOM     10  C   UNL A   1      35.728  21.612  24.483  1.00  0.00    -0.051 A 
ATOM     11  C   UNL A   1      36.275  22.605  23.666  1.00  0.00     0.004 A 
ATOM     12  C   UNL A   1      34.341  21.440  24.521  1.00  0.00     0.004 A 
ATOM     13  C   UNL A   1      35.440  23.453  22.944  1.00  0.00     0.006 A 
ATOM     14  C   UNL A   1      33.505  22.292  23.806  1.00  0.00     0.006 A 
ENDBRANCH   7   8
ENDBRANCH   6   7
BRANCH   6  15
ATOM     15  C   UNL A   1      31.023  25.138  23.465  1.00  0.00     0.264 C 
ATOM     16  O   UNL A   1      30.393  24.089  23.629  1.00  0.00    -0.268 OA
BRANCH  15  17
ATOM     17  C   UNL A   1      30.308  26.395  23.262  1.00  0.00     0.093 A 
ATOM     18  C   UNL A   1      29.082  26.806  23.774  1.00  0.00     0.032 A 
ATOM     19  S   UNL A   1      31.087  27.696  22.446  1.00  0.00    -0.135 S 
ATOM     20  C   UNL A   1      28.667  28.078  23.239  1.00  0.00    -0.008 A 
ATOM     21  C   UNL A   1      29.716  28.691  22.587  1.00  0.00     0.013 A 
ATOM     22  C   UNL A   1      27.271  28.662  23.145  1.00  0.00     0.196 C 
ATOM     23  C   UNL A   1      29.574  30.051  21.977  1.00  0.00     0.075 C 
ATOM     24  O   UNL A   1      27.273  30.058  22.755  1.00  0.00    -0.376 OA
ATOM     25  C   UNL A   1      28.102  30.249  21.584  1.00  0.00     0.166 C 
ENDBRANCH  15  17
ENDBRANCH   6  15
ENDBRANCH   5   6
ENDBRANCH   3   5
ENDBRANCH   2   3
ENDBRANCH   1   2
BRANCH   1  26
ATOM     26  C   UNL A   1      32.998  29.308  26.444  1.00  0.00     0.275 C 
BRANCH  26  27
ATOM     27  O   UNL A   1      33.164  29.981  27.734  1.00  0.00    -0.458 OA
BRANCH  27  28
ATOM     28  C   UNL A   1      34.043  30.981  27.961  1.00  0.00     0.338 C 
ATOM     29  O   UNL A   1      33.741  32.168  28.079  1.00  0.00    -0.246 OA
BRANCH  28  30
ATOM     30  C   UNL A   1      35.412  30.628  28.216  1.00  0.00     0.060 A 
ATOM     31  C   UNL A   1      36.429  31.461  27.688  1.00  0.00     0.016 A 
ATOM     32  C   UNL A   1      35.628  29.676  29.188  1.00  0.00     0.016 A 
ATOM     33  C   UNL A   1      37.693  31.373  28.201  1.00  0.00     0.010 A 
ATOM     34  C   UNL A   1      36.781  29.783  29.875  1.00  0.00     0.010 A 
ATOM     35  C   UNL A   1      37.824  30.527  29.289  1.00  0.00    -0.014 A 
BRANCH  35  36
ATOM     36  C   UNL A   1      39.088  29.999  29.711  1.00  0.00     0.031 A 
ATOM     37  C   UNL A   1      39.378  28.625  29.281  1.00  0.00     0.074 A 
ATOM     38  C   UNL A   1      39.832  31.044  30.156  1.00  0.00     0.049 A 
ATOM     39  N   UNL A   1      40.010  27.743  29.972  1.00  0.00    -0.248 NA
ATOM     40  C   UNL A   1      38.815  28.055  28.041  1.00  0.00     0.031 C 
ATOM     41  C   UNL A   1      41.257  31.288  30.167  1.00  0.00     0.029 A 
ATOM     42  N   UNL A   1      39.336  32.266  30.665  1.00  0.00    -0.354 N 
ATOM     43  C   UNL A   1      40.406  26.806  29.032  1.00  0.00     0.074 A 
ATOM     44  C   UNL A   1      39.399  26.851  28.005  1.00  0.00     0.031 C 
ATOM     45  C   UNL A   1      41.501  32.346  30.974  1.00  0.00     0.029 A 
ATOM     46  C   UNL A   1      40.238  32.731  31.604  1.00  0.00     0.049 A 
ATOM     47  H   UNL A   1      38.498  32.708  30.398  1.00  0.00     0.167 HD
ATOM     48  C   UNL A   1      41.735  26.492  28.951  1.00  0.00     0.037 A 
ATOM     49  C   UNL A   1      39.935  32.635  32.937  1.00  0.00     0.037 A 
ATOM     50  C   UNL A   1      42.482  27.364  29.865  1.00  0.00     0.049 A 
ATOM     51  C   UNL A   1      40.788  31.558  33.557  1.00  0.00     0.074 A 
ATOM     52  C   UNL A   1      43.247  28.494  29.632  1.00  0.00     0.029 A 
ATOM     53  N   UNL A   1      42.208  27.345  31.223  1.00  0.00    -0.354 N 
ATOM     54  N   UNL A   1      41.197  30.504  32.908  1.00  0.00    -0.248 NA
ATOM     55  C   UNL A   1      41.276  31.609  34.928  1.00  0.00     0.031 C 
ATOM     56  C   UNL A   1      43.443  29.150  30.876  1.00  0.00     0.029 A 
ATOM     57  C   UNL A   1      42.741  28.455  31.845  1.00  0.00     0.049 A 
ATOM     58  H   UNL A   1      41.704  26.635  31.683  1.00  0.00     0.167 HD
ATOM     59  C   UNL A   1      42.016  29.768  33.713  1.00  0.00     0.074 A 
ATOM     60  C   UNL A   1      42.034  30.500  34.966  1.00  0.00     0.031 C 
ATOM     61  C   UNL A   1      42.605  28.615  33.283  1.00  0.00     0.037 A 
BRANCH  48  62
ATOM     62  C   UNL A   1      42.435  25.714  27.851  1.00  0.00     0.058 A 
ATOM     63  C   UNL A   1      43.118  24.515  28.169  1.00  0.00     0.135 A 
ATOM     64  C   UNL A   1      42.439  26.038  26.478  1.00  0.00     0.135 A 
ATOM     65  F   UNL A   1      43.134  24.019  29.413  1.00  0.00    -0.206 F 
ATOM     66  C   UNL A   1      43.794  23.742  27.230  1.00  0.00     0.059 A 
ATOM     67  C   UNL A   1      43.128  25.285  25.515  1.00  0.00     0.059 A 
ATOM     68  F   UNL A   1      41.727  27.063  25.993  1.00  0.00    -0.206 F 
ATOM     69  C   UNL A   1      43.801  24.134  25.903  1.00  0.00     0.060 A 
BRANCH  69  70
ATOM     70  S   UNL A   1      44.637  23.079  24.709  1.00  0.00     0.124 S 
ATOM     71  O   UNL A   1      45.697  23.955  24.220  1.00  0.00    -0.237 OA
ATOM     72  O   UNL A   1      45.070  21.961  25.540  1.00  0.00    -0.237 OA
ATOM     73  O   UNL A   1      43.592  22.767  23.738  1.00  0.00    -0.744 OA
ENDBRANCH  69  70
ENDBRANCH  48  62
BRANCH  49  74
ATOM     74  C   UNL A   1      38.486  32.831  33.278  1.00  0.00     0.058 A 
ATOM     75  C   UNL A   1      38.016  34.143  33.488  1.00  0.00     0.135 A 
ATOM     76  C   UNL A   1      37.520  31.831  33.079  1.00  0.00     0.135 A 
ATOM     77  F   UNL A   1      38.885  35.147  33.690  1.00  0.00    -0.206 F 
ATOM     78  C   UNL A   1      36.669  34.468  33.373  1.00  0.00     0.059 A 
ATOM     79  C   UNL A   1      36.160  32.135  32.961  1.00  0.00     0.059 A 
ATOM     80  F   UNL A   1      37.890  30.557  32.884  1.00  0.00    -0.206 F 
ATOM     81  C   UNL A   1      35.753  33.463  33.067  1.00  0.00     0.060 A 
BRANCH  81  82
ATOM     82  S   UNL A   1      34.099  33.980  32.557  1.00  0.00     0.124 S 
ATOM     83  O   UNL A   1      33.237  33.112  33.348  1.00  0.00    -0.237 OA
ATOM     84  O   UNL A   1      34.126  35.382  32.963  1.00  0.00    -0.237 OA
ATOM     85  O   UNL A   1      34.095  33.740  31.117  1.00  0.00    -0.744 OA
ENDBRANCH  81  82
ENDBRANCH  49  74
BRANCH  61  86
ATOM     86  C   UNL A   1      43.197  27.565  34.180  1.00  0.00     0.058 A 
ATOM     87  C   UNL A   1      42.438  26.565  34.805  1.00  0.00     0.135 A 
ATOM     88  C   UNL A   1      44.602  27.449  34.328  1.00  0.00     0.135 A 
ATOM     89  F   UNL A   1      41.118  26.446  34.600  1.00  0.00    -0.206 F 
ATOM     90  C   UNL A   1      43.010  25.615  35.639  1.00  0.00     0.059 A 
ATOM     91  C   UNL A   1      45.202  26.450  35.079  1.00  0.00     0.059 A 
ATOM     92  F   UNL A   1      45.456  28.299  33.741  1.00  0.00    -0.206 F 
ATOM     93  C   UNL A   1      44.393  25.575  35.781  1.00  0.00     0.060 A 
BRANCH  93  94
ATOM     94  S   UNL A   1      45.125  24.373  36.890  1.00  0.00     0.124 S 
ATOM     95  O   UNL A   1      44.674  23.123  36.288  1.00  0.00    -0.237 OA
ATOM     96  O   UNL A   1      46.553  24.655  36.766  1.00  0.00    -0.237 OA
ATOM     97  O   UNL A   1      44.537  24.703  38.184  1.00  0.00    -0.744 OA
ENDBRANCH  93  94
ENDBRANCH  61  86
ENDBRANCH  35  36
ENDBRANCH  28  30
ENDBRANCH  27  28
ENDBRANCH  26  27
ENDBRANCH   1  26
TORSDOF 19
ENDMDL
MODEL 2
REMARK VINA RESULT:     -12.4      1.162      4.032
REMARK SMILES Cc1ccc(CN(CC(=O)OCCOC(=O)c2ccc(-c3c4nc(c(-c5c(F)cc(S(=O)(=O)[O-])cc5F)c5ccc([nH]5)c(-c5c(F)cc(S(=O)(=O)[O-])cc5F)c5nc(c(-c6c(F)cc(S(=O)(=O)[O-])cc6F)c6ccc3[nH]6)C=C5)C=C4)cc2)C(=O)c2cc3c(s2)CCOC3)cc1
REMARK SMILES IDX 12 1 11 2 9 3 10 4 8 5 7 6 6 7 5 8 1 9 2 10 3 11 95 12 4 13
REMARK SMILES IDX 94 14 83 15 84 16 85 17 86 18 89 19 87 20 88 21 93 22 90 23
REMARK SMILES IDX 92 24 91 25 13 26 14 27 15 28 16 29 17 30 18 31 82 32 19 33
REMARK SMILES IDX 81 34 20 35 21 36 22 37 75 38 23 39 80 40 74 41 76 42 24 43
REMARK SMILES IDX 79 44 73 45 72 46 25 48 59 49 38 50 58 51 39 52 42 53 57 54
REMARK SMILES IDX 77 55 40 56 41 57 56 59 78 60 43 61 26 62 27 63 36 64 28 65
REMARK SMILES IDX 29 66 35 67 37 68 30 69 31 70 32 71 33 72 34 73 60 74 61 75
REMARK SMILES IDX 70 76 62 77 63 78 69 79 71 80 64 81 65 82 66 83 67 84 68 85
REMARK SMILES IDX 44 86 45 87 54 88 46 89 47 90 53 91 55 92 48 93 49 94 50 95
REMARK SMILES IDX 51 96 52 97
REMARK H PARENT 76 47 42 58
REMARK Flexibility Score: inf
ROOT
ATOM      1  C   UNL A   1      31.486  28.706  27.260  1.00  0.00     0.274 C 
ENDROOT
BRANCH   1   2
ATOM      2  O   UNL A   1      31.446  27.808  26.156  1.00  0.00    -0.461 OA
BRANCH   2   3
ATOM      3  C   UNL A   1      32.367  26.804  26.157  1.00  0.00     0.325 C 
ATOM      4  O   UNL A   1      33.531  26.921  26.515  1.00  0.00    -0.250 OA
BRANCH   3   5
ATOM      5  C   UNL A   1      31.725  25.501  25.701  1.00  0.00     0.242 C 
BRANCH   5   6
ATOM      6  N   UNL A   1      31.956  25.385  24.265  1.00  0.00    -0.323 N 
BRANCH   6   7
ATOM      7  C   UNL A   1      30.741  25.223  23.475  1.00  0.00     0.156 C 
BRANCH   7   8
ATOM      8  C   UNL A   1      30.001  26.530  23.382  1.00  0.00    -0.029 A 
ATOM      9  C   UNL A   1      27.641  30.022  22.557  1.00  0.00     0.044 C 
ATOM     10  C   UNL A   1      28.482  28.841  22.930  1.00  0.00    -0.051 A 
ATOM     11  C   UNL A   1      29.827  28.802  22.552  1.00  0.00     0.004 A 
ATOM     12  C   UNL A   1      27.924  27.747  23.598  1.00  0.00     0.004 A 
ATOM     13  C   UNL A   1      30.585  27.659  22.787  1.00  0.00     0.006 A 
ATOM     14  C   UNL A   1      28.678  26.600  23.826  1.00  0.00     0.006 A 
ENDBRANCH   7   8
ENDBRANCH   6   7
BRANCH   6  15
ATOM     15  C   UNL A   1      33.208  25.216  23.639  1.00  0.00     0.264 C 
ATOM     16  O   UNL A   1      33.473  25.878  22.631  1.00  0.00    -0.268 OA
BRANCH  15  17
ATOM     17  C   UNL A   1      34.183  24.263  24.164  1.00  0.00     0.093 A 
ATOM     18  C   UNL A   1      35.326  24.497  24.921  1.00  0.00     0.032 A 
ATOM     19  S   UNL A   1      33.870  22.574  24.051  1.00  0.00    -0.135 S 
ATOM     20  C   UNL A   1      36.088  23.295  25.142  1.00  0.00    -0.008 A 
ATOM     21  C   UNL A   1      35.347  22.184  24.799  1.00  0.00     0.013 A 
ATOM     22  C   UNL A   1      37.559  23.148  25.482  1.00  0.00     0.196 C 
ATOM     23  C   UNL A   1      35.882  20.797  24.975  1.00  0.00     0.075 C 
ATOM     24  O   UNL A   1      37.915  21.793  25.853  1.00  0.00    -0.376 OA
ATOM     25  C   UNL A   1      37.413  20.857  24.871  1.00  0.00     0.166 C 
ENDBRANCH  15  17
ENDBRANCH   6  15
ENDBRANCH   5   6
ENDBRANCH   3   5
ENDBRANCH   2   3
ENDBRANCH   1   2
BRANCH   1  26
ATOM     26  C   UNL A   1      32.141  30.020  26.805  1.00  0.00     0.275 C 
BRANCH  26  27
ATOM     27  O   UNL A   1      33.595  30.185  26.859  1.00  0.00    -0.458 OA
BRANCH  27  28
ATOM     28  C   UNL A   1      34.233  31.033  27.695  1.00  0.00     0.338 C 
ATOM     29  O   UNL A   1      33.699  31.973  28.282  1.00  0.00    -0.246 OA
BRANCH  28  30
ATOM     30  C   UNL A   1      35.599  30.746  28.032  1.00  0.00     0.060 A 
ATOM     31  C   UNL A   1      36.552  31.788  27.916  1.00  0.00     0.016 A 
ATOM     32  C   UNL A   1      35.828  29.570  28.712  1.00  0.00     0.016 A 
ATOM     33  C   UNL A   1      37.752  31.665  28.558  1.00  0.00     0.010 A 
ATOM     34  C   UNL A   1      36.875  29.570  29.558  1.00  0.00     0.010 A 
ATOM     35  C   UNL A   1      37.871  30.547  29.365  1.00  0.00    -0.014 A 
BRANCH  35  36
ATOM     36  C   UNL A   1      39.139  30.034  29.795  1.00  0.00     0.031 A 
ATOM     37  C   UNL A   1      39.449  28.666  29.363  1.00  0.00     0.074 A 
ATOM     38  C   UNL A   1      39.866  31.087  30.249  1.00  0.00     0.049 A 
ATOM     39  N   UNL A   1      40.087  27.789  30.056  1.00  0.00    -0.248 NA
ATOM     40  C   UNL A   1      38.903  28.092  28.117  1.00  0.00     0.031 C 
ATOM     41  C   UNL A   1      41.287  31.349  30.272  1.00  0.00     0.029 A 
ATOM     42  N   UNL A   1      39.350  32.301  30.758  1.00  0.00    -0.354 N 
ATOM     43  C   UNL A   1      40.503  26.861  29.116  1.00  0.00     0.074 A 
ATOM     44  C   UNL A   1      39.503  26.896  28.082  1.00  0.00     0.031 C 
ATOM     45  C   UNL A   1      41.511  32.408  31.084  1.00  0.00     0.029 A 
ATOM     46  C   UNL A   1      40.239  32.775  31.705  1.00  0.00     0.049 A 
ATOM     47  H   UNL A   1      38.508  32.733  30.486  1.00  0.00     0.167 HD
ATOM     48  C   UNL A   1      41.836  26.564  29.045  1.00  0.00     0.037 A 
ATOM     49  C   UNL A   1      39.927  32.671  33.035  1.00  0.00     0.037 A 
ATOM     50  C   UNL A   1      42.565  27.442  29.966  1.00  0.00     0.049 A 
ATOM     51  C   UNL A   1      40.789  31.602  33.659  1.00  0.00     0.074 A 
ATOM     52  C   UNL A   1      43.317  28.583  29.744  1.00  0.00     0.029 A 
ATOM     53  N   UNL A   1      42.281  27.416  31.323  1.00  0.00    -0.354 N 
ATOM     54  N   UNL A   1      41.217  30.556  33.010  1.00  0.00    -0.248 NA
ATOM     55  C   UNL A   1      41.266  31.655  35.034  1.00  0.00     0.031 C 
ATOM     56  C   UNL A   1      43.495  29.237  30.991  1.00  0.00     0.029 A 
ATOM     57  C   UNL A   1      42.795  28.530  31.952  1.00  0.00     0.049 A 
ATOM     58  H   UNL A   1      41.782  26.697  31.776  1.00  0.00     0.167 HD
ATOM     59  C   UNL A   1      42.039  29.828  33.818  1.00  0.00     0.074 A 
ATOM     60  C   UNL A   1      42.038  30.556  35.075  1.00  0.00     0.031 C 
ATOM     61  C   UNL A   1      42.646  28.684  33.390  1.00  0.00     0.037 A 
BRANCH  48  62
ATOM     62  C   UNL A   1      42.555  25.798  27.947  1.00  0.00     0.058 A 
ATOM     63  C   UNL A   1      42.801  24.414  28.108  1.00  0.00     0.135 A 
ATOM     64  C   UNL A   1      42.977  26.324  26.708  1.00  0.00     0.135 A 
ATOM     65  F   UNL A   1      42.384  23.741  29.189  1.00  0.00    -0.206 F 
ATOM     66  C   UNL A   1      43.459  23.634  27.161  1.00  0.00     0.059 A 
ATOM     67  C   UNL A   1      43.658  25.563  25.746  1.00  0.00     0.059 A 
ATOM     68  F   UNL A   1      42.699  27.581  26.343  1.00  0.00    -0.206 F 
ATOM     69  C   UNL A   1      43.891  24.215  25.982  1.00  0.00     0.060 A 
BRANCH  69  70
ATOM     70  S   UNL A   1      44.687  23.163  24.758  1.00  0.00     0.124 S 
ATOM     71  O   UNL A   1      45.671  24.069  24.174  1.00  0.00    -0.237 OA
ATOM     72  O   UNL A   1      45.225  22.088  25.583  1.00  0.00    -0.237 OA
ATOM     73  O   UNL A   1      43.590  22.782  23.872  1.00  0.00    -0.744 OA
ENDBRANCH  69  70
ENDBRANCH  48  62
BRANCH  49  74
ATOM     74  C   UNL A   1      38.473  32.847  33.366  1.00  0.00     0.058 A 
ATOM     75  C   UNL A   1      37.988  34.150  33.590  1.00  0.00     0.135 A 
ATOM     76  C   UNL A   1      37.519  31.839  33.145  1.00  0.00     0.135 A 
ATOM     77  F   UNL A   1      38.844  35.160  33.813  1.00  0.00    -0.206 F 
ATOM     78  C   UNL A   1      36.638  34.463  33.468  1.00  0.00     0.059 A 
ATOM     79  C   UNL A   1      36.157  32.131  33.019  1.00  0.00     0.059 A 
ATOM     80  F   UNL A   1      37.905  30.572  32.936  1.00  0.00    -0.206 F 
ATOM     81  C   UNL A   1      35.735  33.453  33.140  1.00  0.00     0.060 A 
BRANCH  81  82
ATOM     82  S   UNL A   1      34.081  33.960  32.622  1.00  0.00     0.124 S 
ATOM     83  O   UNL A   1      33.223  33.036  33.352  1.00  0.00    -0.237 OA
ATOM     84  O   UNL A   1      34.070  35.340  33.095  1.00  0.00    -0.237 OA
ATOM     85  O   UNL A   1      34.109  33.791  31.171  1.00  0.00    -0.744 OA
ENDBRANCH  81  82
ENDBRANCH  49  74
BRANCH  61  86
ATOM     86  C   UNL A   1      43.245  27.639  34.288  1.00  0.00     0.058 A 
ATOM     87  C   UNL A   1      42.509  26.579  34.838  1.00  0.00     0.135 A 
ATOM     88  C   UNL A   1      44.644  27.594  34.514  1.00  0.00     0.135 A 
ATOM     89  F   UNL A   1      41.211  26.395  34.553  1.00  0.00    -0.206 F 
ATOM     90  C   UNL A   1      43.086  25.635  35.675  1.00  0.00     0.059 A 
ATOM     91  C   UNL A   1      45.255  26.605  35.268  1.00  0.00     0.059 A 
ATOM     92  F   UNL A   1      45.480  28.508  34.002  1.00  0.00    -0.206 F 
ATOM     93  C   UNL A   1      44.458  25.665  35.895  1.00  0.00     0.060 A 
BRANCH  93  94
ATOM     94  S   UNL A   1      45.194  24.469  37.009  1.00  0.00     0.124 S 
ATOM     95  O   UNL A   1      44.663  24.916  38.293  1.00  0.00    -0.237 OA
ATOM     96  O   UNL A   1      44.662  23.202  36.512  1.00  0.00    -0.237 OA
ATOM     97  O   UNL A   1      46.627  24.660  36.814  1.00  0.00    -0.744 OA
ENDBRANCH  93  94
ENDBRANCH  61  86
ENDBRANCH  35  36
ENDBRANCH  28  30
ENDBRANCH  27  28
ENDBRANCH  26  27
ENDBRANCH   1  26
TORSDOF 19
ENDMDL
MODEL 3
REMARK VINA RESULT:     -12.3      3.647      9.528
REMARK SMILES Cc1ccc(CN(CC(=O)OCCOC(=O)c2ccc(-c3c4nc(c(-c5c(F)cc(S(=O)(=O)[O-])cc5F)c5ccc([nH]5)c(-c5c(F)cc(S(=O)(=O)[O-])cc5F)c5nc(c(-c6c(F)cc(S(=O)(=O)[O-])cc6F)c6ccc3[nH]6)C=C5)C=C4)cc2)C(=O)c2cc3c(s2)CCOC3)cc1
REMARK SMILES IDX 12 1 11 2 9 3 10 4 8 5 7 6 6 7 5 8 1 9 2 10 3 11 95 12 4 13
REMARK SMILES IDX 94 14 83 15 84 16 85 17 86 18 89 19 87 20 88 21 93 22 90 23
REMARK SMILES IDX 92 24 91 25 13 26 14 27 15 28 16 29 17 30 18 31 82 32 19 33
REMARK SMILES IDX 81 34 20 35 21 36 22 37 75 38 23 39 80 40 74 41 76 42 24 43
REMARK SMILES IDX 79 44 73 45 72 46 25 48 59 49 38 50 58 51 39 52 42 53 57 54
REMARK SMILES IDX 77 55 40 56 41 57 56 59 78 60 43 61 26 62 27 63 36 64 28 65
REMARK SMILES IDX 29 66 35 67 37 68 30 69 31 70 32 71 33 72 34 73 60 74 61 75
REMARK SMILES IDX 70 76 62 77 63 78 69 79 71 80 64 81 65 82 66 83 67 84 68 85
REMARK SMILES IDX 44 86 45 87 54 88 46 89 47 90 53 91 55 92 48 93 49 94 50 95
REMARK SMILES IDX 51 96 52 97
REMARK H PARENT 76 47 42 58
REMARK Flexibility Score: inf
ROOT
ATOM      1  C   UNL A   1      35.659  21.787  24.353  1.00  0.00     0.274 C 
ENDROOT
BRANCH   1   2
ATOM      2  O   UNL A   1      35.145  23.095  24.126  1.00  0.00    -0.461 OA
BRANCH   2   3
ATOM      3  C   UNL A   1      33.870  23.173  23.654  1.00  0.00     0.325 C 
ATOM      4  O   UNL A   1      33.124  22.217  23.488  1.00  0.00    -0.250 OA
BRANCH   3   5
ATOM      5  C   UNL A   1      33.484  24.626  23.416  1.00  0.00     0.242 C 
BRANCH   5   6
ATOM      6  N   UNL A   1      32.243  24.869  24.142  1.00  0.00    -0.323 N 
BRANCH   6   7
ATOM      7  C   UNL A   1      32.385  24.844  25.593  1.00  0.00     0.156 C 
BRANCH   7   8
ATOM      8  C   UNL A   1      32.554  26.242  26.126  1.00  0.00    -0.029 A 
ATOM      9  C   UNL A   1      32.750  30.423  27.086  1.00  0.00     0.044 C 
ATOM     10  C   UNL A   1      32.709  28.947  26.839  1.00  0.00    -0.051 A 
ATOM     11  C   UNL A   1      33.809  28.312  26.256  1.00  0.00     0.004 A 
ATOM     12  C   UNL A   1      31.560  28.204  27.128  1.00  0.00     0.004 A 
ATOM     13  C   UNL A   1      33.737  26.966  25.912  1.00  0.00     0.006 A 
ATOM     14  C   UNL A   1      31.483  26.860  26.776  1.00  0.00     0.006 A 
ENDBRANCH   7   8
ENDBRANCH   6   7
BRANCH   6  15
ATOM     15  C   UNL A   1      30.950  24.914  23.581  1.00  0.00     0.264 C 
ATOM     16  O   UNL A   1      30.399  23.860  23.250  1.00  0.00    -0.268 OA
BRANCH  15  17
ATOM     17  C   UNL A   1      30.266  26.190  23.383  1.00  0.00     0.093 A 
ATOM     18  C   UNL A   1      29.030  26.612  23.858  1.00  0.00     0.032 A 
ATOM     19  S   UNL A   1      31.100  27.495  22.630  1.00  0.00    -0.135 S 
ATOM     20  C   UNL A   1      28.659  27.904  23.340  1.00  0.00    -0.008 A 
ATOM     21  C   UNL A   1      29.743  28.513  22.745  1.00  0.00     0.013 A 
ATOM     22  C   UNL A   1      27.279  28.518  23.208  1.00  0.00     0.196 C 
ATOM     23  C   UNL A   1      29.650  29.890  22.164  1.00  0.00     0.075 C 
ATOM     24  O   UNL A   1      27.322  29.922  22.855  1.00  0.00    -0.376 OA
ATOM     25  C   UNL A   1      28.198  30.126  21.721  1.00  0.00     0.166 C 
ENDBRANCH  15  17
ENDBRANCH   6  15
ENDBRANCH   5   6
ENDBRANCH   3   5
ENDBRANCH   2   3
ENDBRANCH   1   2
BRANCH   1  26
ATOM     26  C   UNL A   1      37.182  21.881  24.545  1.00  0.00     0.275 C 
BRANCH  26  27
ATOM     27  O   UNL A   1      37.758  22.873  25.455  1.00  0.00    -0.458 OA
BRANCH  27  28
ATOM     28  C   UNL A   1      38.965  22.750  26.048  1.00  0.00     0.338 C 
ATOM     29  O   UNL A   1      39.739  21.809  25.874  1.00  0.00    -0.246 OA
BRANCH  28  30
ATOM     30  C   UNL A   1      39.445  23.851  26.834  1.00  0.00     0.060 A 
ATOM     31  C   UNL A   1      40.075  23.570  28.071  1.00  0.00     0.016 A 
ATOM     32  C   UNL A   1      39.515  25.072  26.199  1.00  0.00     0.016 A 
ATOM     33  C   UNL A   1      40.850  24.531  28.656  1.00  0.00     0.010 A 
ATOM     34  C   UNL A   1      40.485  25.905  26.623  1.00  0.00     0.010 A 
ATOM     35  C   UNL A   1      41.028  25.677  27.901  1.00  0.00    -0.014 A 
BRANCH  35  36
ATOM     36  C   UNL A   1      41.456  26.921  28.471  1.00  0.00     0.031 A 
ATOM     37  C   UNL A   1      40.456  27.996  28.470  1.00  0.00     0.074 A 
ATOM     38  C   UNL A   1      42.604  26.678  29.152  1.00  0.00     0.049 A 
ATOM     39  N   UNL A   1      40.702  29.246  28.288  1.00  0.00    -0.248 NA
ATOM     40  C   UNL A   1      39.006  27.722  28.517  1.00  0.00     0.031 C 
ATOM     41  C   UNL A   1      43.186  27.288  30.327  1.00  0.00     0.029 A 
ATOM     42  N   UNL A   1      43.519  25.629  28.902  1.00  0.00    -0.354 N 
ATOM     43  C   UNL A   1      39.580  29.882  28.791  1.00  0.00     0.074 A 
ATOM     44  C   UNL A   1      38.497  28.957  28.585  1.00  0.00     0.031 C 
ATOM     45  C   UNL A   1      44.469  26.872  30.431  1.00  0.00     0.029 A 
ATOM     46  C   UNL A   1      44.781  26.076  29.244  1.00  0.00     0.049 A 
ATOM     47  H   UNL A   1      43.296  24.738  28.547  1.00  0.00     0.167 HD
ATOM     48  C   UNL A   1      39.753  30.838  29.755  1.00  0.00     0.037 A 
ATOM     49  C   UNL A   1      45.670  26.409  28.257  1.00  0.00     0.037 A 
ATOM     50  C   UNL A   1      41.172  30.879  30.127  1.00  0.00     0.049 A 
ATOM     51  C   UNL A   1      45.823  27.909  28.218  1.00  0.00     0.074 A 
ATOM     52  C   UNL A   1      41.848  30.364  31.220  1.00  0.00     0.029 A 
ATOM     53  N   UNL A   1      42.133  31.177  29.173  1.00  0.00    -0.354 N 
ATOM     54  N   UNL A   1      44.866  28.735  28.534  1.00  0.00    -0.248 NA
ATOM     55  C   UNL A   1      47.066  28.582  27.869  1.00  0.00     0.031 C 
ATOM     56  C   UNL A   1      43.235  30.371  30.916  1.00  0.00     0.029 A 
ATOM     57  C   UNL A   1      43.390  30.823  29.618  1.00  0.00     0.049 A 
ATOM     58  H   UNL A   1      41.944  31.588  28.298  1.00  0.00     0.167 HD
ATOM     59  C   UNL A   1      45.338  30.014  28.484  1.00  0.00     0.074 A 
ATOM     60  C   UNL A   1      46.720  29.865  28.063  1.00  0.00     0.031 C 
ATOM     61  C   UNL A   1      44.553  31.087  28.787  1.00  0.00     0.037 A 
BRANCH  48  62
ATOM     62  C   UNL A   1      38.687  31.470  30.632  1.00  0.00     0.058 A 
ATOM     63  C   UNL A   1      38.169  32.743  30.293  1.00  0.00     0.135 A 
ATOM     64  C   UNL A   1      38.090  30.883  31.767  1.00  0.00     0.135 A 
ATOM     65  F   UNL A   1      38.564  33.398  29.193  1.00  0.00    -0.206 F 
ATOM     66  C   UNL A   1      37.198  33.403  31.041  1.00  0.00     0.059 A 
ATOM     67  C   UNL A   1      37.123  31.535  32.547  1.00  0.00     0.059 A 
ATOM     68  F   UNL A   1      38.368  29.629  32.142  1.00  0.00    -0.206 F 
ATOM     69  C   UNL A   1      36.682  32.797  32.172  1.00  0.00     0.060 A 
BRANCH  69  70
ATOM     70  S   UNL A   1      35.387  33.656  33.080  1.00  0.00     0.124 S 
ATOM     71  O   UNL A   1      35.848  35.040  33.028  1.00  0.00    -0.237 OA
ATOM     72  O   UNL A   1      34.203  33.351  32.285  1.00  0.00    -0.237 OA
ATOM     73  O   UNL A   1      35.429  33.036  34.401  1.00  0.00    -0.744 OA
ENDBRANCH  69  70
ENDBRANCH  48  62
BRANCH  49  74
ATOM     74  C   UNL A   1      45.597  25.562  27.019  1.00  0.00     0.058 A 
ATOM     75  C   UNL A   1      46.359  24.378  26.969  1.00  0.00     0.135 A 
ATOM     76  C   UNL A   1      44.579  25.707  26.061  1.00  0.00     0.135 A 
ATOM     77  F   UNL A   1      47.351  24.176  27.851  1.00  0.00    -0.206 F 
ATOM     78  C   UNL A   1      46.042  23.337  26.103  1.00  0.00     0.059 A 
ATOM     79  C   UNL A   1      44.244  24.673  25.181  1.00  0.00     0.059 A 
ATOM     80  F   UNL A   1      43.820  26.812  26.039  1.00  0.00    -0.206 F 
ATOM     81  C   UNL A   1      44.955  23.478  25.242  1.00  0.00     0.060 A 
BRANCH  81  82
ATOM     82  S   UNL A   1      44.353  21.985  24.422  1.00  0.00     0.124 S 
ATOM     83  O   UNL A   1      45.331  20.984  24.826  1.00  0.00    -0.237 OA
ATOM     84  O   UNL A   1      43.035  21.863  25.035  1.00  0.00    -0.237 OA
ATOM     85  O   UNL A   1      44.359  22.346  23.007  1.00  0.00    -0.744 OA
ENDBRANCH  81  82
ENDBRANCH  49  74
BRANCH  61  86
ATOM     86  C   UNL A   1      44.855  32.509  28.407  1.00  0.00     0.058 A 
ATOM     87  C   UNL A   1      45.517  33.411  29.253  1.00  0.00     0.135 A 
ATOM     88  C   UNL A   1      44.602  32.976  27.093  1.00  0.00     0.135 A 
ATOM     89  F   UNL A   1      45.979  33.043  30.457  1.00  0.00    -0.206 F 
ATOM     90  C   UNL A   1      45.770  34.723  28.880  1.00  0.00     0.059 A 
ATOM     91  C   UNL A   1      44.934  34.253  26.668  1.00  0.00     0.059 A 
ATOM     92  F   UNL A   1      44.027  32.205  26.158  1.00  0.00    -0.206 F 
ATOM     93  C   UNL A   1      45.462  35.138  27.590  1.00  0.00     0.060 A 
BRANCH  93  94
ATOM     94  S   UNL A   1      45.754  36.845  27.125  1.00  0.00     0.124 S 
ATOM     95  O   UNL A   1      44.387  37.327  26.952  1.00  0.00    -0.237 OA
ATOM     96  O   UNL A   1      46.468  37.372  28.284  1.00  0.00    -0.237 OA
ATOM     97  O   UNL A   1      46.546  36.733  25.905  1.00  0.00    -0.744 OA
ENDBRANCH  93  94
ENDBRANCH  61  86
ENDBRANCH  35  36
ENDBRANCH  28  30
ENDBRANCH  27  28
ENDBRANCH  26  27
ENDBRANCH   1  26
TORSDOF 19
ENDMDL
