MODEL 1
REMARK VINA RESULT:     -12.4      0.000      0.000
REMARK SMILES CCn1ncc(NC(=O)[C@@H]2CCCC[C@@H]2C(=O)OCCOC(=O)c2ccc(-c3c4nc(c(-c5c(F)cc(S(=O)(=O)[O-])cc5F)c5ccc([nH]5)c(-c5c(F)cc(S(=O)(=O)[O-])cc5F)c5nc(c(-c6c(F)cc(S(=O)(=O)[O-])cc6F)c6ccc3[nH]6)C=C5)C=C4)cc2)c1C(=O)Nc1cnn(C)c1C
REMARK SMILES IDX 19 1 18 2 16 3 17 4 15 5 10 6 11 7 12 8 14 9 13 10 8 11 7 12
REMARK SMILES IDX 9 14 6 15 3 16 4 17 90 18 5 19 2 20 1 21 91 22 92 23 93 24
REMARK SMILES IDX 94 26 95 27 99 28 96 29 97 30 100 31 98 32 20 33 21 34 22 35
REMARK SMILES IDX 23 36 24 37 25 38 89 39 26 40 88 41 27 42 28 43 29 44 82 45
REMARK SMILES IDX 30 46 87 47 81 48 83 49 31 50 86 51 80 52 79 53 32 55 66 56
REMARK SMILES IDX 45 57 65 58 46 59 49 60 64 61 84 62 47 63 48 64 63 66 85 67
REMARK SMILES IDX 50 68 33 69 34 70 43 71 35 72 36 73 42 74 44 75 37 76 38 77
REMARK SMILES IDX 39 78 40 79 41 80 67 81 68 82 77 83 69 84 70 85 76 86 78 87
REMARK SMILES IDX 71 88 72 89 73 90 74 91 75 92 51 93 52 94 61 95 53 96 54 97
REMARK SMILES IDX 60 98 62 99 55 100 56 101 57 102 58 103 59 104
REMARK H PARENT 7 13 93 25 83 54 49 65
REMARK Flexibility Score: inf
ROOT
ATOM      1  C   UNL A   1      38.613  22.313  25.869  1.00  0.00     0.274 C 
ENDROOT
BRANCH   1   2
ATOM      2  O   UNL A   1      37.291  21.808  25.592  1.00  0.00    -0.462 OA
BRANCH   2   3
ATOM      3  C   UNL A   1      36.303  22.727  25.352  1.00  0.00     0.309 C 
ATOM      4  O   UNL A   1      36.367  23.907  25.673  1.00  0.00    -0.252 OA
BRANCH   3   5
ATOM      5  C   UNL A   1      35.074  22.045  24.747  1.00  0.00     0.111 C 
ATOM      6  C   UNL A   1      33.858  22.990  24.524  1.00  0.00     0.093 C 
ATOM      7  C   UNL A   1      33.477  23.655  25.821  1.00  0.00     0.014 C 
ATOM      8  C   UNL A   1      33.308  22.726  27.014  1.00  0.00     0.001 C 
ATOM      9  C   UNL A   1      34.620  20.958  25.748  1.00  0.00     0.016 C 
ATOM     10  C   UNL A   1      34.283  21.568  27.108  1.00  0.00     0.001 C 
BRANCH   6  11
ATOM     11  C   UNL A   1      33.902  23.800  23.220  1.00  0.00     0.228 C 
ATOM     12  N   UNL A   1      33.436  25.058  22.971  1.00  0.00    -0.322 N 
ATOM     13  H   UNL A   1      33.357  25.250  22.009  1.00  0.00     0.170 HD
ATOM     14  O   UNL A   1      34.388  23.231  22.228  1.00  0.00    -0.274 OA
BRANCH  12  15
ATOM     15  C   UNL A   1      33.048  26.128  23.764  1.00  0.00     0.092 A 
ATOM     16  N   UNL A   1      32.285  27.385  25.338  1.00  0.00    -0.258 N 
ATOM     17  N   UNL A   1      33.392  28.054  24.937  1.00  0.00    -0.178 NA
ATOM     18  C   UNL A   1      31.838  26.525  24.345  1.00  0.00     0.150 A 
ATOM     19  C   UNL A   1      33.898  27.238  24.012  1.00  0.00     0.162 A 
BRANCH  16  20
ATOM     20  C   UNL A   1      32.155  27.191  26.777  1.00  0.00     0.142 C 
ATOM     21  C   UNL A   1      31.633  28.416  27.504  1.00  0.00     0.029 C 
ENDBRANCH  16  20
BRANCH  18  22
ATOM     22  C   UNL A   1      30.477  26.156  23.967  1.00  0.00     0.276 C 
ATOM     23  O   UNL A   1      30.075  24.993  24.071  1.00  0.00    -0.267 OA
ATOM     24  N   UNL A   1      29.499  27.118  23.806  1.00  0.00    -0.318 N 
ATOM     25  H   UNL A   1      28.695  26.985  24.358  1.00  0.00     0.170 HD
BRANCH  24  26
ATOM     26  C   UNL A   1      29.463  28.229  23.003  1.00  0.00     0.082 A 
ATOM     27  C   UNL A   1      30.492  28.864  22.293  1.00  0.00     0.161 A 
ATOM     28  C   UNL A   1      28.313  28.937  22.697  1.00  0.00     0.059 A 
ATOM     29  N   UNL A   1      30.052  29.934  21.627  1.00  0.00    -0.179 NA
ATOM     30  N   UNL A   1      28.745  29.999  21.942  1.00  0.00    -0.271 N 
ATOM     31  C   UNL A   1      26.909  28.789  23.157  1.00  0.00     0.068 C 
ATOM     32  C   UNL A   1      28.005  31.179  21.555  1.00  0.00     0.174 C 
ENDBRANCH  24  26
ENDBRANCH  18  22
ENDBRANCH  12  15
ENDBRANCH   6  11
ENDBRANCH   3   5
ENDBRANCH   2   3
ENDBRANCH   1   2
BRANCH   1  33
ATOM     33  C   UNL A   1      39.636  21.219  26.173  1.00  0.00     0.275 C 
BRANCH  33  34
ATOM     34  O   UNL A   1      40.730  21.721  26.939  1.00  0.00    -0.458 OA
BRANCH  34  35
ATOM     35  C   UNL A   1      41.800  22.045  26.178  1.00  0.00     0.338 C 
ATOM     36  O   UNL A   1      42.388  21.314  25.398  1.00  0.00    -0.246 OA
BRANCH  35  37
ATOM     37  C   UNL A   1      42.199  23.434  26.403  1.00  0.00     0.060 A 
ATOM     38  C   UNL A   1      43.316  23.630  27.222  1.00  0.00     0.016 A 
ATOM     39  C   UNL A   1      41.359  24.485  26.029  1.00  0.00     0.016 A 
ATOM     40  C   UNL A   1      43.509  24.857  27.812  1.00  0.00     0.010 A 
ATOM     41  C   UNL A   1      41.549  25.717  26.624  1.00  0.00     0.010 A 
ATOM     42  C   UNL A   1      42.567  25.856  27.577  1.00  0.00    -0.014 A 
BRANCH  42  43
ATOM     43  C   UNL A   1      42.600  27.004  28.469  1.00  0.00     0.031 A 
ATOM     44  C   UNL A   1      43.777  27.905  28.343  1.00  0.00     0.074 A 
ATOM     45  C   UNL A   1      41.532  27.236  29.260  1.00  0.00     0.049 A 
ATOM     46  N   UNL A   1      44.499  28.439  29.277  1.00  0.00    -0.248 NA
ATOM     47  C   UNL A   1      44.263  28.187  26.981  1.00  0.00     0.031 C 
ATOM     48  C   UNL A   1      40.249  26.516  29.246  1.00  0.00     0.029 A 
ATOM     49  N   UNL A   1      41.295  28.262  30.119  1.00  0.00    -0.354 N 
ATOM     50  C   UNL A   1      45.399  29.283  28.626  1.00  0.00     0.074 A 
ATOM     51  C   UNL A   1      45.302  28.983  27.223  1.00  0.00     0.031 C 
ATOM     52  C   UNL A   1      39.308  27.289  29.823  1.00  0.00     0.029 A 
ATOM     53  C   UNL A   1      39.942  28.497  30.321  1.00  0.00     0.049 A 
ATOM     54  H   UNL A   1      42.008  28.783  30.554  1.00  0.00     0.167 HD
ATOM     55  C   UNL A   1      46.003  30.327  29.257  1.00  0.00     0.037 A 
ATOM     56  C   UNL A   1      39.379  29.671  30.697  1.00  0.00     0.037 A 
ATOM     57  C   UNL A   1      46.081  30.113  30.679  1.00  0.00     0.049 A 
ATOM     58  C   UNL A   1      40.444  30.496  31.328  1.00  0.00     0.074 A 
ATOM     59  C   UNL A   1      46.648  29.137  31.476  1.00  0.00     0.029 A 
ATOM     60  N   UNL A   1      45.253  30.829  31.509  1.00  0.00    -0.354 N 
ATOM     61  N   UNL A   1      41.044  30.196  32.449  1.00  0.00    -0.248 NA
ATOM     62  C   UNL A   1      41.153  31.448  30.485  1.00  0.00     0.031 C 
ATOM     63  C   UNL A   1      45.780  29.016  32.598  1.00  0.00     0.029 A 
ATOM     64  C   UNL A   1      44.750  29.940  32.425  1.00  0.00     0.049 A 
ATOM     65  H   UNL A   1      45.059  31.793  31.457  1.00  0.00     0.167 HD
ATOM     66  C   UNL A   1      42.363  30.593  32.272  1.00  0.00     0.074 A 
ATOM     67  C   UNL A   1      42.345  31.445  31.087  1.00  0.00     0.031 C 
ATOM     68  C   UNL A   1      43.392  29.976  32.925  1.00  0.00     0.037 A 
BRANCH  55  69
ATOM     69  C   UNL A   1      46.200  31.684  28.614  1.00  0.00     0.058 A 
ATOM     70  C   UNL A   1      45.096  32.344  28.035  1.00  0.00     0.135 A 
ATOM     71  C   UNL A   1      47.467  32.217  28.278  1.00  0.00     0.135 A 
ATOM     72  F   UNL A   1      43.842  31.938  28.295  1.00  0.00    -0.206 F 
ATOM     73  C   UNL A   1      45.243  33.371  27.102  1.00  0.00     0.059 A 
ATOM     74  C   UNL A   1      47.634  33.274  27.392  1.00  0.00     0.059 A 
ATOM     75  F   UNL A   1      48.613  31.677  28.705  1.00  0.00    -0.206 F 
ATOM     76  C   UNL A   1      46.521  33.804  26.762  1.00  0.00     0.060 A 
BRANCH  76  77
ATOM     77  S   UNL A   1      46.735  34.987  25.420  1.00  0.00     0.124 S 
ATOM     78  O   UNL A   1      45.664  34.587  24.515  1.00  0.00    -0.237 OA
ATOM     79  O   UNL A   1      46.551  36.263  26.105  1.00  0.00    -0.237 OA
ATOM     80  O   UNL A   1      48.092  34.723  24.953  1.00  0.00    -0.744 OA
ENDBRANCH  76  77
ENDBRANCH  55  69
BRANCH  56  81
ATOM     81  C   UNL A   1      38.114  30.230  30.144  1.00  0.00     0.058 A 
ATOM     82  C   UNL A   1      37.115  30.758  30.977  1.00  0.00     0.135 A 
ATOM     83  C   UNL A   1      37.941  30.452  28.759  1.00  0.00     0.135 A 
ATOM     84  F   UNL A   1      37.221  30.644  32.310  1.00  0.00    -0.206 F 
ATOM     85  C   UNL A   1      36.013  31.460  30.468  1.00  0.00     0.059 A 
ATOM     86  C   UNL A   1      36.842  31.119  28.228  1.00  0.00     0.059 A 
ATOM     87  F   UNL A   1      38.882  30.101  27.871  1.00  0.00    -0.206 F 
ATOM     88  C   UNL A   1      35.887  31.636  29.089  1.00  0.00     0.060 A 
BRANCH  88  89
ATOM     89  S   UNL A   1      34.528  32.625  28.425  1.00  0.00     0.124 S 
ATOM     90  O   UNL A   1      33.928  33.167  29.640  1.00  0.00    -0.237 OA
ATOM     91  O   UNL A   1      35.230  33.583  27.578  1.00  0.00    -0.237 OA
ATOM     92  O   UNL A   1      33.711  31.647  27.712  1.00  0.00    -0.744 OA
ENDBRANCH  88  89
ENDBRANCH  56  81
BRANCH  68  93
ATOM     93  C   UNL A   1      43.068  29.029  34.051  1.00  0.00     0.058 A 
ATOM     94  C   UNL A   1      42.751  27.673  33.853  1.00  0.00     0.135 A 
ATOM     95  C   UNL A   1      43.264  29.452  35.374  1.00  0.00     0.135 A 
ATOM     96  F   UNL A   1      42.667  27.162  32.619  1.00  0.00    -0.206 F 
ATOM     97  C   UNL A   1      42.593  26.789  34.919  1.00  0.00     0.059 A 
ATOM     98  C   UNL A   1      43.140  28.578  36.455  1.00  0.00     0.059 A 
ATOM     99  F   UNL A   1      43.641  30.716  35.629  1.00  0.00    -0.206 F 
ATOM    100  C   UNL A   1      42.792  27.249  36.218  1.00  0.00     0.060 A 
BRANCH 100 101
ATOM    101  S   UNL A   1      42.687  26.075  37.587  1.00  0.00     0.124 S 
ATOM    102  O   UNL A   1      41.258  26.076  37.883  1.00  0.00    -0.237 OA
ATOM    103  O   UNL A   1      43.210  24.846  36.997  1.00  0.00    -0.237 OA
ATOM    104  O   UNL A   1      43.537  26.671  38.615  1.00  0.00    -0.744 OA
ENDBRANCH 100 101
ENDBRANCH  68  93
ENDBRANCH  42  43
ENDBRANCH  35  37
ENDBRANCH  34  35
ENDBRANCH  33  34
ENDBRANCH   1  33
TORSDOF 19
ENDMDL
MODEL 2
REMARK VINA RESULT:     -12.1      1.268      2.153
REMARK SMILES CCn1ncc(NC(=O)[C@@H]2CCCC[C@@H]2C(=O)OCCOC(=O)c2ccc(-c3c4nc(c(-c5c(F)cc(S(=O)(=O)[O-])cc5F)c5ccc([nH]5)c(-c5c(F)cc(S(=O)(=O)[O-])cc5F)c5nc(c(-c6c(F)cc(S(=O)(=O)[O-])cc6F)c6ccc3[nH]6)C=C5)C=C4)cc2)c1C(=O)Nc1cnn(C)c1C
REMARK SMILES IDX 19 1 18 2 16 3 17 4 15 5 10 6 11 7 12 8 14 9 13 10 8 11 7 12
REMARK SMILES IDX 9 14 6 15 3 16 4 17 90 18 5 19 2 20 1 21 91 22 92 23 93 24
REMARK SMILES IDX 94 26 95 27 99 28 96 29 97 30 100 31 98 32 20 33 21 34 22 35
REMARK SMILES IDX 23 36 24 37 25 38 89 39 26 40 88 41 27 42 28 43 29 44 82 45
REMARK SMILES IDX 30 46 87 47 81 48 83 49 31 50 86 51 80 52 79 53 32 55 66 56
REMARK SMILES IDX 45 57 65 58 46 59 49 60 64 61 84 62 47 63 48 64 63 66 85 67
REMARK SMILES IDX 50 68 33 69 34 70 43 71 35 72 36 73 42 74 44 75 37 76 38 77
REMARK SMILES IDX 39 78 40 79 41 80 67 81 68 82 77 83 69 84 70 85 76 86 78 87
REMARK SMILES IDX 71 88 72 89 73 90 74 91 75 92 51 93 52 94 61 95 53 96 54 97
REMARK SMILES IDX 60 98 62 99 55 100 56 101 57 102 58 103 59 104
REMARK H PARENT 7 13 93 25 83 54 49 65
REMARK Flexibility Score: inf
ROOT
ATOM      1  C   UNL A   1      36.568  22.394  26.060  1.00  0.00     0.274 C 
ENDROOT
BRANCH   1   2
ATOM      2  O   UNL A   1      35.206  22.032  25.756  1.00  0.00    -0.462 OA
BRANCH   2   3
ATOM      3  C   UNL A   1      34.213  22.794  26.313  1.00  0.00     0.309 C 
ATOM      4  O   UNL A   1      34.035  22.921  27.519  1.00  0.00    -0.252 OA
BRANCH   3   5
ATOM      5  C   UNL A   1      33.293  23.353  25.225  1.00  0.00     0.111 C 
ATOM      6  C   UNL A   1      31.777  23.113  25.479  1.00  0.00     0.093 C 
ATOM      7  C   UNL A   1      31.510  21.641  25.654  1.00  0.00     0.014 C 
ATOM      8  C   UNL A   1      32.094  20.732  24.582  1.00  0.00     0.001 C 
ATOM      9  C   UNL A   1      33.650  22.624  23.911  1.00  0.00     0.016 C 
ATOM     10  C   UNL A   1      33.463  21.113  24.051  1.00  0.00     0.001 C 
BRANCH   6  11
ATOM     11  C   UNL A   1      31.107  24.139  26.405  1.00  0.00     0.228 C 
ATOM     12  N   UNL A   1      31.382  25.465  26.562  1.00  0.00    -0.322 N 
ATOM     13  H   UNL A   1      30.992  25.839  27.386  1.00  0.00     0.170 HD
ATOM     14  O   UNL A   1      30.216  23.710  27.158  1.00  0.00    -0.274 OA
BRANCH  12  15
ATOM     15  C   UNL A   1      32.086  26.409  25.829  1.00  0.00     0.092 A 
ATOM     16  N   UNL A   1      32.690  28.136  24.692  1.00  0.00    -0.258 N 
ATOM     17  N   UNL A   1      33.768  27.909  25.479  1.00  0.00    -0.178 NA
ATOM     18  C   UNL A   1      31.917  26.991  24.567  1.00  0.00     0.150 A 
ATOM     19  C   UNL A   1      33.363  26.884  26.228  1.00  0.00     0.162 A 
BRANCH  16  20
ATOM     20  C   UNL A   1      32.212  29.513  24.664  1.00  0.00     0.142 C 
ATOM     21  C   UNL A   1      31.774  30.026  26.023  1.00  0.00     0.029 C 
ENDBRANCH  16  20
BRANCH  18  22
ATOM     22  C   UNL A   1      31.162  26.489  23.423  1.00  0.00     0.276 C 
ATOM     23  O   UNL A   1      31.405  25.384  22.929  1.00  0.00    -0.267 OA
ATOM     24  N   UNL A   1      29.954  27.055  23.065  1.00  0.00    -0.318 N 
ATOM     25  H   UNL A   1      29.200  26.423  23.024  1.00  0.00     0.170 HD
BRANCH  24  26
ATOM     26  C   UNL A   1      29.630  28.351  22.760  1.00  0.00     0.082 A 
ATOM     27  C   UNL A   1      30.411  29.366  22.187  1.00  0.00     0.161 A 
ATOM     28  C   UNL A   1      28.374  28.907  22.932  1.00  0.00     0.059 A 
ATOM     29  N   UNL A   1      29.729  30.507  22.055  1.00  0.00    -0.179 NA
ATOM     30  N   UNL A   1      28.520  30.225  22.576  1.00  0.00    -0.271 N 
ATOM     31  C   UNL A   1      27.124  28.362  23.521  1.00  0.00     0.068 C 
ATOM     32  C   UNL A   1      27.596  31.316  22.789  1.00  0.00     0.174 C 
ENDBRANCH  24  26
ENDBRANCH  18  22
ENDBRANCH  12  15
ENDBRANCH   6  11
ENDBRANCH   3   5
ENDBRANCH   2   3
ENDBRANCH   1   2
BRANCH   1  33
ATOM     33  C   UNL A   1      37.576  21.280  25.776  1.00  0.00     0.275 C 
BRANCH  33  34
ATOM     34  O   UNL A   1      38.847  21.807  25.398  1.00  0.00    -0.458 OA
BRANCH  34  35
ATOM     35  C   UNL A   1      39.728  21.842  26.424  1.00  0.00     0.338 C 
ATOM     36  O   UNL A   1      39.957  20.945  27.219  1.00  0.00    -0.246 OA
BRANCH  35  37
ATOM     37  C   UNL A   1      40.407  23.136  26.485  1.00  0.00     0.060 A 
ATOM     38  C   UNL A   1      41.644  23.155  27.138  1.00  0.00     0.016 A 
ATOM     39  C   UNL A   1      39.733  24.309  26.137  1.00  0.00     0.016 A 
ATOM     40  C   UNL A   1      42.142  24.351  27.598  1.00  0.00     0.010 A 
ATOM     41  C   UNL A   1      40.230  25.510  26.602  1.00  0.00     0.010 A 
ATOM     42  C   UNL A   1      41.379  25.500  27.404  1.00  0.00    -0.014 A 
BRANCH  42  43
ATOM     43  C   UNL A   1      41.749  26.667  28.189  1.00  0.00     0.031 A 
ATOM     44  C   UNL A   1      42.996  27.369  27.783  1.00  0.00     0.074 A 
ATOM     45  C   UNL A   1      40.899  27.095  29.145  1.00  0.00     0.049 A 
ATOM     46  N   UNL A   1      43.954  27.824  28.526  1.00  0.00    -0.248 NA
ATOM     47  C   UNL A   1      43.244  27.512  26.337  1.00  0.00     0.031 C 
ATOM     48  C   UNL A   1      39.548  26.582  29.421  1.00  0.00     0.029 A 
ATOM     49  N   UNL A   1      40.983  28.182  29.958  1.00  0.00    -0.354 N 
ATOM     50  C   UNL A   1      44.822  28.490  27.660  1.00  0.00     0.074 A 
ATOM     51  C   UNL A   1      44.413  28.148  26.325  1.00  0.00     0.031 C 
ATOM     52  C   UNL A   1      38.858  27.516  30.106  1.00  0.00     0.029 A 
ATOM     53  C   UNL A   1      39.743  28.632  30.389  1.00  0.00     0.049 A 
ATOM     54  H   UNL A   1      41.834  28.604  30.214  1.00  0.00     0.167 HD
ATOM     55  C   UNL A   1      45.681  29.454  28.092  1.00  0.00     0.037 A 
ATOM     56  C   UNL A   1      39.438  29.894  30.778  1.00  0.00     0.037 A 
ATOM     57  C   UNL A   1      46.002  29.293  29.486  1.00  0.00     0.049 A 
ATOM     58  C   UNL A   1      40.713  30.571  31.139  1.00  0.00     0.074 A 
ATOM     59  C   UNL A   1      46.567  28.276  30.233  1.00  0.00     0.029 A 
ATOM     60  N   UNL A   1      45.462  30.163  30.401  1.00  0.00    -0.354 N 
ATOM     61  N   UNL A   1      41.469  30.231  32.148  1.00  0.00    -0.248 NA
ATOM     62  C   UNL A   1      41.373  31.364  30.113  1.00  0.00     0.031 C 
ATOM     63  C   UNL A   1      45.924  28.339  31.501  1.00  0.00     0.029 A 
ATOM     64  C   UNL A   1      45.024  29.404  31.456  1.00  0.00     0.049 A 
ATOM     65  H   UNL A   1      45.402  31.142  30.317  1.00  0.00     0.167 HD
ATOM     66  C   UNL A   1      42.772  30.410  31.701  1.00  0.00     0.074 A 
ATOM     67  C   UNL A   1      42.646  31.203  30.482  1.00  0.00     0.031 C 
ATOM     68  C   UNL A   1      43.809  29.671  32.196  1.00  0.00     0.037 A 
BRANCH  55  69
ATOM     69  C   UNL A   1      45.942  30.736  27.327  1.00  0.00     0.058 A 
ATOM     70  C   UNL A   1      47.270  31.171  27.138  1.00  0.00     0.135 A 
ATOM     71  C   UNL A   1      44.943  31.698  27.043  1.00  0.00     0.135 A 
ATOM     72  F   UNL A   1      48.302  30.341  27.360  1.00  0.00    -0.206 F 
ATOM     73  C   UNL A   1      47.584  32.492  26.811  1.00  0.00     0.059 A 
ATOM     74  C   UNL A   1      45.234  33.003  26.665  1.00  0.00     0.059 A 
ATOM     75  F   UNL A   1      43.639  31.457  27.219  1.00  0.00    -0.206 F 
ATOM     76  C   UNL A   1      46.556  33.407  26.611  1.00  0.00     0.060 A 
BRANCH  76  77
ATOM     77  S   UNL A   1      46.946  35.151  26.384  1.00  0.00     0.124 S 
ATOM     78  O   UNL A   1      47.707  35.113  25.141  1.00  0.00    -0.237 OA
ATOM     79  O   UNL A   1      45.619  35.754  26.304  1.00  0.00    -0.237 OA
ATOM     80  O   UNL A   1      47.708  35.483  27.583  1.00  0.00    -0.744 OA
ENDBRANCH  76  77
ENDBRANCH  55  69
BRANCH  56  81
ATOM     81  C   UNL A   1      38.183  30.617  30.430  1.00  0.00     0.058 A 
ATOM     82  C   UNL A   1      37.422  31.282  31.403  1.00  0.00     0.135 A 
ATOM     83  C   UNL A   1      37.808  30.853  29.087  1.00  0.00     0.135 A 
ATOM     84  F   UNL A   1      37.737  31.162  32.702  1.00  0.00    -0.206 F 
ATOM     85  C   UNL A   1      36.353  32.125  31.067  1.00  0.00     0.059 A 
ATOM     86  C   UNL A   1      36.733  31.661  28.730  1.00  0.00     0.059 A 
ATOM     87  F   UNL A   1      38.528  30.371  28.064  1.00  0.00    -0.206 F 
ATOM     88  C   UNL A   1      36.018  32.309  29.725  1.00  0.00     0.060 A 
BRANCH  88  89
ATOM     89  S   UNL A   1      34.710  33.470  29.271  1.00  0.00     0.124 S 
ATOM     90  O   UNL A   1      35.474  34.595  28.742  1.00  0.00    -0.237 OA
ATOM     91  O   UNL A   1      33.942  32.705  28.295  1.00  0.00    -0.237 OA
ATOM     92  O   UNL A   1      34.026  33.725  30.537  1.00  0.00    -0.744 OA
ENDBRANCH  88  89
ENDBRANCH  56  81
BRANCH  68  93
ATOM     93  C   UNL A   1      43.576  28.835  33.428  1.00  0.00     0.058 A 
ATOM     94  C   UNL A   1      43.759  29.319  34.735  1.00  0.00     0.135 A 
ATOM     95  C   UNL A   1      42.975  27.575  33.291  1.00  0.00     0.135 A 
ATOM     96  F   UNL A   1      44.214  30.559  34.950  1.00  0.00    -0.206 F 
ATOM     97  C   UNL A   1      43.403  28.570  35.855  1.00  0.00     0.059 A 
ATOM     98  C   UNL A   1      42.582  26.821  34.397  1.00  0.00     0.059 A 
ATOM     99  F   UNL A   1      42.704  27.086  32.070  1.00  0.00    -0.206 F 
ATOM    100  C   UNL A   1      42.812  27.321  35.678  1.00  0.00     0.060 A 
BRANCH 100 101
ATOM    101  S   UNL A   1      42.258  26.402  37.131  1.00  0.00     0.124 S 
ATOM    102  O   UNL A   1      43.233  26.805  38.139  1.00  0.00    -0.237 OA
ATOM    103  O   UNL A   1      40.900  26.899  37.328  1.00  0.00    -0.237 OA
ATOM    104  O   UNL A   1      42.343  25.007  36.705  1.00  0.00    -0.744 OA
ENDBRANCH 100 101
ENDBRANCH  68  93
ENDBRANCH  42  43
ENDBRANCH  35  37
ENDBRANCH  34  35
ENDBRANCH  33  34
ENDBRANCH   1  33
TORSDOF 19
ENDMDL
MODEL 3
REMARK VINA RESULT:     -12.1      2.751      9.180
REMARK SMILES CCn1ncc(NC(=O)[C@@H]2CCCC[C@@H]2C(=O)OCCOC(=O)c2ccc(-c3c4nc(c(-c5c(F)cc(S(=O)(=O)[O-])cc5F)c5ccc([nH]5)c(-c5c(F)cc(S(=O)(=O)[O-])cc5F)c5nc(c(-c6c(F)cc(S(=O)(=O)[O-])cc6F)c6ccc3[nH]6)C=C5)C=C4)cc2)c1C(=O)Nc1cnn(C)c1C
REMARK SMILES IDX 19 1 18 2 16 3 17 4 15 5 10 6 11 7 12 8 14 9 13 10 8 11 7 12
REMARK SMILES IDX 9 14 6 15 3 16 4 17 90 18 5 19 2 20 1 21 91 22 92 23 93 24
REMARK SMILES IDX 94 26 95 27 99 28 96 29 97 30 100 31 98 32 20 33 21 34 22 35
REMARK SMILES IDX 23 36 24 37 25 38 89 39 26 40 88 41 27 42 28 43 29 44 82 45
REMARK SMILES IDX 30 46 87 47 81 48 83 49 31 50 86 51 80 52 79 53 32 55 66 56
REMARK SMILES IDX 45 57 65 58 46 59 49 60 64 61 84 62 47 63 48 64 63 66 85 67
REMARK SMILES IDX 50 68 33 69 34 70 43 71 35 72 36 73 42 74 44 75 37 76 38 77
REMARK SMILES IDX 39 78 40 79 41 80 67 81 68 82 77 83 69 84 70 85 76 86 78 87
REMARK SMILES IDX 71 88 72 89 73 90 74 91 75 92 51 93 52 94 61 95 53 96 54 97
REMARK SMILES IDX 60 98 62 99 55 100 56 101 57 102 58 103 59 104
REMARK H PARENT 7 13 93 25 83 54 49 65
REMARK Flexibility Score: inf
ROOT
ATOM      1  C   UNL A   1      31.722  30.148  26.979  1.00  0.00     0.274 C 
ENDROOT
BRANCH   1   2
ATOM      2  O   UNL A   1      31.573  29.285  25.833  1.00  0.00    -0.462 OA
BRANCH   2   3
ATOM      3  C   UNL A   1      31.880  27.960  25.999  1.00  0.00     0.309 C 
ATOM      4  O   UNL A   1      32.755  27.544  26.748  1.00  0.00    -0.252 OA
BRANCH   3   5
ATOM      5  C   UNL A   1      31.068  27.097  25.030  1.00  0.00     0.111 C 
ATOM      6  C   UNL A   1      31.441  25.587  25.046  1.00  0.00     0.093 C 
ATOM      7  C   UNL A   1      32.910  25.415  24.762  1.00  0.00     0.014 C 
ATOM      8  C   UNL A   1      33.436  26.153  23.539  1.00  0.00     0.001 C 
ATOM      9  C   UNL A   1      31.362  27.617  23.605  1.00  0.00     0.016 C 
ATOM     10  C   UNL A   1      32.854  27.530  23.283  1.00  0.00     0.001 C 
BRANCH   6  11
ATOM     11  C   UNL A   1      30.764  24.768  26.155  1.00  0.00     0.228 C 
ATOM     12  N   UNL A   1      31.132  23.566  26.684  1.00  0.00    -0.322 N 
ATOM     13  H   UNL A   1      30.406  23.137  27.194  1.00  0.00     0.170 HD
ATOM     14  O   UNL A   1      29.707  25.227  26.620  1.00  0.00    -0.274 OA
BRANCH  12  15
ATOM     15  C   UNL A   1      32.293  22.807  26.667  1.00  0.00     0.092 A 
ATOM     16  N   UNL A   1      34.237  21.984  26.239  1.00  0.00    -0.258 N 
ATOM     17  N   UNL A   1      34.168  21.891  27.588  1.00  0.00    -0.178 NA
ATOM     18  C   UNL A   1      32.969  22.077  25.683  1.00  0.00     0.150 A 
ATOM     19  C   UNL A   1      32.995  22.465  27.853  1.00  0.00     0.162 A 
BRANCH  16  20
ATOM     20  C   UNL A   1      35.462  22.574  25.712  1.00  0.00     0.142 C 
ATOM     21  C   UNL A   1      36.040  21.809  24.536  1.00  0.00     0.029 C 
ENDBRANCH  16  20
BRANCH  18  22
ATOM     22  C   UNL A   1      32.452  21.530  24.432  1.00  0.00     0.276 C 
ATOM     23  O   UNL A   1      31.886  22.250  23.603  1.00  0.00    -0.267 OA
ATOM     24  N   UNL A   1      32.859  20.292  23.975  1.00  0.00    -0.318 N 
ATOM     25  H   UNL A   1      33.243  20.294  23.069  1.00  0.00     0.170 HD
BRANCH  24  26
ATOM     26  C   UNL A   1      32.817  19.061  24.576  1.00  0.00     0.082 A 
ATOM     27  C   UNL A   1      32.716  18.721  25.933  1.00  0.00     0.161 A 
ATOM     28  C   UNL A   1      32.819  17.856  23.894  1.00  0.00     0.059 A 
ATOM     29  N   UNL A   1      32.714  17.398  26.118  1.00  0.00    -0.179 NA
ATOM     30  N   UNL A   1      32.847  16.896  24.875  1.00  0.00    -0.271 N 
ATOM     31  C   UNL A   1      32.941  17.538  22.449  1.00  0.00     0.068 C 
ATOM     32  C   UNL A   1      33.098  15.480  24.733  1.00  0.00     0.174 C 
ENDBRANCH  24  26
ENDBRANCH  18  22
ENDBRANCH  12  15
ENDBRANCH   6  11
ENDBRANCH   3   5
ENDBRANCH   2   3
ENDBRANCH   1   2
BRANCH   1  33
ATOM     33  C   UNL A   1      32.878  31.140  26.852  1.00  0.00     0.275 C 
BRANCH  33  34
ATOM     34  O   UNL A   1      33.993  30.751  27.653  1.00  0.00    -0.458 OA
BRANCH  34  35
ATOM     35  C   UNL A   1      34.658  31.807  28.176  1.00  0.00     0.338 C 
ATOM     36  O   UNL A   1      34.434  32.987  27.963  1.00  0.00    -0.246 OA
BRANCH  35  37
ATOM     37  C   UNL A   1      35.732  31.360  29.062  1.00  0.00     0.060 A 
ATOM     38  C   UNL A   1      36.696  32.316  29.396  1.00  0.00     0.016 A 
ATOM     39  C   UNL A   1      35.907  30.002  29.338  1.00  0.00     0.016 A 
ATOM     40  C   UNL A   1      37.921  31.901  29.861  1.00  0.00     0.010 A 
ATOM     41  C   UNL A   1      37.138  29.583  29.802  1.00  0.00     0.010 A 
ATOM     42  C   UNL A   1      38.156  30.532  29.968  1.00  0.00    -0.014 A 
BRANCH  42  43
ATOM     43  C   UNL A   1      39.541  30.119  30.121  1.00  0.00     0.031 A 
ATOM     44  C   UNL A   1      40.098  30.169  31.500  1.00  0.00     0.074 A 
ATOM     45  C   UNL A   1      40.188  29.622  29.047  1.00  0.00     0.049 A 
ATOM     46  N   UNL A   1      41.246  30.615  31.901  1.00  0.00    -0.248 NA
ATOM     47  C   UNL A   1      39.214  29.732  32.596  1.00  0.00     0.031 C 
ATOM     48  C   UNL A   1      39.610  29.327  27.726  1.00  0.00     0.029 A 
ATOM     49  N   UNL A   1      41.445  29.115  28.948  1.00  0.00    -0.354 N 
ATOM     50  C   UNL A   1      41.311  30.326  33.264  1.00  0.00     0.074 A 
ATOM     51  C   UNL A   1      39.991  29.916  33.660  1.00  0.00     0.031 C 
ATOM     52  C   UNL A   1      40.410  28.452  27.085  1.00  0.00     0.029 A 
ATOM     53  C   UNL A   1      41.582  28.208  27.906  1.00  0.00     0.049 A 
ATOM     54  H   UNL A   1      42.181  29.366  29.552  1.00  0.00     0.167 HD
ATOM     55  C   UNL A   1      42.494  30.230  33.930  1.00  0.00     0.037 A 
ATOM     56  C   UNL A   1      42.495  27.209  27.827  1.00  0.00     0.037 A 
ATOM     57  C   UNL A   1      43.531  30.988  33.282  1.00  0.00     0.049 A 
ATOM     58  C   UNL A   1      43.606  27.544  28.758  1.00  0.00     0.074 A 
ATOM     59  C   UNL A   1      43.684  32.320  32.946  1.00  0.00     0.029 A 
ATOM     60  N   UNL A   1      44.516  30.321  32.595  1.00  0.00    -0.354 N 
ATOM     61  N   UNL A   1      44.413  28.560  28.609  1.00  0.00    -0.248 NA
ATOM     62  C   UNL A   1      43.555  26.989  30.102  1.00  0.00     0.031 C 
ATOM     63  C   UNL A   1      44.419  32.318  31.727  1.00  0.00     0.029 A 
ATOM     64  C   UNL A   1      44.688  30.987  31.407  1.00  0.00     0.049 A 
ATOM     65  H   UNL A   1      45.005  29.522  32.896  1.00  0.00     0.167 HD
ATOM     66  C   UNL A   1      44.654  29.023  29.896  1.00  0.00     0.074 A 
ATOM     67  C   UNL A   1      44.183  27.957  30.774  1.00  0.00     0.031 C 
ATOM     68  C   UNL A   1      44.952  30.333  30.144  1.00  0.00     0.037 A 
BRANCH  55  69
ATOM     69  C   UNL A   1      42.776  29.164  34.969  1.00  0.00     0.058 A 
ATOM     70  C   UNL A   1      43.381  29.529  36.190  1.00  0.00     0.135 A 
ATOM     71  C   UNL A   1      42.758  27.775  34.695  1.00  0.00     0.135 A 
ATOM     72  F   UNL A   1      43.443  30.816  36.566  1.00  0.00    -0.206 F 
ATOM     73  C   UNL A   1      44.024  28.602  37.013  1.00  0.00     0.059 A 
ATOM     74  C   UNL A   1      43.346  26.830  35.526  1.00  0.00     0.059 A 
ATOM     75  F   UNL A   1      42.265  27.271  33.558  1.00  0.00    -0.206 F 
ATOM     76  C   UNL A   1      44.029  27.258  36.651  1.00  0.00     0.060 A 
BRANCH  76  77
ATOM     77  S   UNL A   1      45.018  26.085  37.594  1.00  0.00     0.124 S 
ATOM     78  O   UNL A   1      46.360  26.391  37.113  1.00  0.00    -0.237 OA
ATOM     79  O   UNL A   1      44.726  26.475  38.971  1.00  0.00    -0.237 OA
ATOM     80  O   UNL A   1      44.479  24.791  37.189  1.00  0.00    -0.744 OA
ENDBRANCH  76  77
ENDBRANCH  55  69
BRANCH  56  81
ATOM     81  C   UNL A   1      42.218  25.835  27.325  1.00  0.00     0.058 A 
ATOM     82  C   UNL A   1      43.052  25.212  26.383  1.00  0.00     0.135 A 
ATOM     83  C   UNL A   1      41.235  25.009  27.918  1.00  0.00     0.135 A 
ATOM     84  F   UNL A   1      44.048  25.901  25.807  1.00  0.00    -0.206 F 
ATOM     85  C   UNL A   1      42.918  23.856  26.049  1.00  0.00     0.059 A 
ATOM     86  C   UNL A   1      41.063  23.670  27.581  1.00  0.00     0.059 A 
ATOM     87  F   UNL A   1      40.456  25.454  28.914  1.00  0.00    -0.206 F 
ATOM     88  C   UNL A   1      41.919  23.093  26.656  1.00  0.00     0.060 A 
BRANCH  88  89
ATOM     89  S   UNL A   1      41.800  21.324  26.312  1.00  0.00     0.124 S 
ATOM     90  O   UNL A   1      40.405  21.188  25.906  1.00  0.00    -0.237 OA
ATOM     91  O   UNL A   1      42.792  21.147  25.257  1.00  0.00    -0.237 OA
ATOM     92  O   UNL A   1      42.137  20.704  27.591  1.00  0.00    -0.744 OA
ENDBRANCH  88  89
ENDBRANCH  56  81
BRANCH  68  93
ATOM     93  C   UNL A   1      45.281  31.232  28.980  1.00  0.00     0.058 A 
ATOM     94  C   UNL A   1      44.310  31.957  28.267  1.00  0.00     0.135 A 
ATOM     95  C   UNL A   1      46.625  31.513  28.696  1.00  0.00     0.135 A 
ATOM     96  F   UNL A   1      43.010  31.838  28.561  1.00  0.00    -0.206 F 
ATOM     97  C   UNL A   1      44.657  32.886  27.287  1.00  0.00     0.059 A 
ATOM     98  C   UNL A   1      46.996  32.460  27.741  1.00  0.00     0.059 A 
ATOM     99  F   UNL A   1      47.602  30.909  29.393  1.00  0.00    -0.206 F 
ATOM    100  C   UNL A   1      46.003  33.134  27.031  1.00  0.00     0.060 A 
BRANCH 100 101
ATOM    101  S   UNL A   1      46.445  34.413  25.835  1.00  0.00     0.124 S 
ATOM    102  O   UNL A   1      45.517  34.144  24.741  1.00  0.00    -0.237 OA
ATOM    103  O   UNL A   1      46.207  35.646  26.579  1.00  0.00    -0.237 OA
ATOM    104  O   UNL A   1      47.850  34.137  25.542  1.00  0.00    -0.744 OA
ENDBRANCH 100 101
ENDBRANCH  68  93
ENDBRANCH  42  43
ENDBRANCH  35  37
ENDBRANCH  34  35
ENDBRANCH  33  34
ENDBRANCH   1  33
TORSDOF 19
ENDMDL
