MODEL 1
REMARK VINA RESULT:     -10.4      0.000      0.000
REMARK SMILES CCCC[C@H](C(=O)OCCOC(=O)c1ccc(-c2c3nc(c(-c4c(F)cc(S(=O)(=O)[O-])cc4F)c4ccc([nH]4)c(-c4c(F)cc(S(=O)(=O)[O-])cc4F)c4nc(c(-c5c(F)cc(S(=O)(=O)[O-])cc5F)c5ccc2[nH]5)C=C4)C=C3)cc1)c1ccnn1C
REMARK SMILES IDX 9 1 8 2 6 3 7 4 5 5 4 6 3 7 2 8 1 9 80 10 81 11 84 12 82 13
REMARK SMILES IDX 83 14 85 15 10 16 11 17 12 18 13 19 14 20 15 21 79 22 16 23
REMARK SMILES IDX 78 24 17 25 18 26 19 27 72 28 20 29 77 30 71 31 73 32 21 33
REMARK SMILES IDX 76 34 70 35 69 36 22 38 56 39 35 40 55 41 36 42 39 43 54 44
REMARK SMILES IDX 74 45 37 46 38 47 53 49 75 50 40 51 23 52 24 53 33 54 25 55
REMARK SMILES IDX 26 56 32 57 34 58 27 59 28 60 29 61 30 62 31 63 57 64 58 65
REMARK SMILES IDX 67 66 59 67 60 68 66 69 68 70 61 71 62 72 63 73 64 74 65 75
REMARK SMILES IDX 41 76 42 77 51 78 43 79 44 80 50 81 52 82 45 83 46 84 47 85
REMARK SMILES IDX 48 86 49 87
REMARK H PARENT 73 37 39 48
REMARK Flexibility Score: inf
ROOT
ATOM      1  C   UNL A   1      36.072  21.414  25.715  1.00  0.00     0.274 C 
ENDROOT
BRANCH   1   2
ATOM      2  O   UNL A   1      35.092  20.896  24.794  1.00  0.00    -0.462 OA
BRANCH   2   3
ATOM      3  C   UNL A   1      34.179  21.802  24.334  1.00  0.00     0.315 C 
ATOM      4  O   UNL A   1      34.485  22.859  23.794  1.00  0.00    -0.251 OA
BRANCH   3   5
ATOM      5  C   UNL A   1      32.727  21.393  24.652  1.00  0.00     0.148 C 
BRANCH   5   6
ATOM      6  C   UNL A   1      32.707  19.905  25.038  1.00  0.00     0.022 C 
BRANCH   6   7
ATOM      7  C   UNL A   1      32.610  18.911  23.879  1.00  0.00     0.001 C 
BRANCH   7   8
ATOM      8  C   UNL A   1      33.097  17.496  24.202  1.00  0.00    -0.003 C 
ATOM      9  C   UNL A   1      34.041  16.923  23.155  1.00  0.00     0.004 C 
ENDBRANCH   7   8
ENDBRANCH   6   7
ENDBRANCH   5   6
BRANCH   5  10
ATOM     10  C   UNL A   1      32.051  22.396  25.580  1.00  0.00     0.052 A 
ATOM     11  C   UNL A   1      30.976  23.208  25.227  1.00  0.00     0.046 A 
ATOM     12  N   UNL A   1      32.292  22.717  26.905  1.00  0.00    -0.272 N 
ATOM     13  C   UNL A   1      30.659  23.960  26.358  1.00  0.00     0.135 A 
ATOM     14  N   UNL A   1      31.433  23.642  27.387  1.00  0.00    -0.182 NA
ATOM     15  C   UNL A   1      33.237  22.221  27.877  1.00  0.00     0.174 C 
ENDBRANCH   5  10
ENDBRANCH   3   5
ENDBRANCH   2   3
ENDBRANCH   1   2
BRANCH   1  16
ATOM     16  C   UNL A   1      37.357  21.785  24.981  1.00  0.00     0.275 C 
BRANCH  16  17
ATOM     17  O   UNL A   1      37.871  23.017  25.509  1.00  0.00    -0.458 OA
BRANCH  17  18
ATOM     18  C   UNL A   1      39.105  22.955  26.056  1.00  0.00     0.338 C 
ATOM     19  O   UNL A   1      39.866  21.998  26.041  1.00  0.00    -0.246 OA
BRANCH  18  20
ATOM     20  C   UNL A   1      39.404  24.222  26.752  1.00  0.00     0.060 A 
ATOM     21  C   UNL A   1      40.210  25.203  26.170  1.00  0.00     0.016 A 
ATOM     22  C   UNL A   1      38.915  24.404  28.043  1.00  0.00     0.016 A 
ATOM     23  C   UNL A   1      40.583  26.335  26.899  1.00  0.00     0.010 A 
ATOM     24  C   UNL A   1      39.218  25.575  28.739  1.00  0.00     0.010 A 
ATOM     25  C   UNL A   1      40.080  26.543  28.188  1.00  0.00    -0.014 A 
BRANCH  25  26
ATOM     26  C   UNL A   1      40.452  27.731  29.005  1.00  0.00     0.031 A 
ATOM     27  C   UNL A   1      41.696  27.676  29.852  1.00  0.00     0.074 A 
ATOM     28  C   UNL A   1      39.660  28.820  29.052  1.00  0.00     0.049 A 
ATOM     29  N   UNL A   1      42.028  28.404  30.883  1.00  0.00    -0.248 NA
ATOM     30  C   UNL A   1      42.684  26.643  29.499  1.00  0.00     0.031 C 
ATOM     31  C   UNL A   1      38.465  29.047  28.238  1.00  0.00     0.029 A 
ATOM     32  N   UNL A   1      39.731  29.937  29.852  1.00  0.00    -0.354 N 
ATOM     33  C   UNL A   1      43.223  27.871  31.354  1.00  0.00     0.074 A 
ATOM     34  C   UNL A   1      43.567  26.769  30.482  1.00  0.00     0.031 C 
ATOM     35  C   UNL A   1      37.916  30.223  28.577  1.00  0.00     0.029 A 
ATOM     36  C   UNL A   1      38.660  30.788  29.698  1.00  0.00     0.049 A 
ATOM     37  H   UNL A   1      40.475  30.112  30.472  1.00  0.00     0.167 HD
ATOM     38  C   UNL A   1      43.953  28.258  32.427  1.00  0.00     0.037 A 
ATOM     39  C   UNL A   1      38.276  31.859  30.420  1.00  0.00     0.037 A 
ATOM     40  C   UNL A   1      43.624  29.392  33.251  1.00  0.00     0.049 A 
ATOM     41  C   UNL A   1      39.081  32.260  31.624  1.00  0.00     0.074 A 
ATOM     42  C   UNL A   1      44.299  29.878  34.357  1.00  0.00     0.029 A 
ATOM     43  N   UNL A   1      42.538  30.230  33.044  1.00  0.00    -0.354 N 
ATOM     44  N   UNL A   1      40.164  31.702  32.111  1.00  0.00    -0.248 NA
ATOM     45  C   UNL A   1      38.601  33.417  32.393  1.00  0.00     0.031 C 
ATOM     46  C   UNL A   1      43.607  30.995  34.835  1.00  0.00     0.029 A 
ATOM     47  C   UNL A   1      42.524  31.229  34.003  1.00  0.00     0.049 A 
ATOM     48  H   UNL A   1      41.877  30.130  32.323  1.00  0.00     0.167 HD
ATOM     49  C   UNL A   1      40.506  32.453  33.230  1.00  0.00     0.074 A 
ATOM     50  C   UNL A   1      39.518  33.506  33.347  1.00  0.00     0.031 C 
ATOM     51  C   UNL A   1      41.545  32.284  34.084  1.00  0.00     0.037 A 
BRANCH  38  52
ATOM     52  C   UNL A   1      45.150  27.430  32.799  1.00  0.00     0.058 A 
ATOM     53  C   UNL A   1      45.048  26.295  33.616  1.00  0.00     0.135 A 
ATOM     54  C   UNL A   1      46.420  27.764  32.298  1.00  0.00     0.135 A 
ATOM     55  F   UNL A   1      43.861  25.942  34.135  1.00  0.00    -0.206 F 
ATOM     56  C   UNL A   1      46.165  25.532  33.941  1.00  0.00     0.059 A 
ATOM     57  C   UNL A   1      47.547  27.002  32.591  1.00  0.00     0.059 A 
ATOM     58  F   UNL A   1      46.574  28.842  31.513  1.00  0.00    -0.206 F 
ATOM     59  C   UNL A   1      47.411  25.894  33.426  1.00  0.00     0.060 A 
BRANCH  59  60
ATOM     60  S   UNL A   1      48.852  24.892  33.850  1.00  0.00     0.124 S 
ATOM     61  O   UNL A   1      48.224  23.660  34.313  1.00  0.00    -0.237 OA
ATOM     62  O   UNL A   1      49.558  24.802  32.576  1.00  0.00    -0.237 OA
ATOM     63  O   UNL A   1      49.523  25.681  34.879  1.00  0.00    -0.744 OA
ENDBRANCH  59  60
ENDBRANCH  38  52
BRANCH  39  64
ATOM     64  C   UNL A   1      37.037  32.592  30.049  1.00  0.00     0.058 A 
ATOM     65  C   UNL A   1      35.807  32.273  30.643  1.00  0.00     0.135 A 
ATOM     66  C   UNL A   1      37.060  33.646  29.121  1.00  0.00     0.135 A 
ATOM     67  F   UNL A   1      35.731  31.266  31.527  1.00  0.00    -0.206 F 
ATOM     68  C   UNL A   1      34.644  32.969  30.331  1.00  0.00     0.059 A 
ATOM     69  C   UNL A   1      35.916  34.374  28.812  1.00  0.00     0.059 A 
ATOM     70  F   UNL A   1      38.215  33.998  28.534  1.00  0.00    -0.206 F 
ATOM     71  C   UNL A   1      34.711  34.023  29.417  1.00  0.00     0.060 A 
BRANCH  71  72
ATOM     72  S   UNL A   1      33.211  34.968  29.069  1.00  0.00     0.124 S 
ATOM     73  O   UNL A   1      32.566  34.134  28.062  1.00  0.00    -0.237 OA
ATOM     74  O   UNL A   1      32.562  35.010  30.375  1.00  0.00    -0.237 OA
ATOM     75  O   UNL A   1      33.727  36.249  28.593  1.00  0.00    -0.744 OA
ENDBRANCH  71  72
ENDBRANCH  39  64
BRANCH  51  76
ATOM     76  C   UNL A   1      41.710  33.287  35.188  1.00  0.00     0.058 A 
ATOM     77  C   UNL A   1      41.186  33.063  36.469  1.00  0.00     0.135 A 
ATOM     78  C   UNL A   1      42.487  34.438  34.983  1.00  0.00     0.135 A 
ATOM     79  F   UNL A   1      40.430  31.981  36.711  1.00  0.00    -0.206 F 
ATOM     80  C   UNL A   1      41.430  33.948  37.514  1.00  0.00     0.059 A 
ATOM     81  C   UNL A   1      42.759  35.326  36.018  1.00  0.00     0.059 A 
ATOM     82  F   UNL A   1      43.015  34.691  33.775  1.00  0.00    -0.206 F 
ATOM     83  C   UNL A   1      42.224  35.073  37.280  1.00  0.00     0.060 A 
BRANCH  83  84
ATOM     84  S   UNL A   1      42.598  36.173  38.663  1.00  0.00     0.124 S 
ATOM     85  O   UNL A   1      43.487  37.144  38.034  1.00  0.00    -0.237 OA
ATOM     86  O   UNL A   1      41.278  36.670  39.035  1.00  0.00    -0.237 OA
ATOM     87  O   UNL A   1      43.225  35.288  39.640  1.00  0.00    -0.744 OA
ENDBRANCH  83  84
ENDBRANCH  51  76
ENDBRANCH  25  26
ENDBRANCH  18  20
ENDBRANCH  17  18
ENDBRANCH  16  17
ENDBRANCH   1  16
TORSDOF 18
ENDMDL
MODEL 2
REMARK VINA RESULT:     -10.1      4.608     10.406
REMARK SMILES CCCC[C@H](C(=O)OCCOC(=O)c1ccc(-c2c3nc(c(-c4c(F)cc(S(=O)(=O)[O-])cc4F)c4ccc([nH]4)c(-c4c(F)cc(S(=O)(=O)[O-])cc4F)c4nc(c(-c5c(F)cc(S(=O)(=O)[O-])cc5F)c5ccc2[nH]5)C=C4)C=C3)cc1)c1ccnn1C
REMARK SMILES IDX 9 1 8 2 6 3 7 4 5 5 4 6 3 7 2 8 1 9 80 10 81 11 84 12 82 13
REMARK SMILES IDX 83 14 85 15 10 16 11 17 12 18 13 19 14 20 15 21 79 22 16 23
REMARK SMILES IDX 78 24 17 25 18 26 19 27 72 28 20 29 77 30 71 31 73 32 21 33
REMARK SMILES IDX 76 34 70 35 69 36 22 38 56 39 35 40 55 41 36 42 39 43 54 44
REMARK SMILES IDX 74 45 37 46 38 47 53 49 75 50 40 51 23 52 24 53 33 54 25 55
REMARK SMILES IDX 26 56 32 57 34 58 27 59 28 60 29 61 30 62 31 63 57 64 58 65
REMARK SMILES IDX 67 66 59 67 60 68 66 69 68 70 61 71 62 72 63 73 64 74 65 75
REMARK SMILES IDX 41 76 42 77 51 78 43 79 44 80 50 81 52 82 45 83 46 84 47 85
REMARK SMILES IDX 48 86 49 87
REMARK H PARENT 73 37 39 48
REMARK Flexibility Score: inf
ROOT
ATOM      1  C   UNL A   1      32.614  29.490  25.673  1.00  0.00     0.274 C 
ENDROOT
BRANCH   1   2
ATOM      2  O   UNL A   1      32.887  28.120  26.023  1.00  0.00    -0.462 OA
BRANCH   2   3
ATOM      3  C   UNL A   1      31.789  27.338  26.246  1.00  0.00     0.315 C 
ATOM      4  O   UNL A   1      31.114  27.392  27.268  1.00  0.00    -0.251 OA
BRANCH   3   5
ATOM      5  C   UNL A   1      31.548  26.318  25.116  1.00  0.00     0.148 C 
BRANCH   5   6
ATOM      6  C   UNL A   1      31.108  27.077  23.853  1.00  0.00     0.022 C 
BRANCH   6   7
ATOM      7  C   UNL A   1      29.607  27.331  23.711  1.00  0.00     0.001 C 
BRANCH   7   8
ATOM      8  C   UNL A   1      29.234  28.463  22.751  1.00  0.00    -0.003 C 
ATOM      9  C   UNL A   1      30.409  29.351  22.370  1.00  0.00     0.004 C 
ENDBRANCH   7   8
ENDBRANCH   6   7
ENDBRANCH   5   6
BRANCH   5  10
ATOM     10  C   UNL A   1      32.697  25.322  25.005  1.00  0.00     0.052 A 
ATOM     11  C   UNL A   1      33.732  25.402  24.075  1.00  0.00     0.046 A 
ATOM     12  N   UNL A   1      32.999  24.192  25.745  1.00  0.00    -0.272 N 
ATOM     13  C   UNL A   1      34.569  24.313  24.320  1.00  0.00     0.135 A 
ATOM     14  N   UNL A   1      34.146  23.596  25.352  1.00  0.00    -0.182 NA
ATOM     15  C   UNL A   1      32.363  23.566  26.879  1.00  0.00     0.174 C 
ENDBRANCH   5  10
ENDBRANCH   3   5
ENDBRANCH   2   3
ENDBRANCH   1   2
BRANCH   1  16
ATOM     16  C   UNL A   1      32.926  30.417  26.844  1.00  0.00     0.275 C 
BRANCH  16  17
ATOM     17  O   UNL A   1      33.972  29.843  27.643  1.00  0.00    -0.458 OA
BRANCH  17  18
ATOM     18  C   UNL A   1      34.707  30.715  28.369  1.00  0.00     0.338 C 
ATOM     19  O   UNL A   1      34.351  31.812  28.776  1.00  0.00    -0.246 OA
BRANCH  18  20
ATOM     20  C   UNL A   1      36.067  30.177  28.564  1.00  0.00     0.060 A 
ATOM     21  C   UNL A   1      36.492  29.696  29.805  1.00  0.00     0.016 A 
ATOM     22  C   UNL A   1      36.956  30.210  27.492  1.00  0.00     0.016 A 
ATOM     23  C   UNL A   1      37.822  29.312  29.995  1.00  0.00     0.010 A 
ATOM     24  C   UNL A   1      38.261  29.745  27.662  1.00  0.00     0.010 A 
ATOM     25  C   UNL A   1      38.720  29.318  28.922  1.00  0.00    -0.014 A 
BRANCH  25  26
ATOM     26  C   UNL A   1      40.147  28.921  29.077  1.00  0.00     0.031 A 
ATOM     27  C   UNL A   1      41.160  29.969  29.457  1.00  0.00     0.074 A 
ATOM     28  C   UNL A   1      40.553  27.664  28.816  1.00  0.00     0.049 A 
ATOM     29  N   UNL A   1      42.457  29.959  29.307  1.00  0.00    -0.248 NA
ATOM     30  C   UNL A   1      40.632  31.203  30.064  1.00  0.00     0.031 C 
ATOM     31  C   UNL A   1      39.683  26.529  28.507  1.00  0.00     0.029 A 
ATOM     32  N   UNL A   1      41.822  27.137  28.740  1.00  0.00    -0.354 N 
ATOM     33  C   UNL A   1      42.896  31.211  29.727  1.00  0.00     0.074 A 
ATOM     34  C   UNL A   1      41.727  31.947  30.155  1.00  0.00     0.031 C 
ATOM     35  C   UNL A   1      40.437  25.443  28.274  1.00  0.00     0.029 A 
ATOM     36  C   UNL A   1      41.844  25.826  28.321  1.00  0.00     0.049 A 
ATOM     37  H   UNL A   1      42.633  27.646  28.963  1.00  0.00     0.167 HD
ATOM     38  C   UNL A   1      44.158  31.700  29.734  1.00  0.00     0.037 A 
ATOM     39  C   UNL A   1      42.872  25.040  27.944  1.00  0.00     0.037 A 
ATOM     40  C   UNL A   1      45.317  30.934  29.356  1.00  0.00     0.049 A 
ATOM     41  C   UNL A   1      44.264  25.607  27.931  1.00  0.00     0.074 A 
ATOM     42  C   UNL A   1      46.643  31.329  29.334  1.00  0.00     0.029 A 
ATOM     43  N   UNL A   1      45.288  29.606  28.954  1.00  0.00    -0.354 N 
ATOM     44  N   UNL A   1      44.662  26.816  28.251  1.00  0.00    -0.248 NA
ATOM     45  C   UNL A   1      45.344  24.717  27.483  1.00  0.00     0.031 C 
ATOM     46  C   UNL A   1      47.414  30.248  28.894  1.00  0.00     0.029 A 
ATOM     47  C   UNL A   1      46.573  29.168  28.681  1.00  0.00     0.049 A 
ATOM     48  H   UNL A   1      44.475  29.057  28.875  1.00  0.00     0.167 HD
ATOM     49  C   UNL A   1      46.040  26.823  28.062  1.00  0.00     0.074 A 
ATOM     50  C   UNL A   1      46.407  25.499  27.604  1.00  0.00     0.031 C 
ATOM     51  C   UNL A   1      46.919  27.836  28.252  1.00  0.00     0.037 A 
BRANCH  38  52
ATOM     52  C   UNL A   1      44.352  33.139  30.121  1.00  0.00     0.058 A 
ATOM     53  C   UNL A   1      44.662  33.524  31.434  1.00  0.00     0.135 A 
ATOM     54  C   UNL A   1      44.257  34.149  29.149  1.00  0.00     0.135 A 
ATOM     55  F   UNL A   1      44.747  32.601  32.405  1.00  0.00    -0.206 F 
ATOM     56  C   UNL A   1      44.850  34.860  31.774  1.00  0.00     0.059 A 
ATOM     57  C   UNL A   1      44.464  35.489  29.461  1.00  0.00     0.059 A 
ATOM     58  F   UNL A   1      43.961  33.836  27.877  1.00  0.00    -0.206 F 
ATOM     59  C   UNL A   1      44.747  35.836  30.780  1.00  0.00     0.060 A 
BRANCH  59  60
ATOM     60  S   UNL A   1      45.000  37.566  31.232  1.00  0.00     0.124 S 
ATOM     61  O   UNL A   1      44.353  38.255  30.121  1.00  0.00    -0.237 OA
ATOM     62  O   UNL A   1      44.316  37.658  32.518  1.00  0.00    -0.237 OA
ATOM     63  O   UNL A   1      46.452  37.693  31.290  1.00  0.00    -0.744 OA
ENDBRANCH  59  60
ENDBRANCH  38  52
BRANCH  39  64
ATOM     64  C   UNL A   1      42.609  23.647  27.494  1.00  0.00     0.058 A 
ATOM     65  C   UNL A   1      42.498  23.340  26.131  1.00  0.00     0.135 A 
ATOM     66  C   UNL A   1      42.496  22.592  28.414  1.00  0.00     0.135 A 
ATOM     67  F   UNL A   1      42.587  24.316  25.214  1.00  0.00    -0.206 F 
ATOM     68  C   UNL A   1      42.283  22.037  25.693  1.00  0.00     0.059 A 
ATOM     69  C   UNL A   1      42.307  21.277  28.000  1.00  0.00     0.059 A 
ATOM     70  F   UNL A   1      42.606  22.833  29.730  1.00  0.00    -0.206 F 
ATOM     71  C   UNL A   1      42.195  21.011  26.637  1.00  0.00     0.060 A 
BRANCH  71  72
ATOM     72  S   UNL A   1      41.985  19.313  26.058  1.00  0.00     0.124 S 
ATOM     73  O   UNL A   1      40.553  19.268  25.792  1.00  0.00    -0.237 OA
ATOM     74  O   UNL A   1      42.854  19.277  24.885  1.00  0.00    -0.237 OA
ATOM     75  O   UNL A   1      42.444  18.515  27.191  1.00  0.00    -0.744 OA
ENDBRANCH  71  72
ENDBRANCH  39  64
BRANCH  51  76
ATOM     76  C   UNL A   1      48.374  27.548  28.023  1.00  0.00     0.058 A 
ATOM     77  C   UNL A   1      49.185  27.006  29.030  1.00  0.00     0.135 A 
ATOM     78  C   UNL A   1      48.934  27.727  26.748  1.00  0.00     0.135 A 
ATOM     79  F   UNL A   1      48.696  26.825  30.267  1.00  0.00    -0.206 F 
ATOM     80  C   UNL A   1      50.505  26.647  28.780  1.00  0.00     0.059 A 
ATOM     81  C   UNL A   1      50.246  27.358  26.471  1.00  0.00     0.059 A 
ATOM     82  F   UNL A   1      48.195  28.238  25.750  1.00  0.00    -0.206 F 
ATOM     83  C   UNL A   1      51.024  26.820  27.494  1.00  0.00     0.060 A 
BRANCH  83  84
ATOM     84  S   UNL A   1      52.714  26.278  27.162  1.00  0.00     0.124 S 
ATOM     85  O   UNL A   1      52.488  24.982  26.531  1.00  0.00    -0.237 OA
ATOM     86  O   UNL A   1      53.215  27.331  26.285  1.00  0.00    -0.237 OA
ATOM     87  O   UNL A   1      53.323  26.234  28.488  1.00  0.00    -0.744 OA
ENDBRANCH  83  84
ENDBRANCH  51  76
ENDBRANCH  25  26
ENDBRANCH  18  20
ENDBRANCH  17  18
ENDBRANCH  16  17
ENDBRANCH   1  16
TORSDOF 18
ENDMDL
MODEL 3
REMARK VINA RESULT:      -9.9      1.373      2.626
REMARK SMILES CCCC[C@H](C(=O)OCCOC(=O)c1ccc(-c2c3nc(c(-c4c(F)cc(S(=O)(=O)[O-])cc4F)c4ccc([nH]4)c(-c4c(F)cc(S(=O)(=O)[O-])cc4F)c4nc(c(-c5c(F)cc(S(=O)(=O)[O-])cc5F)c5ccc2[nH]5)C=C4)C=C3)cc1)c1ccnn1C
REMARK SMILES IDX 9 1 8 2 6 3 7 4 5 5 4 6 3 7 2 8 1 9 80 10 81 11 84 12 82 13
REMARK SMILES IDX 83 14 85 15 10 16 11 17 12 18 13 19 14 20 15 21 79 22 16 23
REMARK SMILES IDX 78 24 17 25 18 26 19 27 72 28 20 29 77 30 71 31 73 32 21 33
REMARK SMILES IDX 76 34 70 35 69 36 22 38 56 39 35 40 55 41 36 42 39 43 54 44
REMARK SMILES IDX 74 45 37 46 38 47 53 49 75 50 40 51 23 52 24 53 33 54 25 55
REMARK SMILES IDX 26 56 32 57 34 58 27 59 28 60 29 61 30 62 31 63 57 64 58 65
REMARK SMILES IDX 67 66 59 67 60 68 66 69 68 70 61 71 62 72 63 73 64 74 65 75
REMARK SMILES IDX 41 76 42 77 51 78 43 79 44 80 50 81 52 82 45 83 46 84 47 85
REMARK SMILES IDX 48 86 49 87
REMARK H PARENT 73 37 39 48
REMARK Flexibility Score: inf
ROOT
ATOM      1  C   UNL A   1      36.194  23.309  23.240  1.00  0.00     0.274 C 
ENDROOT
BRANCH   1   2
ATOM      2  O   UNL A   1      34.822  22.876  23.310  1.00  0.00    -0.462 OA
BRANCH   2   3
ATOM      3  C   UNL A   1      33.906  23.857  23.562  1.00  0.00     0.315 C 
ATOM      4  O   UNL A   1      33.046  24.203  22.759  1.00  0.00    -0.251 OA
BRANCH   3   5
ATOM      5  C   UNL A   1      34.130  24.542  24.923  1.00  0.00     0.148 C 
BRANCH   5   6
ATOM      6  C   UNL A   1      33.757  26.028  24.794  1.00  0.00     0.022 C 
BRANCH   6   7
ATOM      7  C   UNL A   1      33.545  26.784  26.107  1.00  0.00     0.001 C 
BRANCH   7   8
ATOM      8  C   UNL A   1      32.290  27.660  26.150  1.00  0.00    -0.003 C 
ATOM      9  C   UNL A   1      32.119  28.414  27.461  1.00  0.00     0.004 C 
ENDBRANCH   7   8
ENDBRANCH   6   7
ENDBRANCH   5   6
BRANCH   5  10
ATOM     10  C   UNL A   1      33.524  23.735  26.066  1.00  0.00     0.052 A 
ATOM     11  C   UNL A   1      34.255  22.994  26.992  1.00  0.00     0.046 A 
ATOM     12  N   UNL A   1      32.209  23.561  26.461  1.00  0.00    -0.272 N 
ATOM     13  C   UNL A   1      33.327  22.424  27.864  1.00  0.00     0.135 A 
ATOM     14  N   UNL A   1      32.089  22.792  27.566  1.00  0.00    -0.182 NA
ATOM     15  C   UNL A   1      30.959  24.080  25.961  1.00  0.00     0.174 C 
ENDBRANCH   5  10
ENDBRANCH   3   5
ENDBRANCH   2   3
ENDBRANCH   1   2
BRANCH   1  16
ATOM     16  C   UNL A   1      37.024  22.643  24.334  1.00  0.00     0.275 C 
BRANCH  16  17
ATOM     17  O   UNL A   1      37.752  23.646  25.060  1.00  0.00    -0.458 OA
BRANCH  17  18
ATOM     18  C   UNL A   1      38.748  23.194  25.853  1.00  0.00     0.338 C 
ATOM     19  O   UNL A   1      39.187  22.053  25.900  1.00  0.00    -0.246 OA
BRANCH  18  20
ATOM     20  C   UNL A   1      39.218  24.284  26.731  1.00  0.00     0.060 A 
ATOM     21  C   UNL A   1      38.831  24.361  28.071  1.00  0.00     0.016 A 
ATOM     22  C   UNL A   1      40.017  25.284  26.181  1.00  0.00     0.016 A 
ATOM     23  C   UNL A   1      39.185  25.470  28.845  1.00  0.00     0.010 A 
ATOM     24  C   UNL A   1      40.441  26.347  26.979  1.00  0.00     0.010 A 
ATOM     25  C   UNL A   1      40.006  26.470  28.313  1.00  0.00    -0.014 A 
BRANCH  25  26
ATOM     26  C   UNL A   1      40.406  27.671  29.097  1.00  0.00     0.031 A 
ATOM     27  C   UNL A   1      41.675  27.626  29.907  1.00  0.00     0.074 A 
ATOM     28  C   UNL A   1      39.619  28.763  29.150  1.00  0.00     0.049 A 
ATOM     29  N   UNL A   1      42.041  28.371  30.915  1.00  0.00    -0.248 NA
ATOM     30  C   UNL A   1      42.649  26.584  29.542  1.00  0.00     0.031 C 
ATOM     31  C   UNL A   1      38.400  28.980  28.369  1.00  0.00     0.029 A 
ATOM     32  N   UNL A   1      39.718  29.893  29.928  1.00  0.00    -0.354 N 
ATOM     33  C   UNL A   1      43.248  27.842  31.359  1.00  0.00     0.074 A 
ATOM     34  C   UNL A   1      43.562  26.724  30.495  1.00  0.00     0.031 C 
ATOM     35  C   UNL A   1      37.865  30.164  28.704  1.00  0.00     0.029 A 
ATOM     36  C   UNL A   1      38.645  30.745  29.792  1.00  0.00     0.049 A 
ATOM     37  H   UNL A   1      40.480  30.077  30.522  1.00  0.00     0.167 HD
ATOM     38  C   UNL A   1      44.011  28.245  32.402  1.00  0.00     0.037 A 
ATOM     39  C   UNL A   1      38.286  31.829  30.507  1.00  0.00     0.037 A 
ATOM     40  C   UNL A   1      43.711  29.393  33.216  1.00  0.00     0.049 A 
ATOM     41  C   UNL A   1      39.128  32.247  31.679  1.00  0.00     0.074 A 
ATOM     42  C   UNL A   1      44.420  29.896  34.293  1.00  0.00     0.029 A 
ATOM     43  N   UNL A   1      42.621  30.232  33.028  1.00  0.00    -0.354 N 
ATOM     44  N   UNL A   1      40.224  31.695  32.143  1.00  0.00    -0.248 NA
ATOM     45  C   UNL A   1      38.675  33.419  32.443  1.00  0.00     0.031 C 
ATOM     46  C   UNL A   1      43.746  31.023  34.773  1.00  0.00     0.029 A 
ATOM     47  C   UNL A   1      42.639  31.247  33.970  1.00  0.00     0.049 A 
ATOM     48  H   UNL A   1      41.938  30.121  32.329  1.00  0.00     0.167 HD
ATOM     49  C   UNL A   1      40.602  32.464  33.238  1.00  0.00     0.074 A 
ATOM     50  C   UNL A   1      39.621  33.521  33.367  1.00  0.00     0.031 C 
ATOM     51  C   UNL A   1      41.666  32.306  34.062  1.00  0.00     0.037 A 
BRANCH  38  52
ATOM     52  C   UNL A   1      45.217  27.419  32.751  1.00  0.00     0.058 A 
ATOM     53  C   UNL A   1      45.130  26.275  33.557  1.00  0.00     0.135 A 
ATOM     54  C   UNL A   1      46.479  27.765  32.240  1.00  0.00     0.135 A 
ATOM     55  F   UNL A   1      43.951  25.910  34.086  1.00  0.00    -0.206 F 
ATOM     56  C   UNL A   1      46.255  25.514  33.862  1.00  0.00     0.059 A 
ATOM     57  C   UNL A   1      47.613  27.006  32.512  1.00  0.00     0.059 A 
ATOM     58  F   UNL A   1      46.619  28.852  31.464  1.00  0.00    -0.206 F 
ATOM     59  C   UNL A   1      47.493  25.889  33.336  1.00  0.00     0.060 A 
BRANCH  59  60
ATOM     60  S   UNL A   1      48.944  24.890  33.733  1.00  0.00     0.124 S 
ATOM     61  O   UNL A   1      48.327  23.664  34.227  1.00  0.00    -0.237 OA
ATOM     62  O   UNL A   1      49.616  24.785  32.442  1.00  0.00    -0.237 OA
ATOM     63  O   UNL A   1      49.643  25.690  34.734  1.00  0.00    -0.744 OA
ENDBRANCH  59  60
ENDBRANCH  38  52
BRANCH  39  64
ATOM     64  C   UNL A   1      37.037  32.560  30.162  1.00  0.00     0.058 A 
ATOM     65  C   UNL A   1      35.867  32.378  30.912  1.00  0.00     0.135 A 
ATOM     66  C   UNL A   1      36.997  33.477  29.099  1.00  0.00     0.135 A 
ATOM     67  F   UNL A   1      35.852  31.504  31.930  1.00  0.00    -0.206 F 
ATOM     68  C   UNL A   1      34.699  33.077  30.622  1.00  0.00     0.059 A 
ATOM     69  C   UNL A   1      35.850  34.207  28.805  1.00  0.00     0.059 A 
ATOM     70  F   UNL A   1      38.095  33.695  28.359  1.00  0.00    -0.206 F 
ATOM     71  C   UNL A   1      34.703  33.995  29.569  1.00  0.00     0.060 A 
BRANCH  71  72
ATOM     72  S   UNL A   1      33.205  34.949  29.242  1.00  0.00     0.124 S 
ATOM     73  O   UNL A   1      33.759  36.243  28.862  1.00  0.00    -0.237 OA
ATOM     74  O   UNL A   1      32.578  34.183  28.169  1.00  0.00    -0.237 OA
ATOM     75  O   UNL A   1      32.501  34.913  30.520  1.00  0.00    -0.744 OA
ENDBRANCH  71  72
ENDBRANCH  39  64
BRANCH  51  76
ATOM     76  C   UNL A   1      41.867  33.326  35.144  1.00  0.00     0.058 A 
ATOM     77  C   UNL A   1      42.654  34.469  34.942  1.00  0.00     0.135 A 
ATOM     78  C   UNL A   1      41.181  33.203  36.363  1.00  0.00     0.135 A 
ATOM     79  F   UNL A   1      43.335  34.626  33.796  1.00  0.00    -0.206 F 
ATOM     80  C   UNL A   1      42.752  35.460  35.913  1.00  0.00     0.059 A 
ATOM     81  C   UNL A   1      41.250  34.190  37.340  1.00  0.00     0.059 A 
ATOM     82  F   UNL A   1      40.411  32.129  36.600  1.00  0.00    -0.206 F 
ATOM     83  C   UNL A   1      42.040  35.314  37.106  1.00  0.00     0.060 A 
BRANCH  83  84
ATOM     84  S   UNL A   1      42.114  36.643  38.327  1.00  0.00     0.124 S 
ATOM     85  O   UNL A   1      40.706  37.004  38.454  1.00  0.00    -0.237 OA
ATOM     86  O   UNL A   1      42.705  35.976  39.482  1.00  0.00    -0.237 OA
ATOM     87  O   UNL A   1      42.964  37.644  37.687  1.00  0.00    -0.744 OA
ENDBRANCH  83  84
ENDBRANCH  51  76
ENDBRANCH  25  26
ENDBRANCH  18  20
ENDBRANCH  17  18
ENDBRANCH  16  17
ENDBRANCH   1  16
TORSDOF 18
ENDMDL
