MODEL 1
REMARK VINA RESULT:      -9.5      0.000      0.000
REMARK SMILES Cc1nc(C[NH2+][C@@H](C(=O)OCCOC(=O)c2ccc(-c3c4nc(c(-c5c(F)cc(S(=O)(=O)[O-])cc5F)c5ccc([nH]5)c(-c5c(F)cc(S(=O)(=O)[O-])cc5F)c5nc(c(-c6c(F)cc(S(=O)(=O)[O-])cc6F)c6ccc3[nH]6)C=C5)C=C4)cc2)c2ccccc2)sc1C
REMARK SMILES IDX 11 1 10 2 8 3 9 4 7 5 6 6 5 9 4 10 1 11 2 12 3 13 89 14
REMARK SMILES IDX 88 15 90 16 82 17 83 18 87 19 84 20 86 21 85 22 12 23 13 24
REMARK SMILES IDX 14 25 15 26 16 27 17 28 81 29 18 30 80 31 19 32 20 33 21 34
REMARK SMILES IDX 74 35 22 36 79 37 73 38 75 39 23 40 78 41 72 42 71 43 24 45
REMARK SMILES IDX 58 46 37 47 57 48 38 49 41 50 56 51 76 52 39 53 40 54 55 56
REMARK SMILES IDX 77 57 42 58 25 59 26 60 35 61 27 62 28 63 34 64 36 65 29 66
REMARK SMILES IDX 30 67 31 68 32 69 33 70 59 71 60 72 69 73 61 74 62 75 68 76
REMARK SMILES IDX 70 77 63 78 64 79 65 80 66 81 67 82 43 83 44 84 53 85 45 86
REMARK SMILES IDX 46 87 52 88 54 89 47 90 48 91 49 92 50 93 51 94
REMARK H PARENT 6 7 6 8 75 44 41 55
REMARK Flexibility Score: inf
ROOT
ATOM      1  C   UNL A   1      34.288  34.549  27.937  1.00  0.00     0.274 C 
ENDROOT
BRANCH   1   2
ATOM      2  O   UNL A   1      34.357  33.114  28.057  1.00  0.00    -0.457 OA
BRANCH   2   3
ATOM      3  C   UNL A   1      35.592  32.565  28.265  1.00  0.00     0.369 C 
ATOM      4  O   UNL A   1      36.569  33.213  28.627  1.00  0.00    -0.245 OA
BRANCH   3   5
ATOM      5  C   UNL A   1      35.630  31.045  27.937  1.00  0.00     0.325 C 
BRANCH   5   6
ATOM      6  N   UNL A   1      34.283  30.436  27.889  1.00  0.00    -0.325 N 
ATOM      7  H   UNL A   1      33.842  30.555  28.802  1.00  0.00     0.347 HD
ATOM      8  H   UNL A   1      33.766  30.907  27.147  1.00  0.00     0.347 HD
BRANCH   6   9
ATOM      9  C   UNL A   1      34.300  29.010  27.564  1.00  0.00     0.330 C 
BRANCH   9  10
ATOM     10  C   UNL A   1      33.176  28.665  26.624  1.00  0.00     0.148 A 
ATOM     11  C   UNL A   1      30.541  26.398  25.724  1.00  0.00     0.068 C 
ATOM     12  C   UNL A   1      31.475  27.553  25.738  1.00  0.00     0.052 A 
ATOM     13  N   UNL A   1      32.492  27.540  26.673  1.00  0.00    -0.240 NA
ATOM     14  C   UNL A   1      31.449  28.675  24.925  1.00  0.00     0.025 A 
ATOM     15  S   UNL A   1      32.697  29.756  25.389  1.00  0.00    -0.118 S 
ATOM     16  C   UNL A   1      30.520  29.009  23.813  1.00  0.00     0.058 C 
ENDBRANCH   9  10
ENDBRANCH   6   9
ENDBRANCH   5   6
BRANCH   5  17
ATOM     17  C   UNL A   1      36.562  30.272  28.873  1.00  0.00     0.021 A 
ATOM     18  C   UNL A   1      37.757  29.672  28.433  1.00  0.00     0.010 A 
ATOM     19  C   UNL A   1      36.238  30.160  30.239  1.00  0.00     0.010 A 
ATOM     20  C   UNL A   1      38.591  28.988  29.322  1.00  0.00     0.001 A 
ATOM     21  C   UNL A   1      37.071  29.470  31.125  1.00  0.00     0.001 A 
ATOM     22  C   UNL A   1      38.249  28.887  30.667  1.00  0.00     0.000 A 
ENDBRANCH   5  17
ENDBRANCH   3   5
ENDBRANCH   2   3
ENDBRANCH   1   2
BRANCH   1  23
ATOM     23  C   UNL A   1      32.954  35.055  28.479  1.00  0.00     0.275 C 
BRANCH  23  24
ATOM     24  O   UNL A   1      32.765  34.573  29.820  1.00  0.00    -0.458 OA
BRANCH  24  25
ATOM     25  C   UNL A   1      33.059  35.465  30.794  1.00  0.00     0.338 C 
ATOM     26  O   UNL A   1      32.562  36.564  30.968  1.00  0.00    -0.246 OA
BRANCH  25  27
ATOM     27  C   UNL A   1      34.027  34.862  31.719  1.00  0.00     0.060 A 
ATOM     28  C   UNL A   1      34.756  35.709  32.546  1.00  0.00     0.016 A 
ATOM     29  C   UNL A   1      34.333  33.503  31.653  1.00  0.00     0.016 A 
ATOM     30  C   UNL A   1      35.874  35.221  33.216  1.00  0.00     0.010 A 
ATOM     31  C   UNL A   1      35.411  33.002  32.396  1.00  0.00     0.010 A 
ATOM     32  C   UNL A   1      36.238  33.868  33.135  1.00  0.00    -0.014 A 
BRANCH  32  33
ATOM     33  C   UNL A   1      37.542  33.414  33.711  1.00  0.00     0.031 A 
ATOM     34  C   UNL A   1      37.715  33.315  35.210  1.00  0.00     0.074 A 
ATOM     35  C   UNL A   1      38.548  32.991  32.918  1.00  0.00     0.049 A 
ATOM     36  N   UNL A   1      38.800  33.075  35.903  1.00  0.00    -0.248 NA
ATOM     37  C   UNL A   1      36.517  33.529  36.037  1.00  0.00     0.031 C 
ATOM     38  C   UNL A   1      38.522  32.957  31.454  1.00  0.00     0.029 A 
ATOM     39  N   UNL A   1      39.774  32.459  33.236  1.00  0.00    -0.354 N 
ATOM     40  C   UNL A   1      38.436  33.204  37.240  1.00  0.00     0.074 A 
ATOM     41  C   UNL A   1      37.023  33.517  37.262  1.00  0.00     0.031 C 
ATOM     42  C   UNL A   1      39.629  32.339  31.009  1.00  0.00     0.029 A 
ATOM     43  C   UNL A   1      40.481  32.008  32.147  1.00  0.00     0.049 A 
ATOM     44  H   UNL A   1      40.114  32.405  34.159  1.00  0.00     0.167 HD
ATOM     45  C   UNL A   1      39.208  33.084  38.348  1.00  0.00     0.037 A 
ATOM     46  C   UNL A   1      41.680  31.401  32.068  1.00  0.00     0.037 A 
ATOM     47  C   UNL A   1      40.586  32.670  38.340  1.00  0.00     0.049 A 
ATOM     48  C   UNL A   1      42.493  31.193  33.313  1.00  0.00     0.074 A 
ATOM     49  C   UNL A   1      41.469  32.570  39.403  1.00  0.00     0.029 A 
ATOM     50  N   UNL A   1      41.269  32.234  37.215  1.00  0.00    -0.354 N 
ATOM     51  N   UNL A   1      42.188  31.484  34.554  1.00  0.00    -0.248 NA
ATOM     52  C   UNL A   1      43.829  30.603  33.141  1.00  0.00     0.031 C 
ATOM     53  C   UNL A   1      42.683  32.062  38.920  1.00  0.00     0.029 A 
ATOM     54  C   UNL A   1      42.549  31.834  37.561  1.00  0.00     0.049 A 
ATOM     55  H   UNL A   1      40.897  32.210  36.304  1.00  0.00     0.167 HD
ATOM     56  C   UNL A   1      43.300  31.129  35.310  1.00  0.00     0.074 A 
ATOM     57  C   UNL A   1      44.270  30.567  34.393  1.00  0.00     0.031 C 
ATOM     58  C   UNL A   1      43.506  31.277  36.641  1.00  0.00     0.037 A 
BRANCH  45  59
ATOM     59  C   UNL A   1      38.582  33.458  39.661  1.00  0.00     0.058 A 
ATOM     60  C   UNL A   1      38.715  34.741  40.214  1.00  0.00     0.135 A 
ATOM     61  C   UNL A   1      37.843  32.505  40.380  1.00  0.00     0.135 A 
ATOM     62  F   UNL A   1      39.429  35.681  39.575  1.00  0.00    -0.206 F 
ATOM     63  C   UNL A   1      38.164  35.056  41.453  1.00  0.00     0.059 A 
ATOM     64  C   UNL A   1      37.267  32.804  41.610  1.00  0.00     0.059 A 
ATOM     65  F   UNL A   1      37.686  31.264  39.894  1.00  0.00    -0.206 F 
ATOM     66  C   UNL A   1      37.451  34.078  42.149  1.00  0.00     0.060 A 
BRANCH  66  67
ATOM     67  S   UNL A   1      36.758  34.475  43.768  1.00  0.00     0.124 S 
ATOM     68  O   UNL A   1      35.328  34.474  43.477  1.00  0.00    -0.237 OA
ATOM     69  O   UNL A   1      37.235  33.375  44.601  1.00  0.00    -0.237 OA
ATOM     70  O   UNL A   1      37.338  35.780  44.070  1.00  0.00    -0.744 OA
ENDBRANCH  66  67
ENDBRANCH  45  59
BRANCH  46  71
ATOM     71  C   UNL A   1      42.187  30.936  30.752  1.00  0.00     0.058 A 
ATOM     72  C   UNL A   1      42.843  31.829  29.889  1.00  0.00     0.135 A 
ATOM     73  C   UNL A   1      42.055  29.602  30.341  1.00  0.00     0.135 A 
ATOM     74  F   UNL A   1      42.981  33.117  30.237  1.00  0.00    -0.206 F 
ATOM     75  C   UNL A   1      43.352  31.414  28.664  1.00  0.00     0.059 A 
ATOM     76  C   UNL A   1      42.574  29.160  29.130  1.00  0.00     0.059 A 
ATOM     77  F   UNL A   1      41.444  28.712  31.138  1.00  0.00    -0.206 F 
ATOM     78  C   UNL A   1      43.216  30.075  28.295  1.00  0.00     0.060 A 
BRANCH  78  79
ATOM     79  S   UNL A   1      43.948  29.510  26.743  1.00  0.00     0.124 S 
ATOM     80  O   UNL A   1      44.574  28.260  27.152  1.00  0.00    -0.237 OA
ATOM     81  O   UNL A   1      42.784  29.385  25.870  1.00  0.00    -0.237 OA
ATOM     82  O   UNL A   1      44.861  30.596  26.399  1.00  0.00    -0.744 OA
ENDBRANCH  78  79
ENDBRANCH  46  71
BRANCH  58  83
ATOM     83  C   UNL A   1      44.829  30.823  37.178  1.00  0.00     0.058 A 
ATOM     84  C   UNL A   1      45.049  29.481  37.527  1.00  0.00     0.135 A 
ATOM     85  C   UNL A   1      45.888  31.729  37.340  1.00  0.00     0.135 A 
ATOM     86  F   UNL A   1      44.064  28.579  37.393  1.00  0.00    -0.206 F 
ATOM     87  C   UNL A   1      46.267  29.058  38.048  1.00  0.00     0.059 A 
ATOM     88  C   UNL A   1      47.119  31.324  37.847  1.00  0.00     0.059 A 
ATOM     89  F   UNL A   1      45.727  33.021  37.016  1.00  0.00    -0.206 F 
ATOM     90  C   UNL A   1      47.293  29.989  38.213  1.00  0.00     0.060 A 
BRANCH  90  91
ATOM     91  S   UNL A   1      48.874  29.437  38.888  1.00  0.00     0.124 S 
ATOM     92  O   UNL A   1      49.811  30.313  38.193  1.00  0.00    -0.237 OA
ATOM     93  O   UNL A   1      48.717  29.684  40.318  1.00  0.00    -0.237 OA
ATOM     94  O   UNL A   1      48.929  28.029  38.507  1.00  0.00    -0.744 OA
ENDBRANCH  90  91
ENDBRANCH  58  83
ENDBRANCH  32  33
ENDBRANCH  25  27
ENDBRANCH  24  25
ENDBRANCH  23  24
ENDBRANCH   1  23
TORSDOF 18
ENDMDL
MODEL 2
REMARK VINA RESULT:      -9.4      5.926     11.763
REMARK SMILES Cc1nc(C[NH2+][C@@H](C(=O)OCCOC(=O)c2ccc(-c3c4nc(c(-c5c(F)cc(S(=O)(=O)[O-])cc5F)c5ccc([nH]5)c(-c5c(F)cc(S(=O)(=O)[O-])cc5F)c5nc(c(-c6c(F)cc(S(=O)(=O)[O-])cc6F)c6ccc3[nH]6)C=C5)C=C4)cc2)c2ccccc2)sc1C
REMARK SMILES IDX 11 1 10 2 8 3 9 4 7 5 6 6 5 9 4 10 1 11 2 12 3 13 89 14
REMARK SMILES IDX 88 15 90 16 82 17 83 18 87 19 84 20 86 21 85 22 12 23 13 24
REMARK SMILES IDX 14 25 15 26 16 27 17 28 81 29 18 30 80 31 19 32 20 33 21 34
REMARK SMILES IDX 74 35 22 36 79 37 73 38 75 39 23 40 78 41 72 42 71 43 24 45
REMARK SMILES IDX 58 46 37 47 57 48 38 49 41 50 56 51 76 52 39 53 40 54 55 56
REMARK SMILES IDX 77 57 42 58 25 59 26 60 35 61 27 62 28 63 34 64 36 65 29 66
REMARK SMILES IDX 30 67 31 68 32 69 33 70 59 71 60 72 69 73 61 74 62 75 68 76
REMARK SMILES IDX 70 77 63 78 64 79 65 80 66 81 67 82 43 83 44 84 53 85 45 86
REMARK SMILES IDX 46 87 52 88 54 89 47 90 48 91 49 92 50 93 51 94
REMARK H PARENT 6 7 6 8 75 44 41 55
REMARK Flexibility Score: inf
ROOT
ATOM      1  C   UNL A   1      36.567  22.973  23.966  1.00  0.00     0.274 C 
ENDROOT
BRANCH   1   2
ATOM      2  O   UNL A   1      35.228  22.947  24.500  1.00  0.00    -0.457 OA
BRANCH   2   3
ATOM      3  C   UNL A   1      34.206  22.769  23.608  1.00  0.00     0.369 C 
ATOM      4  O   UNL A   1      34.221  23.211  22.464  1.00  0.00    -0.245 OA
BRANCH   3   5
ATOM      5  C   UNL A   1      33.006  21.997  24.225  1.00  0.00     0.325 C 
BRANCH   5   6
ATOM      6  N   UNL A   1      32.775  22.339  25.646  1.00  0.00    -0.325 N 
ATOM      7  H   UNL A   1      32.981  21.516  26.213  1.00  0.00     0.347 HD
ATOM      8  H   UNL A   1      33.384  23.125  25.868  1.00  0.00     0.347 HD
BRANCH   6   9
ATOM      9  C   UNL A   1      31.403  22.763  25.926  1.00  0.00     0.330 C 
BRANCH   9  10
ATOM     10  C   UNL A   1      31.257  24.249  25.730  1.00  0.00     0.148 A 
ATOM     11  C   UNL A   1      31.531  27.550  27.118  1.00  0.00     0.068 C 
ATOM     12  C   UNL A   1      31.292  26.419  26.184  1.00  0.00     0.052 A 
ATOM     13  N   UNL A   1      31.405  25.138  26.691  1.00  0.00    -0.240 NA
ATOM     14  C   UNL A   1      30.975  26.484  24.837  1.00  0.00     0.025 A 
ATOM     15  S   UNL A   1      30.876  24.899  24.188  1.00  0.00    -0.118 S 
ATOM     16  C   UNL A   1      30.758  27.678  23.978  1.00  0.00     0.058 C 
ENDBRANCH   9  10
ENDBRANCH   6   9
ENDBRANCH   5   6
BRANCH   5  17
ATOM     17  C   UNL A   1      33.123  20.484  24.023  1.00  0.00     0.021 A 
ATOM     18  C   UNL A   1      32.252  19.757  23.190  1.00  0.00     0.010 A 
ATOM     19  C   UNL A   1      34.148  19.774  24.677  1.00  0.00     0.010 A 
ATOM     20  C   UNL A   1      32.401  18.378  23.018  1.00  0.00     0.001 A 
ATOM     21  C   UNL A   1      34.291  18.393  24.509  1.00  0.00     0.001 A 
ATOM     22  C   UNL A   1      33.420  17.696  23.677  1.00  0.00     0.000 A 
ENDBRANCH   5  17
ENDBRANCH   3   5
ENDBRANCH   2   3
ENDBRANCH   1   2
BRANCH   1  23
ATOM     23  C   UNL A   1      37.390  21.836  24.567  1.00  0.00     0.275 C 
BRANCH  23  24
ATOM     24  O   UNL A   1      37.775  22.178  25.909  1.00  0.00    -0.458 OA
BRANCH  24  25
ATOM     25  C   UNL A   1      39.105  22.124  26.153  1.00  0.00     0.338 C 
ATOM     26  O   UNL A   1      39.909  21.322  25.711  1.00  0.00    -0.246 OA
BRANCH  25  27
ATOM     27  C   UNL A   1      39.488  23.278  26.978  1.00  0.00     0.060 A 
ATOM     28  C   UNL A   1      38.802  24.472  26.791  1.00  0.00     0.016 A 
ATOM     29  C   UNL A   1      40.615  23.230  27.798  1.00  0.00     0.016 A 
ATOM     30  C   UNL A   1      39.315  25.650  27.327  1.00  0.00     0.010 A 
ATOM     31  C   UNL A   1      41.078  24.407  28.403  1.00  0.00     0.010 A 
ATOM     32  C   UNL A   1      40.472  25.646  28.120  1.00  0.00    -0.014 A 
BRANCH  32  33
ATOM     33  C   UNL A   1      41.100  26.942  28.525  1.00  0.00     0.031 A 
ATOM     34  C   UNL A   1      42.548  27.221  28.187  1.00  0.00     0.074 A 
ATOM     35  C   UNL A   1      40.375  27.920  29.104  1.00  0.00     0.049 A 
ATOM     36  N   UNL A   1      43.308  28.217  28.565  1.00  0.00    -0.248 NA
ATOM     37  C   UNL A   1      43.233  26.245  27.325  1.00  0.00     0.031 C 
ATOM     38  C   UNL A   1      38.952  27.842  29.438  1.00  0.00     0.029 A 
ATOM     39  N   UNL A   1      40.727  29.197  29.468  1.00  0.00    -0.354 N 
ATOM     40  C   UNL A   1      44.578  27.939  28.070  1.00  0.00     0.074 A 
ATOM     41  C   UNL A   1      44.480  26.693  27.340  1.00  0.00     0.031 C 
ATOM     42  C   UNL A   1      38.531  29.046  29.858  1.00  0.00     0.029 A 
ATOM     43  C   UNL A   1      39.669  29.959  29.904  1.00  0.00     0.049 A 
ATOM     44  H   UNL A   1      41.651  29.536  29.421  1.00  0.00     0.167 HD
ATOM     45  C   UNL A   1      45.724  28.649  28.217  1.00  0.00     0.037 A 
ATOM     46  C   UNL A   1      39.617  31.246  30.300  1.00  0.00     0.037 A 
ATOM     47  C   UNL A   1      45.808  29.938  28.850  1.00  0.00     0.049 A 
ATOM     48  C   UNL A   1      40.880  32.053  30.377  1.00  0.00     0.074 A 
ATOM     49  C   UNL A   1      46.929  30.714  29.096  1.00  0.00     0.029 A 
ATOM     50  N   UNL A   1      44.716  30.671  29.288  1.00  0.00    -0.354 N 
ATOM     51  N   UNL A   1      42.103  31.702  30.060  1.00  0.00    -0.248 NA
ATOM     52  C   UNL A   1      40.761  33.422  30.901  1.00  0.00     0.031 C 
ATOM     53  C   UNL A   1      46.512  31.920  29.675  1.00  0.00     0.029 A 
ATOM     54  C   UNL A   1      45.131  31.899  29.774  1.00  0.00     0.049 A 
ATOM     55  H   UNL A   1      43.782  30.362  29.257  1.00  0.00     0.167 HD
ATOM     56  C   UNL A   1      42.901  32.800  30.360  1.00  0.00     0.074 A 
ATOM     57  C   UNL A   1      42.020  33.840  30.850  1.00  0.00     0.031 C 
ATOM     58  C   UNL A   1      44.247  32.926  30.259  1.00  0.00     0.037 A 
BRANCH  45  59
ATOM     59  C   UNL A   1      46.991  28.011  27.724  1.00  0.00     0.058 A 
ATOM     60  C   UNL A   1      47.763  27.160  28.531  1.00  0.00     0.135 A 
ATOM     61  C   UNL A   1      47.442  28.268  26.420  1.00  0.00     0.135 A 
ATOM     62  F   UNL A   1      47.386  26.901  29.792  1.00  0.00    -0.206 F 
ATOM     63  C   UNL A   1      48.957  26.613  28.071  1.00  0.00     0.059 A 
ATOM     64  C   UNL A   1      48.622  27.715  25.932  1.00  0.00     0.059 A 
ATOM     65  F   UNL A   1      46.740  29.074  25.608  1.00  0.00    -0.206 F 
ATOM     66  C   UNL A   1      49.385  26.906  26.774  1.00  0.00     0.060 A 
BRANCH  66  67
ATOM     67  S   UNL A   1      50.947  26.219  26.184  1.00  0.00     0.124 S 
ATOM     68  O   UNL A   1      50.927  24.893  26.793  1.00  0.00    -0.237 OA
ATOM     69  O   UNL A   1      50.786  26.251  24.734  1.00  0.00    -0.237 OA
ATOM     70  O   UNL A   1      51.942  27.143  26.720  1.00  0.00    -0.744 OA
ENDBRANCH  66  67
ENDBRANCH  45  59
BRANCH  46  71
ATOM     71  C   UNL A   1      38.310  31.857  30.651  1.00  0.00     0.058 A 
ATOM     72  C   UNL A   1      37.825  31.788  31.967  1.00  0.00     0.135 A 
ATOM     73  C   UNL A   1      37.538  32.540  29.700  1.00  0.00     0.135 A 
ATOM     74  F   UNL A   1      38.526  31.135  32.905  1.00  0.00    -0.206 F 
ATOM     75  C   UNL A   1      36.619  32.376  32.329  1.00  0.00     0.059 A 
ATOM     76  C   UNL A   1      36.339  33.154  30.044  1.00  0.00     0.059 A 
ATOM     77  F   UNL A   1      37.967  32.640  28.433  1.00  0.00    -0.206 F 
ATOM     78  C   UNL A   1      35.884  33.061  31.360  1.00  0.00     0.060 A 
BRANCH  78  79
ATOM     79  S   UNL A   1      34.358  33.899  31.840  1.00  0.00     0.124 S 
ATOM     80  O   UNL A   1      34.873  35.089  32.503  1.00  0.00    -0.237 OA
ATOM     81  O   UNL A   1      33.698  34.119  30.556  1.00  0.00    -0.237 OA
ATOM     82  O   UNL A   1      33.706  32.920  32.706  1.00  0.00    -0.744 OA
ENDBRANCH  78  79
ENDBRANCH  46  71
BRANCH  58  83
ATOM     83  C   UNL A   1      44.840  34.234  30.688  1.00  0.00     0.058 A 
ATOM     84  C   UNL A   1      45.242  34.448  32.015  1.00  0.00     0.135 A 
ATOM     85  C   UNL A   1      45.014  35.279  29.769  1.00  0.00     0.135 A 
ATOM     86  F   UNL A   1      45.091  33.479  32.931  1.00  0.00    -0.206 F 
ATOM     87  C   UNL A   1      45.771  35.667  32.425  1.00  0.00     0.059 A 
ATOM     88  C   UNL A   1      45.553  36.502  30.154  1.00  0.00     0.059 A 
ATOM     89  F   UNL A   1      44.648  35.120  28.487  1.00  0.00    -0.206 F 
ATOM     90  C   UNL A   1      45.914  36.692  31.488  1.00  0.00     0.060 A 
BRANCH  90  91
ATOM     91  S   UNL A   1      46.602  38.274  32.021  1.00  0.00     0.124 S 
ATOM     92  O   UNL A   1      45.938  38.464  33.307  1.00  0.00    -0.237 OA
ATOM     93  O   UNL A   1      48.034  37.997  32.083  1.00  0.00    -0.237 OA
ATOM     94  O   UNL A   1      46.195  39.191  30.961  1.00  0.00    -0.744 OA
ENDBRANCH  90  91
ENDBRANCH  58  83
ENDBRANCH  32  33
ENDBRANCH  25  27
ENDBRANCH  24  25
ENDBRANCH  23  24
ENDBRANCH   1  23
TORSDOF 18
ENDMDL
MODEL 3
REMARK VINA RESULT:      -9.4      5.996      9.648
REMARK SMILES Cc1nc(C[NH2+][C@@H](C(=O)OCCOC(=O)c2ccc(-c3c4nc(c(-c5c(F)cc(S(=O)(=O)[O-])cc5F)c5ccc([nH]5)c(-c5c(F)cc(S(=O)(=O)[O-])cc5F)c5nc(c(-c6c(F)cc(S(=O)(=O)[O-])cc6F)c6ccc3[nH]6)C=C5)C=C4)cc2)c2ccccc2)sc1C
REMARK SMILES IDX 11 1 10 2 8 3 9 4 7 5 6 6 5 9 4 10 1 11 2 12 3 13 89 14
REMARK SMILES IDX 88 15 90 16 82 17 83 18 87 19 84 20 86 21 85 22 12 23 13 24
REMARK SMILES IDX 14 25 15 26 16 27 17 28 81 29 18 30 80 31 19 32 20 33 21 34
REMARK SMILES IDX 74 35 22 36 79 37 73 38 75 39 23 40 78 41 72 42 71 43 24 45
REMARK SMILES IDX 58 46 37 47 57 48 38 49 41 50 56 51 76 52 39 53 40 54 55 56
REMARK SMILES IDX 77 57 42 58 25 59 26 60 35 61 27 62 28 63 34 64 36 65 29 66
REMARK SMILES IDX 30 67 31 68 32 69 33 70 59 71 60 72 69 73 61 74 62 75 68 76
REMARK SMILES IDX 70 77 63 78 64 79 65 80 66 81 67 82 43 83 44 84 53 85 45 86
REMARK SMILES IDX 46 87 52 88 54 89 47 90 48 91 49 92 50 93 51 94
REMARK H PARENT 6 7 6 8 75 44 41 55
REMARK Flexibility Score: inf
ROOT
ATOM      1  C   UNL A   1      35.975  21.979  24.405  1.00  0.00     0.274 C 
ENDROOT
BRANCH   1   2
ATOM      2  O   UNL A   1      35.756  23.395  24.569  1.00  0.00    -0.457 OA
BRANCH   2   3
ATOM      3  C   UNL A   1      34.529  23.882  24.211  1.00  0.00     0.369 C 
ATOM      4  O   UNL A   1      34.271  24.305  23.089  1.00  0.00    -0.245 OA
BRANCH   3   5
ATOM      5  C   UNL A   1      33.523  23.890  25.396  1.00  0.00     0.325 C 
BRANCH   5   6
ATOM      6  N   UNL A   1      32.413  22.930  25.211  1.00  0.00    -0.325 N 
ATOM      7  H   UNL A   1      31.534  23.412  25.404  1.00  0.00     0.347 HD
ATOM      8  H   UNL A   1      32.465  22.592  24.251  1.00  0.00     0.347 HD
BRANCH   6   9
ATOM      9  C   UNL A   1      32.503  21.762  26.085  1.00  0.00     0.330 C 
BRANCH   9  10
ATOM     10  C   UNL A   1      32.536  20.493  25.275  1.00  0.00     0.148 A 
ATOM     11  C   UNL A   1      32.537  16.902  25.230  1.00  0.00     0.068 C 
ATOM     12  C   UNL A   1      32.549  18.326  24.806  1.00  0.00     0.052 A 
ATOM     13  N   UNL A   1      32.628  19.286  25.796  1.00  0.00    -0.240 NA
ATOM     14  C   UNL A   1      32.476  18.827  23.516  1.00  0.00     0.025 A 
ATOM     15  S   UNL A   1      32.449  20.542  23.562  1.00  0.00    -0.118 S 
ATOM     16  C   UNL A   1      32.403  18.095  22.225  1.00  0.00     0.058 C 
ENDBRANCH   9  10
ENDBRANCH   6   9
ENDBRANCH   5   6
BRANCH   5  17
ATOM     17  C   UNL A   1      33.003  25.297  25.707  1.00  0.00     0.021 A 
ATOM     18  C   UNL A   1      33.845  26.423  25.770  1.00  0.00     0.010 A 
ATOM     19  C   UNL A   1      31.627  25.495  25.925  1.00  0.00     0.010 A 
ATOM     20  C   UNL A   1      33.331  27.694  26.039  1.00  0.00     0.001 A 
ATOM     21  C   UNL A   1      31.115  26.767  26.202  1.00  0.00     0.001 A 
ATOM     22  C   UNL A   1      31.967  27.866  26.255  1.00  0.00     0.000 A 
ENDBRANCH   5  17
ENDBRANCH   3   5
ENDBRANCH   2   3
ENDBRANCH   1   2
BRANCH   1  23
ATOM     23  C   UNL A   1      37.439  21.642  24.674  1.00  0.00     0.275 C 
BRANCH  23  24
ATOM     24  O   UNL A   1      37.825  22.168  25.956  1.00  0.00    -0.458 OA
BRANCH  24  25
ATOM     25  C   UNL A   1      39.137  22.028  26.258  1.00  0.00     0.338 C 
ATOM     26  O   UNL A   1      39.874  21.107  25.953  1.00  0.00    -0.246 OA
BRANCH  25  27
ATOM     27  C   UNL A   1      39.602  23.240  26.945  1.00  0.00     0.060 A 
ATOM     28  C   UNL A   1      39.097  24.465  26.524  1.00  0.00     0.016 A 
ATOM     29  C   UNL A   1      40.643  23.184  27.871  1.00  0.00     0.016 A 
ATOM     30  C   UNL A   1      39.717  25.641  26.936  1.00  0.00     0.010 A 
ATOM     31  C   UNL A   1      41.208  24.377  28.345  1.00  0.00     0.010 A 
ATOM     32  C   UNL A   1      40.797  25.620  27.832  1.00  0.00    -0.014 A 
BRANCH  32  33
ATOM     33  C   UNL A   1      41.557  26.879  28.110  1.00  0.00     0.031 A 
ATOM     34  C   UNL A   1      40.912  27.994  28.901  1.00  0.00     0.074 A 
ATOM     35  C   UNL A   1      42.851  27.008  27.753  1.00  0.00     0.049 A 
ATOM     36  N   UNL A   1      41.350  29.208  29.129  1.00  0.00    -0.248 NA
ATOM     37  C   UNL A   1      39.597  27.716  29.500  1.00  0.00     0.031 C 
ATOM     38  C   UNL A   1      43.644  26.002  27.044  1.00  0.00     0.029 A 
ATOM     39  N   UNL A   1      43.745  28.025  27.986  1.00  0.00    -0.354 N 
ATOM     40  C   UNL A   1      40.329  29.861  29.811  1.00  0.00     0.074 A 
ATOM     41  C   UNL A   1      39.258  28.902  29.984  1.00  0.00     0.031 C 
ATOM     42  C   UNL A   1      44.924  26.406  26.993  1.00  0.00     0.029 A 
ATOM     43  C   UNL A   1      45.028  27.734  27.589  1.00  0.00     0.049 A 
ATOM     44  H   UNL A   1      43.490  28.882  28.399  1.00  0.00     0.167 HD
ATOM     45  C   UNL A   1      40.280  31.145  30.245  1.00  0.00     0.037 A 
ATOM     46  C   UNL A   1      46.163  28.454  27.688  1.00  0.00     0.037 A 
ATOM     47  C   UNL A   1      41.378  32.072  30.171  1.00  0.00     0.049 A 
ATOM     48  C   UNL A   1      46.116  29.845  28.251  1.00  0.00     0.074 A 
ATOM     49  C   UNL A   1      41.413  33.408  30.534  1.00  0.00     0.029 A 
ATOM     50  N   UNL A   1      42.658  31.742  29.752  1.00  0.00    -0.354 N 
ATOM     51  N   UNL A   1      45.091  30.503  28.736  1.00  0.00    -0.248 NA
ATOM     52  C   UNL A   1      47.376  30.603  28.249  1.00  0.00     0.031 C 
ATOM     53  C   UNL A   1      42.717  33.883  30.342  1.00  0.00     0.029 A 
ATOM     54  C   UNL A   1      43.496  32.838  29.875  1.00  0.00     0.049 A 
ATOM     55  H   UNL A   1      42.931  30.857  29.417  1.00  0.00     0.167 HD
ATOM     56  C   UNL A   1      45.578  31.759  29.080  1.00  0.00     0.074 A 
ATOM     57  C   UNL A   1      46.996  31.757  28.784  1.00  0.00     0.031 C 
ATOM     58  C   UNL A   1      44.904  32.825  29.577  1.00  0.00     0.037 A 
BRANCH  45  59
ATOM     59  C   UNL A   1      38.970  31.632  30.794  1.00  0.00     0.058 A 
ATOM     60  C   UNL A   1      37.942  32.105  29.964  1.00  0.00     0.135 A 
ATOM     61  C   UNL A   1      38.748  31.631  32.180  1.00  0.00     0.135 A 
ATOM     62  F   UNL A   1      38.113  32.146  28.634  1.00  0.00    -0.206 F 
ATOM     63  C   UNL A   1      36.750  32.593  30.493  1.00  0.00     0.059 A 
ATOM     64  C   UNL A   1      37.558  32.095  32.730  1.00  0.00     0.059 A 
ATOM     65  F   UNL A   1      39.700  31.188  33.016  1.00  0.00    -0.206 F 
ATOM     66  C   UNL A   1      36.572  32.595  31.879  1.00  0.00     0.060 A 
BRANCH  66  67
ATOM     67  S   UNL A   1      35.039  33.252  32.571  1.00  0.00     0.124 S 
ATOM     68  O   UNL A   1      35.108  34.647  32.148  1.00  0.00    -0.237 OA
ATOM     69  O   UNL A   1      34.017  32.442  31.916  1.00  0.00    -0.237 OA
ATOM     70  O   UNL A   1      35.193  33.020  34.004  1.00  0.00    -0.744 OA
ENDBRANCH  66  67
ENDBRANCH  45  59
BRANCH  46  71
ATOM     71  C   UNL A   1      47.452  27.864  27.246  1.00  0.00     0.058 A 
ATOM     72  C   UNL A   1      47.832  27.921  25.896  1.00  0.00     0.135 A 
ATOM     73  C   UNL A   1      48.335  27.262  28.153  1.00  0.00     0.135 A 
ATOM     74  F   UNL A   1      47.011  28.477  24.992  1.00  0.00    -0.206 F 
ATOM     75  C   UNL A   1      49.045  27.402  25.460  1.00  0.00     0.059 A 
ATOM     76  C   UNL A   1      49.563  26.755  27.744  1.00  0.00     0.059 A 
ATOM     77  F   UNL A   1      48.018  27.195  29.455  1.00  0.00    -0.206 F 
ATOM     78  C   UNL A   1      49.907  26.823  26.393  1.00  0.00     0.060 A 
BRANCH  78  79
ATOM     79  S   UNL A   1      51.521  26.222  25.849  1.00  0.00     0.124 S 
ATOM     80  O   UNL A   1      51.444  26.438  24.410  1.00  0.00    -0.237 OA
ATOM     81  O   UNL A   1      52.444  27.089  26.575  1.00  0.00    -0.237 OA
ATOM     82  O   UNL A   1      51.513  24.828  26.284  1.00  0.00    -0.744 OA
ENDBRANCH  78  79
ENDBRANCH  46  71
BRANCH  58  83
ATOM     83  C   UNL A   1      45.697  34.072  29.829  1.00  0.00     0.058 A 
ATOM     84  C   UNL A   1      46.306  34.306  31.072  1.00  0.00     0.135 A 
ATOM     85  C   UNL A   1      45.856  35.037  28.824  1.00  0.00     0.135 A 
ATOM     86  F   UNL A   1      46.178  33.412  32.066  1.00  0.00    -0.206 F 
ATOM     87  C   UNL A   1      47.023  35.471  31.320  1.00  0.00     0.059 A 
ATOM     88  C   UNL A   1      46.580  36.204  29.047  1.00  0.00     0.059 A 
ATOM     89  F   UNL A   1      45.296  34.855  27.618  1.00  0.00    -0.206 F 
ATOM     90  C   UNL A   1      47.147  36.419  30.304  1.00  0.00     0.060 A 
BRANCH  90  91
ATOM     91  S   UNL A   1      48.080  37.931  30.627  1.00  0.00     0.124 S 
ATOM     92  O   UNL A   1      48.974  37.975  29.475  1.00  0.00    -0.237 OA
ATOM     93  O   UNL A   1      47.037  38.952  30.658  1.00  0.00    -0.237 OA
ATOM     94  O   UNL A   1      48.721  37.662  31.911  1.00  0.00    -0.744 OA
ENDBRANCH  90  91
ENDBRANCH  58  83
ENDBRANCH  32  33
ENDBRANCH  25  27
ENDBRANCH  24  25
ENDBRANCH  23  24
ENDBRANCH   1  23
TORSDOF 18
ENDMDL
