MODEL 1
REMARK VINA RESULT:     -11.5      0.000      0.000
REMARK SMILES O=C(OCCOC(=O)c1cncc(Nc2cccnc2)n1)c1ccc(-c2c3nc(c(-c4c(F)cc(S(=O)(=O)[O-])cc4F)c4ccc([nH]4)c(-c4c(F)cc(S(=O)(=O)[O-])cc4F)c4nc(c(-c5c(F)cc(S(=O)(=O)[O-])cc5F)c5ccc2[nH]5)C=C4)C=C3)cc1
REMARK SMILES IDX 4 1 3 2 2 3 1 4 22 5 23 6 87 7 24 8 86 9 25 10 26 11 27 12
REMARK SMILES IDX 80 13 28 14 85 15 79 16 81 17 29 18 84 19 78 20 77 21 30 23
REMARK SMILES IDX 64 24 43 25 63 26 44 27 47 28 62 29 82 30 45 31 46 32 61 34
REMARK SMILES IDX 83 35 48 36 31 37 32 38 41 39 33 40 34 41 40 42 42 43 35 44
REMARK SMILES IDX 36 45 37 46 38 47 39 48 65 49 66 50 75 51 67 52 68 53 74 54
REMARK SMILES IDX 76 55 69 56 70 57 71 58 72 59 73 60 49 61 50 62 59 63 51 64
REMARK SMILES IDX 52 65 58 66 60 67 53 68 54 69 55 70 56 71 57 72 5 73 6 74
REMARK SMILES IDX 7 75 8 76 9 77 10 78 21 79 11 80 13 81 12 82 14 83 15 85
REMARK SMILES IDX 16 86 20 87 17 88 19 89 18 90
REMARK H PARENT 81 22 47 33 14 84
REMARK Flexibility Score: inf
ROOT
ATOM      1  C   UNL A   1      41.708  22.804  27.385  1.00  0.00     0.275 C 
ENDROOT
BRANCH   1   2
ATOM      2  O   UNL A   1      41.192  23.671  26.363  1.00  0.00    -0.458 OA
BRANCH   2   3
ATOM      3  C   UNL A   1      41.071  25.019  26.336  1.00  0.00     0.338 C 
ATOM      4  O   UNL A   1      41.152  25.590  25.249  1.00  0.00    -0.246 OA
BRANCH   3   5
ATOM      5  C   UNL A   1      40.954  25.876  27.562  1.00  0.00     0.060 A 
ATOM      6  C   UNL A   1      39.877  25.912  28.454  1.00  0.00     0.016 A 
ATOM      7  C   UNL A   1      42.029  26.751  27.804  1.00  0.00     0.016 A 
ATOM      8  C   UNL A   1      39.879  26.760  29.566  1.00  0.00     0.010 A 
ATOM      9  C   UNL A   1      42.036  27.606  28.909  1.00  0.00     0.010 A 
ATOM     10  C   UNL A   1      40.949  27.624  29.788  1.00  0.00    -0.014 A 
BRANCH  10  11
ATOM     11  C   UNL A   1      40.853  28.684  30.813  1.00  0.00     0.031 A 
ATOM     12  C   UNL A   1      41.713  28.555  32.032  1.00  0.00     0.074 A 
ATOM     13  C   UNL A   1      40.016  29.724  30.665  1.00  0.00     0.049 A 
ATOM     14  N   UNL A   1      41.755  29.305  33.097  1.00  0.00    -0.248 NA
ATOM     15  C   UNL A   1      42.669  27.434  32.039  1.00  0.00     0.031 C 
ATOM     16  C   UNL A   1      39.211  29.989  29.478  1.00  0.00     0.029 A 
ATOM     17  N   UNL A   1      39.673  30.731  31.530  1.00  0.00    -0.354 N 
ATOM     18  C   UNL A   1      42.752  28.761  33.894  1.00  0.00     0.074 A 
ATOM     19  C   UNL A   1      43.253  27.587  33.215  1.00  0.00     0.031 C 
ATOM     20  C   UNL A   1      38.393  31.026  29.720  1.00  0.00     0.029 A 
ATOM     21  C   UNL A   1      38.626  31.501  31.079  1.00  0.00     0.049 A 
ATOM     22  H   UNL A   1      40.129  30.886  32.388  1.00  0.00     0.167 HD
ATOM     23  C   UNL A   1      43.219  29.217  35.078  1.00  0.00     0.037 A 
ATOM     24  C   UNL A   1      37.922  32.462  31.709  1.00  0.00     0.037 A 
ATOM     25  C   UNL A   1      42.671  30.361  35.753  1.00  0.00     0.049 A 
ATOM     26  C   UNL A   1      38.360  32.877  33.086  1.00  0.00     0.074 A 
ATOM     27  C   UNL A   1      43.046  30.915  36.961  1.00  0.00     0.029 A 
ATOM     28  N   UNL A   1      41.603  31.113  35.278  1.00  0.00    -0.354 N 
ATOM     29  N   UNL A   1      39.333  32.386  33.819  1.00  0.00    -0.248 NA
ATOM     30  C   UNL A   1      37.640  33.993  33.713  1.00  0.00     0.031 C 
ATOM     31  C   UNL A   1      42.173  31.971  37.240  1.00  0.00     0.029 A 
ATOM     32  C   UNL A   1      41.289  32.113  36.179  1.00  0.00     0.049 A 
ATOM     33  H   UNL A   1      41.138  30.956  34.424  1.00  0.00     0.167 HD
ATOM     34  C   UNL A   1      39.379  33.165  34.967  1.00  0.00     0.074 A 
ATOM     35  C   UNL A   1      38.319  34.147  34.844  1.00  0.00     0.031 C 
ATOM     36  C   UNL A   1      40.238  33.090  36.014  1.00  0.00     0.037 A 
BRANCH  23  37
ATOM     37  C   UNL A   1      44.337  28.436  35.706  1.00  0.00     0.058 A 
ATOM     38  C   UNL A   1      44.088  27.412  36.636  1.00  0.00     0.135 A 
ATOM     39  C   UNL A   1      45.675  28.765  35.438  1.00  0.00     0.135 A 
ATOM     40  F   UNL A   1      42.826  27.075  36.949  1.00  0.00    -0.206 F 
ATOM     41  C   UNL A   1      45.123  26.782  37.320  1.00  0.00     0.059 A 
ATOM     42  C   UNL A   1      46.727  28.128  36.089  1.00  0.00     0.059 A 
ATOM     43  F   UNL A   1      45.969  29.738  34.561  1.00  0.00    -0.206 F 
ATOM     44  C   UNL A   1      46.439  27.158  37.049  1.00  0.00     0.060 A 
BRANCH  44  45
ATOM     45  S   UNL A   1      47.769  26.384  37.992  1.00  0.00     0.124 S 
ATOM     46  O   UNL A   1      47.248  25.033  38.172  1.00  0.00    -0.237 OA
ATOM     47  O   UNL A   1      48.907  26.507  37.087  1.00  0.00    -0.237 OA
ATOM     48  O   UNL A   1      47.844  27.195  39.203  1.00  0.00    -0.744 OA
ENDBRANCH  44  45
ENDBRANCH  23  37
BRANCH  24  49
ATOM     49  C   UNL A   1      36.753  33.081  31.029  1.00  0.00     0.058 A 
ATOM     50  C   UNL A   1      35.440  32.806  31.434  1.00  0.00     0.135 A 
ATOM     51  C   UNL A   1      36.934  34.016  29.995  1.00  0.00     0.135 A 
ATOM     52  F   UNL A   1      35.213  31.918  32.414  1.00  0.00    -0.206 F 
ATOM     53  C   UNL A   1      34.346  33.433  30.843  1.00  0.00     0.059 A 
ATOM     54  C   UNL A   1      35.858  34.669  29.399  1.00  0.00     0.059 A 
ATOM     55  F   UNL A   1      38.171  34.328  29.578  1.00  0.00    -0.206 F 
ATOM     56  C   UNL A   1      34.566  34.371  29.831  1.00  0.00     0.060 A 
BRANCH  56  57
ATOM     57  S   UNL A   1      33.143  35.232  29.125  1.00  0.00     0.124 S 
ATOM     58  O   UNL A   1      32.318  35.458  30.307  1.00  0.00    -0.237 OA
ATOM     59  O   UNL A   1      33.762  36.417  28.542  1.00  0.00    -0.237 OA
ATOM     60  O   UNL A   1      32.612  34.272  28.161  1.00  0.00    -0.744 OA
ENDBRANCH  56  57
ENDBRANCH  24  49
BRANCH  36  61
ATOM     61  C   UNL A   1      40.121  34.134  37.087  1.00  0.00     0.058 A 
ATOM     62  C   UNL A   1      40.713  35.398  36.959  1.00  0.00     0.135 A 
ATOM     63  C   UNL A   1      39.297  33.899  38.200  1.00  0.00     0.135 A 
ATOM     64  F   UNL A   1      41.517  35.665  35.918  1.00  0.00    -0.206 F 
ATOM     65  C   UNL A   1      40.486  36.399  37.896  1.00  0.00     0.059 A 
ATOM     66  C   UNL A   1      39.036  34.893  39.135  1.00  0.00     0.059 A 
ATOM     67  F   UNL A   1      38.702  32.706  38.361  1.00  0.00    -0.206 F 
ATOM     68  C   UNL A   1      39.635  36.141  38.974  1.00  0.00     0.060 A 
BRANCH  68  69
ATOM     69  S   UNL A   1      39.271  37.479  40.130  1.00  0.00     0.124 S 
ATOM     70  O   UNL A   1      38.721  36.745  41.264  1.00  0.00    -0.237 OA
ATOM     71  O   UNL A   1      40.586  38.077  40.339  1.00  0.00    -0.237 OA
ATOM     72  O   UNL A   1      38.321  38.311  39.398  1.00  0.00    -0.744 OA
ENDBRANCH  68  69
ENDBRANCH  36  61
ENDBRANCH  10  11
ENDBRANCH   3   5
ENDBRANCH   2   3
ENDBRANCH   1   2
BRANCH   1  73
ATOM     73  C   UNL A   1      40.924  21.504  27.558  1.00  0.00     0.275 C 
BRANCH  73  74
ATOM     74  O   UNL A   1      41.735  20.322  27.463  1.00  0.00    -0.457 OA
BRANCH  74  75
ATOM     75  C   UNL A   1      41.630  19.629  26.291  1.00  0.00     0.358 C 
ATOM     76  O   UNL A   1      40.607  19.223  25.783  1.00  0.00    -0.244 OA
BRANCH  75  77
ATOM     77  C   UNL A   1      42.985  19.480  25.711  1.00  0.00     0.169 A 
ATOM     78  C   UNL A   1      43.712  18.333  25.971  1.00  0.00     0.147 A 
ATOM     79  N   UNL A   1      43.466  20.507  24.950  1.00  0.00    -0.220 NA
ATOM     80  N   UNL A   1      44.960  18.161  25.495  1.00  0.00    -0.258 NA
ATOM     81  C   UNL A   1      44.732  20.372  24.498  1.00  0.00     0.149 A 
ATOM     82  C   UNL A   1      45.455  19.209  24.785  1.00  0.00     0.158 A 
BRANCH  81  83
ATOM     83  N   UNL A   1      45.277  21.465  23.819  1.00  0.00    -0.338 N 
ATOM     84  H   UNL A   1      45.608  21.260  22.915  1.00  0.00     0.168 HD
BRANCH  83  85
ATOM     85  C   UNL A   1      45.432  22.800  24.204  1.00  0.00     0.058 A 
ATOM     86  C   UNL A   1      46.685  23.398  24.351  1.00  0.00     0.029 A 
ATOM     87  C   UNL A   1      44.331  23.585  24.554  1.00  0.00     0.137 A 
ATOM     88  C   UNL A   1      46.798  24.693  24.851  1.00  0.00     0.022 A 
ATOM     89  N   UNL A   1      44.403  24.855  25.023  1.00  0.00    -0.263 NA
ATOM     90  C   UNL A   1      45.639  25.371  25.184  1.00  0.00     0.111 A 
ENDBRANCH  83  85
ENDBRANCH  81  83
ENDBRANCH  75  77
ENDBRANCH  74  75
ENDBRANCH  73  74
ENDBRANCH   1  73
TORSDOF 16
ENDMDL
MODEL 2
REMARK VINA RESULT:     -11.5      4.108      5.000
REMARK SMILES O=C(OCCOC(=O)c1cncc(Nc2cccnc2)n1)c1ccc(-c2c3nc(c(-c4c(F)cc(S(=O)(=O)[O-])cc4F)c4ccc([nH]4)c(-c4c(F)cc(S(=O)(=O)[O-])cc4F)c4nc(c(-c5c(F)cc(S(=O)(=O)[O-])cc5F)c5ccc2[nH]5)C=C4)C=C3)cc1
REMARK SMILES IDX 4 1 3 2 2 3 1 4 22 5 23 6 87 7 24 8 86 9 25 10 26 11 27 12
REMARK SMILES IDX 80 13 28 14 85 15 79 16 81 17 29 18 84 19 78 20 77 21 30 23
REMARK SMILES IDX 64 24 43 25 63 26 44 27 47 28 62 29 82 30 45 31 46 32 61 34
REMARK SMILES IDX 83 35 48 36 31 37 32 38 41 39 33 40 34 41 40 42 42 43 35 44
REMARK SMILES IDX 36 45 37 46 38 47 39 48 65 49 66 50 75 51 67 52 68 53 74 54
REMARK SMILES IDX 76 55 69 56 70 57 71 58 72 59 73 60 49 61 50 62 59 63 51 64
REMARK SMILES IDX 52 65 58 66 60 67 53 68 54 69 55 70 56 71 57 72 5 73 6 74
REMARK SMILES IDX 7 75 8 76 9 77 10 78 21 79 11 80 13 81 12 82 14 83 15 85
REMARK SMILES IDX 16 86 20 87 17 88 19 89 18 90
REMARK H PARENT 81 22 47 33 14 84
REMARK Flexibility Score: inf
ROOT
ATOM      1  C   UNL A   1      40.751  21.323  27.505  1.00  0.00     0.275 C 
ENDROOT
BRANCH   1   2
ATOM      2  O   UNL A   1      39.775  21.710  26.525  1.00  0.00    -0.458 OA
BRANCH   2   3
ATOM      3  C   UNL A   1      38.999  22.815  26.451  1.00  0.00     0.338 C 
ATOM      4  O   UNL A   1      37.889  22.714  25.927  1.00  0.00    -0.246 OA
BRANCH   3   5
ATOM      5  C   UNL A   1      39.445  24.185  26.869  1.00  0.00     0.060 A 
ATOM      6  C   UNL A   1      40.136  25.113  26.082  1.00  0.00     0.016 A 
ATOM      7  C   UNL A   1      39.162  24.543  28.200  1.00  0.00     0.016 A 
ATOM      8  C   UNL A   1      40.504  26.365  26.585  1.00  0.00     0.010 A 
ATOM      9  C   UNL A   1      39.533  25.789  28.713  1.00  0.00     0.010 A 
ATOM     10  C   UNL A   1      40.221  26.701  27.907  1.00  0.00    -0.014 A 
BRANCH  10  11
ATOM     11  C   UNL A   1      40.814  27.912  28.513  1.00  0.00     0.031 A 
ATOM     12  C   UNL A   1      42.280  27.891  28.818  1.00  0.00     0.074 A 
ATOM     13  C   UNL A   1      40.065  28.992  28.791  1.00  0.00     0.049 A 
ATOM     14  N   UNL A   1      43.013  28.790  29.413  1.00  0.00    -0.248 NA
ATOM     15  C   UNL A   1      43.021  26.698  28.372  1.00  0.00     0.031 C 
ATOM     16  C   UNL A   1      38.657  29.145  28.447  1.00  0.00     0.029 A 
ATOM     17  N   UNL A   1      40.372  30.148  29.461  1.00  0.00    -0.354 N 
ATOM     18  C   UNL A   1      44.305  28.282  29.399  1.00  0.00     0.074 A 
ATOM     19  C   UNL A   1      44.247  26.975  28.784  1.00  0.00     0.031 C 
ATOM     20  C   UNL A   1      38.189  30.281  28.991  1.00  0.00     0.029 A 
ATOM     21  C   UNL A   1      39.273  30.936  29.715  1.00  0.00     0.049 A 
ATOM     22  H   UNL A   1      41.287  30.389  29.733  1.00  0.00     0.167 HD
ATOM     23  C   UNL A   1      45.439  28.870  29.842  1.00  0.00     0.037 A 
ATOM     24  C   UNL A   1      39.157  32.045  30.471  1.00  0.00     0.037 A 
ATOM     25  C   UNL A   1      45.461  30.151  30.491  1.00  0.00     0.049 A 
ATOM     26  C   UNL A   1      40.405  32.625  31.079  1.00  0.00     0.074 A 
ATOM     27  C   UNL A   1      46.541  30.846  30.997  1.00  0.00     0.029 A 
ATOM     28  N   UNL A   1      44.331  30.919  30.746  1.00  0.00    -0.354 N 
ATOM     29  N   UNL A   1      41.633  32.162  31.025  1.00  0.00    -0.248 NA
ATOM     30  C   UNL A   1      40.270  33.887  31.816  1.00  0.00     0.031 C 
ATOM     31  C   UNL A   1      46.059  32.012  31.601  1.00  0.00     0.029 A 
ATOM     32  C   UNL A   1      44.683  32.071  31.423  1.00  0.00     0.049 A 
ATOM     33  H   UNL A   1      43.413  30.677  30.483  1.00  0.00     0.167 HD
ATOM     34  C   UNL A   1      42.425  33.101  31.672  1.00  0.00     0.074 A 
ATOM     35  C   UNL A   1      41.533  34.149  32.130  1.00  0.00     0.031 C 
ATOM     36  C   UNL A   1      43.770  33.107  31.846  1.00  0.00     0.037 A 
BRANCH  23  37
ATOM     37  C   UNL A   1      46.712  28.092  29.667  1.00  0.00     0.058 A 
ATOM     38  C   UNL A   1      47.428  28.115  28.458  1.00  0.00     0.135 A 
ATOM     39  C   UNL A   1      47.181  27.253  30.690  1.00  0.00     0.135 A 
ATOM     40  F   UNL A   1      47.009  28.880  27.438  1.00  0.00    -0.206 F 
ATOM     41  C   UNL A   1      48.529  27.290  28.249  1.00  0.00     0.059 A 
ATOM     42  C   UNL A   1      48.297  26.441  30.514  1.00  0.00     0.059 A 
ATOM     43  F   UNL A   1      46.532  27.190  31.864  1.00  0.00    -0.206 F 
ATOM     44  C   UNL A   1      48.947  26.446  29.279  1.00  0.00     0.060 A 
BRANCH  44  45
ATOM     45  S   UNL A   1      50.332  25.330  28.972  1.00  0.00     0.124 S 
ATOM     46  O   UNL A   1      51.358  26.262  28.514  1.00  0.00    -0.237 OA
ATOM     47  O   UNL A   1      50.556  24.740  30.287  1.00  0.00    -0.237 OA
ATOM     48  O   UNL A   1      49.814  24.416  27.958  1.00  0.00    -0.744 OA
ENDBRANCH  44  45
ENDBRANCH  23  37
BRANCH  24  49
ATOM     49  C   UNL A   1      37.819  32.660  30.672  1.00  0.00     0.058 A 
ATOM     50  C   UNL A   1      37.037  32.361  31.796  1.00  0.00     0.135 A 
ATOM     51  C   UNL A   1      37.322  33.615  29.768  1.00  0.00     0.135 A 
ATOM     52  F   UNL A   1      37.464  31.454  32.687  1.00  0.00    -0.206 F 
ATOM     53  C   UNL A   1      35.812  32.985  32.020  1.00  0.00     0.059 A 
ATOM     54  C   UNL A   1      36.108  34.264  29.978  1.00  0.00     0.059 A 
ATOM     55  F   UNL A   1      38.037  33.950  28.682  1.00  0.00    -0.206 F 
ATOM     56  C   UNL A   1      35.359  33.942  31.109  1.00  0.00     0.060 A 
BRANCH  56  57
ATOM     57  S   UNL A   1      33.804  34.796  31.452  1.00  0.00     0.124 S 
ATOM     58  O   UNL A   1      33.084  34.615  30.197  1.00  0.00    -0.237 OA
ATOM     59  O   UNL A   1      33.293  34.048  32.596  1.00  0.00    -0.237 OA
ATOM     60  O   UNL A   1      34.228  36.163  31.745  1.00  0.00    -0.744 OA
ENDBRANCH  56  57
ENDBRANCH  24  49
BRANCH  36  61
ATOM     61  C   UNL A   1      44.381  34.311  32.503  1.00  0.00     0.058 A 
ATOM     62  C   UNL A   1      44.738  35.453  31.772  1.00  0.00     0.135 A 
ATOM     63  C   UNL A   1      44.493  34.359  33.902  1.00  0.00     0.135 A 
ATOM     64  F   UNL A   1      44.658  35.451  30.432  1.00  0.00    -0.206 F 
ATOM     65  C   UNL A   1      45.177  36.608  32.408  1.00  0.00     0.059 A 
ATOM     66  C   UNL A   1      44.906  35.511  34.560  1.00  0.00     0.059 A 
ATOM     67  F   UNL A   1      44.157  33.292  34.644  1.00  0.00    -0.206 F 
ATOM     68  C   UNL A   1      45.245  36.631  33.804  1.00  0.00     0.060 A 
BRANCH  68  69
ATOM     69  S   UNL A   1      45.725  38.168  34.622  1.00  0.00     0.124 S 
ATOM     70  O   UNL A   1      45.027  38.051  35.898  1.00  0.00    -0.237 OA
ATOM     71  O   UNL A   1      47.178  38.050  34.680  1.00  0.00    -0.237 OA
ATOM     72  O   UNL A   1      45.222  39.202  33.723  1.00  0.00    -0.744 OA
ENDBRANCH  68  69
ENDBRANCH  36  61
ENDBRANCH  10  11
ENDBRANCH   3   5
ENDBRANCH   2   3
ENDBRANCH   1   2
BRANCH   1  73
ATOM     73  C   UNL A   1      41.373  19.949  27.263  1.00  0.00     0.275 C 
BRANCH  73  74
ATOM     74  O   UNL A   1      41.913  19.782  25.943  1.00  0.00    -0.457 OA
BRANCH  74  75
ATOM     75  C   UNL A   1      42.750  18.717  25.779  1.00  0.00     0.358 C 
ATOM     76  O   UNL A   1      42.467  17.547  25.935  1.00  0.00    -0.244 OA
BRANCH  75  77
ATOM     77  C   UNL A   1      44.070  19.220  25.337  1.00  0.00     0.169 A 
ATOM     78  C   UNL A   1      45.207  18.484  25.621  1.00  0.00     0.147 A 
ATOM     79  N   UNL A   1      44.106  20.415  24.677  1.00  0.00    -0.220 NA
ATOM     80  N   UNL A   1      46.435  18.912  25.270  1.00  0.00    -0.258 NA
ATOM     81  C   UNL A   1      45.333  20.881  24.353  1.00  0.00     0.149 A 
ATOM     82  C   UNL A   1      46.470  20.127  24.663  1.00  0.00     0.158 A 
BRANCH  81  83
ATOM     83  N   UNL A   1      45.390  22.156  23.783  1.00  0.00    -0.338 N 
ATOM     84  H   UNL A   1      45.527  22.161  22.809  1.00  0.00     0.168 HD
BRANCH  83  85
ATOM     85  C   UNL A   1      45.285  23.425  24.362  1.00  0.00     0.058 A 
ATOM     86  C   UNL A   1      44.055  24.011  24.668  1.00  0.00     0.029 A 
ATOM     87  C   UNL A   1      46.414  24.216  24.581  1.00  0.00     0.137 A 
ATOM     88  C   UNL A   1      43.991  25.322  25.132  1.00  0.00     0.022 A 
ATOM     89  N   UNL A   1      46.390  25.488  25.053  1.00  0.00    -0.263 NA
ATOM     90  C   UNL A   1      45.174  26.020  25.293  1.00  0.00     0.111 A 
ENDBRANCH  83  85
ENDBRANCH  81  83
ENDBRANCH  75  77
ENDBRANCH  74  75
ENDBRANCH  73  74
ENDBRANCH   1  73
TORSDOF 16
ENDMDL
MODEL 3
REMARK VINA RESULT:     -11.5      2.929      3.747
REMARK SMILES O=C(OCCOC(=O)c1cncc(Nc2cccnc2)n1)c1ccc(-c2c3nc(c(-c4c(F)cc(S(=O)(=O)[O-])cc4F)c4ccc([nH]4)c(-c4c(F)cc(S(=O)(=O)[O-])cc4F)c4nc(c(-c5c(F)cc(S(=O)(=O)[O-])cc5F)c5ccc2[nH]5)C=C4)C=C3)cc1
REMARK SMILES IDX 4 1 3 2 2 3 1 4 22 5 23 6 87 7 24 8 86 9 25 10 26 11 27 12
REMARK SMILES IDX 80 13 28 14 85 15 79 16 81 17 29 18 84 19 78 20 77 21 30 23
REMARK SMILES IDX 64 24 43 25 63 26 44 27 47 28 62 29 82 30 45 31 46 32 61 34
REMARK SMILES IDX 83 35 48 36 31 37 32 38 41 39 33 40 34 41 40 42 42 43 35 44
REMARK SMILES IDX 36 45 37 46 38 47 39 48 65 49 66 50 75 51 67 52 68 53 74 54
REMARK SMILES IDX 76 55 69 56 70 57 71 58 72 59 73 60 49 61 50 62 59 63 51 64
REMARK SMILES IDX 52 65 58 66 60 67 53 68 54 69 55 70 56 71 57 72 5 73 6 74
REMARK SMILES IDX 7 75 8 76 9 77 10 78 21 79 11 80 13 81 12 82 14 83 15 85
REMARK SMILES IDX 16 86 20 87 17 88 19 89 18 90
REMARK H PARENT 81 22 47 33 14 84
REMARK Flexibility Score: inf
ROOT
ATOM      1  C   UNL A   1      41.207  21.697  26.495  1.00  0.00     0.275 C 
ENDROOT
BRANCH   1   2
ATOM      2  O   UNL A   1      39.825  21.823  26.125  1.00  0.00    -0.458 OA
BRANCH   2   3
ATOM      3  C   UNL A   1      39.009  22.903  26.139  1.00  0.00     0.338 C 
ATOM      4  O   UNL A   1      37.923  22.820  25.566  1.00  0.00    -0.246 OA
BRANCH   3   5
ATOM      5  C   UNL A   1      39.388  24.235  26.715  1.00  0.00     0.060 A 
ATOM      6  C   UNL A   1      40.180  25.213  26.104  1.00  0.00     0.016 A 
ATOM      7  C   UNL A   1      38.921  24.495  28.017  1.00  0.00     0.016 A 
ATOM      8  C   UNL A   1      40.470  26.422  26.745  1.00  0.00     0.010 A 
ATOM      9  C   UNL A   1      39.213  25.697  28.668  1.00  0.00     0.010 A 
ATOM     10  C   UNL A   1      40.004  26.661  28.036  1.00  0.00    -0.014 A 
BRANCH  10  11
ATOM     11  C   UNL A   1      40.503  27.819  28.807  1.00  0.00     0.031 A 
ATOM     12  C   UNL A   1      41.816  27.673  29.511  1.00  0.00     0.074 A 
ATOM     13  C   UNL A   1      39.800  28.962  28.884  1.00  0.00     0.049 A 
ATOM     14  N   UNL A   1      42.425  28.509  30.305  1.00  0.00    -0.248 NA
ATOM     15  C   UNL A   1      42.550  26.419  29.268  1.00  0.00     0.031 C 
ATOM     16  C   UNL A   1      38.564  29.234  28.161  1.00  0.00     0.029 A 
ATOM     17  N   UNL A   1      40.003  30.091  29.635  1.00  0.00    -0.354 N 
ATOM     18  C   UNL A   1      43.622  27.892  30.644  1.00  0.00     0.074 A 
ATOM     19  C   UNL A   1      43.629  26.591  30.013  1.00  0.00     0.031 C 
ATOM     20  C   UNL A   1      38.060  30.409  28.574  1.00  0.00     0.029 A 
ATOM     21  C   UNL A   1      38.948  30.972  29.585  1.00  0.00     0.049 A 
ATOM     22  H   UNL A   1      40.821  30.254  30.158  1.00  0.00     0.167 HD
ATOM     23  C   UNL A   1      44.631  28.381  31.400  1.00  0.00     0.037 A 
ATOM     24  C   UNL A   1      38.718  32.091  30.299  1.00  0.00     0.037 A 
ATOM     25  C   UNL A   1      44.577  29.659  32.053  1.00  0.00     0.049 A 
ATOM     26  C   UNL A   1      39.788  32.565  31.243  1.00  0.00     0.074 A 
ATOM     27  C   UNL A   1      45.526  30.261  32.855  1.00  0.00     0.029 A 
ATOM     28  N   UNL A   1      43.490  30.524  31.994  1.00  0.00    -0.354 N 
ATOM     29  N   UNL A   1      40.938  31.996  31.528  1.00  0.00    -0.248 NA
ATOM     30  C   UNL A   1      39.559  33.838  31.936  1.00  0.00     0.031 C 
ATOM     31  C   UNL A   1      44.993  31.468  33.321  1.00  0.00     0.029 A 
ATOM     32  C   UNL A   1      43.734  31.645  32.765  1.00  0.00     0.049 A 
ATOM     33  H   UNL A   1      42.666  30.361  31.479  1.00  0.00     0.167 HD
ATOM     34  C   UNL A   1      41.592  32.868  32.389  1.00  0.00     0.074 A 
ATOM     35  C   UNL A   1      40.699  33.991  32.598  1.00  0.00     0.031 C 
ATOM     36  C   UNL A   1      42.830  32.758  32.934  1.00  0.00     0.037 A 
BRANCH  23  37
ATOM     37  C   UNL A   1      45.830  27.495  31.575  1.00  0.00     0.058 A 
ATOM     38  C   UNL A   1      45.923  26.584  32.642  1.00  0.00     0.135 A 
ATOM     39  C   UNL A   1      46.933  27.610  30.714  1.00  0.00     0.135 A 
ATOM     40  F   UNL A   1      44.907  26.453  33.509  1.00  0.00    -0.206 F 
ATOM     41  C   UNL A   1      47.088  25.863  32.883  1.00  0.00     0.059 A 
ATOM     42  C   UNL A   1      48.099  26.878  30.920  1.00  0.00     0.059 A 
ATOM     43  F   UNL A   1      46.899  28.468  29.682  1.00  0.00    -0.206 F 
ATOM     44  C   UNL A   1      48.176  26.028  32.024  1.00  0.00     0.060 A 
BRANCH  44  45
ATOM     45  S   UNL A   1      49.705  25.141  32.388  1.00  0.00     0.124 S 
ATOM     46  O   UNL A   1      50.066  24.632  31.068  1.00  0.00    -0.237 OA
ATOM     47  O   UNL A   1      50.563  26.198  32.914  1.00  0.00    -0.237 OA
ATOM     48  O   UNL A   1      49.290  24.132  33.359  1.00  0.00    -0.744 OA
ENDBRANCH  44  45
ENDBRANCH  23  37
BRANCH  24  49
ATOM     49  C   UNL A   1      37.434  32.821  30.127  1.00  0.00     0.058 A 
ATOM     50  C   UNL A   1      37.291  33.837  29.172  1.00  0.00     0.135 A 
ATOM     51  C   UNL A   1      36.299  32.469  30.878  1.00  0.00     0.135 A 
ATOM     52  F   UNL A   1      38.345  34.213  28.431  1.00  0.00    -0.206 F 
ATOM     53  C   UNL A   1      36.073  34.478  28.963  1.00  0.00     0.059 A 
ATOM     54  C   UNL A   1      35.066  33.084  30.678  1.00  0.00     0.059 A 
ATOM     55  F   UNL A   1      36.376  31.494  31.797  1.00  0.00    -0.206 F 
ATOM     56  C   UNL A   1      34.962  34.089  29.716  1.00  0.00     0.060 A 
BRANCH  56  57
ATOM     57  S   UNL A   1      33.371  34.877  29.383  1.00  0.00     0.124 S 
ATOM     58  O   UNL A   1      33.786  36.123  28.748  1.00  0.00    -0.237 OA
ATOM     59  O   UNL A   1      32.724  33.901  28.512  1.00  0.00    -0.237 OA
ATOM     60  O   UNL A   1      32.777  35.013  30.710  1.00  0.00    -0.744 OA
ENDBRANCH  56  57
ENDBRANCH  24  49
BRANCH  36  61
ATOM     61  C   UNL A   1      43.331  33.909  33.759  1.00  0.00     0.058 A 
ATOM     62  C   UNL A   1      43.959  35.018  33.178  1.00  0.00     0.135 A 
ATOM     63  C   UNL A   1      43.063  33.946  35.137  1.00  0.00     0.135 A 
ATOM     64  F   UNL A   1      44.246  35.024  31.867  1.00  0.00    -0.206 F 
ATOM     65  C   UNL A   1      44.297  36.134  33.935  1.00  0.00     0.059 A 
ATOM     66  C   UNL A   1      43.370  35.059  35.908  1.00  0.00     0.059 A 
ATOM     67  F   UNL A   1      42.456  32.908  35.736  1.00  0.00    -0.206 F 
ATOM     68  C   UNL A   1      43.986  36.150  35.298  1.00  0.00     0.060 A 
BRANCH  68  69
ATOM     69  S   UNL A   1      44.343  37.642  36.250  1.00  0.00     0.124 S 
ATOM     70  O   UNL A   1      45.763  37.474  36.537  1.00  0.00    -0.237 OA
ATOM     71  O   UNL A   1      44.007  38.703  35.306  1.00  0.00    -0.237 OA
ATOM     72  O   UNL A   1      43.451  37.531  37.400  1.00  0.00    -0.744 OA
ENDBRANCH  68  69
ENDBRANCH  36  61
ENDBRANCH  10  11
ENDBRANCH   3   5
ENDBRANCH   2   3
ENDBRANCH   1   2
BRANCH   1  73
ATOM     73  C   UNL A   1      41.646  20.266  26.800  1.00  0.00     0.275 C 
BRANCH  73  74
ATOM     74  O   UNL A   1      41.875  19.469  25.626  1.00  0.00    -0.457 OA
BRANCH  74  75
ATOM     75  C   UNL A   1      42.847  18.518  25.741  1.00  0.00     0.358 C 
ATOM     76  O   UNL A   1      42.693  17.369  26.099  1.00  0.00    -0.244 OA
BRANCH  75  77
ATOM     77  C   UNL A   1      44.137  19.110  25.318  1.00  0.00     0.169 A 
ATOM     78  C   UNL A   1      45.317  18.452  25.615  1.00  0.00     0.147 A 
ATOM     79  N   UNL A   1      44.100  20.306  24.660  1.00  0.00    -0.220 NA
ATOM     80  N   UNL A   1      46.517  18.962  25.282  1.00  0.00    -0.258 NA
ATOM     81  C   UNL A   1      45.297  20.855  24.354  1.00  0.00     0.149 A 
ATOM     82  C   UNL A   1      46.478  20.178  24.677  1.00  0.00     0.158 A 
BRANCH  81  83
ATOM     83  N   UNL A   1      45.276  22.133  23.788  1.00  0.00    -0.338 N 
ATOM     84  H   UNL A   1      45.384  22.147  22.810  1.00  0.00     0.168 HD
BRANCH  83  85
ATOM     85  C   UNL A   1      45.128  23.394  24.374  1.00  0.00     0.058 A 
ATOM     86  C   UNL A   1      43.878  23.936  24.681  1.00  0.00     0.029 A 
ATOM     87  C   UNL A   1      46.229  24.221  24.600  1.00  0.00     0.137 A 
ATOM     88  C   UNL A   1      43.769  25.241  25.153  1.00  0.00     0.022 A 
ATOM     89  N   UNL A   1      46.162  25.488  25.080  1.00  0.00    -0.263 NA
ATOM     90  C   UNL A   1      44.928  25.977  25.321  1.00  0.00     0.111 A 
ENDBRANCH  83  85
ENDBRANCH  81  83
ENDBRANCH  75  77
ENDBRANCH  74  75
ENDBRANCH  73  74
ENDBRANCH   1  73
TORSDOF 16
ENDMDL
