MODEL 1
REMARK VINA RESULT:     -11.0      0.000      0.000
REMARK SMILES COc1ccc(/C=C2/SC(=S)N(CC(=O)OCCOC(=O)c3ccc(-c4c5nc(c(-c6c(F)cc(S(=O)(=O)[O-])cc6F)c6ccc([nH]6)c(-c6c(F)cc(S(=O)(=O)[O-])cc6F)c6nc(c(-c7c(F)cc(S(=O)(=O)[O-])cc7F)c7ccc4[nH]7)C=C6)C=C5)cc3)C2=O)cc1[N+](=O)[O-]
REMARK SMILES IDX 17 1 16 2 14 3 15 4 13 5 12 6 7 7 8 8 9 9 88 10 10 11 89 12
REMARK SMILES IDX 11 13 6 14 3 15 4 16 91 17 5 18 90 19 2 20 1 21 92 22 93 23
REMARK SMILES IDX 94 24 18 25 19 26 20 27 21 28 22 29 23 30 87 31 24 32 86 33
REMARK SMILES IDX 25 34 26 35 27 36 80 37 28 38 85 39 79 40 81 41 29 42 84 43
REMARK SMILES IDX 78 44 77 45 30 47 64 48 43 49 63 50 44 51 47 52 62 53 82 54
REMARK SMILES IDX 45 55 46 56 61 58 83 59 48 60 31 61 32 62 41 63 33 64 34 65
REMARK SMILES IDX 40 66 42 67 35 68 36 69 37 70 38 71 39 72 65 73 66 74 75 75
REMARK SMILES IDX 67 76 68 77 74 78 76 79 69 80 70 81 71 82 72 83 73 84 49 85
REMARK SMILES IDX 50 86 59 87 51 88 52 89 58 90 60 91 53 92 54 93 55 94 56 95
REMARK SMILES IDX 57 96
REMARK H PARENT 81 46 47 57
REMARK Flexibility Score: inf
ROOT
ATOM      1  C   UNL A   1      37.212  23.672  25.577  1.00  0.00     0.274 C 
ENDROOT
BRANCH   1   2
ATOM      2  O   UNL A   1      36.734  23.365  24.247  1.00  0.00    -0.461 OA
BRANCH   2   3
ATOM      3  C   UNL A   1      35.790  22.389  24.168  1.00  0.00     0.326 C 
ATOM      4  O   UNL A   1      35.943  21.243  24.578  1.00  0.00    -0.250 OA
BRANCH   3   5
ATOM      5  C   UNL A   1      34.503  22.819  23.469  1.00  0.00     0.250 C 
BRANCH   5   6
ATOM      6  N   UNL A   1      33.285  22.851  24.280  1.00  0.00    -0.282 N 
ATOM      7  C   UNL A   1      30.904  24.801  26.227  1.00  0.00     0.029 C 
ATOM      8  C   UNL A   1      31.693  23.846  25.711  1.00  0.00     0.081 C 
ATOM      9  S   UNL A   1      31.247  22.178  25.703  1.00  0.00    -0.054 SA
ATOM     10  C   UNL A   1      32.985  24.007  24.985  1.00  0.00     0.266 C 
ATOM     11  C   UNL A   1      32.461  21.771  24.492  1.00  0.00     0.148 C 
ATOM     12  O   UNL A   1      33.721  24.972  25.103  1.00  0.00    -0.268 OA
ATOM     13  S   UNL A   1      32.534  20.264  23.780  1.00  0.00    -0.052 S 
BRANCH   7  14
ATOM     14  C   UNL A   1      31.046  26.237  25.970  1.00  0.00    -0.017 A 
ATOM     15  C   UNL A   1      31.259  28.986  25.361  1.00  0.00     0.196 A 
ATOM     16  C   UNL A   1      31.741  28.482  26.575  1.00  0.00     0.054 A 
ATOM     17  C   UNL A   1      30.682  28.100  24.452  1.00  0.00     0.311 A 
ATOM     18  C   UNL A   1      31.634  27.115  26.881  1.00  0.00     0.012 A 
ATOM     19  C   UNL A   1      30.542  26.742  24.767  1.00  0.00     0.098 A 
BRANCH  15  20
ATOM     20  O   UNL A   1      31.458  30.318  25.131  1.00  0.00    -0.490 OA
ATOM     21  C   UNL A   1      31.866  31.017  26.308  1.00  0.00     0.278 C 
ENDBRANCH  15  20
BRANCH  17  22
ATOM     22  N   UNL A   1      30.240  28.527  23.134  1.00  0.00     0.066 N 
ATOM     23  O   UNL A   1      29.492  29.517  23.084  1.00  0.00    -0.258 OA
ATOM     24  O   UNL A   1      30.621  27.888  22.144  1.00  0.00    -0.258 OA
ENDBRANCH  17  22
ENDBRANCH   7  14
ENDBRANCH   5   6
ENDBRANCH   3   5
ENDBRANCH   2   3
ENDBRANCH   1   2
BRANCH   1  25
ATOM     25  C   UNL A   1      38.666  23.241  25.796  1.00  0.00     0.275 C 
BRANCH  25  26
ATOM     26  O   UNL A   1      39.238  23.841  26.972  1.00  0.00    -0.458 OA
BRANCH  26  27
ATOM     27  C   UNL A   1      39.987  24.933  26.695  1.00  0.00     0.338 C 
ATOM     28  O   UNL A   1      40.383  25.258  25.588  1.00  0.00    -0.246 OA
BRANCH  27  29
ATOM     29  C   UNL A   1      40.206  25.764  27.885  1.00  0.00     0.060 A 
ATOM     30  C   UNL A   1      39.249  25.727  28.898  1.00  0.00     0.016 A 
ATOM     31  C   UNL A   1      41.229  26.711  27.913  1.00  0.00     0.016 A 
ATOM     32  C   UNL A   1      39.269  26.677  29.914  1.00  0.00     0.010 A 
ATOM     33  C   UNL A   1      41.270  27.645  28.954  1.00  0.00     0.010 A 
ATOM     34  C   UNL A   1      40.274  27.651  29.946  1.00  0.00    -0.014 A 
BRANCH  34  35
ATOM     35  C   UNL A   1      40.254  28.689  31.003  1.00  0.00     0.031 A 
ATOM     36  C   UNL A   1      41.198  28.602  32.171  1.00  0.00     0.074 A 
ATOM     37  C   UNL A   1      39.400  29.723  30.895  1.00  0.00     0.049 A 
ATOM     38  N   UNL A   1      41.280  29.376  33.223  1.00  0.00    -0.248 NA
ATOM     39  C   UNL A   1      42.174  27.502  32.155  1.00  0.00     0.031 C 
ATOM     40  C   UNL A   1      38.466  29.931  29.787  1.00  0.00     0.029 A 
ATOM     41  N   UNL A   1      39.176  30.792  31.726  1.00  0.00    -0.354 N 
ATOM     42  C   UNL A   1      42.299  28.849  34.006  1.00  0.00     0.074 A 
ATOM     43  C   UNL A   1      42.800  27.680  33.312  1.00  0.00     0.031 C 
ATOM     44  C   UNL A   1      37.771  31.058  30.006  1.00  0.00     0.029 A 
ATOM     45  C   UNL A   1      38.177  31.627  31.288  1.00  0.00     0.049 A 
ATOM     46  H   UNL A   1      39.683  30.945  32.556  1.00  0.00     0.167 HD
ATOM     47  C   UNL A   1      42.771  29.300  35.194  1.00  0.00     0.037 A 
ATOM     48  C   UNL A   1      37.630  32.713  31.866  1.00  0.00     0.037 A 
ATOM     49  C   UNL A   1      42.272  30.469  35.873  1.00  0.00     0.049 A 
ATOM     50  C   UNL A   1      38.149  33.173  33.198  1.00  0.00     0.074 A 
ATOM     51  C   UNL A   1      42.682  31.005  37.082  1.00  0.00     0.029 A 
ATOM     52  N   UNL A   1      41.253  31.284  35.401  1.00  0.00    -0.354 N 
ATOM     53  N   UNL A   1      39.104  32.654  33.933  1.00  0.00    -0.248 NA
ATOM     54  C   UNL A   1      37.517  34.364  33.781  1.00  0.00     0.031 C 
ATOM     55  C   UNL A   1      41.893  32.128  37.354  1.00  0.00     0.029 A 
ATOM     56  C   UNL A   1      41.015  32.313  36.298  1.00  0.00     0.049 A 
ATOM     57  H   UNL A   1      40.769  31.150  34.554  1.00  0.00     0.167 HD
ATOM     58  C   UNL A   1      39.202  33.468  35.056  1.00  0.00     0.074 A 
ATOM     59  C   UNL A   1      38.215  34.517  34.899  1.00  0.00     0.031 C 
ATOM     60  C   UNL A   1      40.033  33.354  36.121  1.00  0.00     0.037 A 
BRANCH  47  61
ATOM     61  C   UNL A   1      43.868  28.508  35.849  1.00  0.00     0.058 A 
ATOM     62  C   UNL A   1      45.221  28.816  35.650  1.00  0.00     0.135 A 
ATOM     63  C   UNL A   1      43.558  27.443  36.713  1.00  0.00     0.135 A 
ATOM     64  F   UNL A   1      45.573  29.814  34.823  1.00  0.00    -0.206 F 
ATOM     65  C   UNL A   1      46.232  28.079  36.261  1.00  0.00     0.059 A 
ATOM     66  C   UNL A   1      44.552  26.706  37.350  1.00  0.00     0.059 A 
ATOM     67  F   UNL A   1      42.279  27.108  36.941  1.00  0.00    -0.206 F 
ATOM     68  C   UNL A   1      45.889  27.023  37.104  1.00  0.00     0.060 A 
BRANCH  68  69
ATOM     69  S   UNL A   1      47.209  26.065  37.877  1.00  0.00     0.124 S 
ATOM     70  O   UNL A   1      47.634  25.213  36.770  1.00  0.00    -0.237 OA
ATOM     71  O   UNL A   1      48.156  27.099  38.278  1.00  0.00    -0.237 OA
ATOM     72  O   UNL A   1      46.534  25.377  38.974  1.00  0.00    -0.744 OA
ENDBRANCH  68  69
ENDBRANCH  47  61
BRANCH  48  73
ATOM     73  C   UNL A   1      36.520  33.426  31.186  1.00  0.00     0.058 A 
ATOM     74  C   UNL A   1      36.750  34.197  30.038  1.00  0.00     0.135 A 
ATOM     75  C   UNL A   1      35.201  33.326  31.655  1.00  0.00     0.135 A 
ATOM     76  F   UNL A   1      37.996  34.326  29.557  1.00  0.00    -0.206 F 
ATOM     77  C   UNL A   1      35.714  34.851  29.382  1.00  0.00     0.059 A 
ATOM     78  C   UNL A   1      34.144  33.952  31.003  1.00  0.00     0.059 A 
ATOM     79  F   UNL A   1      34.927  32.587  32.742  1.00  0.00    -0.206 F 
ATOM     80  C   UNL A   1      34.412  34.720  29.871  1.00  0.00     0.060 A 
BRANCH  80  81
ATOM     81  S   UNL A   1      33.062  35.524  28.981  1.00  0.00     0.124 S 
ATOM     82  O   UNL A   1      32.526  34.416  28.199  1.00  0.00    -0.237 OA
ATOM     83  O   UNL A   1      32.216  36.004  30.070  1.00  0.00    -0.237 OA
ATOM     84  O   UNL A   1      33.739  36.568  28.219  1.00  0.00    -0.744 OA
ENDBRANCH  80  81
ENDBRANCH  48  73
BRANCH  60  85
ATOM     85  C   UNL A   1      39.937  34.416  37.179  1.00  0.00     0.058 A 
ATOM     86  C   UNL A   1      40.626  35.634  37.065  1.00  0.00     0.135 A 
ATOM     87  C   UNL A   1      39.122  34.223  38.305  1.00  0.00     0.135 A 
ATOM     88  F   UNL A   1      41.424  35.861  36.011  1.00  0.00    -0.206 F 
ATOM     89  C   UNL A   1      40.529  36.616  38.046  1.00  0.00     0.059 A 
ATOM     90  C   UNL A   1      38.993  35.200  39.287  1.00  0.00     0.059 A 
ATOM     91  F   UNL A   1      38.436  33.080  38.456  1.00  0.00    -0.206 F 
ATOM     92  C   UNL A   1      39.711  36.389  39.155  1.00  0.00     0.060 A 
BRANCH  92  93
ATOM     93  S   UNL A   1      39.570  37.677  40.412  1.00  0.00     0.124 S 
ATOM     94  O   UNL A   1      38.920  38.748  39.664  1.00  0.00    -0.237 OA
ATOM     95  O   UNL A   1      38.751  37.032  41.435  1.00  0.00    -0.237 OA
ATOM     96  O   UNL A   1      40.956  37.928  40.796  1.00  0.00    -0.744 OA
ENDBRANCH  92  93
ENDBRANCH  60  85
ENDBRANCH  34  35
ENDBRANCH  27  29
ENDBRANCH  26  27
ENDBRANCH  25  26
ENDBRANCH   1  25
TORSDOF 18
ENDMDL
MODEL 2
REMARK VINA RESULT:     -11.0      6.792     12.283
REMARK SMILES COc1ccc(/C=C2/SC(=S)N(CC(=O)OCCOC(=O)c3ccc(-c4c5nc(c(-c6c(F)cc(S(=O)(=O)[O-])cc6F)c6ccc([nH]6)c(-c6c(F)cc(S(=O)(=O)[O-])cc6F)c6nc(c(-c7c(F)cc(S(=O)(=O)[O-])cc7F)c7ccc4[nH]7)C=C6)C=C5)cc3)C2=O)cc1[N+](=O)[O-]
REMARK SMILES IDX 17 1 16 2 14 3 15 4 13 5 12 6 7 7 8 8 9 9 88 10 10 11 89 12
REMARK SMILES IDX 11 13 6 14 3 15 4 16 91 17 5 18 90 19 2 20 1 21 92 22 93 23
REMARK SMILES IDX 94 24 18 25 19 26 20 27 21 28 22 29 23 30 87 31 24 32 86 33
REMARK SMILES IDX 25 34 26 35 27 36 80 37 28 38 85 39 79 40 81 41 29 42 84 43
REMARK SMILES IDX 78 44 77 45 30 47 64 48 43 49 63 50 44 51 47 52 62 53 82 54
REMARK SMILES IDX 45 55 46 56 61 58 83 59 48 60 31 61 32 62 41 63 33 64 34 65
REMARK SMILES IDX 40 66 42 67 35 68 36 69 37 70 38 71 39 72 65 73 66 74 75 75
REMARK SMILES IDX 67 76 68 77 74 78 76 79 69 80 70 81 71 82 72 83 73 84 49 85
REMARK SMILES IDX 50 86 59 87 51 88 52 89 58 90 60 91 53 92 54 93 55 94 56 95
REMARK SMILES IDX 57 96
REMARK H PARENT 81 46 47 57
REMARK Flexibility Score: inf
ROOT
ATOM      1  C   UNL A   1      33.328  30.625  27.287  1.00  0.00     0.274 C 
ENDROOT
BRANCH   1   2
ATOM      2  O   UNL A   1      33.371  29.384  26.545  1.00  0.00    -0.461 OA
BRANCH   2   3
ATOM      3  C   UNL A   1      32.336  29.169  25.689  1.00  0.00     0.326 C 
ATOM      4  O   UNL A   1      31.803  30.045  25.014  1.00  0.00    -0.250 OA
BRANCH   3   5
ATOM      5  C   UNL A   1      31.837  27.728  25.660  1.00  0.00     0.250 C 
BRANCH   5   6
ATOM      6  N   UNL A   1      31.886  27.034  24.372  1.00  0.00    -0.282 N 
ATOM      7  C   UNL A   1      33.361  24.417  22.313  1.00  0.00     0.029 C 
ATOM      8  C   UNL A   1      32.774  25.526  22.787  1.00  0.00     0.081 C 
ATOM      9  S   UNL A   1      31.576  26.395  21.897  1.00  0.00    -0.054 SA
ATOM     10  C   UNL A   1      32.930  26.153  24.131  1.00  0.00     0.266 C 
ATOM     11  C   UNL A   1      31.029  27.273  23.325  1.00  0.00     0.148 C 
ATOM     12  O   UNL A   1      33.903  25.999  24.849  1.00  0.00    -0.268 OA
ATOM     13  S   UNL A   1      29.673  28.243  23.304  1.00  0.00    -0.052 S 
BRANCH   7  14
ATOM     14  C   UNL A   1      34.111  23.453  23.123  1.00  0.00    -0.017 A 
ATOM     15  C   UNL A   1      35.443  21.546  24.724  1.00  0.00     0.196 A 
ATOM     16  C   UNL A   1      36.165  22.442  23.927  1.00  0.00     0.054 A 
ATOM     17  C   UNL A   1      34.051  21.622  24.720  1.00  0.00     0.311 A 
ATOM     18  C   UNL A   1      35.505  23.390  23.128  1.00  0.00     0.012 A 
ATOM     19  C   UNL A   1      33.386  22.543  23.899  1.00  0.00     0.098 A 
BRANCH  15  20
ATOM     20  O   UNL A   1      36.175  20.699  25.507  1.00  0.00    -0.490 OA
ATOM     21  C   UNL A   1      37.520  20.562  25.049  1.00  0.00     0.278 C 
ENDBRANCH  15  20
BRANCH  17  22
ATOM     22  N   UNL A   1      33.231  20.790  25.587  1.00  0.00     0.066 N 
ATOM     23  O   UNL A   1      32.366  20.087  25.039  1.00  0.00    -0.258 OA
ATOM     24  O   UNL A   1      33.429  20.829  26.809  1.00  0.00    -0.258 OA
ENDBRANCH  17  22
ENDBRANCH   7  14
ENDBRANCH   5   6
ENDBRANCH   3   5
ENDBRANCH   2   3
ENDBRANCH   1   2
BRANCH   1  25
ATOM     25  C   UNL A   1      34.723  31.185  27.583  1.00  0.00     0.275 C 
BRANCH  25  26
ATOM     26  O   UNL A   1      35.457  30.353  28.499  1.00  0.00    -0.458 OA
BRANCH  26  27
ATOM     27  C   UNL A   1      36.484  31.003  29.094  1.00  0.00     0.338 C 
ATOM     28  O   UNL A   1      36.389  32.031  29.745  1.00  0.00    -0.246 OA
BRANCH  27  29
ATOM     29  C   UNL A   1      37.751  30.276  28.950  1.00  0.00     0.060 A 
ATOM     30  C   UNL A   1      38.741  30.487  29.909  1.00  0.00     0.016 A 
ATOM     31  C   UNL A   1      38.032  29.559  27.789  1.00  0.00     0.016 A 
ATOM     32  C   UNL A   1      40.038  30.036  29.684  1.00  0.00     0.010 A 
ATOM     33  C   UNL A   1      39.327  29.076  27.578  1.00  0.00     0.010 A 
ATOM     34  C   UNL A   1      40.346  29.336  28.511  1.00  0.00    -0.014 A 
BRANCH  34  35
ATOM     35  C   UNL A   1      41.742  28.907  28.259  1.00  0.00     0.031 A 
ATOM     36  C   UNL A   1      42.864  29.907  28.309  1.00  0.00     0.074 A 
ATOM     37  C   UNL A   1      41.998  27.610  28.010  1.00  0.00     0.049 A 
ATOM     38  N   UNL A   1      44.135  29.732  28.050  1.00  0.00    -0.248 NA
ATOM     39  C   UNL A   1      42.512  31.281  28.698  1.00  0.00     0.031 C 
ATOM     40  C   UNL A   1      40.994  26.545  27.975  1.00  0.00     0.029 A 
ATOM     41  N   UNL A   1      43.178  26.965  27.737  1.00  0.00    -0.354 N 
ATOM     42  C   UNL A   1      44.733  30.974  28.222  1.00  0.00     0.074 A 
ATOM     43  C   UNL A   1      43.683  31.898  28.599  1.00  0.00     0.031 C 
ATOM     44  C   UNL A   1      41.599  25.380  27.698  1.00  0.00     0.029 A 
ATOM     45  C   UNL A   1      43.025  25.622  27.492  1.00  0.00     0.049 A 
ATOM     46  H   UNL A   1      44.050  27.421  27.719  1.00  0.00     0.167 HD
ATOM     47  C   UNL A   1      46.039  31.309  28.080  1.00  0.00     0.037 A 
ATOM     48  C   UNL A   1      43.925  24.695  27.117  1.00  0.00     0.037 A 
ATOM     49  C   UNL A   1      47.079  30.381  27.714  1.00  0.00     0.049 A 
ATOM     50  C   UNL A   1      45.360  25.099  26.934  1.00  0.00     0.074 A 
ATOM     51  C   UNL A   1      48.430  30.624  27.540  1.00  0.00     0.029 A 
ATOM     52  N   UNL A   1      46.883  29.030  27.465  1.00  0.00    -0.354 N 
ATOM     53  N   UNL A   1      45.908  26.281  27.086  1.00  0.00    -0.248 NA
ATOM     54  C   UNL A   1      46.299  24.045  26.526  1.00  0.00     0.031 C 
ATOM     55  C   UNL A   1      49.047  29.427  27.161  1.00  0.00     0.029 A 
ATOM     56  C   UNL A   1      48.086  28.429  27.132  1.00  0.00     0.049 A 
ATOM     57  H   UNL A   1      46.016  28.566  27.518  1.00  0.00     0.167 HD
ATOM     58  C   UNL A   1      47.261  26.110  26.814  1.00  0.00     0.074 A 
ATOM     59  C   UNL A   1      47.449  24.709  26.495  1.00  0.00     0.031 C 
ATOM     60  C   UNL A   1      48.255  27.031  26.826  1.00  0.00     0.037 A 
BRANCH  47  61
ATOM     61  C   UNL A   1      46.412  32.750  28.295  1.00  0.00     0.058 A 
ATOM     62  C   UNL A   1      46.812  33.230  29.550  1.00  0.00     0.135 A 
ATOM     63  C   UNL A   1      46.395  33.657  27.220  1.00  0.00     0.135 A 
ATOM     64  F   UNL A   1      46.831  32.410  30.613  1.00  0.00    -0.206 F 
ATOM     65  C   UNL A   1      47.157  34.565  29.741  1.00  0.00     0.059 A 
ATOM     66  C   UNL A   1      46.756  34.991  27.385  1.00  0.00     0.059 A 
ATOM     67  F   UNL A   1      46.023  33.249  25.997  1.00  0.00    -0.206 F 
ATOM     68  C   UNL A   1      47.120  35.439  28.655  1.00  0.00     0.060 A 
BRANCH  68  69
ATOM     69  S   UNL A   1      47.554  37.171  28.920  1.00  0.00     0.124 S 
ATOM     70  O   UNL A   1      46.235  37.780  29.066  1.00  0.00    -0.237 OA
ATOM     71  O   UNL A   1      48.361  37.113  30.133  1.00  0.00    -0.237 OA
ATOM     72  O   UNL A   1      48.279  37.531  27.705  1.00  0.00    -0.744 OA
ENDBRANCH  68  69
ENDBRANCH  47  61
BRANCH  48  73
ATOM     73  C   UNL A   1      43.485  23.297  26.880  1.00  0.00     0.058 A 
ATOM     74  C   UNL A   1      43.391  22.779  25.580  1.00  0.00     0.135 A 
ATOM     75  C   UNL A   1      43.176  22.444  27.950  1.00  0.00     0.135 A 
ATOM     76  F   UNL A   1      43.670  23.560  24.526  1.00  0.00    -0.206 F 
ATOM     77  C   UNL A   1      42.999  21.465  25.349  1.00  0.00     0.059 A 
ATOM     78  C   UNL A   1      42.804  21.120  27.745  1.00  0.00     0.059 A 
ATOM     79  F   UNL A   1      43.265  22.889  29.213  1.00  0.00    -0.206 F 
ATOM     80  C   UNL A   1      42.711  20.642  26.439  1.00  0.00     0.060 A 
BRANCH  80  81
ATOM     81  S   UNL A   1      42.260  18.920  26.134  1.00  0.00     0.124 S 
ATOM     82  O   UNL A   1      43.200  18.552  25.083  1.00  0.00    -0.237 OA
ATOM     83  O   UNL A   1      42.488  18.304  27.439  1.00  0.00    -0.237 OA
ATOM     84  O   UNL A   1      40.860  19.007  25.730  1.00  0.00    -0.744 OA
ENDBRANCH  80  81
ENDBRANCH  48  73
BRANCH  60  85
ATOM     85  C   UNL A   1      49.643  26.541  26.524  1.00  0.00     0.058 A 
ATOM     86  C   UNL A   1      50.482  26.036  27.529  1.00  0.00     0.135 A 
ATOM     87  C   UNL A   1      50.127  26.550  25.206  1.00  0.00     0.135 A 
ATOM     88  F   UNL A   1      50.067  26.015  28.806  1.00  0.00    -0.206 F 
ATOM     89  C   UNL A   1      51.764  25.579  27.242  1.00  0.00     0.059 A 
ATOM     90  C   UNL A   1      51.396  26.078  24.893  1.00  0.00     0.059 A 
ATOM     91  F   UNL A   1      49.360  27.015  24.207  1.00  0.00    -0.206 F 
ATOM     92  C   UNL A   1      52.213  25.606  25.920  1.00  0.00     0.060 A 
BRANCH  92  93
ATOM     93  S   UNL A   1      53.870  24.989  25.551  1.00  0.00     0.124 S 
ATOM     94  O   UNL A   1      54.601  25.370  26.755  1.00  0.00    -0.237 OA
ATOM     95  O   UNL A   1      53.642  23.558  25.375  1.00  0.00    -0.237 OA
ATOM     96  O   UNL A   1      54.236  25.711  24.336  1.00  0.00    -0.744 OA
ENDBRANCH  92  93
ENDBRANCH  60  85
ENDBRANCH  34  35
ENDBRANCH  27  29
ENDBRANCH  26  27
ENDBRANCH  25  26
ENDBRANCH   1  25
TORSDOF 18
ENDMDL
MODEL 3
REMARK VINA RESULT:     -10.9      6.646     10.949
REMARK SMILES COc1ccc(/C=C2/SC(=S)N(CC(=O)OCCOC(=O)c3ccc(-c4c5nc(c(-c6c(F)cc(S(=O)(=O)[O-])cc6F)c6ccc([nH]6)c(-c6c(F)cc(S(=O)(=O)[O-])cc6F)c6nc(c(-c7c(F)cc(S(=O)(=O)[O-])cc7F)c7ccc4[nH]7)C=C6)C=C5)cc3)C2=O)cc1[N+](=O)[O-]
REMARK SMILES IDX 17 1 16 2 14 3 15 4 13 5 12 6 7 7 8 8 9 9 88 10 10 11 89 12
REMARK SMILES IDX 11 13 6 14 3 15 4 16 91 17 5 18 90 19 2 20 1 21 92 22 93 23
REMARK SMILES IDX 94 24 18 25 19 26 20 27 21 28 22 29 23 30 87 31 24 32 86 33
REMARK SMILES IDX 25 34 26 35 27 36 80 37 28 38 85 39 79 40 81 41 29 42 84 43
REMARK SMILES IDX 78 44 77 45 30 47 64 48 43 49 63 50 44 51 47 52 62 53 82 54
REMARK SMILES IDX 45 55 46 56 61 58 83 59 48 60 31 61 32 62 41 63 33 64 34 65
REMARK SMILES IDX 40 66 42 67 35 68 36 69 37 70 38 71 39 72 65 73 66 74 75 75
REMARK SMILES IDX 67 76 68 77 74 78 76 79 69 80 70 81 71 82 72 83 73 84 49 85
REMARK SMILES IDX 50 86 59 87 51 88 52 89 58 90 60 91 53 92 54 93 55 94 56 95
REMARK SMILES IDX 57 96
REMARK H PARENT 81 46 47 57
REMARK Flexibility Score: inf
ROOT
ATOM      1  C   UNL A   1      38.832  21.556  25.909  1.00  0.00     0.274 C 
ENDROOT
BRANCH   1   2
ATOM      2  O   UNL A   1      37.727  21.844  25.021  1.00  0.00    -0.461 OA
BRANCH   2   3
ATOM      3  C   UNL A   1      37.086  23.025  25.236  1.00  0.00     0.326 C 
ATOM      4  O   UNL A   1      37.441  23.866  26.056  1.00  0.00    -0.250 OA
BRANCH   3   5
ATOM      5  C   UNL A   1      35.829  23.217  24.393  1.00  0.00     0.250 C 
BRANCH   5   6
ATOM      6  N   UNL A   1      34.543  23.055  25.072  1.00  0.00    -0.282 N 
ATOM      7  C   UNL A   1      31.571  24.602  26.499  1.00  0.00     0.029 C 
ATOM      8  C   UNL A   1      32.607  23.805  26.195  1.00  0.00     0.081 C 
ATOM      9  S   UNL A   1      32.540  22.089  26.371  1.00  0.00    -0.054 SA
ATOM     10  C   UNL A   1      33.913  24.180  25.582  1.00  0.00     0.266 C 
ATOM     11  C   UNL A   1      33.954  21.844  25.348  1.00  0.00     0.148 C 
ATOM     12  O   UNL A   1      34.400  25.296  25.637  1.00  0.00    -0.268 OA
ATOM     13  S   UNL A   1      34.441  20.325  24.857  1.00  0.00    -0.052 S 
BRANCH   7  14
ATOM     14  C   UNL A   1      31.428  25.995  26.065  1.00  0.00    -0.017 A 
ATOM     15  C   UNL A   1      31.099  28.634  25.118  1.00  0.00     0.196 A 
ATOM     16  C   UNL A   1      31.637  28.391  26.387  1.00  0.00     0.054 A 
ATOM     17  C   UNL A   1      30.739  27.546  24.325  1.00  0.00     0.311 A 
ATOM     18  C   UNL A   1      31.799  27.079  26.862  1.00  0.00     0.012 A 
ATOM     19  C   UNL A   1      30.867  26.236  24.806  1.00  0.00     0.098 A 
BRANCH  15  20
ATOM     20  O   UNL A   1      31.031  29.941  24.724  1.00  0.00    -0.490 OA
ATOM     21  C   UNL A   1      31.448  30.841  25.752  1.00  0.00     0.278 C 
ENDBRANCH  15  20
BRANCH  17  22
ATOM     22  N   UNL A   1      30.259  27.710  22.962  1.00  0.00     0.066 N 
ATOM     23  O   UNL A   1      29.100  28.131  22.821  1.00  0.00    -0.258 OA
ATOM     24  O   UNL A   1      31.016  27.419  22.026  1.00  0.00    -0.258 OA
ENDBRANCH  17  22
ENDBRANCH   7  14
ENDBRANCH   5   6
ENDBRANCH   3   5
ENDBRANCH   2   3
ENDBRANCH   1   2
BRANCH   1  25
ATOM     25  C   UNL A   1      39.414  20.155  25.693  1.00  0.00     0.275 C 
BRANCH  25  26
ATOM     26  O   UNL A   1      40.325  19.779  26.741  1.00  0.00    -0.458 OA
BRANCH  26  27
ATOM     27  C   UNL A   1      41.592  19.605  26.301  1.00  0.00     0.338 C 
ATOM     28  O   UNL A   1      42.019  18.605  25.750  1.00  0.00    -0.246 OA
BRANCH  27  29
ATOM     29  C   UNL A   1      42.405  20.815  26.479  1.00  0.00     0.060 A 
ATOM     30  C   UNL A   1      42.569  21.311  27.772  1.00  0.00     0.016 A 
ATOM     31  C   UNL A   1      42.827  21.557  25.378  1.00  0.00     0.016 A 
ATOM     32  C   UNL A   1      43.100  22.582  27.970  1.00  0.00     0.010 A 
ATOM     33  C   UNL A   1      43.393  22.820  25.578  1.00  0.00     0.010 A 
ATOM     34  C   UNL A   1      43.507  23.352  26.874  1.00  0.00    -0.014 A 
BRANCH  34  35
ATOM     35  C   UNL A   1      44.021  24.725  27.095  1.00  0.00     0.031 A 
ATOM     36  C   UNL A   1      43.093  25.821  27.540  1.00  0.00     0.074 A 
ATOM     37  C   UNL A   1      45.331  24.974  26.917  1.00  0.00     0.049 A 
ATOM     38  N   UNL A   1      43.347  27.093  27.718  1.00  0.00    -0.248 NA
ATOM     39  C   UNL A   1      41.701  25.440  27.820  1.00  0.00     0.031 C 
ATOM     40  C   UNL A   1      46.331  23.979  26.524  1.00  0.00     0.029 A 
ATOM     41  N   UNL A   1      46.048  26.137  27.041  1.00  0.00    -0.354 N 
ATOM     42  C   UNL A   1      42.145  27.670  28.109  1.00  0.00     0.074 A 
ATOM     43  C   UNL A   1      41.158  26.610  28.133  1.00  0.00     0.031 C 
ATOM     44  C   UNL A   1      47.532  24.573  26.440  1.00  0.00     0.029 A 
ATOM     45  C   UNL A   1      47.379  25.996  26.729  1.00  0.00     0.049 A 
ATOM     46  H   UNL A   1      45.648  26.989  27.326  1.00  0.00     0.167 HD
ATOM     47  C   UNL A   1      41.892  28.965  28.420  1.00  0.00     0.037 A 
ATOM     48  C   UNL A   1      48.360  26.915  26.657  1.00  0.00     0.037 A 
ATOM     49  C   UNL A   1      42.883  30.011  28.403  1.00  0.00     0.049 A 
ATOM     50  C   UNL A   1      48.046  28.349  26.974  1.00  0.00     0.074 A 
ATOM     51  C   UNL A   1      42.724  31.354  28.698  1.00  0.00     0.029 A 
ATOM     52  N   UNL A   1      44.219  29.831  28.073  1.00  0.00    -0.354 N 
ATOM     53  N   UNL A   1      46.901  28.882  27.328  1.00  0.00    -0.248 NA
ATOM     54  C   UNL A   1      49.156  29.308  26.881  1.00  0.00     0.031 C 
ATOM     55  C   UNL A   1      43.957  31.992  28.520  1.00  0.00     0.029 A 
ATOM     56  C   UNL A   1      44.893  31.040  28.149  1.00  0.00     0.049 A 
ATOM     57  H   UNL A   1      44.628  28.972  27.821  1.00  0.00     0.167 HD
ATOM     58  C   UNL A   1      47.156  30.235  27.520  1.00  0.00     0.074 A 
ATOM     59  C   UNL A   1      48.565  30.437  27.251  1.00  0.00     0.031 C 
ATOM     60  C   UNL A   1      46.299  31.220  27.886  1.00  0.00     0.037 A 
BRANCH  47  61
ATOM     61  C   UNL A   1      40.478  29.327  28.780  1.00  0.00     0.058 A 
ATOM     62  C   UNL A   1      39.480  29.468  27.806  1.00  0.00     0.135 A 
ATOM     63  C   UNL A   1      40.111  29.508  30.126  1.00  0.00     0.135 A 
ATOM     64  F   UNL A   1      39.780  29.321  26.505  1.00  0.00    -0.206 F 
ATOM     65  C   UNL A   1      38.172  29.802  28.147  1.00  0.00     0.059 A 
ATOM     66  C   UNL A   1      38.805  29.821  30.491  1.00  0.00     0.059 A 
ATOM     67  F   UNL A   1      41.026  29.382  31.099  1.00  0.00    -0.206 F 
ATOM     68  C   UNL A   1      37.846  29.983  29.490  1.00  0.00     0.060 A 
BRANCH  68  69
ATOM     69  S   UNL A   1      36.151  30.433  29.918  1.00  0.00     0.124 S 
ATOM     70  O   UNL A   1      36.248  31.888  29.994  1.00  0.00    -0.237 OA
ATOM     71  O   UNL A   1      35.390  29.909  28.789  1.00  0.00    -0.237 OA
ATOM     72  O   UNL A   1      35.928  29.752  31.190  1.00  0.00    -0.744 OA
ENDBRANCH  68  69
ENDBRANCH  47  61
BRANCH  48  73
ATOM     73  C   UNL A   1      49.727  26.499  26.254  1.00  0.00     0.058 A 
ATOM     74  C   UNL A   1      50.185  26.690  24.942  1.00  0.00     0.135 A 
ATOM     75  C   UNL A   1      50.612  25.928  27.181  1.00  0.00     0.135 A 
ATOM     76  F   UNL A   1      49.371  27.226  24.020  1.00  0.00    -0.206 F 
ATOM     77  C   UNL A   1      51.470  26.322  24.561  1.00  0.00     0.059 A 
ATOM     78  C   UNL A   1      51.910  25.574  26.829  1.00  0.00     0.059 A 
ATOM     79  F   UNL A   1      50.226  25.739  28.453  1.00  0.00    -0.206 F 
ATOM     80  C   UNL A   1      52.327  25.768  25.513  1.00  0.00     0.060 A 
BRANCH  80  81
ATOM     81  S   UNL A   1      54.015  25.347  25.026  1.00  0.00     0.124 S 
ATOM     82  O   UNL A   1      53.972  23.890  25.050  1.00  0.00    -0.237 OA
ATOM     83  O   UNL A   1      54.118  25.961  23.706  1.00  0.00    -0.237 OA
ATOM     84  O   UNL A   1      54.828  25.973  26.064  1.00  0.00    -0.744 OA
ENDBRANCH  80  81
ENDBRANCH  48  73
BRANCH  60  85
ATOM     85  C   UNL A   1      46.874  32.597  28.055  1.00  0.00     0.058 A 
ATOM     86  C   UNL A   1      47.511  32.989  29.243  1.00  0.00     0.135 A 
ATOM     87  C   UNL A   1      46.812  33.525  27.004  1.00  0.00     0.135 A 
ATOM     88  F   UNL A   1      47.587  32.140  30.279  1.00  0.00    -0.206 F 
ATOM     89  C   UNL A   1      48.046  34.264  29.391  1.00  0.00     0.059 A 
ATOM     90  C   UNL A   1      47.360  34.798  27.122  1.00  0.00     0.059 A 
ATOM     91  F   UNL A   1      46.222  33.196  25.844  1.00  0.00    -0.206 F 
ATOM     92  C   UNL A   1      47.964  35.163  28.326  1.00  0.00     0.060 A 
BRANCH  92  93
ATOM     93  S   UNL A   1      48.682  36.809  28.517  1.00  0.00     0.124 S 
ATOM     94  O   UNL A   1      49.180  36.755  29.887  1.00  0.00    -0.237 OA
ATOM     95  O   UNL A   1      49.702  36.832  27.473  1.00  0.00    -0.237 OA
ATOM     96  O   UNL A   1      47.548  37.700  28.293  1.00  0.00    -0.744 OA
ENDBRANCH  92  93
ENDBRANCH  60  85
ENDBRANCH  34  35
ENDBRANCH  27  29
ENDBRANCH  26  27
ENDBRANCH  25  26
ENDBRANCH   1  25
TORSDOF 18
ENDMDL
