MODEL 1
REMARK VINA RESULT:     -11.9      0.000      0.000
REMARK SMILES CC1=C(CC(=O)OCCOC(=O)c2ccc(-c3c4nc(c(-c5c(F)cc(S(=O)(=O)[O-])cc5F)c5ccc([nH]5)c(-c5c(F)cc(S(=O)(=O)[O-])cc5F)c5nc(c(-c6c(F)cc(S(=O)(=O)[O-])cc6F)c6ccc3[nH]6)C=C5)C=C4)cc2)c2cc(F)ccc2/C1=C\c1ccc([S@@+](C)[O-])cc1
REMARK SMILES IDX 8 1 7 2 5 3 6 4 4 5 3 6 1 7 2 8 86 9 79 10 85 11 87 12 80 13
REMARK SMILES IDX 84 14 81 15 83 16 82 17 88 18 89 19 96 20 90 21 95 22 91 23
REMARK SMILES IDX 92 24 93 25 94 26 9 27 10 28 11 29 12 30 13 31 14 32 78 33
REMARK SMILES IDX 15 34 77 35 16 36 17 37 18 38 71 39 19 40 76 41 70 42 72 43
REMARK SMILES IDX 20 44 75 45 69 46 68 47 21 49 55 50 34 51 54 52 35 53 38 54
REMARK SMILES IDX 53 55 73 56 36 57 37 58 52 60 74 61 39 62 22 63 23 64 32 65
REMARK SMILES IDX 24 66 25 67 31 68 33 69 26 70 27 71 28 72 29 73 30 74 56 75
REMARK SMILES IDX 57 76 66 77 58 78 59 79 65 80 67 81 60 82 61 83 62 84 63 85
REMARK SMILES IDX 64 86 40 87 41 88 50 89 42 90 43 91 49 92 51 93 44 94 45 95
REMARK SMILES IDX 46 96 47 97 48 98
REMARK H PARENT 72 48 38 59
REMARK Flexibility Score: inf
ROOT
ATOM      1  C   UNL A   1      32.664  28.729  25.311  1.00  0.00     0.274 C 
ENDROOT
BRANCH   1   2
ATOM      2  O   UNL A   1      33.778  27.824  25.162  1.00  0.00    -0.462 OA
BRANCH   2   3
ATOM      3  C   UNL A   1      33.472  26.501  25.217  1.00  0.00     0.310 C 
ATOM      4  O   UNL A   1      32.788  25.985  26.096  1.00  0.00    -0.252 OA
BRANCH   3   5
ATOM      5  C   UNL A   1      34.048  25.669  24.079  1.00  0.00     0.159 C 
BRANCH   5   6
ATOM      6  C   UNL A   1      33.850  24.192  24.141  1.00  0.00    -0.025 C 
ATOM      7  C   UNL A   1      31.496  23.969  23.185  1.00  0.00     0.045 C 
ATOM      8  C   UNL A   1      32.773  23.462  23.766  1.00  0.00    -0.039 C 
ATOM      9  C   UNL A   1      33.049  22.032  23.976  1.00  0.00    -0.014 C 
ATOM     10  C   UNL A   1      34.908  23.251  24.549  1.00  0.00    -0.011 A 
ATOM     11  C   UNL A   1      34.443  21.929  24.456  1.00  0.00    -0.010 A 
ATOM     12  C   UNL A   1      32.156  21.046  23.759  1.00  0.00     0.017 C 
ATOM     13  C   UNL A   1      36.215  23.507  24.934  1.00  0.00     0.048 A 
ATOM     14  C   UNL A   1      35.288  20.864  24.753  1.00  0.00     0.012 A 
ATOM     15  C   UNL A   1      37.043  22.439  25.261  1.00  0.00     0.123 A 
ATOM     16  C   UNL A   1      36.592  21.125  25.177  1.00  0.00     0.040 A 
ATOM     17  F   UNL A   1      38.305  22.676  25.639  1.00  0.00    -0.207 F 
BRANCH  12  18
ATOM     18  C   UNL A   1      32.420  19.624  23.979  1.00  0.00    -0.025 A 
ATOM     19  C   UNL A   1      32.528  19.123  25.279  1.00  0.00     0.013 A 
ATOM     20  C   UNL A   1      32.705  18.796  22.891  1.00  0.00     0.013 A 
ATOM     21  C   UNL A   1      33.019  17.832  25.495  1.00  0.00     0.061 A 
ATOM     22  C   UNL A   1      33.172  17.498  23.107  1.00  0.00     0.061 A 
ATOM     23  C   UNL A   1      33.361  17.015  24.410  1.00  0.00     0.152 A 
BRANCH  23  24
ATOM     24  S   UNL A   1      34.195  15.425  24.649  1.00  0.00    -0.018 S 
ATOM     25  C   UNL A   1      35.668  15.976  25.530  1.00  0.00     0.346 C 
ATOM     26  O   UNL A   1      33.318  14.598  25.657  1.00  0.00    -0.612 OA
ENDBRANCH  23  24
ENDBRANCH  12  18
ENDBRANCH   5   6
ENDBRANCH   3   5
ENDBRANCH   2   3
ENDBRANCH   1   2
BRANCH   1  27
ATOM     27  C   UNL A   1      32.667  29.380  26.690  1.00  0.00     0.275 C 
BRANCH  27  28
ATOM     28  O   UNL A   1      33.936  29.158  27.326  1.00  0.00    -0.458 OA
BRANCH  28  29
ATOM     29  C   UNL A   1      34.447  30.218  27.991  1.00  0.00     0.338 C 
ATOM     30  O   UNL A   1      33.863  31.232  28.329  1.00  0.00    -0.246 OA
BRANCH  29  31
ATOM     31  C   UNL A   1      35.878  29.985  28.246  1.00  0.00     0.060 A 
ATOM     32  C   UNL A   1      36.275  29.590  29.521  1.00  0.00     0.016 A 
ATOM     33  C   UNL A   1      36.811  30.065  27.209  1.00  0.00     0.016 A 
ATOM     34  C   UNL A   1      37.623  29.324  29.765  1.00  0.00     0.010 A 
ATOM     35  C   UNL A   1      38.136  29.697  27.430  1.00  0.00     0.010 A 
ATOM     36  C   UNL A   1      38.564  29.365  28.722  1.00  0.00    -0.014 A 
BRANCH  36  37
ATOM     37  C   UNL A   1      39.999  29.110  29.007  1.00  0.00     0.031 A 
ATOM     38  C   UNL A   1      40.609  27.770  28.684  1.00  0.00     0.074 A 
ATOM     39  C   UNL A   1      40.765  30.097  29.513  1.00  0.00     0.049 A 
ATOM     40  N   UNL A   1      41.865  27.406  28.726  1.00  0.00    -0.248 NA
ATOM     41  C   UNL A   1      39.691  26.694  28.277  1.00  0.00     0.031 C 
ATOM     42  C   UNL A   1      40.279  31.417  29.922  1.00  0.00     0.029 A 
ATOM     43  N   UNL A   1      42.117  30.155  29.742  1.00  0.00    -0.354 N 
ATOM     44  C   UNL A   1      41.887  26.072  28.336  1.00  0.00     0.074 A 
ATOM     45  C   UNL A   1      40.514  25.666  28.135  1.00  0.00     0.031 C 
ATOM     46  C   UNL A   1      41.325  32.174  30.293  1.00  0.00     0.029 A 
ATOM     47  C   UNL A   1      42.550  31.391  30.164  1.00  0.00     0.049 A 
ATOM     48  H   UNL A   1      42.718  29.387  29.615  1.00  0.00     0.167 HD
ATOM     49  C   UNL A   1      42.954  25.269  28.122  1.00  0.00     0.037 A 
ATOM     50  C   UNL A   1      43.796  31.847  30.393  1.00  0.00     0.037 A 
ATOM     51  C   UNL A   1      44.319  25.679  28.303  1.00  0.00     0.049 A 
ATOM     52  C   UNL A   1      44.969  30.935  30.152  1.00  0.00     0.074 A 
ATOM     53  C   UNL A   1      45.474  24.955  28.072  1.00  0.00     0.029 A 
ATOM     54  N   UNL A   1      44.713  26.930  28.759  1.00  0.00    -0.354 N 
ATOM     55  N   UNL A   1      44.974  29.700  29.713  1.00  0.00    -0.248 NA
ATOM     56  C   UNL A   1      46.305  31.482  30.428  1.00  0.00     0.031 C 
ATOM     57  C   UNL A   1      46.568  25.755  28.419  1.00  0.00     0.029 A 
ATOM     58  C   UNL A   1      46.094  26.990  28.831  1.00  0.00     0.049 A 
ATOM     59  H   UNL A   1      44.101  27.663  28.994  1.00  0.00     0.167 HD
ATOM     60  C   UNL A   1      46.312  29.326  29.645  1.00  0.00     0.074 A 
ATOM     61  C   UNL A   1      47.088  30.471  30.074  1.00  0.00     0.031 C 
ATOM     62  C   UNL A   1      46.849  28.140  29.264  1.00  0.00     0.037 A 
BRANCH  49  63
ATOM     63  C   UNL A   1      42.684  23.874  27.633  1.00  0.00     0.058 A 
ATOM     64  C   UNL A   1      42.535  22.804  28.534  1.00  0.00     0.135 A 
ATOM     65  C   UNL A   1      42.540  23.602  26.265  1.00  0.00     0.135 A 
ATOM     66  F   UNL A   1      42.681  23.007  29.853  1.00  0.00    -0.206 F 
ATOM     67  C   UNL A   1      42.273  21.513  28.091  1.00  0.00     0.059 A 
ATOM     68  C   UNL A   1      42.255  22.320  25.801  1.00  0.00     0.059 A 
ATOM     69  F   UNL A   1      42.678  24.586  25.362  1.00  0.00    -0.206 F 
ATOM     70  C   UNL A   1      42.134  21.280  26.723  1.00  0.00     0.060 A 
BRANCH  70  71
ATOM     71  S   UNL A   1      41.783  19.598  26.170  1.00  0.00     0.124 S 
ATOM     72  O   UNL A   1      40.354  19.676  25.887  1.00  0.00    -0.237 OA
ATOM     73  O   UNL A   1      42.653  19.464  25.006  1.00  0.00    -0.237 OA
ATOM     74  O   UNL A   1      42.151  18.778  27.321  1.00  0.00    -0.744 OA
ENDBRANCH  70  71
ENDBRANCH  49  63
BRANCH  50  75
ATOM     75  C   UNL A   1      44.000  33.257  30.818  1.00  0.00     0.058 A 
ATOM     76  C   UNL A   1      44.092  33.593  32.177  1.00  0.00     0.135 A 
ATOM     77  C   UNL A   1      44.134  34.290  29.878  1.00  0.00     0.135 A 
ATOM     78  F   UNL A   1      43.964  32.640  33.112  1.00  0.00    -0.206 F 
ATOM     79  C   UNL A   1      44.303  34.903  32.591  1.00  0.00     0.059 A 
ATOM     80  C   UNL A   1      44.366  35.606  30.267  1.00  0.00     0.059 A 
ATOM     81  F   UNL A   1      44.067  34.018  28.566  1.00  0.00    -0.206 F 
ATOM     82  C   UNL A   1      44.443  35.904  31.627  1.00  0.00     0.060 A 
BRANCH  82  83
ATOM     83  S   UNL A   1      44.772  37.593  32.177  1.00  0.00     0.124 S 
ATOM     84  O   UNL A   1      46.217  37.565  32.367  1.00  0.00    -0.237 OA
ATOM     85  O   UNL A   1      44.293  38.382  31.044  1.00  0.00    -0.237 OA
ATOM     86  O   UNL A   1      43.976  37.711  33.394  1.00  0.00    -0.744 OA
ENDBRANCH  82  83
ENDBRANCH  50  75
BRANCH  62  87
ATOM     87  C   UNL A   1      48.344  28.016  29.286  1.00  0.00     0.058 A 
ATOM     88  C   UNL A   1      49.020  27.552  30.425  1.00  0.00     0.135 A 
ATOM     89  C   UNL A   1      49.102  28.288  28.136  1.00  0.00     0.135 A 
ATOM     90  F   UNL A   1      48.340  27.284  31.551  1.00  0.00    -0.206 F 
ATOM     91  C   UNL A   1      50.397  27.369  30.426  1.00  0.00     0.059 A 
ATOM     92  C   UNL A   1      50.479  28.091  28.107  1.00  0.00     0.059 A 
ATOM     93  F   UNL A   1      48.501  28.725  27.017  1.00  0.00    -0.206 F 
ATOM     94  C   UNL A   1      51.119  27.637  29.260  1.00  0.00     0.060 A 
BRANCH  94  95
ATOM     95  S   UNL A   1      52.900  27.344  29.260  1.00  0.00     0.124 S 
ATOM     96  O   UNL A   1      53.039  26.377  28.177  1.00  0.00    -0.237 OA
ATOM     97  O   UNL A   1      53.436  28.676  28.995  1.00  0.00    -0.237 OA
ATOM     98  O   UNL A   1      53.159  26.827  30.601  1.00  0.00    -0.744 OA
ENDBRANCH  94  95
ENDBRANCH  62  87
ENDBRANCH  36  37
ENDBRANCH  29  31
ENDBRANCH  28  29
ENDBRANCH  27  28
ENDBRANCH   1  27
TORSDOF 17
ENDMDL
MODEL 2
REMARK VINA RESULT:     -11.8      6.823     12.239
REMARK SMILES CC1=C(CC(=O)OCCOC(=O)c2ccc(-c3c4nc(c(-c5c(F)cc(S(=O)(=O)[O-])cc5F)c5ccc([nH]5)c(-c5c(F)cc(S(=O)(=O)[O-])cc5F)c5nc(c(-c6c(F)cc(S(=O)(=O)[O-])cc6F)c6ccc3[nH]6)C=C5)C=C4)cc2)c2cc(F)ccc2/C1=C\c1ccc([S@@+](C)[O-])cc1
REMARK SMILES IDX 8 1 7 2 5 3 6 4 4 5 3 6 1 7 2 8 86 9 79 10 85 11 87 12 80 13
REMARK SMILES IDX 84 14 81 15 83 16 82 17 88 18 89 19 96 20 90 21 95 22 91 23
REMARK SMILES IDX 92 24 93 25 94 26 9 27 10 28 11 29 12 30 13 31 14 32 78 33
REMARK SMILES IDX 15 34 77 35 16 36 17 37 18 38 71 39 19 40 76 41 70 42 72 43
REMARK SMILES IDX 20 44 75 45 69 46 68 47 21 49 55 50 34 51 54 52 35 53 38 54
REMARK SMILES IDX 53 55 73 56 36 57 37 58 52 60 74 61 39 62 22 63 23 64 32 65
REMARK SMILES IDX 24 66 25 67 31 68 33 69 26 70 27 71 28 72 29 73 30 74 56 75
REMARK SMILES IDX 57 76 66 77 58 78 59 79 65 80 67 81 60 82 61 83 62 84 63 85
REMARK SMILES IDX 64 86 40 87 41 88 50 89 42 90 43 91 49 92 51 93 44 94 45 95
REMARK SMILES IDX 46 96 47 97 48 98
REMARK H PARENT 72 48 38 59
REMARK Flexibility Score: inf
ROOT
ATOM      1  C   UNL A   1      44.521  24.532  25.759  1.00  0.00     0.274 C 
ENDROOT
BRANCH   1   2
ATOM      2  O   UNL A   1      45.420  24.112  26.807  1.00  0.00    -0.462 OA
BRANCH   2   3
ATOM      3  C   UNL A   1      45.991  25.114  27.528  1.00  0.00     0.310 C 
ATOM      4  O   UNL A   1      47.159  25.471  27.411  1.00  0.00    -0.252 OA
BRANCH   3   5
ATOM      5  C   UNL A   1      45.057  25.791  28.522  1.00  0.00     0.159 C 
BRANCH   5   6
ATOM      6  C   UNL A   1      45.023  25.248  29.911  1.00  0.00    -0.025 C 
ATOM      7  C   UNL A   1      43.164  23.513  29.716  1.00  0.00     0.045 C 
ATOM      8  C   UNL A   1      44.225  24.285  30.427  1.00  0.00    -0.039 C 
ATOM      9  C   UNL A   1      44.579  24.053  31.837  1.00  0.00    -0.014 C 
ATOM     10  C   UNL A   1      45.985  25.640  30.956  1.00  0.00    -0.011 A 
ATOM     11  C   UNL A   1      45.735  24.924  32.138  1.00  0.00    -0.010 A 
ATOM     12  C   UNL A   1      43.930  23.200  32.654  1.00  0.00     0.017 C 
ATOM     13  C   UNL A   1      47.050  26.524  30.886  1.00  0.00     0.048 A 
ATOM     14  C   UNL A   1      46.550  25.099  33.252  1.00  0.00     0.012 A 
ATOM     15  C   UNL A   1      47.841  26.719  32.015  1.00  0.00     0.123 A 
ATOM     16  C   UNL A   1      47.599  26.018  33.193  1.00  0.00     0.040 A 
ATOM     17  F   UNL A   1      48.868  27.575  31.960  1.00  0.00    -0.207 F 
BRANCH  12  18
ATOM     18  C   UNL A   1      44.269  22.976  34.058  1.00  0.00    -0.025 A 
ATOM     19  C   UNL A   1      43.859  23.890  35.033  1.00  0.00     0.013 A 
ATOM     20  C   UNL A   1      45.122  21.926  34.407  1.00  0.00     0.013 A 
ATOM     21  C   UNL A   1      44.382  23.816  36.328  1.00  0.00     0.061 A 
ATOM     22  C   UNL A   1      45.624  21.839  35.708  1.00  0.00     0.061 A 
ATOM     23  C   UNL A   1      45.282  22.799  36.670  1.00  0.00     0.152 A 
BRANCH  23  24
ATOM     24  S   UNL A   1      46.140  22.793  38.265  1.00  0.00    -0.018 S 
ATOM     25  C   UNL A   1      45.153  24.011  39.154  1.00  0.00     0.346 C 
ATOM     26  O   UNL A   1      45.871  21.390  38.922  1.00  0.00    -0.612 OA
ENDBRANCH  23  24
ENDBRANCH  12  18
ENDBRANCH   5   6
ENDBRANCH   3   5
ENDBRANCH   2   3
ENDBRANCH   1   2
BRANCH   1  27
ATOM     27  C   UNL A   1      43.284  23.641  25.708  1.00  0.00     0.275 C 
BRANCH  27  28
ATOM     28  O   UNL A   1      42.136  24.383  26.151  1.00  0.00    -0.458 OA
BRANCH  28  29
ATOM     29  C   UNL A   1      42.122  25.691  25.811  1.00  0.00     0.338 C 
ATOM     30  O   UNL A   1      42.346  26.174  24.716  1.00  0.00    -0.246 OA
BRANCH  29  31
ATOM     31  C   UNL A   1      41.808  26.497  27.002  1.00  0.00     0.060 A 
ATOM     32  C   UNL A   1      41.002  25.941  27.993  1.00  0.00     0.016 A 
ATOM     33  C   UNL A   1      42.381  27.759  27.183  1.00  0.00     0.016 A 
ATOM     34  C   UNL A   1      40.732  26.677  29.147  1.00  0.00     0.010 A 
ATOM     35  C   UNL A   1      42.195  28.446  28.380  1.00  0.00     0.010 A 
ATOM     36  C   UNL A   1      41.332  27.931  29.357  1.00  0.00    -0.014 A 
BRANCH  36  37
ATOM     37  C   UNL A   1      41.008  28.715  30.576  1.00  0.00     0.031 A 
ATOM     38  C   UNL A   1      41.889  28.620  31.794  1.00  0.00     0.074 A 
ATOM     39  C   UNL A   1      39.947  29.546  30.572  1.00  0.00     0.049 A 
ATOM     40  N   UNL A   1      41.853  29.328  32.893  1.00  0.00    -0.248 NA
ATOM     41  C   UNL A   1      42.939  27.587  31.786  1.00  0.00     0.031 C 
ATOM     42  C   UNL A   1      38.984  29.681  29.477  1.00  0.00     0.029 A 
ATOM     43  N   UNL A   1      39.517  30.455  31.506  1.00  0.00    -0.354 N 
ATOM     44  C   UNL A   1      42.879  28.839  33.694  1.00  0.00     0.074 A 
ATOM     45  C   UNL A   1      43.472  27.725  32.990  1.00  0.00     0.031 C 
ATOM     46  C   UNL A   1      38.114  30.660  29.775  1.00  0.00     0.029 A 
ATOM     47  C   UNL A   1      38.446  31.209  31.087  1.00  0.00     0.049 A 
ATOM     48  H   UNL A   1      39.935  30.557  32.391  1.00  0.00     0.167 HD
ATOM     49  C   UNL A   1      43.318  29.303  34.887  1.00  0.00     0.037 A 
ATOM     50  C   UNL A   1      37.822  32.245  31.680  1.00  0.00     0.037 A 
ATOM     51  C   UNL A   1      42.740  30.423  35.576  1.00  0.00     0.049 A 
ATOM     52  C   UNL A   1      38.324  32.742  33.009  1.00  0.00     0.074 A 
ATOM     53  C   UNL A   1      43.137  30.998  36.770  1.00  0.00     0.029 A 
ATOM     54  N   UNL A   1      41.639  31.142  35.131  1.00  0.00    -0.354 N 
ATOM     55  N   UNL A   1      39.341  32.314  33.717  1.00  0.00    -0.248 NA
ATOM     56  C   UNL A   1      37.599  33.867  33.615  1.00  0.00     0.031 C 
ATOM     57  C   UNL A   1      42.256  32.045  37.064  1.00  0.00     0.029 A 
ATOM     58  C   UNL A   1      41.334  32.144  36.035  1.00  0.00     0.049 A 
ATOM     59  H   UNL A   1      41.150  30.964  34.296  1.00  0.00     0.167 HD
ATOM     60  C   UNL A   1      39.389  33.126  34.844  1.00  0.00     0.074 A 
ATOM     61  C   UNL A   1      38.308  34.081  34.717  1.00  0.00     0.031 C 
ATOM     62  C   UNL A   1      40.250  33.084  35.891  1.00  0.00     0.037 A 
BRANCH  49  63
ATOM     63  C   UNL A   1      44.503  28.615  35.505  1.00  0.00     0.058 A 
ATOM     64  C   UNL A   1      45.816  28.979  35.159  1.00  0.00     0.135 A 
ATOM     65  C   UNL A   1      44.334  27.613  36.471  1.00  0.00     0.135 A 
ATOM     66  F   UNL A   1      46.033  29.921  34.226  1.00  0.00    -0.206 F 
ATOM     67  C   UNL A   1      46.918  28.358  35.735  1.00  0.00     0.059 A 
ATOM     68  C   UNL A   1      45.424  26.993  37.078  1.00  0.00     0.059 A 
ATOM     69  F   UNL A   1      43.102  27.225  36.834  1.00  0.00    -0.206 F 
ATOM     70  C   UNL A   1      46.712  27.365  36.693  1.00  0.00     0.060 A 
BRANCH  70  71
ATOM     71  S   UNL A   1      48.157  26.578  37.437  1.00  0.00     0.124 S 
ATOM     72  O   UNL A   1      47.724  26.425  38.823  1.00  0.00    -0.237 OA
ATOM     73  O   UNL A   1      48.270  25.344  36.669  1.00  0.00    -0.237 OA
ATOM     74  O   UNL A   1      49.224  27.550  37.218  1.00  0.00    -0.744 OA
ENDBRANCH  70  71
ENDBRANCH  49  63
BRANCH  50  75
ATOM     75  C   UNL A   1      36.692  32.921  30.989  1.00  0.00     0.058 A 
ATOM     76  C   UNL A   1      35.366  32.690  31.384  1.00  0.00     0.135 A 
ATOM     77  C   UNL A   1      36.915  33.829  29.944  1.00  0.00     0.135 A 
ATOM     78  F   UNL A   1      35.104  31.825  32.375  1.00  0.00    -0.206 F 
ATOM     79  C   UNL A   1      34.299  33.329  30.763  1.00  0.00     0.059 A 
ATOM     80  C   UNL A   1      35.866  34.496  29.320  1.00  0.00     0.059 A 
ATOM     81  F   UNL A   1      38.167  34.094  29.538  1.00  0.00    -0.206 F 
ATOM     82  C   UNL A   1      34.559  34.235  29.732  1.00  0.00     0.060 A 
BRANCH  82  83
ATOM     83  S   UNL A   1      33.169  35.101  28.971  1.00  0.00     0.124 S 
ATOM     84  O   UNL A   1      32.662  34.092  28.049  1.00  0.00    -0.237 OA
ATOM     85  O   UNL A   1      32.322  35.394  30.125  1.00  0.00    -0.237 OA
ATOM     86  O   UNL A   1      33.796  36.264  28.352  1.00  0.00    -0.744 OA
ENDBRANCH  82  83
ENDBRANCH  50  75
BRANCH  62  87
ATOM     87  C   UNL A   1      40.067  34.099  36.982  1.00  0.00     0.058 A 
ATOM     88  C   UNL A   1      40.509  35.422  36.829  1.00  0.00     0.135 A 
ATOM     89  C   UNL A   1      39.373  33.768  38.157  1.00  0.00     0.135 A 
ATOM     90  F   UNL A   1      41.182  35.785  35.726  1.00  0.00    -0.206 F 
ATOM     91  C   UNL A   1      40.279  36.380  37.808  1.00  0.00     0.059 A 
ATOM     92  C   UNL A   1      39.111  34.717  39.140  1.00  0.00     0.059 A 
ATOM     93  F   UNL A   1      38.920  32.518  38.346  1.00  0.00    -0.206 F 
ATOM     94  C   UNL A   1      39.573  36.020  38.959  1.00  0.00     0.060 A 
BRANCH  94  95
ATOM     95  S   UNL A   1      39.236  37.289  40.198  1.00  0.00     0.124 S 
ATOM     96  O   UNL A   1      38.319  36.590  41.092  1.00  0.00    -0.237 OA
ATOM     97  O   UNL A   1      40.565  37.561  40.737  1.00  0.00    -0.237 OA
ATOM     98  O   UNL A   1      38.648  38.375  39.420  1.00  0.00    -0.744 OA
ENDBRANCH  94  95
ENDBRANCH  62  87
ENDBRANCH  36  37
ENDBRANCH  29  31
ENDBRANCH  28  29
ENDBRANCH  27  28
ENDBRANCH   1  27
TORSDOF 17
ENDMDL
MODEL 3
REMARK VINA RESULT:     -11.7      1.560      2.533
REMARK SMILES CC1=C(CC(=O)OCCOC(=O)c2ccc(-c3c4nc(c(-c5c(F)cc(S(=O)(=O)[O-])cc5F)c5ccc([nH]5)c(-c5c(F)cc(S(=O)(=O)[O-])cc5F)c5nc(c(-c6c(F)cc(S(=O)(=O)[O-])cc6F)c6ccc3[nH]6)C=C5)C=C4)cc2)c2cc(F)ccc2/C1=C\c1ccc([S@@+](C)[O-])cc1
REMARK SMILES IDX 8 1 7 2 5 3 6 4 4 5 3 6 1 7 2 8 86 9 79 10 85 11 87 12 80 13
REMARK SMILES IDX 84 14 81 15 83 16 82 17 88 18 89 19 96 20 90 21 95 22 91 23
REMARK SMILES IDX 92 24 93 25 94 26 9 27 10 28 11 29 12 30 13 31 14 32 78 33
REMARK SMILES IDX 15 34 77 35 16 36 17 37 18 38 71 39 19 40 76 41 70 42 72 43
REMARK SMILES IDX 20 44 75 45 69 46 68 47 21 49 55 50 34 51 54 52 35 53 38 54
REMARK SMILES IDX 53 55 73 56 36 57 37 58 52 60 74 61 39 62 22 63 23 64 32 65
REMARK SMILES IDX 24 66 25 67 31 68 33 69 26 70 27 71 28 72 29 73 30 74 56 75
REMARK SMILES IDX 57 76 66 77 58 78 59 79 65 80 67 81 60 82 61 83 62 84 63 85
REMARK SMILES IDX 64 86 40 87 41 88 50 89 42 90 43 91 49 92 51 93 44 94 45 95
REMARK SMILES IDX 46 96 47 97 48 98
REMARK H PARENT 72 48 38 59
REMARK Flexibility Score: inf
ROOT
ATOM      1  C   UNL A   1      31.969  28.721  25.770  1.00  0.00     0.274 C 
ENDROOT
BRANCH   1   2
ATOM      2  O   UNL A   1      31.332  29.251  24.589  1.00  0.00    -0.462 OA
BRANCH   2   3
ATOM      3  C   UNL A   1      31.688  28.664  23.416  1.00  0.00     0.310 C 
ATOM      4  O   UNL A   1      32.685  28.964  22.765  1.00  0.00    -0.252 OA
BRANCH   3   5
ATOM      5  C   UNL A   1      30.742  27.568  22.944  1.00  0.00     0.159 C 
BRANCH   5   6
ATOM      6  C   UNL A   1      31.147  26.155  23.200  1.00  0.00    -0.025 C 
ATOM      7  C   UNL A   1      32.888  25.801  21.370  1.00  0.00     0.045 C 
ATOM      8  C   UNL A   1      32.053  25.397  22.540  1.00  0.00    -0.039 C 
ATOM      9  C   UNL A   1      32.147  24.073  23.175  1.00  0.00    -0.014 C 
ATOM     10  C   UNL A   1      30.659  25.370  24.347  1.00  0.00    -0.011 A 
ATOM     11  C   UNL A   1      31.255  24.098  24.353  1.00  0.00    -0.010 A 
ATOM     12  C   UNL A   1      32.915  23.064  22.719  1.00  0.00     0.017 C 
ATOM     13  C   UNL A   1      29.788  25.738  25.361  1.00  0.00     0.048 A 
ATOM     14  C   UNL A   1      30.975  23.195  25.374  1.00  0.00     0.012 A 
ATOM     15  C   UNL A   1      29.487  24.818  26.360  1.00  0.00     0.123 A 
ATOM     16  C   UNL A   1      30.068  23.553  26.373  1.00  0.00     0.040 A 
ATOM     17  F   UNL A   1      28.643  25.162  27.340  1.00  0.00    -0.207 F 
BRANCH  12  18
ATOM     18  C   UNL A   1      33.002  21.742  23.339  1.00  0.00    -0.025 A 
ATOM     19  C   UNL A   1      33.982  21.481  24.301  1.00  0.00     0.013 A 
ATOM     20  C   UNL A   1      32.200  20.700  22.865  1.00  0.00     0.013 A 
ATOM     21  C   UNL A   1      34.228  20.167  24.713  1.00  0.00     0.061 A 
ATOM     22  C   UNL A   1      32.432  19.392  23.297  1.00  0.00     0.061 A 
ATOM     23  C   UNL A   1      33.465  19.111  24.201  1.00  0.00     0.152 A 
BRANCH  23  24
ATOM     24  S   UNL A   1      33.890  17.384  24.545  1.00  0.00    -0.018 S 
ATOM     25  C   UNL A   1      32.464  16.906  25.540  1.00  0.00     0.346 C 
ATOM     26  O   UNL A   1      33.798  16.612  23.179  1.00  0.00    -0.612 OA
ENDBRANCH  23  24
ENDBRANCH  12  18
ENDBRANCH   5   6
ENDBRANCH   3   5
ENDBRANCH   2   3
ENDBRANCH   1   2
BRANCH   1  27
ATOM     27  C   UNL A   1      33.414  29.198  25.875  1.00  0.00     0.275 C 
BRANCH  27  28
ATOM     28  O   UNL A   1      33.877  29.044  27.226  1.00  0.00    -0.458 OA
BRANCH  28  29
ATOM     29  C   UNL A   1      34.398  30.155  27.793  1.00  0.00     0.338 C 
ATOM     30  O   UNL A   1      33.832  31.211  28.009  1.00  0.00    -0.246 OA
BRANCH  29  31
ATOM     31  C   UNL A   1      35.816  29.917  28.109  1.00  0.00     0.060 A 
ATOM     32  C   UNL A   1      36.151  29.460  29.381  1.00  0.00     0.016 A 
ATOM     33  C   UNL A   1      36.800  30.055  27.126  1.00  0.00     0.016 A 
ATOM     34  C   UNL A   1      37.487  29.189  29.679  1.00  0.00     0.010 A 
ATOM     35  C   UNL A   1      38.116  29.684  27.396  1.00  0.00     0.010 A 
ATOM     36  C   UNL A   1      38.480  29.288  28.689  1.00  0.00    -0.014 A 
BRANCH  36  37
ATOM     37  C   UNL A   1      39.901  29.027  29.034  1.00  0.00     0.031 A 
ATOM     38  C   UNL A   1      40.523  27.692  28.718  1.00  0.00     0.074 A 
ATOM     39  C   UNL A   1      40.643  30.005  29.589  1.00  0.00     0.049 A 
ATOM     40  N   UNL A   1      41.776  27.326  28.810  1.00  0.00    -0.248 NA
ATOM     41  C   UNL A   1      39.624  26.623  28.253  1.00  0.00     0.031 C 
ATOM     42  C   UNL A   1      40.140  31.319  29.997  1.00  0.00     0.029 A 
ATOM     43  N   UNL A   1      41.984  30.058  29.879  1.00  0.00    -0.354 N 
ATOM     44  C   UNL A   1      41.814  25.998  28.401  1.00  0.00     0.074 A 
ATOM     45  C   UNL A   1      40.452  25.597  28.132  1.00  0.00     0.031 C 
ATOM     46  C   UNL A   1      41.169  32.069  30.426  1.00  0.00     0.029 A 
ATOM     47  C   UNL A   1      42.398  31.286  30.340  1.00  0.00     0.049 A 
ATOM     48  H   UNL A   1      42.590  29.291  29.767  1.00  0.00     0.167 HD
ATOM     49  C   UNL A   1      42.890  25.197  28.221  1.00  0.00     0.037 A 
ATOM     50  C   UNL A   1      43.633  31.738  30.632  1.00  0.00     0.037 A 
ATOM     51  C   UNL A   1      44.246  25.603  28.470  1.00  0.00     0.049 A 
ATOM     52  C   UNL A   1      44.815  30.828  30.429  1.00  0.00     0.074 A 
ATOM     53  C   UNL A   1      45.410  24.880  28.280  1.00  0.00     0.029 A 
ATOM     54  N   UNL A   1      44.620  26.845  28.963  1.00  0.00    -0.354 N 
ATOM     55  N   UNL A   1      44.839  29.600  29.971  1.00  0.00    -0.248 NA
ATOM     56  C   UNL A   1      46.137  31.369  30.773  1.00  0.00     0.031 C 
ATOM     57  C   UNL A   1      46.487  25.674  28.688  1.00  0.00     0.029 A 
ATOM     58  C   UNL A   1      45.996  26.903  29.098  1.00  0.00     0.049 A 
ATOM     59  H   UNL A   1      43.998  27.576  29.182  1.00  0.00     0.167 HD
ATOM     60  C   UNL A   1      46.178  29.225  29.957  1.00  0.00     0.074 A 
ATOM     61  C   UNL A   1      46.935  30.363  30.438  1.00  0.00     0.031 C 
ATOM     62  C   UNL A   1      46.731  28.045  29.582  1.00  0.00     0.037 A 
BRANCH  49  63
ATOM     63  C   UNL A   1      42.642  23.810  27.700  1.00  0.00     0.058 A 
ATOM     64  C   UNL A   1      42.569  22.708  28.570  1.00  0.00     0.135 A 
ATOM     65  C   UNL A   1      42.441  23.577  26.331  1.00  0.00     0.135 A 
ATOM     66  F   UNL A   1      42.772  22.873  29.887  1.00  0.00    -0.206 F 
ATOM     67  C   UNL A   1      42.328  21.423  28.097  1.00  0.00     0.059 A 
ATOM     68  C   UNL A   1      42.175  22.302  25.838  1.00  0.00     0.059 A 
ATOM     69  F   UNL A   1      42.504  24.594  25.457  1.00  0.00    -0.206 F 
ATOM     70  C   UNL A   1      42.131  21.230  26.729  1.00  0.00     0.060 A 
BRANCH  70  71
ATOM     71  S   UNL A   1      41.808  19.555  26.137  1.00  0.00     0.124 S 
ATOM     72  O   UNL A   1      42.715  19.468  24.998  1.00  0.00    -0.237 OA
ATOM     73  O   UNL A   1      42.163  18.741  27.294  1.00  0.00    -0.237 OA
ATOM     74  O   UNL A   1      40.386  19.581  25.806  1.00  0.00    -0.744 OA
ENDBRANCH  70  71
ENDBRANCH  49  63
BRANCH  50  75
ATOM     75  C   UNL A   1      43.819  33.141  31.087  1.00  0.00     0.058 A 
ATOM     76  C   UNL A   1      44.016  34.176  30.161  1.00  0.00     0.135 A 
ATOM     77  C   UNL A   1      43.776  33.479  32.448  1.00  0.00     0.135 A 
ATOM     78  F   UNL A   1      44.070  33.901  28.849  1.00  0.00    -0.206 F 
ATOM     79  C   UNL A   1      44.171  35.497  30.567  1.00  0.00     0.059 A 
ATOM     80  C   UNL A   1      43.909  34.795  32.877  1.00  0.00     0.059 A 
ATOM     81  F   UNL A   1      43.577  32.525  33.371  1.00  0.00    -0.206 F 
ATOM     82  C   UNL A   1      44.112  35.798  31.930  1.00  0.00     0.060 A 
BRANCH  82  83
ATOM     83  S   UNL A   1      44.259  37.524  32.441  1.00  0.00     0.124 S 
ATOM     84  O   UNL A   1      43.279  37.597  33.517  1.00  0.00    -0.237 OA
ATOM     85  O   UNL A   1      45.660  37.604  32.847  1.00  0.00    -0.237 OA
ATOM     86  O   UNL A   1      43.923  38.263  31.229  1.00  0.00    -0.744 OA
ENDBRANCH  82  83
ENDBRANCH  50  75
BRANCH  62  87
ATOM     87  C   UNL A   1      48.224  27.919  29.669  1.00  0.00     0.058 A 
ATOM     88  C   UNL A   1      48.847  27.423  30.824  1.00  0.00     0.135 A 
ATOM     89  C   UNL A   1      49.033  28.221  28.562  1.00  0.00     0.135 A 
ATOM     90  F   UNL A   1      48.116  27.125  31.911  1.00  0.00    -0.206 F 
ATOM     91  C   UNL A   1      50.223  27.239  30.883  1.00  0.00     0.059 A 
ATOM     92  C   UNL A   1      50.410  28.023  28.591  1.00  0.00     0.059 A 
ATOM     93  F   UNL A   1      48.484  28.689  27.430  1.00  0.00    -0.206 F 
ATOM     94  C   UNL A   1      50.997  27.537  29.759  1.00  0.00     0.060 A 
BRANCH  94  95
ATOM     95  S   UNL A   1      52.777  27.242  29.833  1.00  0.00     0.124 S 
ATOM     96  O   UNL A   1      53.268  28.530  30.311  1.00  0.00    -0.237 OA
ATOM     97  O   UNL A   1      52.871  26.137  30.781  1.00  0.00    -0.237 OA
ATOM     98  O   UNL A   1      53.124  26.909  28.456  1.00  0.00    -0.744 OA
ENDBRANCH  94  95
ENDBRANCH  62  87
ENDBRANCH  36  37
ENDBRANCH  29  31
ENDBRANCH  28  29
ENDBRANCH  27  28
ENDBRANCH   1  27
TORSDOF 17
ENDMDL
