MODEL 1
REMARK VINA RESULT:     -10.7      0.000      0.000
REMARK SMILES CC(C)C[C@@H](NC(=O)Cn1nc(O)ccc1=O)C(=O)OCCOC(=O)c1ccc(-c2c3nc(c(-c4c(F)cc(S(=O)(=O)[O-])cc4F)c4ccc([nH]4)c(-c4c(F)cc(S(=O)(=O)[O-])cc4F)c4nc(c(-c5c(F)cc(S(=O)(=O)[O-])cc5F)c5ccc2[nH]5)C=C4)C=C3)cc1
REMARK SMILES IDX 21 1 20 2 18 3 19 4 5 5 4 6 2 7 1 8 3 9 6 10 7 11 8 13 9 14
REMARK SMILES IDX 10 15 11 16 16 17 12 18 15 19 17 20 14 21 13 22 22 24 23 25
REMARK SMILES IDX 24 26 25 27 26 28 27 29 91 30 28 31 90 32 29 33 30 34 31 35
REMARK SMILES IDX 84 36 32 37 89 38 83 39 85 40 33 41 88 42 82 43 81 44 34 46
REMARK SMILES IDX 68 47 47 48 67 49 48 50 51 51 66 52 86 53 49 54 50 55 65 57
REMARK SMILES IDX 87 58 52 59 35 60 36 61 45 62 37 63 38 64 44 65 46 66 39 67
REMARK SMILES IDX 40 68 41 69 42 70 43 71 69 72 70 73 79 74 71 75 72 76 78 77
REMARK SMILES IDX 80 78 73 79 74 80 75 81 76 82 77 83 53 84 54 85 63 86 55 87
REMARK SMILES IDX 56 88 62 89 64 90 57 91 58 92 59 93 60 94 61 95
REMARK H PARENT 6 12 13 23 85 45 51 56
REMARK Flexibility Score: inf
ROOT
ATOM      1  C   UNL A   1      33.031  27.453  26.295  1.00  0.00     0.274 C 
ENDROOT
BRANCH   1   2
ATOM      2  O   UNL A   1      33.253  26.869  24.996  1.00  0.00    -0.461 OA
BRANCH   2   3
ATOM      3  C   UNL A   1      32.589  25.742  24.666  1.00  0.00     0.328 C 
ATOM      4  O   UNL A   1      31.402  25.704  24.364  1.00  0.00    -0.250 OA
BRANCH   3   5
ATOM      5  C   UNL A   1      33.461  24.485  24.868  1.00  0.00     0.192 C 
BRANCH   5   6
ATOM      6  C   UNL A   1      34.892  24.665  25.411  1.00  0.00     0.040 C 
BRANCH   6   7
ATOM      7  C   UNL A   1      35.842  23.499  25.028  1.00  0.00    -0.015 C 
ATOM      8  C   UNL A   1      35.867  23.233  23.520  1.00  0.00     0.007 C 
ATOM      9  C   UNL A   1      37.266  23.789  25.509  1.00  0.00     0.007 C 
ENDBRANCH   6   7
ENDBRANCH   5   6
BRANCH   5  10
ATOM     10  N   UNL A   1      32.772  23.383  25.559  1.00  0.00    -0.341 N 
ATOM     11  C   UNL A   1      32.065  22.324  25.060  1.00  0.00     0.242 C 
ATOM     12  H   UNL A   1      32.830  23.414  26.541  1.00  0.00     0.164 HD
ATOM     13  O   UNL A   1      31.209  21.829  25.802  1.00  0.00    -0.273 OA
BRANCH  11  14
ATOM     14  C   UNL A   1      32.351  21.737  23.673  1.00  0.00     0.248 C 
BRANCH  14  15
ATOM     15  N   UNL A   1      32.768  20.334  23.580  1.00  0.00    -0.217 N 
ATOM     16  N   UNL A   1      32.080  19.523  22.691  1.00  0.00    -0.131 NA
ATOM     17  C   UNL A   1      33.698  19.830  24.481  1.00  0.00     0.267 A 
ATOM     18  C   UNL A   1      32.336  18.267  22.771  1.00  0.00     0.229 A 
ATOM     19  C   UNL A   1      33.918  18.370  24.495  1.00  0.00     0.079 A 
ATOM     20  O   UNL A   1      34.308  20.490  25.309  1.00  0.00    -0.268 OA
ATOM     21  C   UNL A   1      33.229  17.573  23.680  1.00  0.00     0.075 A 
BRANCH  18  22
ATOM     22  O   UNL A   1      31.729  17.418  21.937  1.00  0.00    -0.492 OA
ATOM     23  H   UNL A   1      32.235  16.897  21.347  1.00  0.00     0.295 HD
ENDBRANCH  18  22
ENDBRANCH  14  15
ENDBRANCH  11  14
ENDBRANCH   5  10
ENDBRANCH   3   5
ENDBRANCH   2   3
ENDBRANCH   1   2
BRANCH   1  24
ATOM     24  C   UNL A   1      33.790  28.782  26.377  1.00  0.00     0.275 C 
BRANCH  24  25
ATOM     25  O   UNL A   1      34.185  29.004  27.736  1.00  0.00    -0.458 OA
BRANCH  25  26
ATOM     26  C   UNL A   1      34.686  30.242  28.002  1.00  0.00     0.338 C 
ATOM     27  O   UNL A   1      34.086  31.277  28.170  1.00  0.00    -0.246 OA
BRANCH  26  28
ATOM     28  C   UNL A   1      36.103  30.017  28.342  1.00  0.00     0.060 A 
ATOM     29  C   UNL A   1      37.084  30.121  27.356  1.00  0.00     0.016 A 
ATOM     30  C   UNL A   1      36.420  29.564  29.629  1.00  0.00     0.016 A 
ATOM     31  C   UNL A   1      38.380  29.721  27.646  1.00  0.00     0.010 A 
ATOM     32  C   UNL A   1      37.717  29.161  29.921  1.00  0.00     0.010 A 
ATOM     33  C   UNL A   1      38.695  29.228  28.922  1.00  0.00    -0.014 A 
BRANCH  33  34
ATOM     34  C   UNL A   1      40.098  28.896  29.211  1.00  0.00     0.031 A 
ATOM     35  C   UNL A   1      40.659  27.561  28.850  1.00  0.00     0.074 A 
ATOM     36  C   UNL A   1      40.861  29.878  29.721  1.00  0.00     0.049 A 
ATOM     37  N   UNL A   1      41.910  27.187  28.815  1.00  0.00    -0.248 NA
ATOM     38  C   UNL A   1      39.699  26.510  28.478  1.00  0.00     0.031 C 
ATOM     39  C   UNL A   1      40.365  31.202  30.112  1.00  0.00     0.029 A 
ATOM     40  N   UNL A   1      42.205  29.937  29.955  1.00  0.00    -0.354 N 
ATOM     41  C   UNL A   1      41.897  25.868  28.381  1.00  0.00     0.074 A 
ATOM     42  C   UNL A   1      40.509  25.489  28.217  1.00  0.00     0.031 C 
ATOM     43  C   UNL A   1      41.401  31.958  30.499  1.00  0.00     0.029 A 
ATOM     44  C   UNL A   1      42.625  31.172  30.385  1.00  0.00     0.049 A 
ATOM     45  H   UNL A   1      42.811  29.171  29.830  1.00  0.00     0.167 HD
ATOM     46  C   UNL A   1      42.958  25.066  28.131  1.00  0.00     0.037 A 
ATOM     47  C   UNL A   1      43.866  31.624  30.628  1.00  0.00     0.037 A 
ATOM     48  C   UNL A   1      44.326  25.475  28.331  1.00  0.00     0.049 A 
ATOM     49  C   UNL A   1      45.023  30.707  30.362  1.00  0.00     0.074 A 
ATOM     50  C   UNL A   1      45.485  24.758  28.094  1.00  0.00     0.029 A 
ATOM     51  N   UNL A   1      44.717  26.712  28.830  1.00  0.00    -0.354 N 
ATOM     52  N   UNL A   1      45.006  29.483  29.889  1.00  0.00    -0.248 NA
ATOM     53  C   UNL A   1      46.363  31.229  30.651  1.00  0.00     0.031 C 
ATOM     54  C   UNL A   1      46.574  25.545  28.488  1.00  0.00     0.029 A 
ATOM     55  C   UNL A   1      46.097  26.768  28.933  1.00  0.00     0.049 A 
ATOM     56  H   UNL A   1      44.103  27.442  29.073  1.00  0.00     0.167 HD
ATOM     57  C   UNL A   1      46.334  29.087  29.818  1.00  0.00     0.074 A 
ATOM     58  C   UNL A   1      47.128  30.212  30.276  1.00  0.00     0.031 C 
ATOM     59  C   UNL A   1      46.853  27.900  29.414  1.00  0.00     0.037 A 
BRANCH  46  60
ATOM     60  C   UNL A   1      42.688  23.683  27.611  1.00  0.00     0.058 A 
ATOM     61  C   UNL A   1      42.618  23.420  26.234  1.00  0.00     0.135 A 
ATOM     62  C   UNL A   1      42.562  22.595  28.490  1.00  0.00     0.135 A 
ATOM     63  F   UNL A   1      42.720  24.425  25.349  1.00  0.00    -0.206 F 
ATOM     64  C   UNL A   1      42.421  22.132  25.746  1.00  0.00     0.059 A 
ATOM     65  C   UNL A   1      42.383  21.295  28.024  1.00  0.00     0.059 A 
ATOM     66  F   UNL A   1      42.618  22.789  29.817  1.00  0.00    -0.206 F 
ATOM     67  C   UNL A   1      42.307  21.074  26.649  1.00  0.00     0.060 A 
BRANCH  67  68
ATOM     68  S   UNL A   1      42.076  19.405  25.997  1.00  0.00     0.124 S 
ATOM     69  O   UNL A   1      42.515  18.588  27.124  1.00  0.00    -0.237 OA
ATOM     70  O   UNL A   1      40.644  19.377  25.716  1.00  0.00    -0.237 OA
ATOM     71  O   UNL A   1      42.943  19.374  24.825  1.00  0.00    -0.744 OA
ENDBRANCH  67  68
ENDBRANCH  46  60
BRANCH  47  72
ATOM     72  C   UNL A   1      44.052  33.021  31.092  1.00  0.00     0.058 A 
ATOM     73  C   UNL A   1      44.054  34.089  30.185  1.00  0.00     0.135 A 
ATOM     74  C   UNL A   1      44.146  33.319  32.460  1.00  0.00     0.135 A 
ATOM     75  F   UNL A   1      43.960  33.852  28.869  1.00  0.00    -0.206 F 
ATOM     76  C   UNL A   1      44.144  35.408  30.618  1.00  0.00     0.059 A 
ATOM     77  C   UNL A   1      44.215  34.630  32.919  1.00  0.00     0.059 A 
ATOM     78  F   UNL A   1      44.122  32.329  33.367  1.00  0.00    -0.206 F 
ATOM     79  C   UNL A   1      44.217  35.668  31.989  1.00  0.00     0.060 A 
BRANCH  79  80
ATOM     80  S   UNL A   1      44.258  37.386  32.542  1.00  0.00     0.124 S 
ATOM     81  O   UNL A   1      43.150  37.415  33.491  1.00  0.00    -0.237 OA
ATOM     82  O   UNL A   1      45.595  37.492  33.117  1.00  0.00    -0.237 OA
ATOM     83  O   UNL A   1      44.052  38.141  31.309  1.00  0.00    -0.744 OA
ENDBRANCH  79  80
ENDBRANCH  47  72
BRANCH  59  84
ATOM     84  C   UNL A   1      48.346  27.760  29.475  1.00  0.00     0.058 A 
ATOM     85  C   UNL A   1      48.979  27.230  30.609  1.00  0.00     0.135 A 
ATOM     86  C   UNL A   1      49.143  28.109  28.374  1.00  0.00     0.135 A 
ATOM     87  F   UNL A   1      48.258  26.890  31.689  1.00  0.00    -0.206 F 
ATOM     88  C   UNL A   1      50.358  27.065  30.657  1.00  0.00     0.059 A 
ATOM     89  C   UNL A   1      50.523  27.932  28.392  1.00  0.00     0.059 A 
ATOM     90  F   UNL A   1      48.582  28.615  27.265  1.00  0.00    -0.206 F 
ATOM     91  C   UNL A   1      51.121  27.417  29.542  1.00  0.00     0.060 A 
BRANCH  91  92
ATOM     92  S   UNL A   1      52.907  27.162  29.605  1.00  0.00     0.124 S 
ATOM     93  O   UNL A   1      53.147  26.453  28.354  1.00  0.00    -0.237 OA
ATOM     94  O   UNL A   1      53.415  28.530  29.667  1.00  0.00    -0.237 OA
ATOM     95  O   UNL A   1      53.094  26.375  30.820  1.00  0.00    -0.744 OA
ENDBRANCH  91  92
ENDBRANCH  59  84
ENDBRANCH  33  34
ENDBRANCH  26  28
ENDBRANCH  25  26
ENDBRANCH  24  25
ENDBRANCH   1  24
TORSDOF 20
ENDMDL
MODEL 2
REMARK VINA RESULT:     -10.5      1.445      2.502
REMARK SMILES CC(C)C[C@@H](NC(=O)Cn1nc(O)ccc1=O)C(=O)OCCOC(=O)c1ccc(-c2c3nc(c(-c4c(F)cc(S(=O)(=O)[O-])cc4F)c4ccc([nH]4)c(-c4c(F)cc(S(=O)(=O)[O-])cc4F)c4nc(c(-c5c(F)cc(S(=O)(=O)[O-])cc5F)c5ccc2[nH]5)C=C4)C=C3)cc1
REMARK SMILES IDX 21 1 20 2 18 3 19 4 5 5 4 6 2 7 1 8 3 9 6 10 7 11 8 13 9 14
REMARK SMILES IDX 10 15 11 16 16 17 12 18 15 19 17 20 14 21 13 22 22 24 23 25
REMARK SMILES IDX 24 26 25 27 26 28 27 29 91 30 28 31 90 32 29 33 30 34 31 35
REMARK SMILES IDX 84 36 32 37 89 38 83 39 85 40 33 41 88 42 82 43 81 44 34 46
REMARK SMILES IDX 68 47 47 48 67 49 48 50 51 51 66 52 86 53 49 54 50 55 65 57
REMARK SMILES IDX 87 58 52 59 35 60 36 61 45 62 37 63 38 64 44 65 46 66 39 67
REMARK SMILES IDX 40 68 41 69 42 70 43 71 69 72 70 73 79 74 71 75 72 76 78 77
REMARK SMILES IDX 80 78 73 79 74 80 75 81 76 82 77 83 53 84 54 85 63 86 55 87
REMARK SMILES IDX 56 88 62 89 64 90 57 91 58 92 59 93 60 94 61 95
REMARK H PARENT 6 12 13 23 85 45 51 56
REMARK Flexibility Score: inf
ROOT
ATOM      1  C   UNL A   1      32.070  27.539  26.943  1.00  0.00     0.274 C 
ENDROOT
BRANCH   1   2
ATOM      2  O   UNL A   1      31.147  27.326  25.856  1.00  0.00    -0.461 OA
BRANCH   2   3
ATOM      3  C   UNL A   1      31.610  26.807  24.701  1.00  0.00     0.328 C 
ATOM      4  O   UNL A   1      31.720  27.437  23.656  1.00  0.00    -0.250 OA
BRANCH   3   5
ATOM      5  C   UNL A   1      31.837  25.284  24.809  1.00  0.00     0.192 C 
BRANCH   5   6
ATOM      6  C   UNL A   1      30.617  24.378  25.066  1.00  0.00     0.040 C 
BRANCH   6   7
ATOM      7  C   UNL A   1      30.565  23.818  26.513  1.00  0.00    -0.015 C 
ATOM      8  C   UNL A   1      29.967  22.409  26.575  1.00  0.00     0.007 C 
ATOM      9  C   UNL A   1      31.966  23.795  27.129  1.00  0.00     0.007 C 
ENDBRANCH   6   7
ENDBRANCH   5   6
BRANCH   5  10
ATOM     10  N   UNL A   1      32.688  24.728  23.745  1.00  0.00    -0.341 N 
ATOM     11  C   UNL A   1      34.044  24.552  23.691  1.00  0.00     0.242 C 
ATOM     12  H   UNL A   1      32.202  24.435  22.941  1.00  0.00     0.164 HD
ATOM     13  O   UNL A   1      34.556  24.526  22.567  1.00  0.00    -0.273 OA
BRANCH  11  14
ATOM     14  C   UNL A   1      34.886  24.340  24.955  1.00  0.00     0.248 C 
BRANCH  14  15
ATOM     15  N   UNL A   1      35.584  23.062  25.123  1.00  0.00    -0.217 N 
ATOM     16  N   UNL A   1      36.964  23.102  25.254  1.00  0.00    -0.131 NA
ATOM     17  C   UNL A   1      34.885  21.870  24.980  1.00  0.00     0.267 A 
ATOM     18  C   UNL A   1      37.561  21.965  25.205  1.00  0.00     0.229 A 
ATOM     19  C   UNL A   1      35.665  20.617  24.933  1.00  0.00     0.079 A 
ATOM     20  O   UNL A   1      33.676  21.776  24.827  1.00  0.00    -0.268 OA
ATOM     21  C   UNL A   1      36.994  20.644  25.010  1.00  0.00     0.075 A 
BRANCH  18  22
ATOM     22  O   UNL A   1      38.889  21.915  25.343  1.00  0.00    -0.492 OA
ATOM     23  H   UNL A   1      39.386  22.707  25.397  1.00  0.00     0.295 HD
ENDBRANCH  18  22
ENDBRANCH  14  15
ENDBRANCH  11  14
ENDBRANCH   5  10
ENDBRANCH   3   5
ENDBRANCH   2   3
ENDBRANCH   1   2
BRANCH   1  24
ATOM     24  C   UNL A   1      32.714  28.921  26.783  1.00  0.00     0.275 C 
BRANCH  24  25
ATOM     25  O   UNL A   1      33.928  28.956  27.542  1.00  0.00    -0.458 OA
BRANCH  25  26
ATOM     26  C   UNL A   1      34.384  30.199  27.855  1.00  0.00     0.338 C 
ATOM     27  O   UNL A   1      33.747  31.208  28.050  1.00  0.00    -0.246 OA
BRANCH  26  28
ATOM     28  C   UNL A   1      35.804  30.011  28.205  1.00  0.00     0.060 A 
ATOM     29  C   UNL A   1      36.782  30.064  27.212  1.00  0.00     0.016 A 
ATOM     30  C   UNL A   1      36.128  29.640  29.516  1.00  0.00     0.016 A 
ATOM     31  C   UNL A   1      38.082  29.696  27.522  1.00  0.00     0.010 A 
ATOM     32  C   UNL A   1      37.430  29.269  29.829  1.00  0.00     0.010 A 
ATOM     33  C   UNL A   1      38.405  29.285  28.825  1.00  0.00    -0.014 A 
BRANCH  33  34
ATOM     34  C   UNL A   1      39.811  28.985  29.130  1.00  0.00     0.031 A 
ATOM     35  C   UNL A   1      40.403  27.658  28.791  1.00  0.00     0.074 A 
ATOM     36  C   UNL A   1      40.550  29.990  29.633  1.00  0.00     0.049 A 
ATOM     37  N   UNL A   1      41.661  27.308  28.771  1.00  0.00    -0.248 NA
ATOM     38  C   UNL A   1      39.468  26.582  28.425  1.00  0.00     0.031 C 
ATOM     39  C   UNL A   1      40.024  31.307  30.003  1.00  0.00     0.029 A 
ATOM     40  N   UNL A   1      41.890  30.078  29.877  1.00  0.00    -0.354 N 
ATOM     41  C   UNL A   1      41.679  25.984  28.355  1.00  0.00     0.074 A 
ATOM     42  C   UNL A   1      40.300  25.575  28.184  1.00  0.00     0.031 C 
ATOM     43  C   UNL A   1      41.041  32.090  30.388  1.00  0.00     0.029 A 
ATOM     44  C   UNL A   1      42.282  31.327  30.295  1.00  0.00     0.049 A 
ATOM     45  H   UNL A   1      42.513  29.324  29.768  1.00  0.00     0.167 HD
ATOM     46  C   UNL A   1      42.758  25.201  28.124  1.00  0.00     0.037 A 
ATOM     47  C   UNL A   1      43.512  31.808  30.542  1.00  0.00     0.037 A 
ATOM     48  C   UNL A   1      44.116  25.641  28.330  1.00  0.00     0.049 A 
ATOM     49  C   UNL A   1      44.689  30.912  30.297  1.00  0.00     0.074 A 
ATOM     50  C   UNL A   1      45.291  24.944  28.113  1.00  0.00     0.029 A 
ATOM     51  N   UNL A   1      44.478  26.892  28.816  1.00  0.00    -0.354 N 
ATOM     52  N   UNL A   1      44.701  29.682  29.840  1.00  0.00    -0.248 NA
ATOM     53  C   UNL A   1      46.015  31.465  30.591  1.00  0.00     0.031 C 
ATOM     54  C   UNL A   1      46.360  25.758  28.505  1.00  0.00     0.029 A 
ATOM     55  C   UNL A   1      45.855  26.978  28.930  1.00  0.00     0.049 A 
ATOM     56  H   UNL A   1      43.847  27.612  29.045  1.00  0.00     0.167 HD
ATOM     57  C   UNL A   1      46.037  29.311  29.786  1.00  0.00     0.074 A 
ATOM     58  C   UNL A   1      46.804  30.458  30.235  1.00  0.00     0.031 C 
ATOM     59  C   UNL A   1      46.584  28.131  29.402  1.00  0.00     0.037 A 
BRANCH  46  60
ATOM     60  C   UNL A   1      42.521  23.805  27.620  1.00  0.00     0.058 A 
ATOM     61  C   UNL A   1      42.433  23.530  26.247  1.00  0.00     0.135 A 
ATOM     62  C   UNL A   1      42.445  22.722  28.510  1.00  0.00     0.135 A 
ATOM     63  F   UNL A   1      42.487  24.529  25.353  1.00  0.00    -0.206 F 
ATOM     64  C   UNL A   1      42.266  22.232  25.773  1.00  0.00     0.059 A 
ATOM     65  C   UNL A   1      42.297  21.413  28.057  1.00  0.00     0.059 A 
ATOM     66  F   UNL A   1      42.521  22.928  29.835  1.00  0.00    -0.206 F 
ATOM     67  C   UNL A   1      42.202  21.179  26.687  1.00  0.00     0.060 A 
BRANCH  67  68
ATOM     68  S   UNL A   1      42.009  19.498  26.052  1.00  0.00     0.124 S 
ATOM     69  O   UNL A   1      42.881  19.526  24.881  1.00  0.00    -0.237 OA
ATOM     70  O   UNL A   1      42.480  18.687  27.171  1.00  0.00    -0.237 OA
ATOM     71  O   UNL A   1      40.582  19.402  25.768  1.00  0.00    -0.744 OA
ENDBRANCH  67  68
ENDBRANCH  46  60
BRANCH  47  72
ATOM     72  C   UNL A   1      43.665  33.214  30.989  1.00  0.00     0.058 A 
ATOM     73  C   UNL A   1      43.768  33.533  32.349  1.00  0.00     0.135 A 
ATOM     74  C   UNL A   1      43.794  34.256  30.057  1.00  0.00     0.135 A 
ATOM     75  F   UNL A   1      43.657  32.568  33.274  1.00  0.00    -0.206 F 
ATOM     76  C   UNL A   1      43.995  34.838  32.774  1.00  0.00     0.059 A 
ATOM     77  C   UNL A   1      44.042  35.566  30.456  1.00  0.00     0.059 A 
ATOM     78  F   UNL A   1      43.726  33.995  28.742  1.00  0.00    -0.206 F 
ATOM     79  C   UNL A   1      44.138  35.846  31.818  1.00  0.00     0.060 A 
BRANCH  79  80
ATOM     80  S   UNL A   1      44.506  37.523  32.378  1.00  0.00     0.124 S 
ATOM     81  O   UNL A   1      44.374  38.282  31.139  1.00  0.00    -0.237 OA
ATOM     82  O   UNL A   1      43.468  37.747  33.379  1.00  0.00    -0.237 OA
ATOM     83  O   UNL A   1      45.863  37.409  32.907  1.00  0.00    -0.744 OA
ENDBRANCH  79  80
ENDBRANCH  47  72
BRANCH  59  84
ATOM     84  C   UNL A   1      48.079  28.022  29.477  1.00  0.00     0.058 A 
ATOM     85  C   UNL A   1      48.712  27.510  30.620  1.00  0.00     0.135 A 
ATOM     86  C   UNL A   1      48.879  28.382  28.382  1.00  0.00     0.135 A 
ATOM     87  F   UNL A   1      47.989  27.161  31.695  1.00  0.00    -0.206 F 
ATOM     88  C   UNL A   1      50.094  27.374  30.681  1.00  0.00     0.059 A 
ATOM     89  C   UNL A   1      50.261  28.234  28.413  1.00  0.00     0.059 A 
ATOM     90  F   UNL A   1      48.317  28.871  27.265  1.00  0.00    -0.206 F 
ATOM     91  C   UNL A   1      50.860  27.737  29.571  1.00  0.00     0.060 A 
BRANCH  91  92
ATOM     92  S   UNL A   1      52.649  27.520  29.652  1.00  0.00     0.124 S 
ATOM     93  O   UNL A   1      52.877  27.490  31.092  1.00  0.00    -0.237 OA
ATOM     94  O   UNL A   1      52.842  26.253  28.952  1.00  0.00    -0.237 OA
ATOM     95  O   UNL A   1      53.166  28.696  28.959  1.00  0.00    -0.744 OA
ENDBRANCH  91  92
ENDBRANCH  59  84
ENDBRANCH  33  34
ENDBRANCH  26  28
ENDBRANCH  25  26
ENDBRANCH  24  25
ENDBRANCH   1  24
TORSDOF 20
ENDMDL
MODEL 3
REMARK VINA RESULT:     -10.4      6.346     11.126
REMARK SMILES CC(C)C[C@@H](NC(=O)Cn1nc(O)ccc1=O)C(=O)OCCOC(=O)c1ccc(-c2c3nc(c(-c4c(F)cc(S(=O)(=O)[O-])cc4F)c4ccc([nH]4)c(-c4c(F)cc(S(=O)(=O)[O-])cc4F)c4nc(c(-c5c(F)cc(S(=O)(=O)[O-])cc5F)c5ccc2[nH]5)C=C4)C=C3)cc1
REMARK SMILES IDX 21 1 20 2 18 3 19 4 5 5 4 6 2 7 1 8 3 9 6 10 7 11 8 13 9 14
REMARK SMILES IDX 10 15 11 16 16 17 12 18 15 19 17 20 14 21 13 22 22 24 23 25
REMARK SMILES IDX 24 26 25 27 26 28 27 29 91 30 28 31 90 32 29 33 30 34 31 35
REMARK SMILES IDX 84 36 32 37 89 38 83 39 85 40 33 41 88 42 82 43 81 44 34 46
REMARK SMILES IDX 68 47 47 48 67 49 48 50 51 51 66 52 86 53 49 54 50 55 65 57
REMARK SMILES IDX 87 58 52 59 35 60 36 61 45 62 37 63 38 64 44 65 46 66 39 67
REMARK SMILES IDX 40 68 41 69 42 70 43 71 69 72 70 73 79 74 71 75 72 76 78 77
REMARK SMILES IDX 80 78 73 79 74 80 75 81 76 82 77 83 53 84 54 85 63 86 55 87
REMARK SMILES IDX 56 88 62 89 64 90 57 91 58 92 59 93 60 94 61 95
REMARK H PARENT 6 12 13 23 85 45 51 56
REMARK Flexibility Score: inf
ROOT
ATOM      1  C   UNL A   1      45.880  26.502  26.272  1.00  0.00     0.274 C 
ENDROOT
BRANCH   1   2
ATOM      2  O   UNL A   1      45.832  25.503  27.310  1.00  0.00    -0.461 OA
BRANCH   2   3
ATOM      3  C   UNL A   1      46.291  24.263  27.042  1.00  0.00     0.328 C 
ATOM      4  O   UNL A   1      47.432  24.014  26.672  1.00  0.00    -0.250 OA
BRANCH   3   5
ATOM      5  C   UNL A   1      45.163  23.211  27.102  1.00  0.00     0.192 C 
BRANCH   5   6
ATOM      6  C   UNL A   1      44.409  23.020  28.432  1.00  0.00     0.040 C 
BRANCH   6   7
ATOM      7  C   UNL A   1      43.422  24.177  28.746  1.00  0.00    -0.015 C 
ATOM      8  C   UNL A   1      41.960  23.720  28.736  1.00  0.00     0.007 C 
ATOM      9  C   UNL A   1      43.742  24.798  30.108  1.00  0.00     0.007 C 
ENDBRANCH   6   7
ENDBRANCH   5   6
BRANCH   5  10
ATOM     10  N   UNL A   1      44.223  23.275  25.970  1.00  0.00    -0.341 N 
ATOM     11  C   UNL A   1      44.050  22.430  24.909  1.00  0.00     0.242 C 
ATOM     12  H   UNL A   1      43.622  24.054  25.979  1.00  0.00     0.164 HD
ATOM     13  O   UNL A   1      43.566  22.919  23.883  1.00  0.00    -0.273 OA
BRANCH  11  14
ATOM     14  C   UNL A   1      44.383  20.936  24.998  1.00  0.00     0.248 C 
BRANCH  14  15
ATOM     15  N   UNL A   1      43.514  20.072  25.802  1.00  0.00    -0.217 N 
ATOM     16  N   UNL A   1      42.531  20.688  26.561  1.00  0.00    -0.131 NA
ATOM     17  C   UNL A   1      43.799  18.716  25.912  1.00  0.00     0.267 A 
ATOM     18  C   UNL A   1      41.917  19.930  27.397  1.00  0.00     0.229 A 
ATOM     19  C   UNL A   1      43.037  17.933  26.905  1.00  0.00     0.079 A 
ATOM     20  O   UNL A   1      44.674  18.128  25.295  1.00  0.00    -0.268 OA
ATOM     21  C   UNL A   1      42.123  18.520  27.674  1.00  0.00     0.075 A 
BRANCH  18  22
ATOM     22  O   UNL A   1      40.942  20.441  28.153  1.00  0.00    -0.492 OA
ATOM     23  H   UNL A   1      41.115  20.688  29.040  1.00  0.00     0.295 HD
ENDBRANCH  18  22
ENDBRANCH  14  15
ENDBRANCH  11  14
ENDBRANCH   5  10
ENDBRANCH   3   5
ENDBRANCH   2   3
ENDBRANCH   1   2
BRANCH   1  24
ATOM     24  C   UNL A   1      44.898  26.111  25.162  1.00  0.00     0.275 C 
BRANCH  24  25
ATOM     25  O   UNL A   1      43.561  26.248  25.659  1.00  0.00    -0.458 OA
BRANCH  25  26
ATOM     26  C   UNL A   1      42.925  27.400  25.311  1.00  0.00     0.338 C 
ATOM     27  O   UNL A   1      42.613  27.785  24.209  1.00  0.00    -0.246 OA
BRANCH  26  28
ATOM     28  C   UNL A   1      42.420  27.958  26.580  1.00  0.00     0.060 A 
ATOM     29  C   UNL A   1      42.873  29.199  27.027  1.00  0.00     0.016 A 
ATOM     30  C   UNL A   1      41.596  27.159  27.382  1.00  0.00     0.016 A 
ATOM     31  C   UNL A   1      42.539  29.619  28.305  1.00  0.00     0.010 A 
ATOM     32  C   UNL A   1      41.263  27.578  28.664  1.00  0.00     0.010 A 
ATOM     33  C   UNL A   1      41.747  28.805  29.130  1.00  0.00    -0.014 A 
BRANCH  33  34
ATOM     34  C   UNL A   1      41.347  29.328  30.444  1.00  0.00     0.031 A 
ATOM     35  C   UNL A   1      42.211  29.124  31.644  1.00  0.00     0.074 A 
ATOM     36  C   UNL A   1      40.229  30.072  30.486  1.00  0.00     0.049 A 
ATOM     37  N   UNL A   1      42.134  29.707  32.811  1.00  0.00    -0.248 NA
ATOM     38  C   UNL A   1      43.301  28.144  31.526  1.00  0.00     0.031 C 
ATOM     39  C   UNL A   1      39.331  30.293  29.348  1.00  0.00     0.029 A 
ATOM     40  N   UNL A   1      39.681  30.808  31.498  1.00  0.00    -0.354 N 
ATOM     41  C   UNL A   1      43.187  29.196  33.558  1.00  0.00     0.074 A 
ATOM     42  C   UNL A   1      43.857  28.215  32.730  1.00  0.00     0.031 C 
ATOM     43  C   UNL A   1      38.365  31.147  29.715  1.00  0.00     0.029 A 
ATOM     44  C   UNL A   1      38.577  31.525  31.108  1.00  0.00     0.049 A 
ATOM     45  H   UNL A   1      40.040  30.821  32.415  1.00  0.00     0.167 HD
ATOM     46  C   UNL A   1      43.557  29.540  34.813  1.00  0.00     0.037 A 
ATOM     47  C   UNL A   1      37.839  32.414  31.794  1.00  0.00     0.037 A 
ATOM     48  C   UNL A   1      42.846  30.507  35.614  1.00  0.00     0.049 A 
ATOM     49  C   UNL A   1      38.260  32.761  33.192  1.00  0.00     0.074 A 
ATOM     50  C   UNL A   1      43.137  30.951  36.891  1.00  0.00     0.029 A 
ATOM     51  N   UNL A   1      41.692  31.170  35.214  1.00  0.00    -0.354 N 
ATOM     52  N   UNL A   1      39.296  32.323  33.868  1.00  0.00    -0.248 NA
ATOM     53  C   UNL A   1      37.424  33.724  33.915  1.00  0.00     0.031 C 
ATOM     54  C   UNL A   1      42.137  31.851  37.278  1.00  0.00     0.029 A 
ATOM     55  C   UNL A   1      41.244  31.998  36.228  1.00  0.00     0.049 A 
ATOM     56  H   UNL A   1      41.257  31.066  34.337  1.00  0.00     0.167 HD
ATOM     57  C   UNL A   1      39.241  32.961  35.099  1.00  0.00     0.074 A 
ATOM     58  C   UNL A   1      38.082  33.833  35.063  1.00  0.00     0.031 C 
ATOM     59  C   UNL A   1      40.071  32.837  36.165  1.00  0.00     0.037 A 
BRANCH  46  60
ATOM     60  C   UNL A   1      44.777  28.882  35.393  1.00  0.00     0.058 A 
ATOM     61  C   UNL A   1      46.054  29.442  35.236  1.00  0.00     0.135 A 
ATOM     62  C   UNL A   1      44.666  27.716  36.168  1.00  0.00     0.135 A 
ATOM     63  F   UNL A   1      46.219  30.550  34.495  1.00  0.00    -0.206 F 
ATOM     64  C   UNL A   1      47.180  28.865  35.815  1.00  0.00     0.059 A 
ATOM     65  C   UNL A   1      45.776  27.132  36.773  1.00  0.00     0.059 A 
ATOM     66  F   UNL A   1      43.469  27.136  36.349  1.00  0.00    -0.206 F 
ATOM     67  C   UNL A   1      47.031  27.710  36.585  1.00  0.00     0.060 A 
BRANCH  67  68
ATOM     68  S   UNL A   1      48.500  26.988  37.350  1.00  0.00     0.124 S 
ATOM     69  O   UNL A   1      49.277  26.596  36.177  1.00  0.00    -0.237 OA
ATOM     70  O   UNL A   1      49.034  28.110  38.116  1.00  0.00    -0.237 OA
ATOM     71  O   UNL A   1      47.965  25.888  38.144  1.00  0.00    -0.744 OA
ENDBRANCH  67  68
ENDBRANCH  46  60
BRANCH  47  72
ATOM     72  C   UNL A   1      36.679  33.058  31.132  1.00  0.00     0.058 A 
ATOM     73  C   UNL A   1      35.366  32.679  31.445  1.00  0.00     0.135 A 
ATOM     74  C   UNL A   1      36.860  34.123  30.236  1.00  0.00     0.135 A 
ATOM     75  F   UNL A   1      35.145  31.672  32.301  1.00  0.00    -0.206 F 
ATOM     76  C   UNL A   1      34.271  33.334  30.892  1.00  0.00     0.059 A 
ATOM     77  C   UNL A   1      35.781  34.807  29.686  1.00  0.00     0.059 A 
ATOM     78  F   UNL A   1      38.099  34.538  29.925  1.00  0.00    -0.206 F 
ATOM     79  C   UNL A   1      34.489  34.402  30.018  1.00  0.00     0.060 A 
BRANCH  79  80
ATOM     80  S   UNL A   1      33.060  35.292  29.365  1.00  0.00     0.124 S 
ATOM     81  O   UNL A   1      32.254  35.475  30.566  1.00  0.00    -0.237 OA
ATOM     82  O   UNL A   1      33.674  36.497  28.817  1.00  0.00    -0.237 OA
ATOM     83  O   UNL A   1      32.515  34.368  28.374  1.00  0.00    -0.744 OA
ENDBRANCH  79  80
ENDBRANCH  47  72
BRANCH  59  84
ATOM     84  C   UNL A   1      39.734  33.650  37.381  1.00  0.00     0.058 A 
ATOM     85  C   UNL A   1      38.901  33.137  38.388  1.00  0.00     0.135 A 
ATOM     86  C   UNL A   1      40.287  34.926  37.566  1.00  0.00     0.135 A 
ATOM     87  F   UNL A   1      38.343  31.924  38.250  1.00  0.00    -0.206 F 
ATOM     88  C   UNL A   1      38.614  33.870  39.532  1.00  0.00     0.059 A 
ATOM     89  C   UNL A   1      40.031  35.669  38.714  1.00  0.00     0.059 A 
ATOM     90  F   UNL A   1      41.094  35.456  36.633  1.00  0.00    -0.206 F 
ATOM     91  C   UNL A   1      39.186  35.134  39.687  1.00  0.00     0.060 A 
BRANCH  91  92
ATOM     92  S   UNL A   1      38.834  36.060  41.196  1.00  0.00     0.124 S 
ATOM     93  O   UNL A   1      39.996  35.738  42.016  1.00  0.00    -0.237 OA
ATOM     94  O   UNL A   1      38.761  37.434  40.709  1.00  0.00    -0.237 OA
ATOM     95  O   UNL A   1      37.567  35.495  41.653  1.00  0.00    -0.744 OA
ENDBRANCH  91  92
ENDBRANCH  59  84
ENDBRANCH  33  34
ENDBRANCH  26  28
ENDBRANCH  25  26
ENDBRANCH  24  25
ENDBRANCH   1  24
TORSDOF 20
ENDMDL
