MODEL 1
REMARK VINA RESULT:      -9.7      0.000      0.000
REMARK SMILES CC(C)Oc1ccc([C@H](O)[C@H](F)C(=O)OCCOC(=O)c2ccc(-c3c4nc(c(-c5c(F)cc(S(=O)(=O)[O-])cc5F)c5ccc([nH]5)c(-c5c(F)cc(S(=O)(=O)[O-])cc5F)c5nc(c(-c6c(F)cc(S(=O)(=O)[O-])cc6F)c6ccc3[nH]6)C=C5)C=C4)cc2)cc1
REMARK SMILES IDX 16 1 15 2 13 3 14 4 11 5 12 6 9 7 8 8 5 9 6 10 88 11 7 12
REMARK SMILES IDX 87 13 4 14 2 15 1 16 3 17 10 18 17 20 18 21 19 22 20 23
REMARK SMILES IDX 21 24 22 25 86 26 23 27 85 28 24 29 25 30 26 31 79 32 27 33
REMARK SMILES IDX 84 34 78 35 80 36 28 37 83 38 77 39 76 40 29 42 63 43 42 44
REMARK SMILES IDX 62 45 43 46 46 47 61 48 81 49 44 50 45 51 60 53 82 54 47 55
REMARK SMILES IDX 30 56 31 57 40 58 32 59 33 60 39 61 41 62 34 63 35 64 36 65
REMARK SMILES IDX 37 66 38 67 64 68 65 69 74 70 66 71 67 72 73 73 75 74 68 75
REMARK SMILES IDX 69 76 70 77 71 78 72 79 48 80 49 81 58 82 50 83 51 84 57 85
REMARK SMILES IDX 59 86 52 87 53 88 54 89 55 90 56 91
REMARK H PARENT 10 19 80 41 46 52
REMARK Flexibility Score: inf
ROOT
ATOM      1  C   UNL A   1      33.632  34.079  28.827  1.00  0.00     0.274 C 
ENDROOT
BRANCH   1   2
ATOM      2  O   UNL A   1      34.174  34.125  30.158  1.00  0.00    -0.460 OA
BRANCH   2   3
ATOM      3  C   UNL A   1      33.609  35.008  31.028  1.00  0.00     0.343 C 
ATOM      4  O   UNL A   1      32.471  35.460  30.926  1.00  0.00    -0.249 OA
BRANCH   3   5
ATOM      5  C   UNL A   1      34.540  35.347  32.174  1.00  0.00     0.308 C 
ATOM      6  F   UNL A   1      34.282  36.593  32.700  1.00  0.00    -0.232 F 
BRANCH   5   7
ATOM      7  C   UNL A   1      34.419  34.327  33.328  1.00  0.00     0.190 C 
BRANCH   7   8
ATOM      8  C   UNL A   1      35.625  33.444  33.644  1.00  0.00    -0.016 A 
ATOM      9  C   UNL A   1      37.638  31.566  34.338  1.00  0.00     0.119 A 
ATOM     10  C   UNL A   1      37.384  32.669  35.153  1.00  0.00     0.047 A 
ATOM     11  C   UNL A   1      36.875  31.383  33.194  1.00  0.00     0.047 A 
ATOM     12  C   UNL A   1      36.388  33.598  34.814  1.00  0.00     0.010 A 
ATOM     13  C   UNL A   1      35.890  32.313  32.848  1.00  0.00     0.010 A 
BRANCH   9  14
ATOM     14  O   UNL A   1      38.505  30.625  34.812  1.00  0.00    -0.491 OA
BRANCH  14  15
ATOM     15  C   UNL A   1      39.790  30.486  34.180  1.00  0.00     0.167 C 
ATOM     16  C   UNL A   1      39.823  29.442  33.067  1.00  0.00     0.052 C 
ATOM     17  C   UNL A   1      40.413  31.814  33.761  1.00  0.00     0.052 C 
ENDBRANCH  14  15
ENDBRANCH   9  14
ENDBRANCH   7   8
BRANCH   7  18
ATOM     18  O   UNL A   1      33.235  33.520  33.193  1.00  0.00    -0.385 OA
ATOM     19  H   UNL A   1      33.294  32.758  33.790  1.00  0.00     0.211 HD
ENDBRANCH   7  18
ENDBRANCH   5   7
ENDBRANCH   3   5
ENDBRANCH   2   3
ENDBRANCH   1   2
BRANCH   1  20
ATOM     20  C   UNL A   1      34.117  32.835  28.077  1.00  0.00     0.275 C 
BRANCH  20  21
ATOM     21  O   UNL A   1      34.213  31.685  28.937  1.00  0.00    -0.458 OA
BRANCH  21  22
ATOM     22  C   UNL A   1      34.493  30.513  28.318  1.00  0.00     0.338 C 
ATOM     23  O   UNL A   1      33.763  29.870  27.583  1.00  0.00    -0.246 OA
BRANCH  22  24
ATOM     24  C   UNL A   1      35.905  30.172  28.537  1.00  0.00     0.060 A 
ATOM     25  C   UNL A   1      36.770  30.210  27.439  1.00  0.00     0.016 A 
ATOM     26  C   UNL A   1      36.364  29.779  29.795  1.00  0.00     0.016 A 
ATOM     27  C   UNL A   1      38.107  29.859  27.596  1.00  0.00     0.010 A 
ATOM     28  C   UNL A   1      37.708  29.434  29.952  1.00  0.00     0.010 A 
ATOM     29  C   UNL A   1      38.586  29.474  28.856  1.00  0.00    -0.014 A 
BRANCH  29  30
ATOM     30  C   UNL A   1      40.016  29.135  29.034  1.00  0.00     0.031 A 
ATOM     31  C   UNL A   1      40.984  30.169  29.523  1.00  0.00     0.074 A 
ATOM     32  C   UNL A   1      40.434  27.890  28.740  1.00  0.00     0.049 A 
ATOM     33  N   UNL A   1      42.281  30.088  29.650  1.00  0.00    -0.248 NA
ATOM     34  C   UNL A   1      40.415  31.465  29.922  1.00  0.00     0.031 C 
ATOM     35  C   UNL A   1      39.571  26.794  28.299  1.00  0.00     0.029 A 
ATOM     36  N   UNL A   1      41.690  27.341  28.761  1.00  0.00    -0.354 N 
ATOM     37  C   UNL A   1      42.692  31.325  30.131  1.00  0.00     0.074 A 
ATOM     38  C   UNL A   1      41.504  32.144  30.254  1.00  0.00     0.031 C 
ATOM     39  C   UNL A   1      40.322  25.700  28.095  1.00  0.00     0.029 A 
ATOM     40  C   UNL A   1      41.722  26.034  28.337  1.00  0.00     0.049 A 
ATOM     41  H   UNL A   1      42.490  27.835  29.051  1.00  0.00     0.167 HD
ATOM     42  C   UNL A   1      43.947  31.734  30.441  1.00  0.00     0.037 A 
ATOM     43  C   UNL A   1      42.767  25.210  28.134  1.00  0.00     0.037 A 
ATOM     44  C   UNL A   1      45.118  30.908  30.307  1.00  0.00     0.049 A 
ATOM     45  C   UNL A   1      44.158  25.718  28.385  1.00  0.00     0.074 A 
ATOM     46  C   UNL A   1      46.431  31.215  30.620  1.00  0.00     0.029 A 
ATOM     47  N   UNL A   1      45.121  29.614  29.804  1.00  0.00    -0.354 N 
ATOM     48  N   UNL A   1      44.535  26.887  28.846  1.00  0.00    -0.248 NA
ATOM     49  C   UNL A   1      45.266  24.807  28.068  1.00  0.00     0.031 C 
ATOM     50  C   UNL A   1      47.233  30.125  30.260  1.00  0.00     0.029 A 
ATOM     51  C   UNL A   1      46.416  29.122  29.762  1.00  0.00     0.049 A 
ATOM     52  H   UNL A   1      44.321  29.117  29.520  1.00  0.00     0.167 HD
ATOM     53  C   UNL A   1      45.924  26.852  28.880  1.00  0.00     0.074 A 
ATOM     54  C   UNL A   1      46.319  25.540  28.407  1.00  0.00     0.031 C 
ATOM     55  C   UNL A   1      46.792  27.819  29.267  1.00  0.00     0.037 A 
BRANCH  42  56
ATOM     56  C   UNL A   1      44.109  33.151  30.915  1.00  0.00     0.058 A 
ATOM     57  C   UNL A   1      43.949  33.504  32.264  1.00  0.00     0.135 A 
ATOM     58  C   UNL A   1      44.417  34.174  30.004  1.00  0.00     0.135 A 
ATOM     59  F   UNL A   1      43.640  32.567  33.176  1.00  0.00    -0.206 F 
ATOM     60  C   UNL A   1      44.044  34.826  32.687  1.00  0.00     0.059 A 
ATOM     61  C   UNL A   1      44.541  35.500  30.407  1.00  0.00     0.059 A 
ATOM     62  F   UNL A   1      44.582  33.891  28.702  1.00  0.00    -0.206 F 
ATOM     63  C   UNL A   1      44.329  35.819  31.747  1.00  0.00     0.060 A 
BRANCH  63  64
ATOM     64  S   UNL A   1      44.403  37.537  32.298  1.00  0.00     0.124 S 
ATOM     65  O   UNL A   1      45.831  37.698  32.549  1.00  0.00    -0.237 OA
ATOM     66  O   UNL A   1      43.878  38.262  31.145  1.00  0.00    -0.237 OA
ATOM     67  O   UNL A   1      43.552  37.551  33.483  1.00  0.00    -0.744 OA
ENDBRANCH  63  64
ENDBRANCH  42  56
BRANCH  43  68
ATOM     68  C   UNL A   1      42.524  23.828  27.648  1.00  0.00     0.058 A 
ATOM     69  C   UNL A   1      42.364  23.567  26.280  1.00  0.00     0.135 A 
ATOM     70  C   UNL A   1      42.511  22.737  28.531  1.00  0.00     0.135 A 
ATOM     71  F   UNL A   1      42.360  24.580  25.400  1.00  0.00    -0.206 F 
ATOM     72  C   UNL A   1      42.210  22.270  25.802  1.00  0.00     0.059 A 
ATOM     73  C   UNL A   1      42.380  21.429  28.075  1.00  0.00     0.059 A 
ATOM     74  F   UNL A   1      42.670  22.936  29.849  1.00  0.00    -0.206 F 
ATOM     75  C   UNL A   1      42.231  21.207  26.707  1.00  0.00     0.060 A 
BRANCH  75  76
ATOM     76  S   UNL A   1      42.129  19.521  26.064  1.00  0.00     0.124 S 
ATOM     77  O   UNL A   1      40.710  19.416  25.742  1.00  0.00    -0.237 OA
ATOM     78  O   UNL A   1      43.040  19.572  24.925  1.00  0.00    -0.237 OA
ATOM     79  O   UNL A   1      42.585  18.707  27.186  1.00  0.00    -0.744 OA
ENDBRANCH  75  76
ENDBRANCH  43  68
BRANCH  55  80
ATOM     80  C   UNL A   1      48.257  27.497  29.190  1.00  0.00     0.058 A 
ATOM     81  C   UNL A   1      49.023  27.850  28.068  1.00  0.00     0.135 A 
ATOM     82  C   UNL A   1      48.915  26.882  30.268  1.00  0.00     0.135 A 
ATOM     83  F   UNL A   1      48.439  28.428  27.007  1.00  0.00    -0.206 F 
ATOM     84  C   UNL A   1      50.389  27.597  28.013  1.00  0.00     0.059 A 
ATOM     85  C   UNL A   1      50.284  26.639  30.243  1.00  0.00     0.059 A 
ATOM     86  F   UNL A   1      48.227  26.529  31.365  1.00  0.00    -0.206 F 
ATOM     87  C   UNL A   1      51.012  26.994  29.108  1.00  0.00     0.060 A 
BRANCH  87  88
ATOM     88  S   UNL A   1      52.795  26.717  29.044  1.00  0.00     0.124 S 
ATOM     89  O   UNL A   1      53.034  26.046  30.317  1.00  0.00    -0.237 OA
ATOM     90  O   UNL A   1      52.942  25.888  27.852  1.00  0.00    -0.237 OA
ATOM     91  O   UNL A   1      53.344  28.066  28.934  1.00  0.00    -0.744 OA
ENDBRANCH  87  88
ENDBRANCH  55  80
ENDBRANCH  29  30
ENDBRANCH  22  24
ENDBRANCH  21  22
ENDBRANCH  20  21
ENDBRANCH   1  20
TORSDOF 19
ENDMDL
MODEL 2
REMARK VINA RESULT:      -9.4      5.793     12.651
REMARK SMILES CC(C)Oc1ccc([C@H](O)[C@H](F)C(=O)OCCOC(=O)c2ccc(-c3c4nc(c(-c5c(F)cc(S(=O)(=O)[O-])cc5F)c5ccc([nH]5)c(-c5c(F)cc(S(=O)(=O)[O-])cc5F)c5nc(c(-c6c(F)cc(S(=O)(=O)[O-])cc6F)c6ccc3[nH]6)C=C5)C=C4)cc2)cc1
REMARK SMILES IDX 16 1 15 2 13 3 14 4 11 5 12 6 9 7 8 8 5 9 6 10 88 11 7 12
REMARK SMILES IDX 87 13 4 14 2 15 1 16 3 17 10 18 17 20 18 21 19 22 20 23
REMARK SMILES IDX 21 24 22 25 86 26 23 27 85 28 24 29 25 30 26 31 79 32 27 33
REMARK SMILES IDX 84 34 78 35 80 36 28 37 83 38 77 39 76 40 29 42 63 43 42 44
REMARK SMILES IDX 62 45 43 46 46 47 61 48 81 49 44 50 45 51 60 53 82 54 47 55
REMARK SMILES IDX 30 56 31 57 40 58 32 59 33 60 39 61 41 62 34 63 35 64 36 65
REMARK SMILES IDX 37 66 38 67 64 68 65 69 74 70 66 71 67 72 73 73 75 74 68 75
REMARK SMILES IDX 69 76 70 77 71 78 72 79 48 80 49 81 58 82 50 83 51 84 57 85
REMARK SMILES IDX 59 86 52 87 53 88 54 89 55 90 56 91
REMARK H PARENT 10 19 80 41 46 52
REMARK Flexibility Score: inf
ROOT
ATOM      1  C   UNL A   1      36.984  23.648  25.897  1.00  0.00     0.274 C 
ENDROOT
BRANCH   1   2
ATOM      2  O   UNL A   1      36.381  22.713  24.986  1.00  0.00    -0.460 OA
BRANCH   2   3
ATOM      3  C   UNL A   1      35.883  23.215  23.822  1.00  0.00     0.343 C 
ATOM      4  O   UNL A   1      36.403  23.070  22.719  1.00  0.00    -0.249 OA
BRANCH   3   5
ATOM      5  C   UNL A   1      34.577  23.951  24.036  1.00  0.00     0.308 C 
ATOM      6  F   UNL A   1      34.643  25.258  23.613  1.00  0.00    -0.232 F 
BRANCH   5   7
ATOM      7  C   UNL A   1      33.413  23.279  23.275  1.00  0.00     0.190 C 
BRANCH   7   8
ATOM      8  C   UNL A   1      32.948  21.897  23.733  1.00  0.00    -0.016 A 
ATOM      9  C   UNL A   1      32.420  19.245  24.598  1.00  0.00     0.119 A 
ATOM     10  C   UNL A   1      32.218  19.612  23.268  1.00  0.00     0.047 A 
ATOM     11  C   UNL A   1      32.908  20.188  25.491  1.00  0.00     0.047 A 
ATOM     12  C   UNL A   1      32.481  20.922  22.836  1.00  0.00     0.010 A 
ATOM     13  C   UNL A   1      33.159  21.497  25.066  1.00  0.00     0.010 A 
BRANCH   9  14
ATOM     14  O   UNL A   1      32.298  17.922  24.907  1.00  0.00    -0.491 OA
BRANCH  14  15
ATOM     15  C   UNL A   1      33.271  16.997  24.388  1.00  0.00     0.167 C 
ATOM     16  C   UNL A   1      34.684  17.568  24.303  1.00  0.00     0.052 C 
ATOM     17  C   UNL A   1      33.229  15.625  25.054  1.00  0.00     0.052 C 
ENDBRANCH  14  15
ENDBRANCH   9  14
ENDBRANCH   7   8
BRANCH   7  18
ATOM     18  O   UNL A   1      33.645  23.278  21.855  1.00  0.00    -0.385 OA
ATOM     19  H   UNL A   1      32.999  23.858  21.421  1.00  0.00     0.211 HD
ENDBRANCH   7  18
ENDBRANCH   5   7
ENDBRANCH   3   5
ENDBRANCH   2   3
ENDBRANCH   1   2
BRANCH   1  20
ATOM     20  C   UNL A   1      38.470  23.338  26.103  1.00  0.00     0.275 C 
BRANCH  20  21
ATOM     21  O   UNL A   1      39.282  24.527  26.070  1.00  0.00    -0.458 OA
BRANCH  21  22
ATOM     22  C   UNL A   1      40.418  24.479  26.806  1.00  0.00     0.338 C 
ATOM     23  O   UNL A   1      41.388  23.763  26.628  1.00  0.00    -0.246 OA
BRANCH  22  24
ATOM     24  C   UNL A   1      40.393  25.553  27.809  1.00  0.00     0.060 A 
ATOM     25  C   UNL A   1      41.482  26.428  27.864  1.00  0.00     0.016 A 
ATOM     26  C   UNL A   1      39.335  25.671  28.711  1.00  0.00     0.016 A 
ATOM     27  C   UNL A   1      41.515  27.436  28.822  1.00  0.00     0.010 A 
ATOM     28  C   UNL A   1      39.367  26.688  29.668  1.00  0.00     0.010 A 
ATOM     29  C   UNL A   1      40.454  27.576  29.727  1.00  0.00    -0.014 A 
BRANCH  29  30
ATOM     30  C   UNL A   1      40.470  28.669  30.725  1.00  0.00     0.031 A 
ATOM     31  C   UNL A   1      41.456  28.651  31.853  1.00  0.00     0.074 A 
ATOM     32  C   UNL A   1      39.580  29.672  30.610  1.00  0.00     0.049 A 
ATOM     33  N   UNL A   1      41.559  29.463  32.871  1.00  0.00    -0.248 NA
ATOM     34  C   UNL A   1      42.458  27.574  31.833  1.00  0.00     0.031 C 
ATOM     35  C   UNL A   1      38.605  29.812  29.528  1.00  0.00     0.029 A 
ATOM     36  N   UNL A   1      39.346  30.756  31.415  1.00  0.00    -0.354 N 
ATOM     37  C   UNL A   1      42.628  28.993  33.624  1.00  0.00     0.074 A 
ATOM     38  C   UNL A   1      43.127  27.811  32.952  1.00  0.00     0.031 C 
ATOM     39  C   UNL A   1      37.880  30.924  29.733  1.00  0.00     0.029 A 
ATOM     40  C   UNL A   1      38.301  31.540  30.988  1.00  0.00     0.049 A 
ATOM     41  H   UNL A   1      39.875  30.954  32.221  1.00  0.00     0.167 HD
ATOM     42  C   UNL A   1      43.142  29.506  34.768  1.00  0.00     0.037 A 
ATOM     43  C   UNL A   1      37.727  32.614  31.560  1.00  0.00     0.037 A 
ATOM     44  C   UNL A   1      42.629  30.680  35.426  1.00  0.00     0.049 A 
ATOM     45  C   UNL A   1      38.247  33.103  32.882  1.00  0.00     0.074 A 
ATOM     46  C   UNL A   1      43.094  31.299  36.573  1.00  0.00     0.029 A 
ATOM     47  N   UNL A   1      41.523  31.404  35.003  1.00  0.00    -0.354 N 
ATOM     48  N   UNL A   1      39.263  32.656  33.581  1.00  0.00    -0.248 NA
ATOM     49  C   UNL A   1      37.531  34.226  33.503  1.00  0.00     0.031 C 
ATOM     50  C   UNL A   1      42.240  32.368  36.870  1.00  0.00     0.029 A 
ATOM     51  C   UNL A   1      41.267  32.442  35.886  1.00  0.00     0.049 A 
ATOM     52  H   UNL A   1      40.998  31.212  34.193  1.00  0.00     0.167 HD
ATOM     53  C   UNL A   1      39.313  33.445  34.724  1.00  0.00     0.074 A 
ATOM     54  C   UNL A   1      38.234  34.407  34.614  1.00  0.00     0.031 C 
ATOM     55  C   UNL A   1      40.174  33.378  35.770  1.00  0.00     0.037 A 
BRANCH  42  56
ATOM     56  C   UNL A   1      44.292  28.769  35.394  1.00  0.00     0.058 A 
ATOM     57  C   UNL A   1      45.620  28.990  34.993  1.00  0.00     0.135 A 
ATOM     58  C   UNL A   1      44.063  27.818  36.401  1.00  0.00     0.135 A 
ATOM     59  F   UNL A   1      45.895  29.878  34.025  1.00  0.00    -0.206 F 
ATOM     60  C   UNL A   1      46.674  28.262  35.537  1.00  0.00     0.059 A 
ATOM     61  C   UNL A   1      45.104  27.095  36.976  1.00  0.00     0.059 A 
ATOM     62  F   UNL A   1      42.813  27.569  36.822  1.00  0.00    -0.206 F 
ATOM     63  C   UNL A   1      46.404  27.308  36.520  1.00  0.00     0.060 A 
BRANCH  63  64
ATOM     64  S   UNL A   1      47.773  26.336  37.184  1.00  0.00     0.124 S 
ATOM     65  O   UNL A   1      48.867  26.742  36.306  1.00  0.00    -0.237 OA
ATOM     66  O   UNL A   1      47.859  26.810  38.561  1.00  0.00    -0.237 OA
ATOM     67  O   UNL A   1      47.320  24.958  37.026  1.00  0.00    -0.744 OA
ENDBRANCH  63  64
ENDBRANCH  42  56
BRANCH  43  68
ATOM     68  C   UNL A   1      36.582  33.277  30.885  1.00  0.00     0.058 A 
ATOM     69  C   UNL A   1      35.281  33.150  31.389  1.00  0.00     0.135 A 
ATOM     70  C   UNL A   1      36.774  34.101  29.765  1.00  0.00     0.135 A 
ATOM     71  F   UNL A   1      35.047  32.364  32.453  1.00  0.00    -0.206 F 
ATOM     72  C   UNL A   1      34.210  33.824  30.814  1.00  0.00     0.059 A 
ATOM     73  C   UNL A   1      35.723  34.803  29.185  1.00  0.00     0.059 A 
ATOM     74  F   UNL A   1      38.004  34.263  29.252  1.00  0.00    -0.206 F 
ATOM     75  C   UNL A   1      34.443  34.658  29.718  1.00  0.00     0.060 A 
BRANCH  75  76
ATOM     76  S   UNL A   1      33.061  35.604  29.041  1.00  0.00     0.124 S 
ATOM     77  O   UNL A   1      33.754  36.716  28.400  1.00  0.00    -0.237 OA
ATOM     78  O   UNL A   1      32.439  34.636  28.142  1.00  0.00    -0.237 OA
ATOM     79  O   UNL A   1      32.276  35.944  30.223  1.00  0.00    -0.744 OA
ENDBRANCH  75  76
ENDBRANCH  43  68
BRANCH  55  80
ATOM     80  C   UNL A   1      39.982  34.368  36.882  1.00  0.00     0.058 A 
ATOM     81  C   UNL A   1      40.543  35.653  36.819  1.00  0.00     0.135 A 
ATOM     82  C   UNL A   1      39.183  34.053  37.994  1.00  0.00     0.135 A 
ATOM     83  F   UNL A   1      41.324  35.999  35.784  1.00  0.00    -0.206 F 
ATOM     84  C   UNL A   1      40.327  36.590  37.825  1.00  0.00     0.059 A 
ATOM     85  C   UNL A   1      38.937  34.981  39.000  1.00  0.00     0.059 A 
ATOM     86  F   UNL A   1      38.621  32.839  38.098  1.00  0.00    -0.206 F 
ATOM     87  C   UNL A   1      39.518  36.245  38.910  1.00  0.00     0.060 A 
BRANCH  87  88
ATOM     88  S   UNL A   1      39.205  37.486  40.183  1.00  0.00     0.124 S 
ATOM     89  O   UNL A   1      40.536  38.049  40.379  1.00  0.00    -0.237 OA
ATOM     90  O   UNL A   1      38.235  38.363  39.534  1.00  0.00    -0.237 OA
ATOM     91  O   UNL A   1      38.683  36.703  41.300  1.00  0.00    -0.744 OA
ENDBRANCH  87  88
ENDBRANCH  55  80
ENDBRANCH  29  30
ENDBRANCH  22  24
ENDBRANCH  21  22
ENDBRANCH  20  21
ENDBRANCH   1  20
TORSDOF 19
ENDMDL
MODEL 3
REMARK VINA RESULT:      -9.2      5.295     12.021
REMARK SMILES CC(C)Oc1ccc([C@H](O)[C@H](F)C(=O)OCCOC(=O)c2ccc(-c3c4nc(c(-c5c(F)cc(S(=O)(=O)[O-])cc5F)c5ccc([nH]5)c(-c5c(F)cc(S(=O)(=O)[O-])cc5F)c5nc(c(-c6c(F)cc(S(=O)(=O)[O-])cc6F)c6ccc3[nH]6)C=C5)C=C4)cc2)cc1
REMARK SMILES IDX 16 1 15 2 13 3 14 4 11 5 12 6 9 7 8 8 5 9 6 10 88 11 7 12
REMARK SMILES IDX 87 13 4 14 2 15 1 16 3 17 10 18 17 20 18 21 19 22 20 23
REMARK SMILES IDX 21 24 22 25 86 26 23 27 85 28 24 29 25 30 26 31 79 32 27 33
REMARK SMILES IDX 84 34 78 35 80 36 28 37 83 38 77 39 76 40 29 42 63 43 42 44
REMARK SMILES IDX 62 45 43 46 46 47 61 48 81 49 44 50 45 51 60 53 82 54 47 55
REMARK SMILES IDX 30 56 31 57 40 58 32 59 33 60 39 61 41 62 34 63 35 64 36 65
REMARK SMILES IDX 37 66 38 67 64 68 65 69 74 70 66 71 67 72 73 73 75 74 68 75
REMARK SMILES IDX 69 76 70 77 71 78 72 79 48 80 49 81 58 82 50 83 51 84 57 85
REMARK SMILES IDX 59 86 52 87 53 88 54 89 55 90 56 91
REMARK H PARENT 10 19 80 41 46 52
REMARK Flexibility Score: inf
ROOT
ATOM      1  C   UNL A   1      42.388  22.479  25.808  1.00  0.00     0.274 C 
ENDROOT
BRANCH   1   2
ATOM      2  O   UNL A   1      41.290  22.689  26.712  1.00  0.00    -0.460 OA
BRANCH   2   3
ATOM      3  C   UNL A   1      40.366  21.693  26.807  1.00  0.00     0.343 C 
ATOM      4  O   UNL A   1      40.400  20.783  27.631  1.00  0.00    -0.249 OA
BRANCH   3   5
ATOM      5  C   UNL A   1      39.252  21.856  25.793  1.00  0.00     0.308 C 
ATOM      6  F   UNL A   1      38.405  20.772  25.775  1.00  0.00    -0.232 F 
BRANCH   5   7
ATOM      7  C   UNL A   1      38.394  23.106  26.086  1.00  0.00     0.190 C 
BRANCH   7   8
ATOM      8  C   UNL A   1      37.016  23.209  25.433  1.00  0.00    -0.016 A 
ATOM      9  C   UNL A   1      34.391  23.089  24.359  1.00  0.00     0.119 A 
ATOM     10  C   UNL A   1      35.501  22.864  23.546  1.00  0.00     0.047 A 
ATOM     11  C   UNL A   1      34.583  23.348  25.708  1.00  0.00     0.047 A 
ATOM     12  C   UNL A   1      36.801  22.920  24.075  1.00  0.00     0.010 A 
ATOM     13  C   UNL A   1      35.878  23.416  26.234  1.00  0.00     0.010 A 
BRANCH   9  14
ATOM     14  O   UNL A   1      33.160  22.860  23.815  1.00  0.00    -0.491 OA
BRANCH  14  15
ATOM     15  C   UNL A   1      31.991  23.271  24.547  1.00  0.00     0.167 C 
ATOM     16  C   UNL A   1      30.947  23.986  23.693  1.00  0.00     0.052 C 
ATOM     17  C   UNL A   1      31.391  22.168  25.413  1.00  0.00     0.052 C 
ENDBRANCH  14  15
ENDBRANCH   9  14
ENDBRANCH   7   8
BRANCH   7  18
ATOM     18  O   UNL A   1      39.138  24.318  25.865  1.00  0.00    -0.385 OA
ATOM     19  H   UNL A   1      38.907  24.968  26.547  1.00  0.00     0.211 HD
ENDBRANCH   7  18
ENDBRANCH   5   7
ENDBRANCH   3   5
ENDBRANCH   2   3
ENDBRANCH   1   2
BRANCH   1  20
ATOM     20  C   UNL A   1      43.042  23.806  25.414  1.00  0.00     0.275 C 
BRANCH  20  21
ATOM     21  O   UNL A   1      42.904  24.805  26.443  1.00  0.00    -0.458 OA
BRANCH  21  22
ATOM     22  C   UNL A   1      42.152  25.882  26.114  1.00  0.00     0.338 C 
ATOM     23  O   UNL A   1      41.686  26.157  25.022  1.00  0.00    -0.246 OA
BRANCH  22  24
ATOM     24  C   UNL A   1      41.830  26.640  27.332  1.00  0.00     0.060 A 
ATOM     25  C   UNL A   1      42.537  27.820  27.579  1.00  0.00     0.016 A 
ATOM     26  C   UNL A   1      40.877  26.173  28.239  1.00  0.00     0.016 A 
ATOM     27  C   UNL A   1      42.288  28.548  28.738  1.00  0.00     0.010 A 
ATOM     28  C   UNL A   1      40.624  26.909  29.399  1.00  0.00     0.010 A 
ATOM     29  C   UNL A   1      41.325  28.100  29.653  1.00  0.00    -0.014 A 
BRANCH  29  30
ATOM     30  C   UNL A   1      41.033  28.891  30.870  1.00  0.00     0.031 A 
ATOM     31  C   UNL A   1      39.929  29.904  30.866  1.00  0.00     0.074 A 
ATOM     32  C   UNL A   1      41.779  28.696  31.972  1.00  0.00     0.049 A 
ATOM     33  N   UNL A   1      39.587  30.754  31.798  1.00  0.00    -0.248 NA
ATOM     34  C   UNL A   1      39.099  29.969  29.653  1.00  0.00     0.031 C 
ATOM     35  C   UNL A   1      42.850  27.706  32.099  1.00  0.00     0.029 A 
ATOM     36  N   UNL A   1      41.756  29.324  33.190  1.00  0.00    -0.354 N 
ATOM     37  C   UNL A   1      38.511  31.467  31.284  1.00  0.00     0.074 A 
ATOM     38  C   UNL A   1      38.271  30.960  29.948  1.00  0.00     0.031 C 
ATOM     39  C   UNL A   1      43.379  27.789  33.331  1.00  0.00     0.029 A 
ATOM     40  C   UNL A   1      42.724  28.874  34.056  1.00  0.00     0.049 A 
ATOM     41  H   UNL A   1      41.110  30.029  33.422  1.00  0.00     0.167 HD
ATOM     42  C   UNL A   1      37.793  32.452  31.876  1.00  0.00     0.037 A 
ATOM     43  C   UNL A   1      43.065  29.309  35.283  1.00  0.00     0.037 A 
ATOM     44  C   UNL A   1      38.049  32.947  33.204  1.00  0.00     0.049 A 
ATOM     45  C   UNL A   1      42.323  30.471  35.879  1.00  0.00     0.074 A 
ATOM     46  C   UNL A   1      37.365  33.922  33.909  1.00  0.00     0.029 A 
ATOM     47  N   UNL A   1      39.085  32.518  34.023  1.00  0.00    -0.354 N 
ATOM     48  N   UNL A   1      41.303  31.133  35.387  1.00  0.00    -0.248 NA
ATOM     49  C   UNL A   1      42.790  30.960  37.183  1.00  0.00     0.031 C 
ATOM     50  C   UNL A   1      38.015  34.115  35.133  1.00  0.00     0.029 A 
ATOM     51  C   UNL A   1      39.081  33.233  35.210  1.00  0.00     0.049 A 
ATOM     52  H   UNL A   1      39.728  31.809  33.795  1.00  0.00     0.167 HD
ATOM     53  C   UNL A   1      41.001  32.115  36.324  1.00  0.00     0.074 A 
ATOM     54  C   UNL A   1      41.938  31.949  37.417  1.00  0.00     0.031 C 
ATOM     55  C   UNL A   1      40.036  33.067  36.280  1.00  0.00     0.037 A 
BRANCH  42  56
ATOM     56  C   UNL A   1      36.691  33.078  31.069  1.00  0.00     0.058 A 
ATOM     57  C   UNL A   1      36.959  33.950  30.002  1.00  0.00     0.135 A 
ATOM     58  C   UNL A   1      35.347  32.813  31.376  1.00  0.00     0.135 A 
ATOM     59  F   UNL A   1      38.226  34.249  29.674  1.00  0.00    -0.206 F 
ATOM     60  C   UNL A   1      35.933  34.571  29.296  1.00  0.00     0.059 A 
ATOM     61  C   UNL A   1      34.304  33.404  30.668  1.00  0.00     0.059 A 
ATOM     62  F   UNL A   1      35.035  31.986  32.386  1.00  0.00    -0.206 F 
ATOM     63  C   UNL A   1      34.608  34.301  29.646  1.00  0.00     0.060 A 
BRANCH  63  64
ATOM     64  S   UNL A   1      33.286  35.149  28.755  1.00  0.00     0.124 S 
ATOM     65  O   UNL A   1      32.743  34.065  27.943  1.00  0.00    -0.237 OA
ATOM     66  O   UNL A   1      32.428  35.621  29.836  1.00  0.00    -0.237 OA
ATOM     67  O   UNL A   1      33.990  36.193  28.016  1.00  0.00    -0.744 OA
ENDBRANCH  63  64
ENDBRANCH  42  56
BRANCH  43  68
ATOM     68  C   UNL A   1      44.179  28.647  36.009  1.00  0.00     0.058 A 
ATOM     69  C   UNL A   1      45.494  29.115  35.887  1.00  0.00     0.135 A 
ATOM     70  C   UNL A   1      43.941  27.578  36.888  1.00  0.00     0.135 A 
ATOM     71  F   UNL A   1      45.770  30.129  35.051  1.00  0.00    -0.206 F 
ATOM     72  C   UNL A   1      46.535  28.554  36.618  1.00  0.00     0.059 A 
ATOM     73  C   UNL A   1      44.963  27.015  37.646  1.00  0.00     0.059 A 
ATOM     74  F   UNL A   1      42.697  27.101  37.047  1.00  0.00    -0.206 F 
ATOM     75  C   UNL A   1      46.258  27.511  37.503  1.00  0.00     0.060 A 
BRANCH  75  76
ATOM     76  S   UNL A   1      47.601  26.856  38.518  1.00  0.00     0.124 S 
ATOM     77  O   UNL A   1      46.869  26.314  39.657  1.00  0.00    -0.237 OA
ATOM     78  O   UNL A   1      48.210  25.876  37.625  1.00  0.00    -0.237 OA
ATOM     79  O   UNL A   1      48.418  28.034  38.793  1.00  0.00    -0.744 OA
ENDBRANCH  75  76
ENDBRANCH  43  68
BRANCH  55  80
ATOM     80  C   UNL A   1      39.948  34.009  37.447  1.00  0.00     0.058 A 
ATOM     81  C   UNL A   1      40.581  35.261  37.422  1.00  0.00     0.135 A 
ATOM     82  C   UNL A   1      39.179  33.682  38.576  1.00  0.00     0.135 A 
ATOM     83  F   UNL A   1      41.337  35.615  36.372  1.00  0.00    -0.206 F 
ATOM     84  C   UNL A   1      40.462  36.156  38.481  1.00  0.00     0.059 A 
ATOM     85  C   UNL A   1      39.029  34.570  39.636  1.00  0.00     0.059 A 
ATOM     86  F   UNL A   1      38.551  32.498  38.646  1.00  0.00    -0.206 F 
ATOM     87  C   UNL A   1      39.680  35.802  39.582  1.00  0.00     0.060 A 
BRANCH  87  88
ATOM     88  S   UNL A   1      39.492  36.993  40.927  1.00  0.00     0.124 S 
ATOM     89  O   UNL A   1      40.880  37.349  41.200  1.00  0.00    -0.237 OA
ATOM     90  O   UNL A   1      38.678  38.036  40.311  1.00  0.00    -0.237 OA
ATOM     91  O   UNL A   1      38.825  36.221  41.972  1.00  0.00    -0.744 OA
ENDBRANCH  87  88
ENDBRANCH  55  80
ENDBRANCH  29  30
ENDBRANCH  22  24
ENDBRANCH  21  22
ENDBRANCH  20  21
ENDBRANCH   1  20
TORSDOF 19
ENDMDL
