MODEL 1
REMARK VINA RESULT:     -11.1      0.000      0.000
REMARK SMILES C[C@@H]1CC[C@@]1(SC1CCCCC1)C(=O)OCCOC(=O)c1ccc(-c2c3nc(c(-c4c(F)cc(S(=O)(=O)[O-])cc4F)c4ccc([nH]4)c(-c4c(F)cc(S(=O)(=O)[O-])cc4F)c4nc(c(-c5c(F)cc(S(=O)(=O)[O-])cc5F)c5ccc2[nH]5)C=C4)C=C3)cc1
REMARK SMILES IDX 17 1 16 2 15 3 13 4 14 5 5 6 1 7 2 8 3 9 4 10 6 11 7 12 8 13
REMARK SMILES IDX 12 14 9 15 11 16 10 17 18 18 19 19 20 20 21 21 22 22 86 23
REMARK SMILES IDX 23 24 85 25 24 26 25 27 26 28 79 29 27 30 84 31 78 32 80 33
REMARK SMILES IDX 28 34 83 35 77 36 76 37 29 39 63 40 42 41 62 42 43 43 46 44
REMARK SMILES IDX 61 45 81 46 44 47 45 48 60 50 82 51 47 52 30 53 31 54 40 55
REMARK SMILES IDX 32 56 33 57 39 58 41 59 34 60 35 61 36 62 37 63 38 64 64 65
REMARK SMILES IDX 65 66 74 67 66 68 67 69 73 70 75 71 68 72 69 73 70 74 71 75
REMARK SMILES IDX 72 76 48 77 49 78 58 79 50 80 51 81 57 82 59 83 52 84 53 85
REMARK SMILES IDX 54 86 55 87 56 88
REMARK H PARENT 80 38 46 49
REMARK Flexibility Score: inf
ROOT
ATOM      1  C   UNL A   1      34.084  30.648  27.675  1.00  0.00     0.275 C 
ENDROOT
BRANCH   1   2
ATOM      2  C   UNL A   1      33.796  29.446  26.774  1.00  0.00     0.274 C 
BRANCH   2   3
ATOM      3  O   UNL A   1      32.392  29.312  26.469  1.00  0.00    -0.461 OA
BRANCH   3   4
ATOM      4  C   UNL A   1      31.792  28.170  26.942  1.00  0.00     0.322 C 
ATOM      5  O   UNL A   1      31.434  28.076  28.115  1.00  0.00    -0.251 OA
BRANCH   4   6
ATOM      6  C   UNL A   1      31.641  27.048  25.828  1.00  0.00     0.116 C 
ATOM      7  C   UNL A   1      33.989  25.764  25.059  1.00  0.00     0.010 C 
ATOM      8  C   UNL A   1      32.742  25.888  25.929  1.00  0.00     0.013 C 
ATOM      9  C   UNL A   1      31.631  24.880  25.561  1.00  0.00     0.007 C 
ATOM     10  C   UNL A   1      30.590  25.911  26.016  1.00  0.00     0.030 C 
BRANCH   6  11
ATOM     11  S   UNL A   1      31.599  27.751  24.092  1.00  0.00    -0.140 SA
BRANCH  11  12
ATOM     12  C   UNL A   1      29.971  28.564  23.902  1.00  0.00     0.048 C 
ATOM     13  C   UNL A   1      30.110  29.992  23.365  1.00  0.00     0.014 C 
ATOM     14  C   UNL A   1      28.867  27.797  23.170  1.00  0.00     0.014 C 
ATOM     15  C   UNL A   1      28.773  30.732  23.404  1.00  0.00     0.001 C 
ATOM     16  C   UNL A   1      27.537  28.551  23.191  1.00  0.00     0.001 C 
ATOM     17  C   UNL A   1      27.692  29.966  22.649  1.00  0.00     0.000 C 
ENDBRANCH  11  12
ENDBRANCH   6  11
ENDBRANCH   4   6
ENDBRANCH   3   4
ENDBRANCH   2   3
ENDBRANCH   1   2
BRANCH   1  18
ATOM     18  O   UNL A   1      35.489  30.951  27.699  1.00  0.00    -0.458 OA
BRANCH  18  19
ATOM     19  C   UNL A   1      36.098  30.832  28.901  1.00  0.00     0.338 C 
ATOM     20  O   UNL A   1      35.660  31.165  29.988  1.00  0.00    -0.246 OA
BRANCH  19  21
ATOM     21  C   UNL A   1      37.405  30.175  28.733  1.00  0.00     0.060 A 
ATOM     22  C   UNL A   1      38.221  29.999  29.846  1.00  0.00     0.016 A 
ATOM     23  C   UNL A   1      37.881  29.859  27.461  1.00  0.00     0.016 A 
ATOM     24  C   UNL A   1      39.532  29.565  29.701  1.00  0.00     0.010 A 
ATOM     25  C   UNL A   1      39.181  29.356  27.320  1.00  0.00     0.010 A 
ATOM     26  C   UNL A   1      40.025  29.228  28.438  1.00  0.00    -0.014 A 
BRANCH  26  27
ATOM     27  C   UNL A   1      41.435  28.787  28.300  1.00  0.00     0.031 A 
ATOM     28  C   UNL A   1      42.551  29.778  28.467  1.00  0.00     0.074 A 
ATOM     29  C   UNL A   1      41.713  27.489  28.066  1.00  0.00     0.049 A 
ATOM     30  N   UNL A   1      43.827  29.630  28.225  1.00  0.00    -0.248 NA
ATOM     31  C   UNL A   1      42.183  31.112  28.966  1.00  0.00     0.031 C 
ATOM     32  C   UNL A   1      40.720  26.418  27.955  1.00  0.00     0.029 A 
ATOM     33  N   UNL A   1      42.913  26.850  27.885  1.00  0.00    -0.354 N 
ATOM     34  C   UNL A   1      44.406  30.865  28.483  1.00  0.00     0.074 A 
ATOM     35  C   UNL A   1      43.345  31.749  28.917  1.00  0.00     0.031 C 
ATOM     36  C   UNL A   1      41.351  25.254  27.743  1.00  0.00     0.029 A 
ATOM     37  C   UNL A   1      42.783  25.507  27.623  1.00  0.00     0.049 A 
ATOM     38  H   UNL A   1      43.782  27.308  27.936  1.00  0.00     0.167 HD
ATOM     39  C   UNL A   1      45.705  31.228  28.356  1.00  0.00     0.037 A 
ATOM     40  C   UNL A   1      43.705  24.589  27.276  1.00  0.00     0.037 A 
ATOM     41  C   UNL A   1      46.760  30.326  27.975  1.00  0.00     0.049 A 
ATOM     42  C   UNL A   1      45.135  25.018  27.116  1.00  0.00     0.074 A 
ATOM     43  C   UNL A   1      48.111  30.588  27.837  1.00  0.00     0.029 A 
ATOM     44  N   UNL A   1      46.581  28.981  27.681  1.00  0.00    -0.354 N 
ATOM     45  N   UNL A   1      45.661  26.205  27.299  1.00  0.00    -0.248 NA
ATOM     46  C   UNL A   1      46.090  23.992  26.678  1.00  0.00     0.031 C 
ATOM     47  C   UNL A   1      48.746  29.407  27.430  1.00  0.00     0.029 A 
ATOM     48  C   UNL A   1      47.794  28.404  27.344  1.00  0.00     0.049 A 
ATOM     49  H   UNL A   1      45.718  28.507  27.708  1.00  0.00     0.167 HD
ATOM     50  C   UNL A   1      47.007  26.075  26.981  1.00  0.00     0.074 A 
ATOM     51  C   UNL A   1      47.220  24.686  26.625  1.00  0.00     0.031 C 
ATOM     52  C   UNL A   1      47.976  27.023  26.973  1.00  0.00     0.037 A 
BRANCH  39  53
ATOM     53  C   UNL A   1      46.044  32.674  28.580  1.00  0.00     0.058 A 
ATOM     54  C   UNL A   1      46.418  33.168  29.838  1.00  0.00     0.135 A 
ATOM     55  C   UNL A   1      46.000  33.577  27.506  1.00  0.00     0.135 A 
ATOM     56  F   UNL A   1      46.455  32.350  30.902  1.00  0.00    -0.206 F 
ATOM     57  C   UNL A   1      46.713  34.514  30.030  1.00  0.00     0.059 A 
ATOM     58  C   UNL A   1      46.310  34.923  27.670  1.00  0.00     0.059 A 
ATOM     59  F   UNL A   1      45.643  33.155  26.282  1.00  0.00    -0.206 F 
ATOM     60  C   UNL A   1      46.651  35.386  28.940  1.00  0.00     0.060 A 
BRANCH  60  61
ATOM     61  S   UNL A   1      47.026  37.134  29.197  1.00  0.00     0.124 S 
ATOM     62  O   UNL A   1      45.907  37.549  30.039  1.00  0.00    -0.237 OA
ATOM     63  O   UNL A   1      48.328  37.084  29.855  1.00  0.00    -0.237 OA
ATOM     64  O   UNL A   1      47.032  37.681  27.845  1.00  0.00    -0.744 OA
ENDBRANCH  60  61
ENDBRANCH  39  53
BRANCH  40  65
ATOM     65  C   UNL A   1      43.275  23.196  26.990  1.00  0.00     0.058 A 
ATOM     66  C   UNL A   1      43.200  22.716  25.676  1.00  0.00     0.135 A 
ATOM     67  C   UNL A   1      42.995  22.301  28.034  1.00  0.00     0.135 A 
ATOM     68  F   UNL A   1      43.449  23.539  24.645  1.00  0.00    -0.206 F 
ATOM     69  C   UNL A   1      42.872  21.391  25.405  1.00  0.00     0.059 A 
ATOM     70  C   UNL A   1      42.685  20.967  27.789  1.00  0.00     0.059 A 
ATOM     71  F   UNL A   1      43.064  22.712  29.310  1.00  0.00    -0.206 F 
ATOM     72  C   UNL A   1      42.625  20.522  26.470  1.00  0.00     0.060 A 
BRANCH  72  73
ATOM     73  S   UNL A   1      42.296  18.779  26.123  1.00  0.00     0.124 S 
ATOM     74  O   UNL A   1      43.286  18.495  25.090  1.00  0.00    -0.237 OA
ATOM     75  O   UNL A   1      42.530  18.152  27.420  1.00  0.00    -0.237 OA
ATOM     76  O   UNL A   1      40.905  18.786  25.683  1.00  0.00    -0.744 OA
ENDBRANCH  72  73
ENDBRANCH  40  65
BRANCH  52  77
ATOM     77  C   UNL A   1      49.348  26.588  26.550  1.00  0.00     0.058 A 
ATOM     78  C   UNL A   1      50.232  25.991  27.462  1.00  0.00     0.135 A 
ATOM     79  C   UNL A   1      49.769  26.731  25.220  1.00  0.00     0.135 A 
ATOM     80  F   UNL A   1      49.876  25.841  28.747  1.00  0.00    -0.206 F 
ATOM     81  C   UNL A   1      51.497  25.566  27.072  1.00  0.00     0.059 A 
ATOM     82  C   UNL A   1      51.022  26.297  24.803  1.00  0.00     0.059 A 
ATOM     83  F   UNL A   1      48.954  27.289  24.310  1.00  0.00    -0.206 F 
ATOM     84  C   UNL A   1      51.884  25.724  25.740  1.00  0.00     0.060 A 
BRANCH  84  85
ATOM     85  S   UNL A   1      53.516  25.142  25.234  1.00  0.00     0.124 S 
ATOM     86  O   UNL A   1      54.373  25.770  26.234  1.00  0.00    -0.237 OA
ATOM     87  O   UNL A   1      53.382  23.692  25.335  1.00  0.00    -0.237 OA
ATOM     88  O   UNL A   1      53.651  25.658  23.876  1.00  0.00    -0.744 OA
ENDBRANCH  84  85
ENDBRANCH  52  77
ENDBRANCH  26  27
ENDBRANCH  19  21
ENDBRANCH  18  19
ENDBRANCH   1  18
TORSDOF 16
ENDMDL
MODEL 2
REMARK VINA RESULT:     -10.9      2.274      3.866
REMARK SMILES C[C@@H]1CC[C@@]1(SC1CCCCC1)C(=O)OCCOC(=O)c1ccc(-c2c3nc(c(-c4c(F)cc(S(=O)(=O)[O-])cc4F)c4ccc([nH]4)c(-c4c(F)cc(S(=O)(=O)[O-])cc4F)c4nc(c(-c5c(F)cc(S(=O)(=O)[O-])cc5F)c5ccc2[nH]5)C=C4)C=C3)cc1
REMARK SMILES IDX 17 1 16 2 15 3 13 4 14 5 5 6 1 7 2 8 3 9 4 10 6 11 7 12 8 13
REMARK SMILES IDX 12 14 9 15 11 16 10 17 18 18 19 19 20 20 21 21 22 22 86 23
REMARK SMILES IDX 23 24 85 25 24 26 25 27 26 28 79 29 27 30 84 31 78 32 80 33
REMARK SMILES IDX 28 34 83 35 77 36 76 37 29 39 63 40 42 41 62 42 43 43 46 44
REMARK SMILES IDX 61 45 81 46 44 47 45 48 60 50 82 51 47 52 30 53 31 54 40 55
REMARK SMILES IDX 32 56 33 57 39 58 41 59 34 60 35 61 36 62 37 63 38 64 64 65
REMARK SMILES IDX 65 66 74 67 66 68 67 69 73 70 75 71 68 72 69 73 70 74 71 75
REMARK SMILES IDX 72 76 48 77 49 78 58 79 50 80 51 81 57 82 59 83 52 84 53 85
REMARK SMILES IDX 54 86 55 87 56 88
REMARK H PARENT 80 38 46 49
REMARK Flexibility Score: inf
ROOT
ATOM      1  C   UNL A   1      32.435  28.943  27.160  1.00  0.00     0.275 C 
ENDROOT
BRANCH   1   2
ATOM      2  C   UNL A   1      31.694  27.708  27.676  1.00  0.00     0.274 C 
BRANCH   2   3
ATOM      3  O   UNL A   1      31.034  26.983  26.618  1.00  0.00    -0.461 OA
BRANCH   3   4
ATOM      4  C   UNL A   1      31.628  25.798  26.255  1.00  0.00     0.322 C 
ATOM      5  O   UNL A   1      31.510  24.787  26.946  1.00  0.00    -0.251 OA
BRANCH   4   6
ATOM      6  C   UNL A   1      32.448  25.911  24.900  1.00  0.00     0.116 C 
ATOM      7  C   UNL A   1      31.029  26.820  22.684  1.00  0.00     0.010 C 
ATOM      8  C   UNL A   1      31.905  27.049  23.911  1.00  0.00     0.013 C 
ATOM      9  C   UNL A   1      33.375  27.372  23.567  1.00  0.00     0.007 C 
ATOM     10  C   UNL A   1      33.797  26.694  24.877  1.00  0.00     0.030 C 
BRANCH   6  11
ATOM     11  S   UNL A   1      32.580  24.276  23.995  1.00  0.00    -0.140 SA
BRANCH  11  12
ATOM     12  C   UNL A   1      34.234  23.599  24.385  1.00  0.00     0.048 C 
ATOM     13  C   UNL A   1      34.176  22.586  25.532  1.00  0.00     0.014 C 
ATOM     14  C   UNL A   1      35.090  23.083  23.226  1.00  0.00     0.014 C 
ATOM     15  C   UNL A   1      35.578  22.183  25.989  1.00  0.00     0.001 C 
ATOM     16  C   UNL A   1      36.484  22.659  23.690  1.00  0.00     0.001 C 
ATOM     17  C   UNL A   1      36.407  21.647  24.826  1.00  0.00     0.000 C 
ENDBRANCH  11  12
ENDBRANCH   6  11
ENDBRANCH   4   6
ENDBRANCH   3   4
ENDBRANCH   2   3
ENDBRANCH   1   2
BRANCH   1  18
ATOM     18  O   UNL A   1      33.804  28.945  27.598  1.00  0.00    -0.458 OA
BRANCH  18  19
ATOM     19  C   UNL A   1      34.316  30.150  27.935  1.00  0.00     0.338 C 
ATOM     20  O   UNL A   1      33.719  31.211  28.015  1.00  0.00    -0.246 OA
BRANCH  19  21
ATOM     21  C   UNL A   1      35.746  30.012  28.255  1.00  0.00     0.060 A 
ATOM     22  C   UNL A   1      36.686  30.203  27.246  1.00  0.00     0.016 A 
ATOM     23  C   UNL A   1      36.151  29.561  29.510  1.00  0.00     0.016 A 
ATOM     24  C   UNL A   1      38.023  29.893  27.457  1.00  0.00     0.010 A 
ATOM     25  C   UNL A   1      37.510  29.313  29.745  1.00  0.00     0.010 A 
ATOM     26  C   UNL A   1      38.453  29.454  28.711  1.00  0.00    -0.014 A 
BRANCH  26  27
ATOM     27  C   UNL A   1      39.882  29.108  28.912  1.00  0.00     0.031 A 
ATOM     28  C   UNL A   1      40.832  30.132  29.463  1.00  0.00     0.074 A 
ATOM     29  C   UNL A   1      40.316  27.862  28.637  1.00  0.00     0.049 A 
ATOM     30  N   UNL A   1      42.135  30.081  29.556  1.00  0.00    -0.248 NA
ATOM     31  C   UNL A   1      40.240  31.379  29.971  1.00  0.00     0.031 C 
ATOM     32  C   UNL A   1      39.477  26.759  28.164  1.00  0.00     0.029 A 
ATOM     33  N   UNL A   1      41.570  27.313  28.721  1.00  0.00    -0.354 N 
ATOM     34  C   UNL A   1      42.525  31.308  30.076  1.00  0.00     0.074 A 
ATOM     35  C   UNL A   1      41.319  32.079  30.294  1.00  0.00     0.031 C 
ATOM     36  C   UNL A   1      40.234  25.662  28.017  1.00  0.00     0.029 A 
ATOM     37  C   UNL A   1      41.623  26.003  28.307  1.00  0.00     0.049 A 
ATOM     38  H   UNL A   1      42.356  27.808  29.045  1.00  0.00     0.167 HD
ATOM     39  C   UNL A   1      43.778  31.752  30.334  1.00  0.00     0.037 A 
ATOM     40  C   UNL A   1      42.675  25.181  28.132  1.00  0.00     0.037 A 
ATOM     41  C   UNL A   1      44.966  30.957  30.162  1.00  0.00     0.049 A 
ATOM     42  C   UNL A   1      44.057  25.701  28.399  1.00  0.00     0.074 A 
ATOM     43  C   UNL A   1      46.281  31.305  30.415  1.00  0.00     0.029 A 
ATOM     44  N   UNL A   1      44.980  29.647  29.705  1.00  0.00    -0.354 N 
ATOM     45  N   UNL A   1      44.420  26.887  28.828  1.00  0.00    -0.248 NA
ATOM     46  C   UNL A   1      45.173  24.785  28.135  1.00  0.00     0.031 C 
ATOM     47  C   UNL A   1      47.093  30.214  30.081  1.00  0.00     0.029 A 
ATOM     48  C   UNL A   1      46.281  29.178  29.649  1.00  0.00     0.049 A 
ATOM     49  H   UNL A   1      44.181  29.127  29.456  1.00  0.00     0.167 HD
ATOM     50  C   UNL A   1      45.808  26.867  28.869  1.00  0.00     0.074 A 
ATOM     51  C   UNL A   1      46.218  25.540  28.451  1.00  0.00     0.031 C 
ATOM     52  C   UNL A   1      46.665  27.860  29.209  1.00  0.00     0.037 A 
BRANCH  39  53
ATOM     53  C   UNL A   1      43.928  33.179  30.777  1.00  0.00     0.058 A 
ATOM     54  C   UNL A   1      43.906  33.548  32.130  1.00  0.00     0.135 A 
ATOM     55  C   UNL A   1      44.107  34.192  29.822  1.00  0.00     0.135 A 
ATOM     56  F   UNL A   1      43.717  32.620  33.081  1.00  0.00    -0.206 F 
ATOM     57  C   UNL A   1      44.031  34.878  32.521  1.00  0.00     0.059 A 
ATOM     58  C   UNL A   1      44.255  35.526  30.191  1.00  0.00     0.059 A 
ATOM     59  F   UNL A   1      44.132  33.892  28.514  1.00  0.00    -0.206 F 
ATOM     60  C   UNL A   1      44.199  35.861  31.543  1.00  0.00     0.060 A 
BRANCH  60  61
ATOM     61  S   UNL A   1      44.351  37.586  32.056  1.00  0.00     0.124 S 
ATOM     62  O   UNL A   1      45.768  37.663  32.398  1.00  0.00    -0.237 OA
ATOM     63  O   UNL A   1      43.951  38.310  30.854  1.00  0.00    -0.237 OA
ATOM     64  O   UNL A   1      43.427  37.687  33.181  1.00  0.00    -0.744 OA
ENDBRANCH  60  61
ENDBRANCH  39  53
BRANCH  40  65
ATOM     65  C   UNL A   1      42.449  23.810  27.609  1.00  0.00     0.058 A 
ATOM     66  C   UNL A   1      42.473  23.544  26.235  1.00  0.00     0.135 A 
ATOM     67  C   UNL A   1      42.270  22.727  28.485  1.00  0.00     0.135 A 
ATOM     68  F   UNL A   1      42.630  24.548  25.359  1.00  0.00    -0.206 F 
ATOM     69  C   UNL A   1      42.337  22.249  25.743  1.00  0.00     0.059 A 
ATOM     70  C   UNL A   1      42.154  21.422  28.019  1.00  0.00     0.059 A 
ATOM     71  F   UNL A   1      42.251  22.930  29.812  1.00  0.00    -0.206 F 
ATOM     72  C   UNL A   1      42.188  21.193  26.644  1.00  0.00     0.060 A 
BRANCH  72  73
ATOM     73  S   UNL A   1      42.112  19.502  26.012  1.00  0.00     0.124 S 
ATOM     74  O   UNL A   1      40.681  19.337  25.788  1.00  0.00    -0.237 OA
ATOM     75  O   UNL A   1      42.940  19.579  24.812  1.00  0.00    -0.237 OA
ATOM     76  O   UNL A   1      42.678  18.715  27.102  1.00  0.00    -0.744 OA
ENDBRANCH  72  73
ENDBRANCH  40  65
BRANCH  52  77
ATOM     77  C   UNL A   1      48.131  27.549  29.126  1.00  0.00     0.058 A 
ATOM     78  C   UNL A   1      48.840  27.719  27.928  1.00  0.00     0.135 A 
ATOM     79  C   UNL A   1      48.839  27.118  30.257  1.00  0.00     0.135 A 
ATOM     80  F   UNL A   1      48.203  28.122  26.817  1.00  0.00    -0.206 F 
ATOM     81  C   UNL A   1      50.203  27.454  27.849  1.00  0.00     0.059 A 
ATOM     82  C   UNL A   1      50.205  26.864  30.206  1.00  0.00     0.059 A 
ATOM     83  F   UNL A   1      48.204  26.949  31.428  1.00  0.00    -0.206 F 
ATOM     84  C   UNL A   1      50.877  27.026  28.994  1.00  0.00     0.060 A 
BRANCH  84  85
ATOM     85  S   UNL A   1      52.652  26.712  28.892  1.00  0.00     0.124 S 
ATOM     86  O   UNL A   1      53.186  28.069  28.835  1.00  0.00    -0.237 OA
ATOM     87  O   UNL A   1      52.915  25.979  30.126  1.00  0.00    -0.237 OA
ATOM     88  O   UNL A   1      52.786  25.931  27.667  1.00  0.00    -0.744 OA
ENDBRANCH  84  85
ENDBRANCH  52  77
ENDBRANCH  26  27
ENDBRANCH  19  21
ENDBRANCH  18  19
ENDBRANCH   1  18
TORSDOF 16
ENDMDL
MODEL 3
REMARK VINA RESULT:     -10.8      0.940      2.637
REMARK SMILES C[C@@H]1CC[C@@]1(SC1CCCCC1)C(=O)OCCOC(=O)c1ccc(-c2c3nc(c(-c4c(F)cc(S(=O)(=O)[O-])cc4F)c4ccc([nH]4)c(-c4c(F)cc(S(=O)(=O)[O-])cc4F)c4nc(c(-c5c(F)cc(S(=O)(=O)[O-])cc5F)c5ccc2[nH]5)C=C4)C=C3)cc1
REMARK SMILES IDX 17 1 16 2 15 3 13 4 14 5 5 6 1 7 2 8 3 9 4 10 6 11 7 12 8 13
REMARK SMILES IDX 12 14 9 15 11 16 10 17 18 18 19 19 20 20 21 21 22 22 86 23
REMARK SMILES IDX 23 24 85 25 24 26 25 27 26 28 79 29 27 30 84 31 78 32 80 33
REMARK SMILES IDX 28 34 83 35 77 36 76 37 29 39 63 40 42 41 62 42 43 43 46 44
REMARK SMILES IDX 61 45 81 46 44 47 45 48 60 50 82 51 47 52 30 53 31 54 40 55
REMARK SMILES IDX 32 56 33 57 39 58 41 59 34 60 35 61 36 62 37 63 38 64 64 65
REMARK SMILES IDX 65 66 74 67 66 68 67 69 73 70 75 71 68 72 69 73 70 74 71 75
REMARK SMILES IDX 72 76 48 77 49 78 58 79 50 80 51 81 57 82 59 83 52 84 53 85
REMARK SMILES IDX 54 86 55 87 56 88
REMARK H PARENT 80 38 46 49
REMARK Flexibility Score: inf
ROOT
ATOM      1  C   UNL A   1      34.213  31.434  27.881  1.00  0.00     0.275 C 
ENDROOT
BRANCH   1   2
ATOM      2  C   UNL A   1      33.048  30.662  27.259  1.00  0.00     0.274 C 
BRANCH   2   3
ATOM      3  O   UNL A   1      33.445  29.919  26.088  1.00  0.00    -0.461 OA
BRANCH   3   4
ATOM      4  C   UNL A   1      33.145  28.579  26.110  1.00  0.00     0.322 C 
ATOM      5  O   UNL A   1      33.140  27.943  27.163  1.00  0.00    -0.251 OA
BRANCH   4   6
ATOM      6  C   UNL A   1      32.831  27.995  24.667  1.00  0.00     0.116 C 
ATOM      7  C   UNL A   1      30.425  28.797  23.519  1.00  0.00     0.010 C 
ATOM      8  C   UNL A   1      31.921  28.958  23.766  1.00  0.00     0.013 C 
ATOM      9  C   UNL A   1      32.793  28.555  22.556  1.00  0.00     0.007 C 
ATOM     10  C   UNL A   1      33.895  28.128  23.533  1.00  0.00     0.030 C 
BRANCH   6  11
ATOM     11  S   UNL A   1      32.092  26.275  24.726  1.00  0.00    -0.140 SA
BRANCH  11  12
ATOM     12  C   UNL A   1      33.428  25.119  24.248  1.00  0.00     0.048 C 
ATOM     13  C   UNL A   1      34.404  24.873  25.403  1.00  0.00     0.014 C 
ATOM     14  C   UNL A   1      33.032  23.810  23.561  1.00  0.00     0.014 C 
ATOM     15  C   UNL A   1      35.623  24.076  24.938  1.00  0.00     0.001 C 
ATOM     16  C   UNL A   1      34.254  23.005  23.118  1.00  0.00     0.001 C 
ATOM     17  C   UNL A   1      35.211  22.764  24.279  1.00  0.00     0.000 C 
ENDBRANCH  11  12
ENDBRANCH   6  11
ENDBRANCH   4   6
ENDBRANCH   3   4
ENDBRANCH   2   3
ENDBRANCH   1   2
BRANCH   1  18
ATOM     18  O   UNL A   1      35.401  30.626  27.930  1.00  0.00    -0.458 OA
BRANCH  18  19
ATOM     19  C   UNL A   1      36.156  30.754  29.045  1.00  0.00     0.338 C 
ATOM     20  O   UNL A   1      35.840  31.282  30.097  1.00  0.00    -0.246 OA
BRANCH  19  21
ATOM     21  C   UNL A   1      37.460  30.101  28.839  1.00  0.00     0.060 A 
ATOM     22  C   UNL A   1      38.289  29.885  29.937  1.00  0.00     0.016 A 
ATOM     23  C   UNL A   1      37.921  29.828  27.552  1.00  0.00     0.016 A 
ATOM     24  C   UNL A   1      39.597  29.455  29.762  1.00  0.00     0.010 A 
ATOM     25  C   UNL A   1      39.218  29.329  27.379  1.00  0.00     0.010 A 
ATOM     26  C   UNL A   1      40.075  29.161  28.482  1.00  0.00    -0.014 A 
BRANCH  26  27
ATOM     27  C   UNL A   1      41.482  28.722  28.313  1.00  0.00     0.031 A 
ATOM     28  C   UNL A   1      42.600  29.716  28.455  1.00  0.00     0.074 A 
ATOM     29  C   UNL A   1      41.758  27.426  28.071  1.00  0.00     0.049 A 
ATOM     30  N   UNL A   1      43.870  29.571  28.186  1.00  0.00    -0.248 NA
ATOM     31  C   UNL A   1      42.240  31.049  28.965  1.00  0.00     0.031 C 
ATOM     32  C   UNL A   1      40.765  26.353  27.980  1.00  0.00     0.029 A 
ATOM     33  N   UNL A   1      42.955  26.789  27.862  1.00  0.00    -0.354 N 
ATOM     34  C   UNL A   1      44.453  30.807  28.432  1.00  0.00     0.074 A 
ATOM     35  C   UNL A   1      43.400  31.688  28.890  1.00  0.00     0.031 C 
ATOM     36  C   UNL A   1      41.394  25.191  27.753  1.00  0.00     0.029 A 
ATOM     37  C   UNL A   1      42.822  25.446  27.602  1.00  0.00     0.049 A 
ATOM     38  H   UNL A   1      43.824  27.250  27.895  1.00  0.00     0.167 HD
ATOM     39  C   UNL A   1      45.747  31.173  28.278  1.00  0.00     0.037 A 
ATOM     40  C   UNL A   1      43.738  24.531  27.234  1.00  0.00     0.037 A 
ATOM     41  C   UNL A   1      46.795  30.273  27.872  1.00  0.00     0.049 A 
ATOM     42  C   UNL A   1      45.163  24.962  27.043  1.00  0.00     0.074 A 
ATOM     43  C   UNL A   1      48.143  30.538  27.705  1.00  0.00     0.029 A 
ATOM     44  N   UNL A   1      46.613  28.928  27.581  1.00  0.00    -0.354 N 
ATOM     45  N   UNL A   1      45.691  26.151  27.215  1.00  0.00    -0.248 NA
ATOM     46  C   UNL A   1      46.110  23.940  26.583  1.00  0.00     0.031 C 
ATOM     47  C   UNL A   1      48.771  29.359  27.283  1.00  0.00     0.029 A 
ATOM     48  C   UNL A   1      47.819  28.354  27.216  1.00  0.00     0.049 A 
ATOM     49  H   UNL A   1      45.752  28.452  27.626  1.00  0.00     0.167 HD
ATOM     50  C   UNL A   1      47.030  26.024  26.867  1.00  0.00     0.074 A 
ATOM     51  C   UNL A   1      47.237  24.636  26.506  1.00  0.00     0.031 C 
ATOM     52  C   UNL A   1      47.996  26.974  26.839  1.00  0.00     0.037 A 
BRANCH  39  53
ATOM     53  C   UNL A   1      46.089  32.619  28.496  1.00  0.00     0.058 A 
ATOM     54  C   UNL A   1      46.488  33.112  29.746  1.00  0.00     0.135 A 
ATOM     55  C   UNL A   1      46.020  33.522  27.423  1.00  0.00     0.135 A 
ATOM     56  F   UNL A   1      46.549  32.294  30.808  1.00  0.00    -0.206 F 
ATOM     57  C   UNL A   1      46.785  34.459  29.933  1.00  0.00     0.059 A 
ATOM     58  C   UNL A   1      46.332  34.869  27.582  1.00  0.00     0.059 A 
ATOM     59  F   UNL A   1      45.639  33.101  26.207  1.00  0.00    -0.206 F 
ATOM     60  C   UNL A   1      46.698  35.332  28.845  1.00  0.00     0.060 A 
BRANCH  60  61
ATOM     61  S   UNL A   1      47.075  37.080  29.096  1.00  0.00     0.124 S 
ATOM     62  O   UNL A   1      47.105  37.570  27.721  1.00  0.00    -0.237 OA
ATOM     63  O   UNL A   1      45.948  37.533  29.905  1.00  0.00    -0.237 OA
ATOM     64  O   UNL A   1      48.362  37.053  29.782  1.00  0.00    -0.744 OA
ENDBRANCH  60  61
ENDBRANCH  39  53
BRANCH  40  65
ATOM     65  C   UNL A   1      43.305  23.138  26.955  1.00  0.00     0.058 A 
ATOM     66  C   UNL A   1      43.211  22.656  25.643  1.00  0.00     0.135 A 
ATOM     67  C   UNL A   1      43.040  22.243  28.004  1.00  0.00     0.135 A 
ATOM     68  F   UNL A   1      43.444  23.477  24.608  1.00  0.00    -0.206 F 
ATOM     69  C   UNL A   1      42.879  21.330  25.378  1.00  0.00     0.059 A 
ATOM     70  C   UNL A   1      42.727  20.909  27.765  1.00  0.00     0.059 A 
ATOM     71  F   UNL A   1      43.127  22.656  29.278  1.00  0.00    -0.206 F 
ATOM     72  C   UNL A   1      42.648  20.462  26.448  1.00  0.00     0.060 A 
BRANCH  72  73
ATOM     73  S   UNL A   1      42.316  18.719  26.107  1.00  0.00     0.124 S 
ATOM     74  O   UNL A   1      43.243  18.452  25.014  1.00  0.00    -0.237 OA
ATOM     75  O   UNL A   1      42.634  18.085  27.383  1.00  0.00    -0.237 OA
ATOM     76  O   UNL A   1      40.900  18.715  25.753  1.00  0.00    -0.744 OA
ENDBRANCH  72  73
ENDBRANCH  40  65
BRANCH  52  77
ATOM     77  C   UNL A   1      49.360  26.542  26.385  1.00  0.00     0.058 A 
ATOM     78  C   UNL A   1      49.786  26.760  25.067  1.00  0.00     0.135 A 
ATOM     79  C   UNL A   1      50.258  25.943  27.280  1.00  0.00     0.135 A 
ATOM     80  F   UNL A   1      48.958  27.323  24.173  1.00  0.00    -0.206 F 
ATOM     81  C   UNL A   1      51.056  26.382  24.645  1.00  0.00     0.059 A 
ATOM     82  C   UNL A   1      51.539  25.573  26.885  1.00  0.00     0.059 A 
ATOM     83  F   UNL A   1      49.897  25.721  28.554  1.00  0.00    -0.206 F 
ATOM     84  C   UNL A   1      51.925  25.788  25.561  1.00  0.00     0.060 A 
BRANCH  84  85
ATOM     85  S   UNL A   1      53.583  25.326  25.014  1.00  0.00     0.124 S 
ATOM     86  O   UNL A   1      53.518  25.639  23.591  1.00  0.00    -0.237 OA
ATOM     87  O   UNL A   1      54.435  26.197  25.817  1.00  0.00    -0.237 OA
ATOM     88  O   UNL A   1      53.663  23.907  25.343  1.00  0.00    -0.744 OA
ENDBRANCH  84  85
ENDBRANCH  52  77
ENDBRANCH  26  27
ENDBRANCH  19  21
ENDBRANCH  18  19
ENDBRANCH   1  18
TORSDOF 16
ENDMDL
