MODEL 1
REMARK VINA RESULT:     -10.5      0.000      0.000
REMARK SMILES CCCCCCNC(=O)Oc1cccc(-c2ccc([C@@H](C)C(=O)OCCOC(=O)c3ccc(-c4c5nc(c(-c6c(F)cc(S(=O)(=O)[O-])cc6F)c6ccc([nH]6)c(-c6c(F)cc(S(=O)(=O)[O-])cc6F)c6nc(c(-c7c(F)cc(S(=O)(=O)[O-])cc7F)c7ccc4[nH]7)C=C6)C=C5)cc3)cc2C)c1
REMARK SMILES IDX 20 1 21 2 19 3 16 4 17 5 97 6 18 7 96 8 98 9 15 10 11 11
REMARK SMILES IDX 12 12 99 13 13 14 14 15 10 16 8 17 7 18 9 20 6 21 5 22 4 23
REMARK SMILES IDX 3 24 2 25 1 26 22 27 23 28 24 29 25 30 26 31 27 32 28 33
REMARK SMILES IDX 29 34 30 35 31 36 95 37 32 38 94 39 33 40 34 41 35 42 88 43
REMARK SMILES IDX 36 44 93 45 87 46 89 47 37 48 92 49 86 50 85 51 38 53 72 54
REMARK SMILES IDX 51 55 71 56 52 57 55 58 70 59 90 60 53 61 54 62 69 64 91 65
REMARK SMILES IDX 56 66 39 67 40 68 49 69 41 70 42 71 48 72 50 73 43 74 44 75
REMARK SMILES IDX 45 76 46 77 47 78 73 79 74 80 83 81 75 82 76 83 82 84 84 85
REMARK SMILES IDX 77 86 78 87 79 88 80 89 81 90 57 91 58 92 67 93 59 94 60 95
REMARK SMILES IDX 66 96 68 97 61 98 62 99 63 100 64 101 65 102
REMARK H PARENT 7 19 89 52 55 63
REMARK Flexibility Score: inf
ROOT
ATOM      1  C   UNL A   1      32.447  21.208  24.897  1.00  0.00     0.126 C 
ATOM      2  C   UNL A   1      32.450  20.294  23.673  1.00  0.00     0.025 C 
ENDROOT
BRANCH   1   3
ATOM      3  C   UNL A   1      31.795  22.553  24.611  1.00  0.00    -0.034 A 
ATOM      4  C   UNL A   1      30.465  25.032  24.132  1.00  0.00    -0.015 A 
ATOM      5  C   UNL A   1      31.114  24.325  23.101  1.00  0.00     0.009 A 
ATOM      6  C   UNL A   1      30.502  24.483  25.433  1.00  0.00    -0.043 A 
ATOM      7  C   UNL A   1      31.760  23.106  23.331  1.00  0.00     0.005 A 
ATOM      8  C   UNL A   1      31.175  23.264  25.652  1.00  0.00     0.008 A 
ATOM      9  C   UNL A   1      29.882  25.150  26.633  1.00  0.00     0.045 C 
BRANCH   4  10
ATOM     10  C   UNL A   1      29.718  26.260  23.790  1.00  0.00    -0.014 A 
ATOM     11  C   UNL A   1      29.604  28.609  23.204  1.00  0.00     0.133 A 
ATOM     12  C   UNL A   1      28.212  28.591  23.276  1.00  0.00     0.047 A 
ATOM     13  C   UNL A   1      30.360  27.459  23.447  1.00  0.00     0.056 A 
ATOM     14  C   UNL A   1      27.561  27.402  23.583  1.00  0.00     0.004 A 
ATOM     15  C   UNL A   1      28.309  26.252  23.845  1.00  0.00     0.009 A 
BRANCH  11  16
ATOM     16  O   UNL A   1      30.199  29.873  23.046  1.00  0.00    -0.410 OA
BRANCH  16  17
ATOM     17  C   UNL A   1      29.837  30.913  23.888  1.00  0.00     0.412 C 
ATOM     18  N   UNL A   1      30.618  30.984  25.010  1.00  0.00    -0.321 N 
ATOM     19  H   UNL A   1      30.413  31.709  25.644  1.00  0.00     0.167 HD
ATOM     20  O   UNL A   1      28.911  31.694  23.708  1.00  0.00    -0.224 OA
BRANCH  18  21
ATOM     21  C   UNL A   1      31.715  30.104  25.364  1.00  0.00     0.119 C 
BRANCH  21  22
ATOM     22  C   UNL A   1      31.737  29.765  26.854  1.00  0.00     0.021 C 
BRANCH  22  23
ATOM     23  C   UNL A   1      32.368  28.411  27.201  1.00  0.00     0.002 C 
BRANCH  23  24
ATOM     24  C   UNL A   1      32.632  27.477  26.016  1.00  0.00    -0.000 C 
BRANCH  24  25
ATOM     25  C   UNL A   1      33.989  26.769  26.024  1.00  0.00    -0.003 C 
ATOM     26  C   UNL A   1      34.050  25.572  25.087  1.00  0.00     0.004 C 
ENDBRANCH  24  25
ENDBRANCH  23  24
ENDBRANCH  22  23
ENDBRANCH  21  22
ENDBRANCH  18  21
ENDBRANCH  16  17
ENDBRANCH  11  16
ENDBRANCH   4  10
ENDBRANCH   1   3
BRANCH   1  27
ATOM     27  C   UNL A   1      33.839  21.245  25.516  1.00  0.00     0.313 C 
ATOM     28  O   UNL A   1      34.011  21.429  26.717  1.00  0.00    -0.252 OA
BRANCH  27  29
ATOM     29  O   UNL A   1      34.842  20.997  24.634  1.00  0.00    -0.462 OA
BRANCH  29  30
ATOM     30  C   UNL A   1      36.142  20.728  25.194  1.00  0.00     0.274 C 
BRANCH  30  31
ATOM     31  C   UNL A   1      37.189  21.714  24.673  1.00  0.00     0.275 C 
BRANCH  31  32
ATOM     32  O   UNL A   1      37.487  22.727  25.652  1.00  0.00    -0.458 OA
BRANCH  32  33
ATOM     33  C   UNL A   1      38.723  22.643  26.196  1.00  0.00     0.338 C 
ATOM     34  O   UNL A   1      39.457  21.671  26.215  1.00  0.00    -0.246 OA
BRANCH  33  35
ATOM     35  C   UNL A   1      39.143  23.963  26.687  1.00  0.00     0.060 A 
ATOM     36  C   UNL A   1      39.859  24.785  25.816  1.00  0.00     0.016 A 
ATOM     37  C   UNL A   1      38.946  24.338  28.016  1.00  0.00     0.016 A 
ATOM     38  C   UNL A   1      40.415  25.974  26.274  1.00  0.00     0.010 A 
ATOM     39  C   UNL A   1      39.492  25.544  28.472  1.00  0.00     0.010 A 
ATOM     40  C   UNL A   1      40.253  26.356  27.611  1.00  0.00    -0.014 A 
BRANCH  40  41
ATOM     41  C   UNL A   1      40.944  27.572  28.106  1.00  0.00     0.031 A 
ATOM     42  C   UNL A   1      42.440  27.678  27.995  1.00  0.00     0.074 A 
ATOM     43  C   UNL A   1      40.226  28.592  28.613  1.00  0.00     0.049 A 
ATOM     44  N   UNL A   1      43.230  28.643  28.388  1.00  0.00    -0.248 NA
ATOM     45  C   UNL A   1      43.141  26.548  27.363  1.00  0.00     0.031 C 
ATOM     46  C   UNL A   1      38.769  28.610  28.753  1.00  0.00     0.029 A 
ATOM     47  N   UNL A   1      40.625  29.808  29.105  1.00  0.00    -0.354 N 
ATOM     48  C   UNL A   1      44.521  28.229  28.080  1.00  0.00     0.074 A 
ATOM     49  C   UNL A   1      44.410  26.919  27.473  1.00  0.00     0.031 C 
ATOM     50  C   UNL A   1      38.396  29.781  29.297  1.00  0.00     0.029 A 
ATOM     51  C   UNL A   1      39.588  30.579  29.574  1.00  0.00     0.049 A 
ATOM     52  H   UNL A   1      41.565  30.102  29.120  1.00  0.00     0.167 HD
ATOM     53  C   UNL A   1      45.689  28.883  28.281  1.00  0.00     0.037 A 
ATOM     54  C   UNL A   1      39.600  31.783  30.180  1.00  0.00     0.037 A 
ATOM     55  C   UNL A   1      45.790  30.204  28.847  1.00  0.00     0.049 A 
ATOM     56  C   UNL A   1      40.913  32.487  30.393  1.00  0.00     0.074 A 
ATOM     57  C   UNL A   1      46.926  30.973  29.038  1.00  0.00     0.029 A 
ATOM     58  N   UNL A   1      44.718  30.951  29.311  1.00  0.00    -0.354 N 
ATOM     59  N   UNL A   1      42.121  32.094  30.065  1.00  0.00    -0.248 NA
ATOM     60  C   UNL A   1      40.866  33.797  31.057  1.00  0.00     0.031 C 
ATOM     61  C   UNL A   1      46.545  32.170  29.653  1.00  0.00     0.029 A 
ATOM     62  C   UNL A   1      45.168  32.163  29.810  1.00  0.00     0.049 A 
ATOM     63  H   UNL A   1      43.777  30.663  29.290  1.00  0.00     0.167 HD
ATOM     64  C   UNL A   1      42.975  33.113  30.472  1.00  0.00     0.074 A 
ATOM     65  C   UNL A   1      42.144  34.148  31.050  1.00  0.00     0.031 C 
ATOM     66  C   UNL A   1      44.326  33.184  30.380  1.00  0.00     0.037 A 
BRANCH  53  67
ATOM     67  C   UNL A   1      46.961  28.178  27.906  1.00  0.00     0.058 A 
ATOM     68  C   UNL A   1      47.537  28.314  26.635  1.00  0.00     0.135 A 
ATOM     69  C   UNL A   1      47.644  27.401  28.857  1.00  0.00     0.135 A 
ATOM     70  F   UNL A   1      46.917  29.032  25.684  1.00  0.00    -0.206 F 
ATOM     71  C   UNL A   1      48.740  27.694  26.313  1.00  0.00     0.059 A 
ATOM     72  C   UNL A   1      48.858  26.788  28.563  1.00  0.00     0.059 A 
ATOM     73  F   UNL A   1      47.133  27.238  30.088  1.00  0.00    -0.206 F 
ATOM     74  C   UNL A   1      49.394  26.932  27.285  1.00  0.00     0.060 A 
BRANCH  74  75
ATOM     75  S   UNL A   1      50.966  26.153  26.860  1.00  0.00     0.124 S 
ATOM     76  O   UNL A   1      51.022  26.377  25.418  1.00  0.00    -0.237 OA
ATOM     77  O   UNL A   1      51.922  26.917  27.656  1.00  0.00    -0.237 OA
ATOM     78  O   UNL A   1      50.781  24.765  27.272  1.00  0.00    -0.744 OA
ENDBRANCH  74  75
ENDBRANCH  53  67
BRANCH  54  79
ATOM     79  C   UNL A   1      38.328  32.388  30.658  1.00  0.00     0.058 A 
ATOM     80  C   UNL A   1      37.883  32.203  31.974  1.00  0.00     0.135 A 
ATOM     81  C   UNL A   1      37.525  33.152  29.796  1.00  0.00     0.135 A 
ATOM     82  F   UNL A   1      38.612  31.472  32.833  1.00  0.00    -0.206 F 
ATOM     83  C   UNL A   1      36.676  32.736  32.416  1.00  0.00     0.059 A 
ATOM     84  C   UNL A   1      36.327  33.714  30.221  1.00  0.00     0.059 A 
ATOM     85  F   UNL A   1      37.913  33.367  28.530  1.00  0.00    -0.206 F 
ATOM     86  C   UNL A   1      35.903  33.488  31.529  1.00  0.00     0.060 A 
BRANCH  86  87
ATOM     87  S   UNL A   1      34.350  34.202  32.113  1.00  0.00     0.124 S 
ATOM     88  O   UNL A   1      34.828  35.320  32.918  1.00  0.00    -0.237 OA
ATOM     89  O   UNL A   1      33.679  34.554  30.866  1.00  0.00    -0.237 OA
ATOM     90  O   UNL A   1      33.738  33.103  32.856  1.00  0.00    -0.744 OA
ENDBRANCH  86  87
ENDBRANCH  54  79
BRANCH  66  91
ATOM     91  C   UNL A   1      44.985  34.428  30.900  1.00  0.00     0.058 A 
ATOM     92  C   UNL A   1      45.441  34.517  32.225  1.00  0.00     0.135 A 
ATOM     93  C   UNL A   1      45.198  35.529  30.055  1.00  0.00     0.135 A 
ATOM     94  F   UNL A   1      45.256  33.494  33.073  1.00  0.00    -0.206 F 
ATOM     95  C   UNL A   1      46.064  35.667  32.701  1.00  0.00     0.059 A 
ATOM     96  C   UNL A   1      45.838  36.680  30.505  1.00  0.00     0.059 A 
ATOM     97  F   UNL A   1      44.790  35.490  28.776  1.00  0.00    -0.206 F 
ATOM     98  C   UNL A   1      46.256  36.744  31.834  1.00  0.00     0.060 A 
BRANCH  98  99
ATOM     99  S   UNL A   1      47.086  38.222  32.454  1.00  0.00     0.124 S 
ATOM    100  O   UNL A   1      48.414  37.703  32.764  1.00  0.00    -0.237 OA
ATOM    101  O   UNL A   1      47.011  39.130  31.314  1.00  0.00    -0.237 OA
ATOM    102  O   UNL A   1      46.277  38.606  33.606  1.00  0.00    -0.744 OA
ENDBRANCH  98  99
ENDBRANCH  66  91
ENDBRANCH  40  41
ENDBRANCH  33  35
ENDBRANCH  32  33
ENDBRANCH  31  32
ENDBRANCH  30  31
ENDBRANCH  29  30
ENDBRANCH  27  29
ENDBRANCH   1  27
TORSDOF 23
ENDMDL
MODEL 2
REMARK VINA RESULT:     -10.5      2.014      7.958
REMARK SMILES CCCCCCNC(=O)Oc1cccc(-c2ccc([C@@H](C)C(=O)OCCOC(=O)c3ccc(-c4c5nc(c(-c6c(F)cc(S(=O)(=O)[O-])cc6F)c6ccc([nH]6)c(-c6c(F)cc(S(=O)(=O)[O-])cc6F)c6nc(c(-c7c(F)cc(S(=O)(=O)[O-])cc7F)c7ccc4[nH]7)C=C6)C=C5)cc3)cc2C)c1
REMARK SMILES IDX 20 1 21 2 19 3 16 4 17 5 97 6 18 7 96 8 98 9 15 10 11 11
REMARK SMILES IDX 12 12 99 13 13 14 14 15 10 16 8 17 7 18 9 20 6 21 5 22 4 23
REMARK SMILES IDX 3 24 2 25 1 26 22 27 23 28 24 29 25 30 26 31 27 32 28 33
REMARK SMILES IDX 29 34 30 35 31 36 95 37 32 38 94 39 33 40 34 41 35 42 88 43
REMARK SMILES IDX 36 44 93 45 87 46 89 47 37 48 92 49 86 50 85 51 38 53 72 54
REMARK SMILES IDX 51 55 71 56 52 57 55 58 70 59 90 60 53 61 54 62 69 64 91 65
REMARK SMILES IDX 56 66 39 67 40 68 49 69 41 70 42 71 48 72 50 73 43 74 44 75
REMARK SMILES IDX 45 76 46 77 47 78 73 79 74 80 83 81 75 82 76 83 82 84 84 85
REMARK SMILES IDX 77 86 78 87 79 88 80 89 81 90 57 91 58 92 67 93 59 94 60 95
REMARK SMILES IDX 66 96 68 97 61 98 62 99 63 100 64 101 65 102
REMARK H PARENT 7 19 89 52 55 63
REMARK Flexibility Score: inf
ROOT
ATOM      1  C   UNL A   1      32.632  21.172  25.067  1.00  0.00     0.126 C 
ATOM      2  C   UNL A   1      32.642  20.220  23.873  1.00  0.00     0.025 C 
ENDROOT
BRANCH   1   3
ATOM      3  C   UNL A   1      31.955  22.495  24.743  1.00  0.00    -0.034 A 
ATOM      4  C   UNL A   1      30.584  24.940  24.205  1.00  0.00    -0.015 A 
ATOM      5  C   UNL A   1      31.142  24.157  23.174  1.00  0.00     0.009 A 
ATOM      6  C   UNL A   1      30.737  24.486  25.533  1.00  0.00    -0.043 A 
ATOM      7  C   UNL A   1      31.807  22.955  23.434  1.00  0.00     0.005 A 
ATOM      8  C   UNL A   1      31.428  23.282  25.780  1.00  0.00     0.008 A 
ATOM      9  C   UNL A   1      30.223  25.241  26.732  1.00  0.00     0.045 C 
BRANCH   4  10
ATOM     10  C   UNL A   1      29.808  26.143  23.842  1.00  0.00    -0.014 A 
ATOM     11  C   UNL A   1      29.639  28.474  23.201  1.00  0.00     0.133 A 
ATOM     12  C   UNL A   1      28.248  28.430  23.289  1.00  0.00     0.047 A 
ATOM     13  C   UNL A   1      30.421  27.347  23.462  1.00  0.00     0.056 A 
ATOM     14  C   UNL A   1      27.626  27.236  23.632  1.00  0.00     0.004 A 
ATOM     15  C   UNL A   1      28.400  26.107  23.913  1.00  0.00     0.009 A 
BRANCH  11  16
ATOM     16  O   UNL A   1      30.206  29.747  23.005  1.00  0.00    -0.410 OA
BRANCH  16  17
ATOM     17  C   UNL A   1      29.917  30.771  23.893  1.00  0.00     0.412 C 
ATOM     18  N   UNL A   1      30.767  30.800  24.965  1.00  0.00    -0.321 N 
ATOM     19  H   UNL A   1      30.616  31.512  25.628  1.00  0.00     0.167 HD
ATOM     20  O   UNL A   1      28.997  31.573  23.791  1.00  0.00    -0.224 OA
BRANCH  18  21
ATOM     21  C   UNL A   1      31.868  29.892  25.228  1.00  0.00     0.119 C 
BRANCH  21  22
ATOM     22  C   UNL A   1      31.829  29.320  26.645  1.00  0.00     0.021 C 
BRANCH  22  23
ATOM     23  C   UNL A   1      32.540  27.972  26.819  1.00  0.00     0.002 C 
BRANCH  23  24
ATOM     24  C   UNL A   1      33.202  27.402  25.560  1.00  0.00    -0.000 C 
BRANCH  24  25
ATOM     25  C   UNL A   1      33.966  26.089  25.753  1.00  0.00    -0.003 C 
ATOM     26  C   UNL A   1      34.322  25.401  24.445  1.00  0.00     0.004 C 
ENDBRANCH  24  25
ENDBRANCH  23  24
ENDBRANCH  22  23
ENDBRANCH  21  22
ENDBRANCH  18  21
ENDBRANCH  16  17
ENDBRANCH  11  16
ENDBRANCH   4  10
ENDBRANCH   1   3
BRANCH   1  27
ATOM     27  C   UNL A   1      34.027  21.251  25.675  1.00  0.00     0.313 C 
ATOM     28  O   UNL A   1      34.202  21.446  26.874  1.00  0.00    -0.252 OA
BRANCH  27  29
ATOM     29  O   UNL A   1      35.030  21.029  24.786  1.00  0.00    -0.462 OA
BRANCH  29  30
ATOM     30  C   UNL A   1      36.368  20.992  25.319  1.00  0.00     0.274 C 
BRANCH  30  31
ATOM     31  C   UNL A   1      37.246  22.081  24.700  1.00  0.00     0.275 C 
BRANCH  31  32
ATOM     32  O   UNL A   1      37.540  23.120  25.652  1.00  0.00    -0.458 OA
BRANCH  32  33
ATOM     33  C   UNL A   1      38.790  23.078  26.169  1.00  0.00     0.338 C 
ATOM     34  O   UNL A   1      39.627  22.208  26.006  1.00  0.00    -0.246 OA
BRANCH  33  35
ATOM     35  C   UNL A   1      39.072  24.323  26.896  1.00  0.00     0.060 A 
ATOM     36  C   UNL A   1      39.920  25.253  26.292  1.00  0.00     0.016 A 
ATOM     37  C   UNL A   1      38.613  24.523  28.198  1.00  0.00     0.016 A 
ATOM     38  C   UNL A   1      40.346  26.374  26.996  1.00  0.00     0.010 A 
ATOM     39  C   UNL A   1      39.029  25.660  28.901  1.00  0.00     0.010 A 
ATOM     40  C   UNL A   1      39.919  26.578  28.314  1.00  0.00    -0.014 A 
BRANCH  40  41
ATOM     41  C   UNL A   1      40.469  27.720  29.084  1.00  0.00     0.031 A 
ATOM     42  C   UNL A   1      39.608  28.924  29.354  1.00  0.00     0.074 A 
ATOM     43  C   UNL A   1      41.722  27.658  29.575  1.00  0.00     0.049 A 
ATOM     44  N   UNL A   1      39.908  30.029  29.985  1.00  0.00    -0.248 NA
ATOM     45  C   UNL A   1      38.228  28.880  28.843  1.00  0.00     0.031 C 
ATOM     46  C   UNL A   1      42.643  26.535  29.394  1.00  0.00     0.029 A 
ATOM     47  N   UNL A   1      42.435  28.558  30.324  1.00  0.00    -0.354 N 
ATOM     48  C   UNL A   1      38.770  30.824  29.923  1.00  0.00     0.074 A 
ATOM     49  C   UNL A   1      37.773  30.078  29.185  1.00  0.00     0.031 C 
ATOM     50  C   UNL A   1      43.802  26.815  30.015  1.00  0.00     0.029 A 
ATOM     51  C   UNL A   1      43.716  28.148  30.606  1.00  0.00     0.049 A 
ATOM     52  H   UNL A   1      42.064  29.418  30.631  1.00  0.00     0.167 HD
ATOM     53  C   UNL A   1      38.575  32.061  30.438  1.00  0.00     0.037 A 
ATOM     54  C   UNL A   1      44.714  28.784  31.251  1.00  0.00     0.037 A 
ATOM     55  C   UNL A   1      39.557  32.782  31.207  1.00  0.00     0.049 A 
ATOM     56  C   UNL A   1      44.470  30.159  31.811  1.00  0.00     0.074 A 
ATOM     57  C   UNL A   1      39.431  34.018  31.819  1.00  0.00     0.029 A 
ATOM     58  N   UNL A   1      40.842  32.334  31.471  1.00  0.00    -0.354 N 
ATOM     59  N   UNL A   1      43.377  30.883  31.772  1.00  0.00    -0.248 NA
ATOM     60  C   UNL A   1      45.594  30.805  32.504  1.00  0.00     0.031 C 
ATOM     61  C   UNL A   1      40.654  34.334  32.421  1.00  0.00     0.029 A 
ATOM     62  C   UNL A   1      41.528  33.279  32.216  1.00  0.00     0.049 A 
ATOM     63  H   UNL A   1      41.213  31.473  31.172  1.00  0.00     0.167 HD
ATOM     64  C   UNL A   1      43.677  32.062  32.444  1.00  0.00     0.074 A 
ATOM     65  C   UNL A   1      45.047  31.947  32.898  1.00  0.00     0.031 C 
ATOM     66  C   UNL A   1      42.892  33.145  32.662  1.00  0.00     0.037 A 
BRANCH  53  67
ATOM     67  C   UNL A   1      37.256  32.731  30.175  1.00  0.00     0.058 A 
ATOM     68  C   UNL A   1      36.162  32.578  31.039  1.00  0.00     0.135 A 
ATOM     69  C   UNL A   1      37.107  33.585  29.070  1.00  0.00     0.135 A 
ATOM     70  F   UNL A   1      36.247  31.760  32.100  1.00  0.00    -0.206 F 
ATOM     71  C   UNL A   1      34.959  33.240  30.810  1.00  0.00     0.059 A 
ATOM     72  C   UNL A   1      35.920  34.272  28.833  1.00  0.00     0.059 A 
ATOM     73  F   UNL A   1      38.124  33.763  28.212  1.00  0.00    -0.206 F 
ATOM     74  C   UNL A   1      34.848  34.085  29.704  1.00  0.00     0.060 A 
BRANCH  74  75
ATOM     75  S   UNL A   1      33.289  34.955  29.433  1.00  0.00     0.124 S 
ATOM     76  O   UNL A   1      33.759  36.255  28.962  1.00  0.00    -0.237 OA
ATOM     77  O   UNL A   1      32.632  34.121  28.433  1.00  0.00    -0.237 OA
ATOM     78  O   UNL A   1      32.666  34.955  30.752  1.00  0.00    -0.744 OA
ENDBRANCH  74  75
ENDBRANCH  53  67
BRANCH  54  79
ATOM     79  C   UNL A   1      46.049  28.140  31.373  1.00  0.00     0.058 A 
ATOM     80  C   UNL A   1      46.367  27.326  32.469  1.00  0.00     0.135 A 
ATOM     81  C   UNL A   1      47.038  28.342  30.397  1.00  0.00     0.135 A 
ATOM     82  F   UNL A   1      45.457  27.111  33.433  1.00  0.00    -0.206 F 
ATOM     83  C   UNL A   1      47.627  26.751  32.607  1.00  0.00     0.059 A 
ATOM     84  C   UNL A   1      48.296  27.758  30.501  1.00  0.00     0.059 A 
ATOM     85  F   UNL A   1      46.779  29.103  29.324  1.00  0.00    -0.206 F 
ATOM     86  C   UNL A   1      48.586  26.976  31.618  1.00  0.00     0.060 A 
BRANCH  86  87
ATOM     87  S   UNL A   1      50.210  26.205  31.786  1.00  0.00     0.124 S 
ATOM     88  O   UNL A   1      49.977  24.899  31.181  1.00  0.00    -0.237 OA
ATOM     89  O   UNL A   1      51.067  27.114  31.031  1.00  0.00    -0.237 OA
ATOM     90  O   UNL A   1      50.431  26.204  33.229  1.00  0.00    -0.744 OA
ENDBRANCH  86  87
ENDBRANCH  54  79
BRANCH  66  91
ATOM     91  C   UNL A   1      43.491  34.282  33.439  1.00  0.00     0.058 A 
ATOM     92  C   UNL A   1      43.438  34.319  34.842  1.00  0.00     0.135 A 
ATOM     93  C   UNL A   1      44.158  35.325  32.778  1.00  0.00     0.135 A 
ATOM     94  F   UNL A   1      42.807  33.348  35.520  1.00  0.00    -0.206 F 
ATOM     95  C   UNL A   1      44.005  35.366  35.562  1.00  0.00     0.059 A 
ATOM     96  C   UNL A   1      44.751  36.371  33.479  1.00  0.00     0.059 A 
ATOM     97  F   UNL A   1      44.245  35.331  31.438  1.00  0.00    -0.206 F 
ATOM     98  C   UNL A   1      44.658  36.388  34.871  1.00  0.00     0.060 A 
BRANCH  98  99
ATOM     99  S   UNL A   1      45.412  37.731  35.814  1.00  0.00     0.124 S 
ATOM    100  O   UNL A   1      46.033  37.002  36.914  1.00  0.00    -0.237 OA
ATOM    101  O   UNL A   1      46.331  38.320  34.845  1.00  0.00    -0.237 OA
ATOM    102  O   UNL A   1      44.274  38.570  36.177  1.00  0.00    -0.744 OA
ENDBRANCH  98  99
ENDBRANCH  66  91
ENDBRANCH  40  41
ENDBRANCH  33  35
ENDBRANCH  32  33
ENDBRANCH  31  32
ENDBRANCH  30  31
ENDBRANCH  29  30
ENDBRANCH  27  29
ENDBRANCH   1  27
TORSDOF 23
ENDMDL
MODEL 3
REMARK VINA RESULT:     -10.2      4.712      7.208
REMARK SMILES CCCCCCNC(=O)Oc1cccc(-c2ccc([C@@H](C)C(=O)OCCOC(=O)c3ccc(-c4c5nc(c(-c6c(F)cc(S(=O)(=O)[O-])cc6F)c6ccc([nH]6)c(-c6c(F)cc(S(=O)(=O)[O-])cc6F)c6nc(c(-c7c(F)cc(S(=O)(=O)[O-])cc7F)c7ccc4[nH]7)C=C6)C=C5)cc3)cc2C)c1
REMARK SMILES IDX 20 1 21 2 19 3 16 4 17 5 97 6 18 7 96 8 98 9 15 10 11 11
REMARK SMILES IDX 12 12 99 13 13 14 14 15 10 16 8 17 7 18 9 20 6 21 5 22 4 23
REMARK SMILES IDX 3 24 2 25 1 26 22 27 23 28 24 29 25 30 26 31 27 32 28 33
REMARK SMILES IDX 29 34 30 35 31 36 95 37 32 38 94 39 33 40 34 41 35 42 88 43
REMARK SMILES IDX 36 44 93 45 87 46 89 47 37 48 92 49 86 50 85 51 38 53 72 54
REMARK SMILES IDX 51 55 71 56 52 57 55 58 70 59 90 60 53 61 54 62 69 64 91 65
REMARK SMILES IDX 56 66 39 67 40 68 49 69 41 70 42 71 48 72 50 73 43 74 44 75
REMARK SMILES IDX 45 76 46 77 47 78 73 79 74 80 83 81 75 82 76 83 82 84 84 85
REMARK SMILES IDX 77 86 78 87 79 88 80 89 81 90 57 91 58 92 67 93 59 94 60 95
REMARK SMILES IDX 66 96 68 97 61 98 62 99 63 100 64 101 65 102
REMARK H PARENT 7 19 89 52 55 63
REMARK Flexibility Score: inf
ROOT
ATOM      1  C   UNL A   1      41.316  22.479  26.944  1.00  0.00     0.126 C 
ATOM      2  C   UNL A   1      41.435  22.068  28.411  1.00  0.00     0.025 C 
ENDROOT
BRANCH   1   3
ATOM      3  C   UNL A   1      39.868  22.575  26.488  1.00  0.00    -0.034 A 
ATOM      4  C   UNL A   1      37.187  22.710  25.517  1.00  0.00    -0.015 A 
ATOM      5  C   UNL A   1      37.814  23.815  26.126  1.00  0.00     0.009 A 
ATOM      6  C   UNL A   1      37.924  21.510  25.412  1.00  0.00    -0.043 A 
ATOM      7  C   UNL A   1      39.130  23.755  26.595  1.00  0.00     0.005 A 
ATOM      8  C   UNL A   1      39.243  21.459  25.908  1.00  0.00     0.008 A 
ATOM      9  C   UNL A   1      37.365  20.243  24.817  1.00  0.00     0.045 C 
BRANCH   4  10
ATOM     10  C   UNL A   1      35.832  22.883  24.955  1.00  0.00    -0.014 A 
ATOM     11  C   UNL A   1      33.415  22.823  25.124  1.00  0.00     0.133 A 
ATOM     12  C   UNL A   1      33.282  23.108  23.766  1.00  0.00     0.047 A 
ATOM     13  C   UNL A   1      34.672  22.719  25.726  1.00  0.00     0.056 A 
ATOM     14  C   UNL A   1      34.422  23.306  22.997  1.00  0.00     0.004 A 
ATOM     15  C   UNL A   1      35.684  23.187  23.586  1.00  0.00     0.009 A 
BRANCH  11  16
ATOM     16  O   UNL A   1      32.232  22.480  25.803  1.00  0.00    -0.410 OA
BRANCH  16  17
ATOM     17  C   UNL A   1      31.987  23.003  27.063  1.00  0.00     0.412 C 
ATOM     18  N   UNL A   1      31.148  24.085  27.034  1.00  0.00    -0.321 N 
ATOM     19  H   UNL A   1      30.930  24.496  27.902  1.00  0.00     0.167 HD
ATOM     20  O   UNL A   1      32.464  22.598  28.115  1.00  0.00    -0.224 OA
BRANCH  18  21
ATOM     21  C   UNL A   1      30.546  24.689  25.861  1.00  0.00     0.119 C 
BRANCH  21  22
ATOM     22  C   UNL A   1      31.322  25.910  25.367  1.00  0.00     0.021 C 
BRANCH  22  23
ATOM     23  C   UNL A   1      32.649  26.170  26.091  1.00  0.00     0.002 C 
BRANCH  23  24
ATOM     24  C   UNL A   1      33.740  26.850  25.256  1.00  0.00    -0.000 C 
BRANCH  24  25
ATOM     25  C   UNL A   1      33.341  28.179  24.607  1.00  0.00    -0.003 C 
ATOM     26  C   UNL A   1      34.121  28.488  23.339  1.00  0.00     0.004 C 
ENDBRANCH  24  25
ENDBRANCH  23  24
ENDBRANCH  22  23
ENDBRANCH  21  22
ENDBRANCH  18  21
ENDBRANCH  16  17
ENDBRANCH  11  16
ENDBRANCH   4  10
ENDBRANCH   1   3
BRANCH   1  27
ATOM     27  C   UNL A   1      42.243  21.621  26.092  1.00  0.00     0.313 C 
ATOM     28  O   UNL A   1      42.577  20.491  26.432  1.00  0.00    -0.252 OA
BRANCH  27  29
ATOM     29  O   UNL A   1      42.601  22.197  24.914  1.00  0.00    -0.462 OA
BRANCH  29  30
ATOM     30  C   UNL A   1      43.915  22.787  24.858  1.00  0.00     0.274 C 
BRANCH  30  31
ATOM     31  C   UNL A   1      43.856  24.301  25.071  1.00  0.00     0.275 C 
BRANCH  31  32
ATOM     32  O   UNL A   1      43.852  24.632  26.472  1.00  0.00    -0.458 OA
BRANCH  32  33
ATOM     33  C   UNL A   1      44.710  25.618  26.824  1.00  0.00     0.338 C 
ATOM     34  O   UNL A   1      45.830  25.813  26.384  1.00  0.00    -0.246 OA
BRANCH  33  35
ATOM     35  C   UNL A   1      44.057  26.537  27.767  1.00  0.00     0.060 A 
ATOM     36  C   UNL A   1      44.423  27.882  27.724  1.00  0.00     0.016 A 
ATOM     37  C   UNL A   1      43.193  26.068  28.755  1.00  0.00     0.016 A 
ATOM     38  C   UNL A   1      43.957  28.766  28.690  1.00  0.00     0.010 A 
ATOM     39  C   UNL A   1      42.710  26.961  29.719  1.00  0.00     0.010 A 
ATOM     40  C   UNL A   1      43.111  28.310  29.708  1.00  0.00    -0.014 A 
BRANCH  40  41
ATOM     41  C   UNL A   1      42.711  29.243  30.790  1.00  0.00     0.031 A 
ATOM     42  C   UNL A   1      43.566  29.368  32.022  1.00  0.00     0.074 A 
ATOM     43  C   UNL A   1      41.610  30.004  30.648  1.00  0.00     0.049 A 
ATOM     44  N   UNL A   1      43.379  30.107  33.085  1.00  0.00    -0.248 NA
ATOM     45  C   UNL A   1      44.792  28.553  32.065  1.00  0.00     0.031 C 
ATOM     46  C   UNL A   1      40.714  29.983  29.490  1.00  0.00     0.029 A 
ATOM     47  N   UNL A   1      41.056  30.941  31.482  1.00  0.00    -0.354 N 
ATOM     48  C   UNL A   1      44.442  29.826  33.936  1.00  0.00     0.074 A 
ATOM     49  C   UNL A   1      45.268  28.843  33.269  1.00  0.00     0.031 C 
ATOM     50  C   UNL A   1      39.721  30.866  29.689  1.00  0.00     0.029 A 
ATOM     51  C   UNL A   1      39.891  31.488  30.999  1.00  0.00     0.049 A 
ATOM     52  H   UNL A   1      41.455  31.198  32.345  1.00  0.00     0.167 HD
ATOM     53  C   UNL A   1      44.704  30.345  35.158  1.00  0.00     0.037 A 
ATOM     54  C   UNL A   1      39.045  32.376  31.560  1.00  0.00     0.037 A 
ATOM     55  C   UNL A   1      43.901  31.353  35.799  1.00  0.00     0.049 A 
ATOM     56  C   UNL A   1      39.361  32.934  32.921  1.00  0.00     0.074 A 
ATOM     57  C   UNL A   1      44.118  31.982  37.014  1.00  0.00     0.029 A 
ATOM     58  N   UNL A   1      42.729  31.882  35.280  1.00  0.00    -0.354 N 
ATOM     59  N   UNL A   1      40.388  32.682  33.697  1.00  0.00    -0.248 NA
ATOM     60  C   UNL A   1      38.404  33.898  33.483  1.00  0.00     0.031 C 
ATOM     61  C   UNL A   1      43.056  32.864  37.247  1.00  0.00     0.029 A 
ATOM     62  C   UNL A   1      42.198  32.811  36.160  1.00  0.00     0.049 A 
ATOM     63  H   UNL A   1      42.331  31.632  34.415  1.00  0.00     0.167 HD
ATOM     64  C   UNL A   1      40.207  33.464  34.833  1.00  0.00     0.074 A 
ATOM     65  C   UNL A   1      38.985  34.213  34.633  1.00  0.00     0.031 C 
ATOM     66  C   UNL A   1      40.981  33.550  35.943  1.00  0.00     0.037 A 
BRANCH  53  67
ATOM     67  C   UNL A   1      45.900  29.820  35.901  1.00  0.00     0.058 A 
ATOM     68  C   UNL A   1      45.796  28.773  36.827  1.00  0.00     0.135 A 
ATOM     69  C   UNL A   1      47.179  30.337  35.633  1.00  0.00     0.135 A 
ATOM     70  F   UNL A   1      44.596  28.255  37.131  1.00  0.00    -0.206 F 
ATOM     71  C   UNL A   1      46.918  28.264  37.475  1.00  0.00     0.059 A 
ATOM     72  C   UNL A   1      48.316  29.829  36.255  1.00  0.00     0.059 A 
ATOM     73  F   UNL A   1      47.331  31.342  34.756  1.00  0.00    -0.206 F 
ATOM     74  C   UNL A   1      48.174  28.799  37.182  1.00  0.00     0.060 A 
BRANCH  74  75
ATOM     75  S   UNL A   1      49.623  28.111  38.012  1.00  0.00     0.124 S 
ATOM     76  O   UNL A   1      49.346  28.448  39.406  1.00  0.00    -0.237 OA
ATOM     77  O   UNL A   1      49.536  26.694  37.676  1.00  0.00    -0.237 OA
ATOM     78  O   UNL A   1      50.737  28.830  37.404  1.00  0.00    -0.744 OA
ENDBRANCH  74  75
ENDBRANCH  53  67
BRANCH  54  79
ATOM     79  C   UNL A   1      37.801  32.768  30.848  1.00  0.00     0.058 A 
ATOM     80  C   UNL A   1      36.574  32.153  31.133  1.00  0.00     0.135 A 
ATOM     81  C   UNL A   1      37.821  33.760  29.855  1.00  0.00     0.135 A 
ATOM     82  F   UNL A   1      36.506  31.192  32.069  1.00  0.00    -0.206 F 
ATOM     83  C   UNL A   1      35.413  32.490  30.445  1.00  0.00     0.059 A 
ATOM     84  C   UNL A   1      36.670  34.131  29.170  1.00  0.00     0.059 A 
ATOM     85  F   UNL A   1      38.968  34.386  29.554  1.00  0.00    -0.206 F 
ATOM     86  C   UNL A   1      35.472  33.480  29.461  1.00  0.00     0.060 A 
BRANCH  86  87
ATOM     87  S   UNL A   1      33.958  33.936  28.589  1.00  0.00     0.124 S 
ATOM     88  O   UNL A   1      34.445  34.963  27.676  1.00  0.00    -0.237 OA
ATOM     89  O   UNL A   1      33.559  32.673  27.974  1.00  0.00    -0.237 OA
ATOM     90  O   UNL A   1      33.084  34.404  29.662  1.00  0.00    -0.744 OA
ENDBRANCH  86  87
ENDBRANCH  54  79
BRANCH  66  91
ATOM     91  C   UNL A   1      40.536  34.501  37.017  1.00  0.00     0.058 A 
ATOM     92  C   UNL A   1      40.984  35.831  37.051  1.00  0.00     0.135 A 
ATOM     93  C   UNL A   1      39.622  34.089  38.000  1.00  0.00     0.135 A 
ATOM     94  F   UNL A   1      41.862  36.271  36.136  1.00  0.00    -0.206 F 
ATOM     95  C   UNL A   1      40.560  36.715  38.038  1.00  0.00     0.059 A 
ATOM     96  C   UNL A   1      39.168  34.963  38.984  1.00  0.00     0.059 A 
ATOM     97  F   UNL A   1      39.155  32.831  38.005  1.00  0.00    -0.206 F 
ATOM     98  C   UNL A   1      39.654  36.270  39.002  1.00  0.00     0.060 A 
BRANCH  98  99
ATOM     99  S   UNL A   1      39.090  37.429  40.266  1.00  0.00     0.124 S 
ATOM    100  O   UNL A   1      38.438  36.534  41.215  1.00  0.00    -0.237 OA
ATOM    101  O   UNL A   1      40.339  38.034  40.721  1.00  0.00    -0.237 OA
ATOM    102  O   UNL A   1      38.201  38.324  39.532  1.00  0.00    -0.744 OA
ENDBRANCH  98  99
ENDBRANCH  66  91
ENDBRANCH  40  41
ENDBRANCH  33  35
ENDBRANCH  32  33
ENDBRANCH  31  32
ENDBRANCH  30  31
ENDBRANCH  29  30
ENDBRANCH  27  29
ENDBRANCH   1  27
TORSDOF 23
ENDMDL
