MODEL 1
REMARK VINA RESULT:     -11.3      0.000      0.000
REMARK SMILES C#CCN(CC(=O)OCCOC(=O)c1ccc(-c2c3nc(c(-c4c(F)cc(S(=O)(=O)[O-])cc4F)c4ccc([nH]4)c(-c4c(F)cc(S(=O)(=O)[O-])cc4F)c4nc(c(-c5c(F)cc(S(=O)(=O)[O-])cc5F)c5ccc2[nH]5)C=C4)C=C3)cc1)C(=O)N1CC[N@H+]2CCC[C@H]2C1
REMARK SMILES IDX 9 1 8 2 6 3 7 4 5 5 4 6 3 7 2 8 1 9 80 10 81 11 82 12 83 13
REMARK SMILES IDX 90 14 84 15 89 16 85 17 88 18 86 19 87 21 10 22 11 23 12 24
REMARK SMILES IDX 13 25 14 26 15 27 79 28 16 29 78 30 17 31 18 32 19 33 72 34
REMARK SMILES IDX 20 35 77 36 71 37 73 38 21 39 76 40 70 41 69 42 22 44 56 45
REMARK SMILES IDX 35 46 55 47 36 48 39 49 54 50 74 51 37 52 38 53 53 55 75 56
REMARK SMILES IDX 40 57 23 58 24 59 33 60 25 61 26 62 32 63 34 64 27 65 28 66
REMARK SMILES IDX 29 67 30 68 31 69 57 70 58 71 67 72 59 73 60 74 66 75 68 76
REMARK SMILES IDX 61 77 62 78 63 79 64 80 65 81 41 82 42 83 51 84 43 85 44 86
REMARK SMILES IDX 50 87 52 88 45 89 46 90 47 91 48 92 49 93
REMARK H PARENT 85 20 73 43 39 54
REMARK Flexibility Score: inf
ROOT
ATOM      1  C   UNL A   1      38.473  22.069  25.594  1.00  0.00     0.274 C 
ENDROOT
BRANCH   1   2
ATOM      2  O   UNL A   1      37.193  21.394  25.621  1.00  0.00    -0.461 OA
BRANCH   2   3
ATOM      3  C   UNL A   1      36.071  22.145  25.827  1.00  0.00     0.325 C 
ATOM      4  O   UNL A   1      36.093  23.336  26.114  1.00  0.00    -0.250 OA
BRANCH   3   5
ATOM      5  C   UNL A   1      34.763  21.373  25.487  1.00  0.00     0.245 C 
BRANCH   5   6
ATOM      6  N   UNL A   1      33.899  21.905  24.401  1.00  0.00    -0.302 N 
BRANCH   6   7
ATOM      7  C   UNL A   1      32.605  21.276  24.356  1.00  0.00     0.211 C 
BRANCH   7   8
ATOM      8  C   UNL A   1      32.835  19.773  24.361  1.00  0.00    -0.085 C 
ATOM      9  C   UNL A   1      33.033  18.485  24.366  1.00  0.00     0.006 C 
ENDBRANCH   7   8
ENDBRANCH   6   7
BRANCH   6  10
ATOM     10  C   UNL A   1      34.084  23.022  23.550  1.00  0.00     0.321 C 
ATOM     11  O   UNL A   1      34.752  23.006  22.515  1.00  0.00    -0.248 OA
BRANCH  10  12
ATOM     12  N   UNL A   1      33.541  24.205  23.949  1.00  0.00    -0.313 N 
ATOM     13  C   UNL A   1      34.077  25.314  23.263  1.00  0.00     0.183 C 
ATOM     14  C   UNL A   1      32.158  24.448  24.490  1.00  0.00     0.186 C 
ATOM     15  C   UNL A   1      33.599  26.572  23.857  1.00  0.00     0.284 C 
ATOM     16  C   UNL A   1      32.292  25.479  25.683  1.00  0.00     0.204 C 
ATOM     17  N   UNL A   1      33.855  26.526  25.531  1.00  0.00    -0.330 N 
ATOM     18  C   UNL A   1      30.929  26.559  26.500  1.00  0.00     0.073 C 
ATOM     19  C   UNL A   1      33.706  28.178  26.889  1.00  0.00     0.262 C 
ATOM     20  H   UNL A   1      34.818  26.302  25.783  1.00  0.00     0.348 HD
ATOM     21  C   UNL A   1      31.703  28.173  27.409  1.00  0.00     0.068 C 
ENDBRANCH  10  12
ENDBRANCH   6  10
ENDBRANCH   5   6
ENDBRANCH   3   5
ENDBRANCH   2   3
ENDBRANCH   1   2
BRANCH   1  22
ATOM     22  C   UNL A   1      39.595  21.119  26.087  1.00  0.00     0.275 C 
BRANCH  22  23
ATOM     23  O   UNL A   1      41.011  21.458  25.991  1.00  0.00    -0.458 OA
BRANCH  23  24
ATOM     24  C   UNL A   1      41.757  21.790  27.065  1.00  0.00     0.338 C 
ATOM     25  O   UNL A   1      41.979  21.051  28.009  1.00  0.00    -0.246 OA
BRANCH  24  26
ATOM     26  C   UNL A   1      41.995  23.278  27.129  1.00  0.00     0.060 A 
ATOM     27  C   UNL A   1      40.880  23.921  28.260  1.00  0.00     0.016 A 
ATOM     28  C   UNL A   1      42.632  24.165  25.777  1.00  0.00     0.016 A 
ATOM     29  C   UNL A   1      40.211  25.446  28.209  1.00  0.00     0.010 A 
ATOM     30  C   UNL A   1      41.932  25.816  25.512  1.00  0.00     0.010 A 
ATOM     31  C   UNL A   1      40.771  26.577  27.016  1.00  0.00    -0.014 A 
BRANCH  31  32
ATOM     32  C   UNL A   1      40.926  27.911  28.237  1.00  0.00     0.031 A 
ATOM     33  C   UNL A   1      42.014  27.889  29.320  1.00  0.00     0.074 A 
ATOM     34  C   UNL A   1      40.025  28.949  28.467  1.00  0.00     0.049 A 
ATOM     35  N   UNL A   1      41.917  28.173  30.602  1.00  0.00    -0.248 NA
ATOM     36  C   UNL A   1      43.305  27.333  28.943  1.00  0.00     0.031 C 
ATOM     37  C   UNL A   1      38.901  29.412  27.630  1.00  0.00     0.029 A 
ATOM     38  N   UNL A   1      39.880  29.816  29.564  1.00  0.00    -0.354 N 
ATOM     39  C   UNL A   1      43.033  27.578  31.182  1.00  0.00     0.074 A 
ATOM     40  C   UNL A   1      43.657  26.824  30.121  1.00  0.00     0.031 C 
ATOM     41  C   UNL A   1      38.192  30.375  28.222  1.00  0.00     0.029 A 
ATOM     42  C   UNL A   1      38.756  30.641  29.520  1.00  0.00     0.049 A 
ATOM     43  H   UNL A   1      40.524  29.839  30.307  1.00  0.00     0.167 HD
ATOM     44  C   UNL A   1      43.569  27.696  32.424  1.00  0.00     0.037 A 
ATOM     45  C   UNL A   1      38.179  31.509  30.386  1.00  0.00     0.037 A 
ATOM     46  C   UNL A   1      43.148  28.684  33.381  1.00  0.00     0.049 A 
ATOM     47  C   UNL A   1      38.813  31.724  31.729  1.00  0.00     0.074 A 
ATOM     48  C   UNL A   1      43.735  29.020  34.590  1.00  0.00     0.029 A 
ATOM     49  N   UNL A   1      42.087  29.553  33.196  1.00  0.00    -0.354 N 
ATOM     50  N   UNL A   1      39.848  31.117  32.251  1.00  0.00    -0.248 NA
ATOM     51  C   UNL A   1      38.218  32.754  32.595  1.00  0.00     0.031 C 
ATOM     52  C   UNL A   1      42.992  30.055  35.163  1.00  0.00     0.029 A 
ATOM     53  C   UNL A   1      41.992  30.411  34.275  1.00  0.00     0.049 A 
ATOM     54  H   UNL A   1      41.490  29.558  32.415  1.00  0.00     0.167 HD
ATOM     55  C   UNL A   1      40.063  31.731  33.478  1.00  0.00     0.074 A 
ATOM     56  C   UNL A   1      39.055  32.757  33.623  1.00  0.00     0.031 C 
ATOM     57  C   UNL A   1      41.019  31.464  34.398  1.00  0.00     0.037 A 
BRANCH  44  58
ATOM     58  C   UNL A   1      44.729  26.798  32.790  1.00  0.00     0.058 A 
ATOM     59  C   UNL A   1      44.559  25.600  33.504  1.00  0.00     0.135 A 
ATOM     60  C   UNL A   1      46.043  27.144  32.421  1.00  0.00     0.135 A 
ATOM     61  F   UNL A   1      43.332  25.193  33.868  1.00  0.00    -0.206 F 
ATOM     62  C   UNL A   1      45.640  24.842  33.935  1.00  0.00     0.059 A 
ATOM     63  C   UNL A   1      47.138  26.360  32.780  1.00  0.00     0.059 A 
ATOM     64  F   UNL A   1      46.279  28.256  31.706  1.00  0.00    -0.206 F 
ATOM     65  C   UNL A   1      46.927  25.228  33.563  1.00  0.00     0.060 A 
BRANCH  65  66
ATOM     66  S   UNL A   1      48.307  24.204  34.107  1.00  0.00     0.124 S 
ATOM     67  O   UNL A   1      49.259  24.395  33.015  1.00  0.00    -0.237 OA
ATOM     68  O   UNL A   1      48.669  24.825  35.376  1.00  0.00    -0.237 OA
ATOM     69  O   UNL A   1      47.725  22.870  34.205  1.00  0.00    -0.744 OA
ENDBRANCH  65  66
ENDBRANCH  44  58
BRANCH  45  70
ATOM     70  C   UNL A   1      36.951  32.300  30.011  1.00  0.00     0.058 A 
ATOM     71  C   UNL A   1      37.050  33.437  29.190  1.00  0.00     0.135 A 
ATOM     72  C   UNL A   1      35.666  31.970  30.480  1.00  0.00     0.135 A 
ATOM     73  F   UNL A   1      38.250  33.818  28.721  1.00  0.00    -0.206 F 
ATOM     74  C   UNL A   1      35.946  34.229  28.874  1.00  0.00     0.059 A 
ATOM     75  C   UNL A   1      34.537  32.727  30.148  1.00  0.00     0.059 A 
ATOM     76  F   UNL A   1      35.491  30.890  31.257  1.00  0.00    -0.206 F 
ATOM     77  C   UNL A   1      34.689  33.862  29.353  1.00  0.00     0.060 A 
BRANCH  77  78
ATOM     78  S   UNL A   1      33.259  34.873  28.890  1.00  0.00     0.124 S 
ATOM     79  O   UNL A   1      32.599  34.024  27.905  1.00  0.00    -0.237 OA
ATOM     80  O   UNL A   1      32.567  35.023  30.167  1.00  0.00    -0.237 OA
ATOM     81  O   UNL A   1      33.863  36.093  28.365  1.00  0.00    -0.744 OA
ENDBRANCH  77  78
ENDBRANCH  45  70
BRANCH  57  82
ATOM     82  C   UNL A   1      41.094  32.336  35.614  1.00  0.00     0.058 A 
ATOM     83  C   UNL A   1      42.007  33.394  35.716  1.00  0.00     0.135 A 
ATOM     84  C   UNL A   1      40.161  32.163  36.651  1.00  0.00     0.135 A 
ATOM     85  F   UNL A   1      42.921  33.595  34.754  1.00  0.00    -0.206 F 
ATOM     86  C   UNL A   1      41.999  34.249  36.810  1.00  0.00     0.059 A 
ATOM     87  C   UNL A   1      40.107  33.031  37.732  1.00  0.00     0.059 A 
ATOM     88  F   UNL A   1      39.261  31.167  36.596  1.00  0.00    -0.206 F 
ATOM     89  C   UNL A   1      41.036  34.068  37.805  1.00  0.00     0.060 A 
BRANCH  89  90
ATOM     90  S   UNL A   1      40.994  35.232  39.180  1.00  0.00     0.124 S 
ATOM     91  O   UNL A   1      39.559  35.422  39.361  1.00  0.00    -0.237 OA
ATOM     92  O   UNL A   1      41.675  34.488  40.234  1.00  0.00    -0.237 OA
ATOM     93  O   UNL A   1      41.720  36.391  38.668  1.00  0.00    -0.744 OA
ENDBRANCH  89  90
ENDBRANCH  57  82
ENDBRANCH  31  32
ENDBRANCH  24  26
ENDBRANCH  23  24
ENDBRANCH  22  23
ENDBRANCH   1  22
TORSDOF 19
ENDMDL
MODEL 2
REMARK VINA RESULT:     -11.1      4.608     10.773
REMARK SMILES C#CCN(CC(=O)OCCOC(=O)c1ccc(-c2c3nc(c(-c4c(F)cc(S(=O)(=O)[O-])cc4F)c4ccc([nH]4)c(-c4c(F)cc(S(=O)(=O)[O-])cc4F)c4nc(c(-c5c(F)cc(S(=O)(=O)[O-])cc5F)c5ccc2[nH]5)C=C4)C=C3)cc1)C(=O)N1CC[N@H+]2CCC[C@H]2C1
REMARK SMILES IDX 9 1 8 2 6 3 7 4 5 5 4 6 3 7 2 8 1 9 80 10 81 11 82 12 83 13
REMARK SMILES IDX 90 14 84 15 89 16 85 17 88 18 86 19 87 21 10 22 11 23 12 24
REMARK SMILES IDX 13 25 14 26 15 27 79 28 16 29 78 30 17 31 18 32 19 33 72 34
REMARK SMILES IDX 20 35 77 36 71 37 73 38 21 39 76 40 70 41 69 42 22 44 56 45
REMARK SMILES IDX 35 46 55 47 36 48 39 49 54 50 74 51 37 52 38 53 53 55 75 56
REMARK SMILES IDX 40 57 23 58 24 59 33 60 25 61 26 62 32 63 34 64 27 65 28 66
REMARK SMILES IDX 29 67 30 68 31 69 57 70 58 71 67 72 59 73 60 74 66 75 68 76
REMARK SMILES IDX 61 77 62 78 63 79 64 80 65 81 41 82 42 83 51 84 43 85 44 86
REMARK SMILES IDX 50 87 52 88 45 89 46 90 47 91 48 92 49 93
REMARK H PARENT 85 20 73 43 39 54
REMARK Flexibility Score: inf
ROOT
ATOM      1  C   UNL A   1      33.425  30.027  26.371  1.00  0.00     0.274 C 
ENDROOT
BRANCH   1   2
ATOM      2  O   UNL A   1      32.192  29.400  26.797  1.00  0.00    -0.461 OA
BRANCH   2   3
ATOM      3  C   UNL A   1      31.638  28.448  25.991  1.00  0.00     0.325 C 
ATOM      4  O   UNL A   1      31.263  27.353  26.391  1.00  0.00    -0.250 OA
BRANCH   3   5
ATOM      5  C   UNL A   1      31.376  28.964  24.546  1.00  0.00     0.245 C 
BRANCH   5   6
ATOM      6  N   UNL A   1      30.667  28.063  23.600  1.00  0.00    -0.302 N 
BRANCH   6   7
ATOM      7  C   UNL A   1      29.275  28.398  23.444  1.00  0.00     0.211 C 
BRANCH   7   8
ATOM      8  C   UNL A   1      29.166  29.913  23.518  1.00  0.00    -0.085 C 
ATOM      9  C   UNL A   1      29.073  31.212  23.580  1.00  0.00     0.006 C 
ENDBRANCH   7   8
ENDBRANCH   6   7
BRANCH   6  10
ATOM     10  C   UNL A   1      31.177  27.075  22.724  1.00  0.00     0.321 C 
ATOM     11  O   UNL A   1      31.052  27.099  21.499  1.00  0.00    -0.248 OA
BRANCH  10  12
ATOM     12  N   UNL A   1      31.784  25.996  23.290  1.00  0.00    -0.313 N 
ATOM     13  C   UNL A   1      31.013  24.818  23.192  1.00  0.00     0.183 C 
ATOM     14  C   UNL A   1      33.259  25.734  23.428  1.00  0.00     0.186 C 
ATOM     15  C   UNL A   1      31.621  23.733  23.977  1.00  0.00     0.284 C 
ATOM     16  C   UNL A   1      33.498  25.120  24.866  1.00  0.00     0.204 C 
ATOM     17  N   UNL A   1      31.941  24.295  25.542  1.00  0.00    -0.330 N 
ATOM     18  C   UNL A   1      35.020  24.148  25.523  1.00  0.00     0.073 C 
ATOM     19  C   UNL A   1      32.482  23.101  27.239  1.00  0.00     0.262 C 
ATOM     20  H   UNL A   1      31.126  24.710  25.994  1.00  0.00     0.348 HD
ATOM     21  C   UNL A   1      34.543  22.986  27.089  1.00  0.00     0.068 C 
ENDBRANCH  10  12
ENDBRANCH   6  10
ENDBRANCH   5   6
ENDBRANCH   3   5
ENDBRANCH   2   3
ENDBRANCH   1   2
BRANCH   1  22
ATOM     22  C   UNL A   1      34.199  30.585  27.593  1.00  0.00     0.275 C 
BRANCH  22  23
ATOM     23  O   UNL A   1      34.216  32.004  27.933  1.00  0.00    -0.458 OA
BRANCH  23  24
ATOM     24  C   UNL A   1      35.355  32.722  28.010  1.00  0.00     0.338 C 
ATOM     25  O   UNL A   1      35.614  33.686  27.310  1.00  0.00    -0.246 OA
BRANCH  24  26
ATOM     26  C   UNL A   1      36.407  31.999  28.813  1.00  0.00     0.060 A 
ATOM     27  C   UNL A   1      37.284  31.010  27.722  1.00  0.00     0.016 A 
ATOM     28  C   UNL A   1      36.188  31.635  30.498  1.00  0.00     0.016 A 
ATOM     29  C   UNL A   1      38.001  29.552  28.092  1.00  0.00     0.010 A 
ATOM     30  C   UNL A   1      36.822  30.029  31.051  1.00  0.00     0.010 A 
ATOM     31  C   UNL A   1      38.027  29.015  29.743  1.00  0.00    -0.014 A 
BRANCH  31  32
ATOM     32  C   UNL A   1      39.787  28.579  29.659  1.00  0.00     0.031 A 
ATOM     33  C   UNL A   1      40.887  29.632  29.847  1.00  0.00     0.074 A 
ATOM     34  C   UNL A   1      40.333  27.366  29.243  1.00  0.00     0.049 A 
ATOM     35  N   UNL A   1      41.994  29.810  29.157  1.00  0.00    -0.248 NA
ATOM     36  C   UNL A   1      40.626  30.690  30.811  1.00  0.00     0.031 C 
ATOM     37  C   UNL A   1      39.671  26.061  29.052  1.00  0.00     0.029 A 
ATOM     38  N   UNL A   1      41.637  27.036  28.835  1.00  0.00    -0.354 N 
ATOM     39  C   UNL A   1      42.381  31.116  29.438  1.00  0.00     0.074 A 
ATOM     40  C   UNL A   1      41.304  31.672  30.222  1.00  0.00     0.031 C 
ATOM     41  C   UNL A   1      40.499  25.143  28.546  1.00  0.00     0.029 A 
ATOM     42  C   UNL A   1      41.789  25.745  28.329  1.00  0.00     0.049 A 
ATOM     43  H   UNL A   1      42.388  27.669  28.902  1.00  0.00     0.167 HD
ATOM     44  C   UNL A   1      43.534  31.787  29.179  1.00  0.00     0.037 A 
ATOM     45  C   UNL A   1      42.801  25.070  27.733  1.00  0.00     0.037 A 
ATOM     46  C   UNL A   1      44.728  31.153  28.690  1.00  0.00     0.049 A 
ATOM     47  C   UNL A   1      44.114  25.765  27.525  1.00  0.00     0.074 A 
ATOM     48  C   UNL A   1      46.000  31.689  28.567  1.00  0.00     0.029 A 
ATOM     49  N   UNL A   1      44.818  29.821  28.327  1.00  0.00    -0.354 N 
ATOM     50  N   UNL A   1      44.428  27.011  27.775  1.00  0.00    -0.248 NA
ATOM     51  C   UNL A   1      45.219  24.964  26.974  1.00  0.00     0.031 C 
ATOM     52  C   UNL A   1      46.846  30.693  28.073  1.00  0.00     0.029 A 
ATOM     53  C   UNL A   1      46.118  29.521  27.963  1.00  0.00     0.049 A 
ATOM     54  H   UNL A   1      44.069  29.184  28.327  1.00  0.00     0.167 HD
ATOM     55  C   UNL A   1      45.778  27.126  27.468  1.00  0.00     0.074 A 
ATOM     56  C   UNL A   1      46.224  25.827  27.016  1.00  0.00     0.031 C 
ATOM     57  C   UNL A   1      46.572  28.218  27.559  1.00  0.00     0.037 A 
BRANCH  44  58
ATOM     58  C   UNL A   1      43.589  33.263  29.503  1.00  0.00     0.058 A 
ATOM     59  C   UNL A   1      43.456  34.256  28.518  1.00  0.00     0.135 A 
ATOM     60  C   UNL A   1      43.786  33.696  30.828  1.00  0.00     0.135 A 
ATOM     61  F   UNL A   1      43.242  33.919  27.236  1.00  0.00    -0.206 F 
ATOM     62  C   UNL A   1      43.624  35.604  28.808  1.00  0.00     0.059 A 
ATOM     63  C   UNL A   1      43.885  35.047  31.153  1.00  0.00     0.059 A 
ATOM     64  F   UNL A   1      43.886  32.804  31.828  1.00  0.00    -0.206 F 
ATOM     65  C   UNL A   1      43.833  35.990  30.130  1.00  0.00     0.060 A 
BRANCH  65  66
ATOM     66  S   UNL A   1      44.012  37.750  30.480  1.00  0.00     0.124 S 
ATOM     67  O   UNL A   1      45.406  37.980  30.108  1.00  0.00    -0.237 OA
ATOM     68  O   UNL A   1      43.016  38.342  29.593  1.00  0.00    -0.237 OA
ATOM     69  O   UNL A   1      43.718  37.846  31.906  1.00  0.00    -0.744 OA
ENDBRANCH  65  66
ENDBRANCH  44  58
BRANCH  45  70
ATOM     70  C   UNL A   1      42.655  23.626  27.324  1.00  0.00     0.058 A 
ATOM     71  C   UNL A   1      42.577  23.267  25.966  1.00  0.00     0.135 A 
ATOM     72  C   UNL A   1      42.557  22.579  28.259  1.00  0.00     0.135 A 
ATOM     73  F   UNL A   1      42.648  24.218  25.021  1.00  0.00    -0.206 F 
ATOM     74  C   UNL A   1      42.379  21.950  25.552  1.00  0.00     0.059 A 
ATOM     75  C   UNL A   1      42.394  21.246  27.869  1.00  0.00     0.059 A 
ATOM     76  F   UNL A   1      42.636  22.844  29.573  1.00  0.00    -0.206 F 
ATOM     77  C   UNL A   1      42.295  20.942  26.512  1.00  0.00     0.060 A 
BRANCH  77  78
ATOM     78  S   UNL A   1      42.090  19.232  25.953  1.00  0.00     0.124 S 
ATOM     79  O   UNL A   1      42.634  18.482  27.080  1.00  0.00    -0.237 OA
ATOM     80  O   UNL A   1      40.645  19.144  25.768  1.00  0.00    -0.237 OA
ATOM     81  O   UNL A   1      42.876  19.180  24.725  1.00  0.00    -0.744 OA
ENDBRANCH  77  78
ENDBRANCH  45  70
BRANCH  57  82
ATOM     82  C   UNL A   1      48.030  28.060  27.250  1.00  0.00     0.058 A 
ATOM     83  C   UNL A   1      48.982  27.827  28.251  1.00  0.00     0.135 A 
ATOM     84  C   UNL A   1      48.457  28.043  25.911  1.00  0.00     0.135 A 
ATOM     85  F   UNL A   1      48.624  27.841  29.544  1.00  0.00    -0.206 F 
ATOM     86  C   UNL A   1      50.314  27.591  27.936  1.00  0.00     0.059 A 
ATOM     87  C   UNL A   1      49.774  27.766  25.572  1.00  0.00     0.059 A 
ATOM     88  F   UNL A   1      47.580  28.254  24.916  1.00  0.00    -0.206 F 
ATOM     89  C   UNL A   1      50.697  27.547  26.593  1.00  0.00     0.060 A 
BRANCH  89  90
ATOM     90  S   UNL A   1      52.414  27.165  26.203  1.00  0.00     0.124 S 
ATOM     91  O   UNL A   1      52.603  25.904  26.912  1.00  0.00    -0.237 OA
ATOM     92  O   UNL A   1      52.385  27.077  24.747  1.00  0.00    -0.237 OA
ATOM     93  O   UNL A   1      53.149  28.305  26.743  1.00  0.00    -0.744 OA
ENDBRANCH  89  90
ENDBRANCH  57  82
ENDBRANCH  31  32
ENDBRANCH  24  26
ENDBRANCH  23  24
ENDBRANCH  22  23
ENDBRANCH   1  22
TORSDOF 19
ENDMDL
MODEL 3
REMARK VINA RESULT:     -10.5      4.797     10.973
REMARK SMILES C#CCN(CC(=O)OCCOC(=O)c1ccc(-c2c3nc(c(-c4c(F)cc(S(=O)(=O)[O-])cc4F)c4ccc([nH]4)c(-c4c(F)cc(S(=O)(=O)[O-])cc4F)c4nc(c(-c5c(F)cc(S(=O)(=O)[O-])cc5F)c5ccc2[nH]5)C=C4)C=C3)cc1)C(=O)N1CC[N@H+]2CCC[C@H]2C1
REMARK SMILES IDX 9 1 8 2 6 3 7 4 5 5 4 6 3 7 2 8 1 9 80 10 81 11 82 12 83 13
REMARK SMILES IDX 90 14 84 15 89 16 85 17 88 18 86 19 87 21 10 22 11 23 12 24
REMARK SMILES IDX 13 25 14 26 15 27 79 28 16 29 78 30 17 31 18 32 19 33 72 34
REMARK SMILES IDX 20 35 77 36 71 37 73 38 21 39 76 40 70 41 69 42 22 44 56 45
REMARK SMILES IDX 35 46 55 47 36 48 39 49 54 50 74 51 37 52 38 53 53 55 75 56
REMARK SMILES IDX 40 57 23 58 24 59 33 60 25 61 26 62 32 63 34 64 27 65 28 66
REMARK SMILES IDX 29 67 30 68 31 69 57 70 58 71 67 72 59 73 60 74 66 75 68 76
REMARK SMILES IDX 61 77 62 78 63 79 64 80 65 81 41 82 42 83 51 84 43 85 44 86
REMARK SMILES IDX 50 87 52 88 45 89 46 90 47 91 48 92 49 93
REMARK H PARENT 85 20 73 43 39 54
REMARK Flexibility Score: inf
ROOT
ATOM      1  C   UNL A   1      33.214  29.816  26.267  1.00  0.00     0.274 C 
ENDROOT
BRANCH   1   2
ATOM      2  O   UNL A   1      32.141  29.472  27.175  1.00  0.00    -0.461 OA
BRANCH   2   3
ATOM      3  C   UNL A   1      31.576  28.233  27.070  1.00  0.00     0.325 C 
ATOM      4  O   UNL A   1      31.114  27.614  28.020  1.00  0.00    -0.250 OA
BRANCH   3   5
ATOM      5  C   UNL A   1      31.425  27.767  25.593  1.00  0.00     0.245 C 
BRANCH   5   6
ATOM      6  N   UNL A   1      30.470  26.666  25.301  1.00  0.00    -0.302 N 
BRANCH   6   7
ATOM      7  C   UNL A   1      29.647  26.929  24.149  1.00  0.00     0.211 C 
BRANCH   7   8
ATOM      8  C   UNL A   1      30.579  27.293  23.005  1.00  0.00    -0.085 C 
ATOM      9  C   UNL A   1      31.379  27.605  22.023  1.00  0.00     0.006 C 
ENDBRANCH   7   8
ENDBRANCH   6   7
BRANCH   6  10
ATOM     10  C   UNL A   1      30.375  25.368  25.857  1.00  0.00     0.321 C 
ATOM     11  O   UNL A   1      29.588  25.047  26.748  1.00  0.00    -0.248 OA
BRANCH  10  12
ATOM     12  N   UNL A   1      31.265  24.436  25.417  1.00  0.00    -0.313 N 
ATOM     13  C   UNL A   1      30.920  23.123  25.800  1.00  0.00     0.183 C 
ATOM     14  C   UNL A   1      32.126  24.492  24.185  1.00  0.00     0.186 C 
ATOM     15  C   UNL A   1      32.002  22.184  25.467  1.00  0.00     0.284 C 
ATOM     16  C   UNL A   1      33.551  23.929  24.576  1.00  0.00     0.204 C 
ATOM     17  N   UNL A   1      33.463  22.785  26.075  1.00  0.00    -0.330 N 
ATOM     18  C   UNL A   1      34.954  23.296  23.426  1.00  0.00     0.073 C 
ATOM     19  C   UNL A   1      35.316  21.717  26.229  1.00  0.00     0.262 C 
ATOM     20  H   UNL A   1      33.421  23.013  27.069  1.00  0.00     0.348 HD
ATOM     21  C   UNL A   1      36.196  22.043  24.385  1.00  0.00     0.068 C 
ENDBRANCH  10  12
ENDBRANCH   6  10
ENDBRANCH   5   6
ENDBRANCH   3   5
ENDBRANCH   2   3
ENDBRANCH   1   2
BRANCH   1  22
ATOM     22  C   UNL A   1      34.453  30.309  27.057  1.00  0.00     0.275 C 
BRANCH  22  23
ATOM     23  O   UNL A   1      34.422  31.490  27.914  1.00  0.00    -0.458 OA
BRANCH  23  24
ATOM     24  C   UNL A   1      35.461  32.343  28.019  1.00  0.00     0.338 C 
ATOM     25  O   UNL A   1      35.585  33.366  27.367  1.00  0.00    -0.246 OA
BRANCH  24  26
ATOM     26  C   UNL A   1      36.608  31.721  28.776  1.00  0.00     0.060 A 
ATOM     27  C   UNL A   1      37.371  30.613  27.715  1.00  0.00     0.016 A 
ATOM     28  C   UNL A   1      36.586  31.557  30.506  1.00  0.00     0.016 A 
ATOM     29  C   UNL A   1      38.149  29.211  28.167  1.00  0.00     0.010 A 
ATOM     30  C   UNL A   1      37.303  30.029  31.166  1.00  0.00     0.010 A 
ATOM     31  C   UNL A   1      38.368  28.871  29.856  1.00  0.00    -0.014 A 
BRANCH  31  32
ATOM     32  C   UNL A   1      40.114  28.432  29.624  1.00  0.00     0.031 A 
ATOM     33  C   UNL A   1      41.226  29.488  29.692  1.00  0.00     0.074 A 
ATOM     34  C   UNL A   1      40.622  27.211  29.183  1.00  0.00     0.049 A 
ATOM     35  N   UNL A   1      42.267  29.652  28.903  1.00  0.00    -0.248 NA
ATOM     36  C   UNL A   1      41.051  30.564  30.656  1.00  0.00     0.031 C 
ATOM     37  C   UNL A   1      39.948  25.903  29.077  1.00  0.00     0.029 A 
ATOM     38  N   UNL A   1      41.885  26.873  28.667  1.00  0.00    -0.354 N 
ATOM     39  C   UNL A   1      42.676  30.963  29.124  1.00  0.00     0.074 A 
ATOM     40  C   UNL A   1      41.672  31.534  29.990  1.00  0.00     0.031 C 
ATOM     41  C   UNL A   1      40.728  24.975  28.517  1.00  0.00     0.029 A 
ATOM     42  C   UNL A   1      41.993  25.572  28.175  1.00  0.00     0.049 A 
ATOM     43  H   UNL A   1      42.638  27.507  28.655  1.00  0.00     0.167 HD
ATOM     44  C   UNL A   1      43.800  31.628  28.750  1.00  0.00     0.037 A 
ATOM     45  C   UNL A   1      42.948  24.885  27.504  1.00  0.00     0.037 A 
ATOM     46  C   UNL A   1      44.947  30.984  28.169  1.00  0.00     0.049 A 
ATOM     47  C   UNL A   1      44.237  25.575  27.166  1.00  0.00     0.074 A 
ATOM     48  C   UNL A   1      46.203  31.516  27.923  1.00  0.00     0.029 A 
ATOM     49  N   UNL A   1      45.005  29.646  27.824  1.00  0.00    -0.354 N 
ATOM     50  N   UNL A   1      44.571  26.826  27.363  1.00  0.00    -0.248 NA
ATOM     51  C   UNL A   1      45.289  24.764  26.533  1.00  0.00     0.031 C 
ATOM     52  C   UNL A   1      47.002  30.511  27.374  1.00  0.00     0.029 A 
ATOM     53  C   UNL A   1      46.268  29.338  27.352  1.00  0.00     0.049 A 
ATOM     54  H   UNL A   1      44.260  29.009  27.903  1.00  0.00     0.167 HD
ATOM     55  C   UNL A   1      45.887  26.934  26.934  1.00  0.00     0.074 A 
ATOM     56  C   UNL A   1      46.293  25.627  26.470  1.00  0.00     0.031 C 
ATOM     57  C   UNL A   1      46.686  28.026  26.934  1.00  0.00     0.037 A 
BRANCH  44  58
ATOM     58  C   UNL A   1      43.883  33.110  29.040  1.00  0.00     0.058 A 
ATOM     59  C   UNL A   1      44.100  33.613  30.334  1.00  0.00     0.135 A 
ATOM     60  C   UNL A   1      43.737  34.049  28.002  1.00  0.00     0.135 A 
ATOM     61  F   UNL A   1      44.273  32.777  31.370  1.00  0.00    -0.206 F 
ATOM     62  C   UNL A   1      44.059  34.974  30.608  1.00  0.00     0.059 A 
ATOM     63  C   UNL A   1      43.765  35.421  28.243  1.00  0.00     0.059 A 
ATOM     64  F   UNL A   1      43.562  33.642  26.734  1.00  0.00    -0.206 F 
ATOM     65  C   UNL A   1      43.896  35.872  29.554  1.00  0.00     0.060 A 
BRANCH  65  66
ATOM     66  S   UNL A   1      43.882  37.633  29.937  1.00  0.00     0.124 S 
ATOM     67  O   UNL A   1      44.049  37.617  31.388  1.00  0.00    -0.237 OA
ATOM     68  O   UNL A   1      45.026  38.122  29.175  1.00  0.00    -0.237 OA
ATOM     69  O   UNL A   1      42.577  38.076  29.460  1.00  0.00    -0.744 OA
ENDBRANCH  65  66
ENDBRANCH  44  58
BRANCH  45  70
ATOM     70  C   UNL A   1      42.768  23.434  27.137  1.00  0.00     0.058 A 
ATOM     71  C   UNL A   1      42.718  22.441  28.132  1.00  0.00     0.135 A 
ATOM     72  C   UNL A   1      42.674  22.995  25.803  1.00  0.00     0.135 A 
ATOM     73  F   UNL A   1      42.819  22.788  29.425  1.00  0.00    -0.206 F 
ATOM     74  C   UNL A   1      42.616  21.083  27.828  1.00  0.00     0.059 A 
ATOM     75  C   UNL A   1      42.534  21.643  25.474  1.00  0.00     0.059 A 
ATOM     76  F   UNL A   1      42.700  23.886  24.800  1.00  0.00    -0.206 F 
ATOM     77  C   UNL A   1      42.517  20.692  26.493  1.00  0.00     0.060 A 
BRANCH  77  78
ATOM     78  S   UNL A   1      42.332  18.930  26.120  1.00  0.00     0.124 S 
ATOM     79  O   UNL A   1      42.591  18.320  27.420  1.00  0.00    -0.237 OA
ATOM     80  O   UNL A   1      40.952  18.863  25.650  1.00  0.00    -0.237 OA
ATOM     81  O   UNL A   1      43.347  18.691  25.100  1.00  0.00    -0.744 OA
ENDBRANCH  77  78
ENDBRANCH  45  70
BRANCH  57  82
ATOM     82  C   UNL A   1      48.110  27.862  26.499  1.00  0.00     0.058 A 
ATOM     83  C   UNL A   1      49.151  27.666  27.416  1.00  0.00     0.135 A 
ATOM     84  C   UNL A   1      48.414  27.799  25.128  1.00  0.00     0.135 A 
ATOM     85  F   UNL A   1      48.911  27.724  28.736  1.00  0.00    -0.206 F 
ATOM     86  C   UNL A   1      50.450  27.423  26.990  1.00  0.00     0.059 A 
ATOM     87  C   UNL A   1      49.696  27.514  24.680  1.00  0.00     0.059 A 
ATOM     88  F   UNL A   1      47.449  27.974  24.210  1.00  0.00    -0.206 F 
ATOM     89  C   UNL A   1      50.709  27.333  25.620  1.00  0.00     0.060 A 
BRANCH  89  90
ATOM     90  S   UNL A   1      52.386  26.943  25.088  1.00  0.00     0.124 S 
ATOM     91  O   UNL A   1      53.026  28.253  25.145  1.00  0.00    -0.237 OA
ATOM     92  O   UNL A   1      52.813  25.983  26.100  1.00  0.00    -0.237 OA
ATOM     93  O   UNL A   1      52.200  26.394  23.748  1.00  0.00    -0.744 OA
ENDBRANCH  89  90
ENDBRANCH  57  82
ENDBRANCH  31  32
ENDBRANCH  24  26
ENDBRANCH  23  24
ENDBRANCH  22  23
ENDBRANCH   1  22
TORSDOF 19
ENDMDL
