MODEL 1
REMARK VINA RESULT:     -11.7      0.000      0.000
REMARK SMILES Cc1ccc(-n2nc(C(=O)OCCOC(=O)c3ccc(-c4c5nc(c(-c6c(F)cc(S(=O)(=O)[O-])cc6F)c6ccc([nH]6)c(-c6c(F)cc(S(=O)(=O)[O-])cc6F)c6nc(c(-c7c(F)cc(S(=O)(=O)[O-])cc7F)c7ccc4[nH]7)C=C6)C=C5)cc3)c(C)c(C#N)c2=O)cc1Cl
REMARK SMILES IDX 13 1 12 2 11 3 9 4 10 5 8 6 6 7 7 8 88 9 85 10 89 11 83 12
REMARK SMILES IDX 84 13 5 14 1 15 2 16 3 17 91 18 4 19 90 20 92 21 86 22 87 23
REMARK SMILES IDX 14 24 15 25 16 26 17 27 18 28 82 29 19 30 81 31 20 32 21 33
REMARK SMILES IDX 22 34 75 35 23 36 80 37 74 38 76 39 24 40 79 41 73 42 72 43
REMARK SMILES IDX 25 45 59 46 38 47 58 48 39 49 42 50 57 51 77 52 40 53 41 54
REMARK SMILES IDX 56 56 78 57 43 58 26 59 27 60 36 61 28 62 29 63 35 64 37 65
REMARK SMILES IDX 30 66 31 67 32 68 33 69 34 70 60 71 61 72 70 73 62 74 63 75
REMARK SMILES IDX 69 76 71 77 64 78 65 79 66 80 67 81 68 82 44 83 45 84 54 85
REMARK SMILES IDX 46 86 47 87 53 88 55 89 48 90 49 91 50 92 51 93 52 94
REMARK H PARENT 76 44 42 55
REMARK Flexibility Score: inf
ROOT
ATOM      1  C   UNL A   1      32.857  28.451  26.385  1.00  0.00     0.275 C 
ENDROOT
BRANCH   1   2
ATOM      2  C   UNL A   1      31.642  27.691  26.923  1.00  0.00     0.275 C 
BRANCH   2   3
ATOM      3  O   UNL A   1      31.798  26.278  26.678  1.00  0.00    -0.457 OA
BRANCH   3   4
ATOM      4  C   UNL A   1      30.801  25.658  26.019  1.00  0.00     0.359 C 
ATOM      5  O   UNL A   1      29.619  25.669  26.309  1.00  0.00    -0.244 OA
BRANCH   4   6
ATOM      6  C   UNL A   1      31.317  24.874  24.798  1.00  0.00     0.173 A 
ATOM      7  N   UNL A   1      32.147  22.901  23.970  1.00  0.00    -0.195 N 
ATOM      8  N   UNL A   1      31.513  23.600  24.962  1.00  0.00    -0.157 NA
ATOM      9  C   UNL A   1      32.672  23.490  22.826  1.00  0.00     0.289 A 
ATOM     10  C   UNL A   1      32.303  24.917  22.620  1.00  0.00     0.125 A 
ATOM     11  O   UNL A   1      33.359  22.911  21.984  1.00  0.00    -0.266 OA
ATOM     12  C   UNL A   1      31.638  25.621  23.555  1.00  0.00     0.007 A 
ATOM     13  C   UNL A   1      31.210  27.053  23.430  1.00  0.00     0.049 C 
BRANCH   7  14
ATOM     14  C   UNL A   1      32.398  21.536  24.274  1.00  0.00     0.070 A 
ATOM     15  C   UNL A   1      33.389  17.409  25.146  1.00  0.00     0.046 C 
ATOM     16  C   UNL A   1      33.040  18.838  24.827  1.00  0.00    -0.032 A 
ATOM     17  C   UNL A   1      33.253  19.836  25.787  1.00  0.00     0.007 A 
ATOM     18  C   UNL A   1      32.512  19.216  23.584  1.00  0.00     0.046 A 
ATOM     19  C   UNL A   1      32.961  21.175  25.503  1.00  0.00     0.029 A 
ATOM     20  C   UNL A   1      32.153  20.546  23.320  1.00  0.00     0.049 A 
ATOM     21  Cl  UNL A   1      32.363  18.077  22.301  1.00  0.00    -0.084 Cl
ENDBRANCH   7  14
BRANCH  10  22
ATOM     22  C   UNL A   1      32.685  25.501  21.379  1.00  0.00     0.105 C 
ATOM     23  N   UNL A   1      33.018  25.898  20.343  1.00  0.00    -0.192 NA
ENDBRANCH  10  22
ENDBRANCH   4   6
ENDBRANCH   3   4
ENDBRANCH   2   3
ENDBRANCH   1   2
BRANCH   1  24
ATOM     24  O   UNL A   1      33.893  28.511  27.381  1.00  0.00    -0.458 OA
BRANCH  24  25
ATOM     25  C   UNL A   1      34.299  29.763  27.692  1.00  0.00     0.338 C 
ATOM     26  O   UNL A   1      33.611  30.767  27.772  1.00  0.00    -0.246 OA
BRANCH  25  27
ATOM     27  C   UNL A   1      35.705  29.726  28.101  1.00  0.00     0.060 A 
ATOM     28  C   UNL A   1      36.664  29.981  27.126  1.00  0.00     0.016 A 
ATOM     29  C   UNL A   1      36.080  29.321  29.376  1.00  0.00     0.016 A 
ATOM     30  C   UNL A   1      37.999  29.711  27.374  1.00  0.00     0.010 A 
ATOM     31  C   UNL A   1      37.440  29.146  29.656  1.00  0.00     0.010 A 
ATOM     32  C   UNL A   1      38.406  29.294  28.644  1.00  0.00    -0.014 A 
BRANCH  32  33
ATOM     33  C   UNL A   1      39.838  28.976  28.874  1.00  0.00     0.031 A 
ATOM     34  C   UNL A   1      40.751  30.007  29.480  1.00  0.00     0.074 A 
ATOM     35  C   UNL A   1      40.297  27.738  28.598  1.00  0.00     0.049 A 
ATOM     36  N   UNL A   1      42.033  29.932  29.725  1.00  0.00    -0.248 NA
ATOM     37  C   UNL A   1      40.143  31.291  29.869  1.00  0.00     0.031 C 
ATOM     38  C   UNL A   1      39.491  26.638  28.059  1.00  0.00     0.029 A 
ATOM     39  N   UNL A   1      41.546  27.190  28.739  1.00  0.00    -0.354 N 
ATOM     40  C   UNL A   1      42.382  31.148  30.298  1.00  0.00     0.074 A 
ATOM     41  C   UNL A   1      41.189  31.965  30.326  1.00  0.00     0.031 C 
ATOM     42  C   UNL A   1      40.256  25.544  27.944  1.00  0.00     0.029 A 
ATOM     43  C   UNL A   1      41.623  25.883  28.319  1.00  0.00     0.049 A 
ATOM     44  H   UNL A   1      42.314  27.685  29.106  1.00  0.00     0.167 HD
ATOM     45  C   UNL A   1      43.586  31.542  30.776  1.00  0.00     0.037 A 
ATOM     46  C   UNL A   1      42.682  25.059  28.206  1.00  0.00     0.037 A 
ATOM     47  C   UNL A   1      44.768  30.722  30.736  1.00  0.00     0.049 A 
ATOM     48  C   UNL A   1      44.036  25.566  28.613  1.00  0.00     0.074 A 
ATOM     49  C   UNL A   1      46.044  31.032  31.168  1.00  0.00     0.029 A 
ATOM     50  N   UNL A   1      44.821  29.432  30.224  1.00  0.00    -0.354 N 
ATOM     51  N   UNL A   1      44.355  26.724  29.139  1.00  0.00    -0.248 NA
ATOM     52  C   UNL A   1      45.175  24.665  28.402  1.00  0.00     0.031 C 
ATOM     53  C   UNL A   1      46.884  29.959  30.853  1.00  0.00     0.029 A 
ATOM     54  C   UNL A   1      46.118  28.950  30.290  1.00  0.00     0.049 A 
ATOM     55  H   UNL A   1      44.050  28.934  29.867  1.00  0.00     0.167 HD
ATOM     56  C   UNL A   1      45.730  26.688  29.335  1.00  0.00     0.074 A 
ATOM     57  C   UNL A   1      46.177  25.383  28.890  1.00  0.00     0.031 C 
ATOM     58  C   UNL A   1      46.547  27.649  29.835  1.00  0.00     0.037 A 
BRANCH  45  59
ATOM     59  C   UNL A   1      43.695  32.933  31.342  1.00  0.00     0.058 A 
ATOM     60  C   UNL A   1      44.013  34.040  30.539  1.00  0.00     0.135 A 
ATOM     61  C   UNL A   1      43.448  33.164  32.705  1.00  0.00     0.135 A 
ATOM     62  F   UNL A   1      44.275  33.876  29.233  1.00  0.00    -0.206 F 
ATOM     63  C   UNL A   1      44.107  35.322  31.072  1.00  0.00     0.059 A 
ATOM     64  C   UNL A   1      43.507  34.442  33.254  1.00  0.00     0.059 A 
ATOM     65  F   UNL A   1      43.144  32.141  33.519  1.00  0.00    -0.206 F 
ATOM     66  C   UNL A   1      43.850  35.513  32.431  1.00  0.00     0.060 A 
BRANCH  66  67
ATOM     67  S   UNL A   1      43.979  37.182  33.108  1.00  0.00     0.124 S 
ATOM     68  O   UNL A   1      45.322  37.165  33.679  1.00  0.00    -0.237 OA
ATOM     69  O   UNL A   1      43.804  38.012  31.921  1.00  0.00    -0.237 OA
ATOM     70  O   UNL A   1      42.890  37.244  34.078  1.00  0.00    -0.744 OA
ENDBRANCH  66  67
ENDBRANCH  45  59
BRANCH  46  71
ATOM     71  C   UNL A   1      42.492  23.688  27.659  1.00  0.00     0.058 A 
ATOM     72  C   UNL A   1      42.529  23.448  26.279  1.00  0.00     0.135 A 
ATOM     73  C   UNL A   1      42.324  22.582  28.510  1.00  0.00     0.135 A 
ATOM     74  F   UNL A   1      42.674  24.470  25.422  1.00  0.00    -0.206 F 
ATOM     75  C   UNL A   1      42.414  22.161  25.760  1.00  0.00     0.059 A 
ATOM     76  C   UNL A   1      42.238  21.284  28.017  1.00  0.00     0.059 A 
ATOM     77  F   UNL A   1      42.290  22.755  29.840  1.00  0.00    -0.206 F 
ATOM     78  C   UNL A   1      42.281  21.083  26.639  1.00  0.00     0.060 A 
BRANCH  78  79
ATOM     79  S   UNL A   1      42.212  19.413  25.956  1.00  0.00     0.124 S 
ATOM     80  O   UNL A   1      42.742  18.620  27.059  1.00  0.00    -0.237 OA
ATOM     81  O   UNL A   1      40.786  19.257  25.684  1.00  0.00    -0.237 OA
ATOM     82  O   UNL A   1      43.063  19.496  24.773  1.00  0.00    -0.744 OA
ENDBRANCH  78  79
ENDBRANCH  46  71
BRANCH  58  83
ATOM     83  C   UNL A   1      48.012  27.327  29.941  1.00  0.00     0.058 A 
ATOM     84  C   UNL A   1      48.924  27.724  28.951  1.00  0.00     0.135 A 
ATOM     85  C   UNL A   1      48.519  26.687  31.084  1.00  0.00     0.135 A 
ATOM     86  F   UNL A   1      48.490  28.332  27.836  1.00  0.00    -0.206 F 
ATOM     87  C   UNL A   1      50.287  27.481  29.082  1.00  0.00     0.059 A 
ATOM     88  C   UNL A   1      49.882  26.464  31.252  1.00  0.00     0.059 A 
ATOM     89  F   UNL A   1      47.691  26.297  32.065  1.00  0.00    -0.206 F 
ATOM     90  C   UNL A   1      50.757  26.859  30.241  1.00  0.00     0.060 A 
BRANCH  90  91
ATOM     91  S   UNL A   1      52.534  26.594  30.413  1.00  0.00     0.124 S 
ATOM     92  O   UNL A   1      52.577  25.498  31.375  1.00  0.00    -0.237 OA
ATOM     93  O   UNL A   1      52.929  26.257  29.049  1.00  0.00    -0.237 OA
ATOM     94  O   UNL A   1      53.025  27.878  30.904  1.00  0.00    -0.744 OA
ENDBRANCH  90  91
ENDBRANCH  58  83
ENDBRANCH  32  33
ENDBRANCH  25  27
ENDBRANCH  24  25
ENDBRANCH   1  24
TORSDOF 16
ENDMDL
MODEL 2
REMARK VINA RESULT:     -11.6      4.932     10.565
REMARK SMILES Cc1ccc(-n2nc(C(=O)OCCOC(=O)c3ccc(-c4c5nc(c(-c6c(F)cc(S(=O)(=O)[O-])cc6F)c6ccc([nH]6)c(-c6c(F)cc(S(=O)(=O)[O-])cc6F)c6nc(c(-c7c(F)cc(S(=O)(=O)[O-])cc7F)c7ccc4[nH]7)C=C6)C=C5)cc3)c(C)c(C#N)c2=O)cc1Cl
REMARK SMILES IDX 13 1 12 2 11 3 9 4 10 5 8 6 6 7 7 8 88 9 85 10 89 11 83 12
REMARK SMILES IDX 84 13 5 14 1 15 2 16 3 17 91 18 4 19 90 20 92 21 86 22 87 23
REMARK SMILES IDX 14 24 15 25 16 26 17 27 18 28 82 29 19 30 81 31 20 32 21 33
REMARK SMILES IDX 22 34 75 35 23 36 80 37 74 38 76 39 24 40 79 41 73 42 72 43
REMARK SMILES IDX 25 45 59 46 38 47 58 48 39 49 42 50 57 51 77 52 40 53 41 54
REMARK SMILES IDX 56 56 78 57 43 58 26 59 27 60 36 61 28 62 29 63 35 64 37 65
REMARK SMILES IDX 30 66 31 67 32 68 33 69 34 70 60 71 61 72 70 73 62 74 63 75
REMARK SMILES IDX 69 76 71 77 64 78 65 79 66 80 67 81 68 82 44 83 45 84 54 85
REMARK SMILES IDX 46 86 47 87 53 88 55 89 48 90 49 91 50 92 51 93 52 94
REMARK H PARENT 76 44 42 55
REMARK Flexibility Score: inf
ROOT
ATOM      1  C   UNL A   1      39.317  22.462  26.781  1.00  0.00     0.275 C 
ENDROOT
BRANCH   1   2
ATOM      2  C   UNL A   1      38.524  21.747  25.684  1.00  0.00     0.275 C 
BRANCH   2   3
ATOM      3  O   UNL A   1      37.161  22.221  25.673  1.00  0.00    -0.457 OA
BRANCH   3   4
ATOM      4  C   UNL A   1      36.556  22.315  24.475  1.00  0.00     0.359 C 
ATOM      5  O   UNL A   1      37.061  22.681  23.429  1.00  0.00    -0.244 OA
BRANCH   4   6
ATOM      6  C   UNL A   1      35.072  21.906  24.545  1.00  0.00     0.173 A 
ATOM      7  N   UNL A   1      32.878  22.574  24.617  1.00  0.00    -0.195 N 
ATOM      8  N   UNL A   1      34.197  22.851  24.375  1.00  0.00    -0.157 NA
ATOM      9  C   UNL A   1      32.423  21.360  25.115  1.00  0.00     0.289 A 
ATOM     10  C   UNL A   1      33.439  20.273  25.162  1.00  0.00     0.125 A 
ATOM     11  O   UNL A   1      31.266  21.128  25.464  1.00  0.00    -0.266 OA
ATOM     12  C   UNL A   1      34.736  20.499  24.884  1.00  0.00     0.007 A 
ATOM     13  C   UNL A   1      35.824  19.467  24.889  1.00  0.00     0.049 C 
BRANCH   7  14
ATOM     14  C   UNL A   1      32.006  23.690  24.492  1.00  0.00     0.070 A 
ATOM     15  C   UNL A   1      29.513  27.197  23.982  1.00  0.00     0.046 C 
ATOM     16  C   UNL A   1      30.385  25.985  24.175  1.00  0.00    -0.032 A 
ATOM     17  C   UNL A   1      30.426  24.995  23.185  1.00  0.00     0.007 A 
ATOM     18  C   UNL A   1      31.178  25.811  25.319  1.00  0.00     0.046 A 
ATOM     19  C   UNL A   1      31.250  23.873  23.330  1.00  0.00     0.029 A 
ATOM     20  C   UNL A   1      31.950  24.655  25.500  1.00  0.00     0.049 A 
ATOM     21  Cl  UNL A   1      31.300  27.051  26.509  1.00  0.00    -0.084 Cl
ENDBRANCH   7  14
BRANCH  10  22
ATOM     22  C   UNL A   1      32.967  18.974  25.510  1.00  0.00     0.105 C 
ATOM     23  N   UNL A   1      32.538  17.956  25.855  1.00  0.00    -0.192 NA
ENDBRANCH  10  22
ENDBRANCH   4   6
ENDBRANCH   3   4
ENDBRANCH   2   3
ENDBRANCH   1   2
BRANCH   1  24
ATOM     24  O   UNL A   1      39.439  23.862  26.479  1.00  0.00    -0.458 OA
BRANCH  24  25
ATOM     25  C   UNL A   1      40.610  24.419  26.866  1.00  0.00     0.338 C 
ATOM     26  O   UNL A   1      41.729  24.143  26.467  1.00  0.00    -0.246 OA
BRANCH  25  27
ATOM     27  C   UNL A   1      40.335  25.560  27.742  1.00  0.00     0.060 A 
ATOM     28  C   UNL A   1      41.233  26.622  27.713  1.00  0.00     0.016 A 
ATOM     29  C   UNL A   1      39.298  25.533  28.667  1.00  0.00     0.016 A 
ATOM     30  C   UNL A   1      41.183  27.604  28.687  1.00  0.00     0.010 A 
ATOM     31  C   UNL A   1      39.188  26.581  29.588  1.00  0.00     0.010 A 
ATOM     32  C   UNL A   1      40.157  27.599  29.636  1.00  0.00    -0.014 A 
BRANCH  32  33
ATOM     33  C   UNL A   1      40.147  28.642  30.692  1.00  0.00     0.031 A 
ATOM     34  C   UNL A   1      41.133  28.575  31.827  1.00  0.00     0.074 A 
ATOM     35  C   UNL A   1      39.294  29.682  30.593  1.00  0.00     0.049 A 
ATOM     36  N   UNL A   1      41.258  29.367  32.860  1.00  0.00    -0.248 NA
ATOM     37  C   UNL A   1      42.113  27.476  31.796  1.00  0.00     0.031 C 
ATOM     38  C   UNL A   1      38.329  29.883  29.507  1.00  0.00     0.029 A 
ATOM     39  N   UNL A   1      39.103  30.770  31.406  1.00  0.00    -0.354 N 
ATOM     40  C   UNL A   1      42.328  28.868  33.594  1.00  0.00     0.074 A 
ATOM     41  C   UNL A   1      42.792  27.678  32.916  1.00  0.00     0.031 C 
ATOM     42  C   UNL A   1      37.673  31.035  29.706  1.00  0.00     0.029 A 
ATOM     43  C   UNL A   1      38.107  31.612  30.972  1.00  0.00     0.049 A 
ATOM     44  H   UNL A   1      39.630  30.933  32.222  1.00  0.00     0.167 HD
ATOM     45  C   UNL A   1      42.884  29.369  34.721  1.00  0.00     0.037 A 
ATOM     46  C   UNL A   1      37.570  32.706  31.547  1.00  0.00     0.037 A 
ATOM     47  C   UNL A   1      42.408  30.551  35.390  1.00  0.00     0.049 A 
ATOM     48  C   UNL A   1      38.112  33.163  32.870  1.00  0.00     0.074 A 
ATOM     49  C   UNL A   1      42.882  31.130  36.553  1.00  0.00     0.029 A 
ATOM     50  N   UNL A   1      41.340  31.329  34.962  1.00  0.00    -0.354 N 
ATOM     51  N   UNL A   1      39.114  32.674  33.561  1.00  0.00    -0.248 NA
ATOM     52  C   UNL A   1      37.448  34.311  33.500  1.00  0.00     0.031 C 
ATOM     53  C   UNL A   1      42.057  32.216  36.865  1.00  0.00     0.029 A 
ATOM     54  C   UNL A   1      41.113  32.357  35.860  1.00  0.00     0.049 A 
ATOM     55  H   UNL A   1      40.822  31.172  34.139  1.00  0.00     0.167 HD
ATOM     56  C   UNL A   1      39.211  33.461  34.702  1.00  0.00     0.074 A 
ATOM     57  C   UNL A   1      38.178  34.472  34.596  1.00  0.00     0.031 C 
ATOM     58  C   UNL A   1      40.075  33.353  35.742  1.00  0.00     0.037 A 
BRANCH  45  59
ATOM     59  C   UNL A   1      44.041  28.618  35.325  1.00  0.00     0.058 A 
ATOM     60  C   UNL A   1      45.373  28.896  34.978  1.00  0.00     0.135 A 
ATOM     61  C   UNL A   1      43.811  27.624  36.291  1.00  0.00     0.135 A 
ATOM     62  F   UNL A   1      45.650  29.824  34.048  1.00  0.00    -0.206 F 
ATOM     63  C   UNL A   1      46.434  28.198  35.547  1.00  0.00     0.059 A 
ATOM     64  C   UNL A   1      44.859  26.934  36.895  1.00  0.00     0.059 A 
ATOM     65  F   UNL A   1      42.558  27.315  36.658  1.00  0.00    -0.206 F 
ATOM     66  C   UNL A   1      46.166  27.220  36.507  1.00  0.00     0.060 A 
BRANCH  66  67
ATOM     67  S   UNL A   1      47.554  26.321  37.233  1.00  0.00     0.124 S 
ATOM     68  O   UNL A   1      47.062  26.063  38.583  1.00  0.00    -0.237 OA
ATOM     69  O   UNL A   1      47.657  25.155  36.362  1.00  0.00    -0.237 OA
ATOM     70  O   UNL A   1      48.660  27.268  37.143  1.00  0.00    -0.744 OA
ENDBRANCH  66  67
ENDBRANCH  45  59
BRANCH  46  71
ATOM     71  C   UNL A   1      36.442  33.409  30.877  1.00  0.00     0.058 A 
ATOM     72  C   UNL A   1      35.133  33.307  31.365  1.00  0.00     0.135 A 
ATOM     73  C   UNL A   1      36.663  34.243  29.767  1.00  0.00     0.135 A 
ATOM     74  F   UNL A   1      34.866  32.515  32.414  1.00  0.00    -0.206 F 
ATOM     75  C   UNL A   1      34.082  34.011  30.783  1.00  0.00     0.059 A 
ATOM     76  C   UNL A   1      35.634  34.980  29.188  1.00  0.00     0.059 A 
ATOM     77  F   UNL A   1      37.899  34.383  29.265  1.00  0.00    -0.206 F 
ATOM     78  C   UNL A   1      34.346  34.855  29.702  1.00  0.00     0.060 A 
BRANCH  78  79
ATOM     79  S   UNL A   1      32.987  35.821  29.007  1.00  0.00     0.124 S 
ATOM     80  O   UNL A   1      32.225  36.163  30.203  1.00  0.00    -0.237 OA
ATOM     81  O   UNL A   1      33.697  36.923  28.365  1.00  0.00    -0.237 OA
ATOM     82  O   UNL A   1      32.339  34.885  28.093  1.00  0.00    -0.744 OA
ENDBRANCH  78  79
ENDBRANCH  46  71
BRANCH  58  83
ATOM     83  C   UNL A   1      39.953  34.360  36.852  1.00  0.00     0.058 A 
ATOM     84  C   UNL A   1      40.632  35.588  36.807  1.00  0.00     0.135 A 
ATOM     85  C   UNL A   1      39.083  34.130  37.931  1.00  0.00     0.135 A 
ATOM     86  F   UNL A   1      41.481  35.855  35.801  1.00  0.00    -0.206 F 
ATOM     87  C   UNL A   1      40.468  36.544  37.803  1.00  0.00     0.059 A 
ATOM     88  C   UNL A   1      38.877  35.086  38.920  1.00  0.00     0.059 A 
ATOM     89  F   UNL A   1      38.401  32.976  38.016  1.00  0.00    -0.206 F 
ATOM     90  C   UNL A   1      39.580  36.287  38.850  1.00  0.00     0.060 A 
BRANCH  90  91
ATOM     91  S   UNL A   1      39.345  37.559  40.109  1.00  0.00     0.124 S 
ATOM     92  O   UNL A   1      38.241  38.330  39.547  1.00  0.00    -0.237 OA
ATOM     93  O   UNL A   1      39.028  36.767  41.293  1.00  0.00    -0.237 OA
ATOM     94  O   UNL A   1      40.633  38.245  40.146  1.00  0.00    -0.744 OA
ENDBRANCH  90  91
ENDBRANCH  58  83
ENDBRANCH  32  33
ENDBRANCH  25  27
ENDBRANCH  24  25
ENDBRANCH   1  24
TORSDOF 16
ENDMDL
MODEL 3
REMARK VINA RESULT:     -11.6      2.765      3.876
REMARK SMILES Cc1ccc(-n2nc(C(=O)OCCOC(=O)c3ccc(-c4c5nc(c(-c6c(F)cc(S(=O)(=O)[O-])cc6F)c6ccc([nH]6)c(-c6c(F)cc(S(=O)(=O)[O-])cc6F)c6nc(c(-c7c(F)cc(S(=O)(=O)[O-])cc7F)c7ccc4[nH]7)C=C6)C=C5)cc3)c(C)c(C#N)c2=O)cc1Cl
REMARK SMILES IDX 13 1 12 2 11 3 9 4 10 5 8 6 6 7 7 8 88 9 85 10 89 11 83 12
REMARK SMILES IDX 84 13 5 14 1 15 2 16 3 17 91 18 4 19 90 20 92 21 86 22 87 23
REMARK SMILES IDX 14 24 15 25 16 26 17 27 18 28 82 29 19 30 81 31 20 32 21 33
REMARK SMILES IDX 22 34 75 35 23 36 80 37 74 38 76 39 24 40 79 41 73 42 72 43
REMARK SMILES IDX 25 45 59 46 38 47 58 48 39 49 42 50 57 51 77 52 40 53 41 54
REMARK SMILES IDX 56 56 78 57 43 58 26 59 27 60 36 61 28 62 29 63 35 64 37 65
REMARK SMILES IDX 30 66 31 67 32 68 33 69 34 70 60 71 61 72 70 73 62 74 63 75
REMARK SMILES IDX 69 76 71 77 64 78 65 79 66 80 67 81 68 82 44 83 45 84 54 85
REMARK SMILES IDX 46 86 47 87 53 88 55 89 48 90 49 91 50 92 51 93 52 94
REMARK H PARENT 76 44 42 55
REMARK Flexibility Score: inf
ROOT
ATOM      1  C   UNL A   1      34.518  31.201  28.018  1.00  0.00     0.275 C 
ENDROOT
BRANCH   1   2
ATOM      2  C   UNL A   1      34.329  29.859  27.306  1.00  0.00     0.275 C 
BRANCH   2   3
ATOM      3  O   UNL A   1      33.269  29.963  26.332  1.00  0.00    -0.457 OA
BRANCH   3   4
ATOM      4  C   UNL A   1      32.140  29.273  26.581  1.00  0.00     0.359 C 
ATOM      5  O   UNL A   1      31.593  29.135  27.659  1.00  0.00    -0.244 OA
BRANCH   4   6
ATOM      6  C   UNL A   1      31.570  28.623  25.306  1.00  0.00     0.173 A 
ATOM      7  N   UNL A   1      31.496  26.786  23.933  1.00  0.00    -0.195 N 
ATOM      8  N   UNL A   1      31.816  27.359  25.135  1.00  0.00    -0.157 NA
ATOM      9  C   UNL A   1      30.996  27.496  22.848  1.00  0.00     0.289 A 
ATOM     10  C   UNL A   1      30.603  28.903  23.137  1.00  0.00     0.125 A 
ATOM     11  O   UNL A   1      30.823  27.035  21.721  1.00  0.00    -0.266 OA
ATOM     12  C   UNL A   1      30.860  29.483  24.324  1.00  0.00     0.007 A 
ATOM     13  C   UNL A   1      30.489  30.884  24.710  1.00  0.00     0.049 C 
BRANCH   7  14
ATOM     14  C   UNL A   1      31.883  25.425  23.804  1.00  0.00     0.070 A 
ATOM     15  C   UNL A   1      33.073  21.261  23.645  1.00  0.00     0.046 C 
ATOM     16  C   UNL A   1      32.676  22.713  23.699  1.00  0.00    -0.032 A 
ATOM     17  C   UNL A   1      31.334  23.059  23.899  1.00  0.00     0.007 A 
ATOM     18  C   UNL A   1      33.614  23.747  23.564  1.00  0.00     0.046 A 
ATOM     19  C   UNL A   1      30.946  24.401  23.979  1.00  0.00     0.029 A 
ATOM     20  C   UNL A   1      33.219  25.093  23.573  1.00  0.00     0.049 A 
ATOM     21  Cl  UNL A   1      35.300  23.407  23.468  1.00  0.00    -0.084 Cl
ENDBRANCH   7  14
BRANCH  10  22
ATOM     22  C   UNL A   1      29.935  29.604  22.094  1.00  0.00     0.105 C 
ATOM     23  N   UNL A   1      29.326  30.121  21.255  1.00  0.00    -0.192 NA
ENDBRANCH  10  22
ENDBRANCH   4   6
ENDBRANCH   3   4
ENDBRANCH   2   3
ENDBRANCH   1   2
BRANCH   1  24
ATOM     24  O   UNL A   1      35.916  31.474  28.209  1.00  0.00    -0.458 OA
BRANCH  24  25
ATOM     25  C   UNL A   1      36.434  30.969  29.353  1.00  0.00     0.338 C 
ATOM     26  O   UNL A   1      35.918  30.958  30.458  1.00  0.00    -0.246 OA
BRANCH  25  27
ATOM     27  C   UNL A   1      37.677  30.258  29.047  1.00  0.00     0.060 A 
ATOM     28  C   UNL A   1      38.574  30.056  30.090  1.00  0.00     0.016 A 
ATOM     29  C   UNL A   1      38.016  29.915  27.743  1.00  0.00     0.016 A 
ATOM     30  C   UNL A   1      39.865  29.630  29.827  1.00  0.00     0.010 A 
ATOM     31  C   UNL A   1      39.288  29.388  27.493  1.00  0.00     0.010 A 
ATOM     32  C   UNL A   1      40.238  29.286  28.525  1.00  0.00    -0.014 A 
BRANCH  32  33
ATOM     33  C   UNL A   1      41.638  28.867  28.263  1.00  0.00     0.031 A 
ATOM     34  C   UNL A   1      42.755  29.872  28.354  1.00  0.00     0.074 A 
ATOM     35  C   UNL A   1      41.908  27.571  28.008  1.00  0.00     0.049 A 
ATOM     36  N   UNL A   1      44.032  29.709  28.126  1.00  0.00    -0.248 NA
ATOM     37  C   UNL A   1      42.391  31.240  28.759  1.00  0.00     0.031 C 
ATOM     38  C   UNL A   1      40.913  26.495  27.950  1.00  0.00     0.029 A 
ATOM     39  N   UNL A   1      43.096  26.931  27.761  1.00  0.00    -0.354 N 
ATOM     40  C   UNL A   1      44.621  30.944  28.366  1.00  0.00     0.074 A 
ATOM     41  C   UNL A   1      43.559  31.863  28.713  1.00  0.00     0.031 C 
ATOM     42  C   UNL A   1      41.534  25.330  27.714  1.00  0.00     0.029 A 
ATOM     43  C   UNL A   1      42.956  25.585  27.520  1.00  0.00     0.049 A 
ATOM     44  H   UNL A   1      43.966  27.392  27.756  1.00  0.00     0.167 HD
ATOM     45  C   UNL A   1      45.932  31.278  28.319  1.00  0.00     0.037 A 
ATOM     46  C   UNL A   1      43.861  24.661  27.145  1.00  0.00     0.037 A 
ATOM     47  C   UNL A   1      46.979  30.356  27.966  1.00  0.00     0.049 A 
ATOM     48  C   UNL A   1      45.290  25.086  26.963  1.00  0.00     0.074 A 
ATOM     49  C   UNL A   1      48.336  30.595  27.861  1.00  0.00     0.029 A 
ATOM     50  N   UNL A   1      46.783  29.018  27.647  1.00  0.00    -0.354 N 
ATOM     51  N   UNL A   1      45.831  26.261  27.178  1.00  0.00    -0.248 NA
ATOM     52  C   UNL A   1      46.230  24.068  26.478  1.00  0.00     0.031 C 
ATOM     53  C   UNL A   1      48.952  29.423  27.412  1.00  0.00     0.029 A 
ATOM     54  C   UNL A   1      47.989  28.431  27.304  1.00  0.00     0.049 A 
ATOM     55  H   UNL A   1      45.914  28.555  27.663  1.00  0.00     0.167 HD
ATOM     56  C   UNL A   1      47.178  26.123  26.867  1.00  0.00     0.074 A 
ATOM     57  C   UNL A   1      47.372  24.743  26.469  1.00  0.00     0.031 C 
ATOM     58  C   UNL A   1      48.163  27.056  26.904  1.00  0.00     0.037 A 
BRANCH  45  59
ATOM     59  C   UNL A   1      46.303  32.707  28.615  1.00  0.00     0.058 A 
ATOM     60  C   UNL A   1      46.642  33.136  29.908  1.00  0.00     0.135 A 
ATOM     61  C   UNL A   1      46.348  33.654  27.580  1.00  0.00     0.135 A 
ATOM     62  F   UNL A   1      46.599  32.277  30.939  1.00  0.00    -0.206 F 
ATOM     63  C   UNL A   1      46.988  34.459  30.169  1.00  0.00     0.059 A 
ATOM     64  C   UNL A   1      46.720  34.976  27.812  1.00  0.00     0.059 A 
ATOM     65  F   UNL A   1      46.031  33.300  26.325  1.00  0.00    -0.206 F 
ATOM     66  C   UNL A   1      47.026  35.371  29.113  1.00  0.00     0.060 A 
BRANCH  66  67
ATOM     67  S   UNL A   1      47.474  37.084  29.467  1.00  0.00     0.124 S 
ATOM     68  O   UNL A   1      47.942  37.542  28.163  1.00  0.00    -0.237 OA
ATOM     69  O   UNL A   1      46.206  37.648  29.920  1.00  0.00    -0.237 OA
ATOM     70  O   UNL A   1      48.505  36.963  30.493  1.00  0.00    -0.744 OA
ENDBRANCH  66  67
ENDBRANCH  45  59
BRANCH  46  71
ATOM     71  C   UNL A   1      43.422  23.262  26.893  1.00  0.00     0.058 A 
ATOM     72  C   UNL A   1      43.373  22.741  25.592  1.00  0.00     0.135 A 
ATOM     73  C   UNL A   1      43.095  22.400  27.953  1.00  0.00     0.135 A 
ATOM     74  F   UNL A   1      43.664  23.525  24.543  1.00  0.00    -0.206 F 
ATOM     75  C   UNL A   1      43.024  21.415  25.351  1.00  0.00     0.059 A 
ATOM     76  C   UNL A   1      42.773  21.063  27.740  1.00  0.00     0.059 A 
ATOM     77  F   UNL A   1      43.133  22.844  29.219  1.00  0.00    -0.206 F 
ATOM     78  C   UNL A   1      42.738  20.580  26.434  1.00  0.00     0.060 A 
BRANCH  78  79
ATOM     79  S   UNL A   1      42.363  18.844  26.111  1.00  0.00     0.124 S 
ATOM     80  O   UNL A   1      40.947  18.906  25.766  1.00  0.00    -0.237 OA
ATOM     81  O   UNL A   1      43.275  18.536  25.014  1.00  0.00    -0.237 OA
ATOM     82  O   UNL A   1      42.674  18.189  27.378  1.00  0.00    -0.744 OA
ENDBRANCH  78  79
ENDBRANCH  46  71
BRANCH  58  83
ATOM     83  C   UNL A   1      49.548  26.617  26.516  1.00  0.00     0.058 A 
ATOM     84  C   UNL A   1      50.396  25.972  27.429  1.00  0.00     0.135 A 
ATOM     85  C   UNL A   1      49.999  26.772  25.195  1.00  0.00     0.135 A 
ATOM     86  F   UNL A   1      50.016  25.806  28.705  1.00  0.00    -0.206 F 
ATOM     87  C   UNL A   1      51.652  25.510  27.050  1.00  0.00     0.059 A 
ATOM     88  C   UNL A   1      51.238  26.287  24.785  1.00  0.00     0.059 A 
ATOM     89  F   UNL A   1      49.222  27.373  24.280  1.00  0.00    -0.206 F 
ATOM     90  C   UNL A   1      52.059  25.664  25.723  1.00  0.00     0.060 A 
BRANCH  90  91
ATOM     91  S   UNL A   1      53.674  25.018  25.239  1.00  0.00     0.124 S 
ATOM     92  O   UNL A   1      53.428  23.580  25.239  1.00  0.00    -0.237 OA
ATOM     93  O   UNL A   1      53.869  25.628  23.927  1.00  0.00    -0.237 OA
ATOM     94  O   UNL A   1      54.564  25.502  26.289  1.00  0.00    -0.744 OA
ENDBRANCH  90  91
ENDBRANCH  58  83
ENDBRANCH  32  33
ENDBRANCH  25  27
ENDBRANCH  24  25
ENDBRANCH   1  24
TORSDOF 16
ENDMDL
