MODEL 1
REMARK VINA RESULT:     -11.1      0.000      0.000
REMARK SMILES COc1ccc(OCCNc2c(Cl)cccc2C(=O)OCCOC(=O)c2ccc(-c3c4nc(c(-c5c(F)cc(S(=O)(=O)[O-])cc5F)c5ccc([nH]5)c(-c5c(F)cc(S(=O)(=O)[O-])cc5F)c5nc(c(-c6c(F)cc(S(=O)(=O)[O-])cc6F)c6ccc3[nH]6)C=C5)C=C4)cc2)cc1
REMARK SMILES IDX 20 1 18 2 19 3 17 4 11 5 12 6 13 7 14 8 16 9 15 10 10 11
REMARK SMILES IDX 9 13 8 14 7 15 6 16 3 17 4 18 93 19 5 20 92 21 2 22 1 23
REMARK SMILES IDX 21 24 22 25 23 26 24 27 25 28 26 29 27 30 91 31 28 32 90 33
REMARK SMILES IDX 29 34 30 35 31 36 84 37 32 38 89 39 83 40 85 41 33 42 88 43
REMARK SMILES IDX 82 44 81 45 34 47 68 48 47 49 67 50 48 51 51 52 66 53 86 54
REMARK SMILES IDX 49 55 50 56 65 58 87 59 52 60 35 61 36 62 45 63 37 64 38 65
REMARK SMILES IDX 44 66 46 67 39 68 40 69 41 70 42 71 43 72 69 73 70 74 79 75
REMARK SMILES IDX 71 76 72 77 78 78 80 79 73 80 74 81 75 82 76 83 77 84 53 85
REMARK SMILES IDX 54 86 63 87 55 88 56 89 62 90 64 91 57 92 58 93 59 94 60 95
REMARK SMILES IDX 61 96
REMARK H PARENT 10 12 85 46 51 57
REMARK Flexibility Score: inf
ROOT
ATOM      1  O   UNL A   1      32.098  29.182  25.833  1.00  0.00    -0.458 OA
ENDROOT
BRANCH   1   2
ATOM      2  C   UNL A   1      31.857  27.945  26.334  1.00  0.00     0.340 C 
ATOM      3  O   UNL A   1      31.273  27.687  27.370  1.00  0.00    -0.246 OA
BRANCH   2   4
ATOM      4  C   UNL A   1      32.380  26.866  25.471  1.00  0.00     0.084 A 
ATOM      5  C   UNL A   1      31.948  26.696  24.151  1.00  0.00     0.068 A 
ATOM      6  C   UNL A   1      32.779  25.889  23.323  1.00  0.00     0.065 A 
ATOM      7  Cl  UNL A   1      32.513  25.764  21.614  1.00  0.00    -0.082 Cl
ATOM      8  C   UNL A   1      33.899  25.204  23.805  1.00  0.00     0.023 A 
ATOM      9  C   UNL A   1      33.498  26.156  25.952  1.00  0.00     0.018 A 
ATOM     10  C   UNL A   1      34.237  25.305  25.138  1.00  0.00     0.003 A 
BRANCH   5  11
ATOM     11  N   UNL A   1      30.695  27.056  23.673  1.00  0.00    -0.380 N 
ATOM     12  H   UNL A   1      30.657  27.923  23.210  1.00  0.00     0.160 HD
BRANCH  11  13
ATOM     13  C   UNL A   1      29.431  26.339  23.755  1.00  0.00     0.154 C 
BRANCH  13  14
ATOM     14  C   UNL A   1      28.246  27.335  23.742  1.00  0.00     0.250 C 
BRANCH  14  15
ATOM     15  O   UNL A   1      28.086  28.062  22.506  1.00  0.00    -0.492 OA
BRANCH  15  16
ATOM     16  C   UNL A   1      27.955  29.422  22.548  1.00  0.00     0.119 A 
ATOM     17  C   UNL A   1      28.160  32.221  22.604  1.00  0.00     0.119 A 
ATOM     18  C   UNL A   1      28.516  31.516  21.457  1.00  0.00     0.050 A 
ATOM     19  C   UNL A   1      27.576  31.541  23.665  1.00  0.00     0.050 A 
ATOM     20  C   UNL A   1      28.429  30.118  21.436  1.00  0.00     0.050 A 
ATOM     21  C   UNL A   1      27.431  30.150  23.610  1.00  0.00     0.050 A 
BRANCH  17  22
ATOM     22  O   UNL A   1      28.338  33.578  22.592  1.00  0.00    -0.497 OA
ATOM     23  C   UNL A   1      29.450  34.012  23.380  1.00  0.00     0.278 C 
ENDBRANCH  17  22
ENDBRANCH  15  16
ENDBRANCH  14  15
ENDBRANCH  13  14
ENDBRANCH  11  13
ENDBRANCH   5  11
ENDBRANCH   2   4
ENDBRANCH   1   2
BRANCH   1  24
ATOM     24  C   UNL A   1      31.849  30.276  26.744  1.00  0.00     0.275 C 
BRANCH  24  25
ATOM     25  C   UNL A   1      33.143  30.993  27.120  1.00  0.00     0.275 C 
BRANCH  25  26
ATOM     26  O   UNL A   1      33.902  30.170  28.017  1.00  0.00    -0.458 OA
BRANCH  26  27
ATOM     27  C   UNL A   1      34.814  30.836  28.753  1.00  0.00     0.338 C 
ATOM     28  O   UNL A   1      34.635  31.826  29.450  1.00  0.00    -0.246 OA
BRANCH  27  29
ATOM     29  C   UNL A   1      36.094  30.126  28.712  1.00  0.00     0.060 A 
ATOM     30  C   UNL A   1      36.602  29.639  29.907  1.00  0.00     0.016 A 
ATOM     31  C   UNL A   1      36.878  30.133  27.564  1.00  0.00     0.016 A 
ATOM     32  C   UNL A   1      37.955  29.345  30.014  1.00  0.00     0.010 A 
ATOM     33  C   UNL A   1      38.194  29.665  27.639  1.00  0.00     0.010 A 
ATOM     34  C   UNL A   1      38.771  29.323  28.878  1.00  0.00    -0.014 A 
BRANCH  34  35
ATOM     35  C   UNL A   1      40.218  28.976  28.982  1.00  0.00     0.031 A 
ATOM     36  C   UNL A   1      41.216  30.027  29.406  1.00  0.00     0.074 A 
ATOM     37  C   UNL A   1      40.647  27.728  28.697  1.00  0.00     0.049 A 
ATOM     38  N   UNL A   1      42.519  30.024  29.295  1.00  0.00    -0.248 NA
ATOM     39  C   UNL A   1      40.673  31.255  30.014  1.00  0.00     0.031 C 
ATOM     40  C   UNL A   1      39.794  26.593  28.334  1.00  0.00     0.029 A 
ATOM     41  N   UNL A   1      41.916  27.200  28.663  1.00  0.00    -0.354 N 
ATOM     42  C   UNL A   1      42.944  31.272  29.742  1.00  0.00     0.074 A 
ATOM     43  C   UNL A   1      41.760  32.006  30.131  1.00  0.00     0.031 C 
ATOM     44  C   UNL A   1      40.551  25.501  28.160  1.00  0.00     0.029 A 
ATOM     45  C   UNL A   1      41.951  25.882  28.267  1.00  0.00     0.049 A 
ATOM     46  H   UNL A   1      42.722  27.715  28.900  1.00  0.00     0.167 HD
ATOM     47  C   UNL A   1      44.208  31.756  29.813  1.00  0.00     0.037 A 
ATOM     48  C   UNL A   1      42.986  25.083  27.949  1.00  0.00     0.037 A 
ATOM     49  C   UNL A   1      45.378  30.982  29.484  1.00  0.00     0.049 A 
ATOM     50  C   UNL A   1      44.375  25.651  27.998  1.00  0.00     0.074 A 
ATOM     51  C   UNL A   1      46.707  31.367  29.529  1.00  0.00     0.029 A 
ATOM     52  N   UNL A   1      45.360  29.657  29.070  1.00  0.00    -0.354 N 
ATOM     53  N   UNL A   1      44.758  26.858  28.341  1.00  0.00    -0.248 NA
ATOM     54  C   UNL A   1      45.469  24.760  27.593  1.00  0.00     0.031 C 
ATOM     55  C   UNL A   1      47.489  30.287  29.108  1.00  0.00     0.029 A 
ATOM     56  C   UNL A   1      46.653  29.213  28.848  1.00  0.00     0.049 A 
ATOM     57  H   UNL A   1      44.549  29.114  28.952  1.00  0.00     0.167 HD
ATOM     58  C   UNL A   1      46.141  26.867  28.209  1.00  0.00     0.074 A 
ATOM     59  C   UNL A   1      46.526  25.540  27.773  1.00  0.00     0.031 C 
ATOM     60  C   UNL A   1      47.012  27.882  28.425  1.00  0.00     0.037 A 
BRANCH  47  61
ATOM     61  C   UNL A   1      44.396  33.193  30.225  1.00  0.00     0.058 A 
ATOM     62  C   UNL A   1      44.380  34.248  29.300  1.00  0.00     0.135 A 
ATOM     63  C   UNL A   1      44.551  33.521  31.583  1.00  0.00     0.135 A 
ATOM     64  F   UNL A   1      44.253  33.994  27.987  1.00  0.00    -0.206 F 
ATOM     65  C   UNL A   1      44.535  35.573  29.702  1.00  0.00     0.059 A 
ATOM     66  C   UNL A   1      44.680  34.840  32.011  1.00  0.00     0.059 A 
ATOM     67  F   UNL A   1      44.576  32.553  32.513  1.00  0.00    -0.206 F 
ATOM     68  C   UNL A   1      44.683  35.858  31.061  1.00  0.00     0.060 A 
BRANCH  68  69
ATOM     69  S   UNL A   1      44.870  37.582  31.567  1.00  0.00     0.124 S 
ATOM     70  O   UNL A   1      44.542  38.286  30.330  1.00  0.00    -0.237 OA
ATOM     71  O   UNL A   1      43.891  37.701  32.641  1.00  0.00    -0.237 OA
ATOM     72  O   UNL A   1      46.267  37.665  31.983  1.00  0.00    -0.744 OA
ENDBRANCH  68  69
ENDBRANCH  47  61
BRANCH  48  73
ATOM     73  C   UNL A   1      42.738  23.688  27.493  1.00  0.00     0.058 A 
ATOM     74  C   UNL A   1      42.638  23.380  26.130  1.00  0.00     0.135 A 
ATOM     75  C   UNL A   1      42.619  22.630  28.411  1.00  0.00     0.135 A 
ATOM     76  F   UNL A   1      42.735  24.356  25.213  1.00  0.00    -0.206 F 
ATOM     77  C   UNL A   1      42.419  22.078  25.691  1.00  0.00     0.059 A 
ATOM     78  C   UNL A   1      42.434  21.315  27.996  1.00  0.00     0.059 A 
ATOM     79  F   UNL A   1      42.722  22.866  29.728  1.00  0.00    -0.206 F 
ATOM     80  C   UNL A   1      42.323  21.051  26.632  1.00  0.00     0.060 A 
BRANCH  80  81
ATOM     81  S   UNL A   1      42.087  19.359  26.051  1.00  0.00     0.124 S 
ATOM     82  O   UNL A   1      40.642  19.315  25.857  1.00  0.00    -0.237 OA
ATOM     83  O   UNL A   1      42.895  19.334  24.836  1.00  0.00    -0.237 OA
ATOM     84  O   UNL A   1      42.601  18.551  27.153  1.00  0.00    -0.744 OA
ENDBRANCH  80  81
ENDBRANCH  48  73
BRANCH  60  85
ATOM     85  C   UNL A   1      48.472  27.579  28.239  1.00  0.00     0.058 A 
ATOM     86  C   UNL A   1      49.229  26.956  29.241  1.00  0.00     0.135 A 
ATOM     87  C   UNL A   1      49.106  27.884  27.025  1.00  0.00     0.135 A 
ATOM     88  F   UNL A   1      48.670  26.655  30.424  1.00  0.00    -0.206 F 
ATOM     89  C   UNL A   1      50.576  26.665  29.054  1.00  0.00     0.059 A 
ATOM     90  C   UNL A   1      50.444  27.576  26.805  1.00  0.00     0.059 A 
ATOM     91  F   UNL A   1      48.420  28.473  26.032  1.00  0.00    -0.206 F 
ATOM     92  C   UNL A   1      51.174  26.978  27.831  1.00  0.00     0.060 A 
BRANCH  92  93
ATOM     93  S   UNL A   1      52.914  26.566  27.589  1.00  0.00     0.124 S 
ATOM     94  O   UNL A   1      52.818  25.288  26.892  1.00  0.00    -0.237 OA
ATOM     95  O   UNL A   1      53.393  27.690  26.789  1.00  0.00    -0.237 OA
ATOM     96  O   UNL A   1      53.440  26.504  28.948  1.00  0.00    -0.744 OA
ENDBRANCH  92  93
ENDBRANCH  60  85
ENDBRANCH  34  35
ENDBRANCH  27  29
ENDBRANCH  26  27
ENDBRANCH  25  26
ENDBRANCH  24  25
ENDBRANCH   1  24
TORSDOF 20
ENDMDL
MODEL 2
REMARK VINA RESULT:     -10.9      4.164      9.677
REMARK SMILES COc1ccc(OCCNc2c(Cl)cccc2C(=O)OCCOC(=O)c2ccc(-c3c4nc(c(-c5c(F)cc(S(=O)(=O)[O-])cc5F)c5ccc([nH]5)c(-c5c(F)cc(S(=O)(=O)[O-])cc5F)c5nc(c(-c6c(F)cc(S(=O)(=O)[O-])cc6F)c6ccc3[nH]6)C=C5)C=C4)cc2)cc1
REMARK SMILES IDX 20 1 18 2 19 3 17 4 11 5 12 6 13 7 14 8 16 9 15 10 10 11
REMARK SMILES IDX 9 13 8 14 7 15 6 16 3 17 4 18 93 19 5 20 92 21 2 22 1 23
REMARK SMILES IDX 21 24 22 25 23 26 24 27 25 28 26 29 27 30 91 31 28 32 90 33
REMARK SMILES IDX 29 34 30 35 31 36 84 37 32 38 89 39 83 40 85 41 33 42 88 43
REMARK SMILES IDX 82 44 81 45 34 47 68 48 47 49 67 50 48 51 51 52 66 53 86 54
REMARK SMILES IDX 49 55 50 56 65 58 87 59 52 60 35 61 36 62 45 63 37 64 38 65
REMARK SMILES IDX 44 66 46 67 39 68 40 69 41 70 42 71 43 72 69 73 70 74 79 75
REMARK SMILES IDX 71 76 72 77 78 78 80 79 73 80 74 81 75 82 76 83 77 84 53 85
REMARK SMILES IDX 54 86 63 87 55 88 56 89 62 90 64 91 57 92 58 93 59 94 60 95
REMARK SMILES IDX 61 96
REMARK H PARENT 10 12 85 46 51 57
REMARK Flexibility Score: inf
ROOT
ATOM      1  O   UNL A   1      34.028  23.574  24.372  1.00  0.00    -0.458 OA
ENDROOT
BRANCH   1   2
ATOM      2  C   UNL A   1      33.441  24.172  23.307  1.00  0.00     0.340 C 
ATOM      3  O   UNL A   1      32.997  23.615  22.320  1.00  0.00    -0.246 OA
BRANCH   2   4
ATOM      4  C   UNL A   1      33.365  25.641  23.445  1.00  0.00     0.084 A 
ATOM      5  C   UNL A   1      33.370  26.270  24.695  1.00  0.00     0.068 A 
ATOM      6  C   UNL A   1      33.673  27.662  24.690  1.00  0.00     0.065 A 
ATOM      7  Cl  UNL A   1      33.942  28.538  26.162  1.00  0.00    -0.082 Cl
ATOM      8  C   UNL A   1      33.846  28.400  23.515  1.00  0.00     0.023 A 
ATOM      9  C   UNL A   1      33.522  26.397  22.266  1.00  0.00     0.018 A 
ATOM     10  C   UNL A   1      33.728  27.771  22.293  1.00  0.00     0.003 A 
BRANCH   5  11
ATOM     11  N   UNL A   1      32.891  25.706  25.869  1.00  0.00    -0.380 N 
ATOM     12  H   UNL A   1      33.497  25.769  26.642  1.00  0.00     0.160 HD
BRANCH  11  13
ATOM     13  C   UNL A   1      31.624  25.036  26.127  1.00  0.00     0.154 C 
BRANCH  13  14
ATOM     14  C   UNL A   1      30.442  25.992  25.835  1.00  0.00     0.250 C 
BRANCH  14  15
ATOM     15  O   UNL A   1      29.747  25.728  24.598  1.00  0.00    -0.492 OA
BRANCH  15  16
ATOM     16  C   UNL A   1      29.184  26.771  23.917  1.00  0.00     0.119 A 
ATOM     17  C   UNL A   1      28.248  29.186  22.834  1.00  0.00     0.119 A 
ATOM     18  C   UNL A   1      29.604  28.874  22.782  1.00  0.00     0.050 A 
ATOM     19  C   UNL A   1      27.350  28.233  23.300  1.00  0.00     0.050 A 
ATOM     20  C   UNL A   1      30.072  27.676  23.338  1.00  0.00     0.050 A 
ATOM     21  C   UNL A   1      27.820  27.010  23.793  1.00  0.00     0.050 A 
BRANCH  17  22
ATOM     22  O   UNL A   1      27.860  30.403  22.344  1.00  0.00    -0.497 OA
ATOM     23  C   UNL A   1      28.559  30.786  21.157  1.00  0.00     0.278 C 
ENDBRANCH  17  22
ENDBRANCH  15  16
ENDBRANCH  14  15
ENDBRANCH  13  14
ENDBRANCH  11  13
ENDBRANCH   5  11
ENDBRANCH   2   4
ENDBRANCH   1   2
BRANCH   1  24
ATOM     24  C   UNL A   1      35.436  23.283  24.219  1.00  0.00     0.275 C 
BRANCH  24  25
ATOM     25  C   UNL A   1      36.207  23.566  25.505  1.00  0.00     0.275 C 
BRANCH  25  26
ATOM     26  O   UNL A   1      37.514  24.061  25.180  1.00  0.00    -0.458 OA
BRANCH  26  27
ATOM     27  C   UNL A   1      38.526  23.418  25.795  1.00  0.00     0.338 C 
ATOM     28  O   UNL A   1      38.895  22.264  25.623  1.00  0.00    -0.246 OA
BRANCH  27  29
ATOM     29  C   UNL A   1      39.250  24.352  26.659  1.00  0.00     0.060 A 
ATOM     30  C   UNL A   1      38.970  24.326  28.018  1.00  0.00     0.016 A 
ATOM     31  C   UNL A   1      40.019  25.376  26.119  1.00  0.00     0.016 A 
ATOM     32  C   UNL A   1      39.284  25.423  28.810  1.00  0.00     0.010 A 
ATOM     33  C   UNL A   1      40.485  26.391  26.960  1.00  0.00     0.010 A 
ATOM     34  C   UNL A   1      40.072  26.463  28.305  1.00  0.00    -0.014 A 
BRANCH  34  35
ATOM     35  C   UNL A   1      40.439  27.629  29.160  1.00  0.00     0.031 A 
ATOM     36  C   UNL A   1      41.716  27.600  29.966  1.00  0.00     0.074 A 
ATOM     37  C   UNL A   1      39.637  28.714  29.224  1.00  0.00     0.049 A 
ATOM     38  N   UNL A   1      42.081  28.360  30.966  1.00  0.00    -0.248 NA
ATOM     39  C   UNL A   1      42.701  26.562  29.617  1.00  0.00     0.031 C 
ATOM     40  C   UNL A   1      38.405  28.912  28.455  1.00  0.00     0.029 A 
ATOM     41  N   UNL A   1      39.735  29.860  29.975  1.00  0.00    -0.354 N 
ATOM     42  C   UNL A   1      43.295  27.845  31.414  1.00  0.00     0.074 A 
ATOM     43  C   UNL A   1      43.606  26.710  30.574  1.00  0.00     0.031 C 
ATOM     44  C   UNL A   1      37.889  30.115  28.737  1.00  0.00     0.029 A 
ATOM     45  C   UNL A   1      38.675  30.721  29.801  1.00  0.00     0.049 A 
ATOM     46  H   UNL A   1      40.490  30.048  30.579  1.00  0.00     0.167 HD
ATOM     47  C   UNL A   1      44.068  28.282  32.437  1.00  0.00     0.037 A 
ATOM     48  C   UNL A   1      38.324  31.837  30.469  1.00  0.00     0.037 A 
ATOM     49  C   UNL A   1      43.771  29.457  33.217  1.00  0.00     0.049 A 
ATOM     50  C   UNL A   1      39.175  32.281  31.624  1.00  0.00     0.074 A 
ATOM     51  C   UNL A   1      44.490  29.998  34.269  1.00  0.00     0.029 A 
ATOM     52  N   UNL A   1      42.676  30.286  33.014  1.00  0.00    -0.354 N 
ATOM     53  N   UNL A   1      40.274  31.738  32.092  1.00  0.00    -0.248 NA
ATOM     54  C   UNL A   1      38.727  33.471  32.356  1.00  0.00     0.031 C 
ATOM     55  C   UNL A   1      43.810  31.132  34.725  1.00  0.00     0.029 A 
ATOM     56  C   UNL A   1      42.695  31.327  33.926  1.00  0.00     0.049 A 
ATOM     57  H   UNL A   1      41.988  30.152  32.323  1.00  0.00     0.167 HD
ATOM     58  C   UNL A   1      40.659  32.531  33.165  1.00  0.00     0.074 A 
ATOM     59  C   UNL A   1      39.685  33.600  33.264  1.00  0.00     0.031 C 
ATOM     60  C   UNL A   1      41.720  32.387  33.996  1.00  0.00     0.037 A 
BRANCH  47  61
ATOM     61  C   UNL A   1      45.287  27.474  32.801  1.00  0.00     0.058 A 
ATOM     62  C   UNL A   1      46.534  27.682  32.192  1.00  0.00     0.135 A 
ATOM     63  C   UNL A   1      45.211  26.502  33.812  1.00  0.00     0.135 A 
ATOM     64  F   UNL A   1      46.665  28.585  31.207  1.00  0.00    -0.206 F 
ATOM     65  C   UNL A   1      47.656  26.939  32.556  1.00  0.00     0.059 A 
ATOM     66  C   UNL A   1      46.324  25.767  34.212  1.00  0.00     0.059 A 
ATOM     67  F   UNL A   1      44.043  26.258  34.429  1.00  0.00    -0.206 F 
ATOM     68  C   UNL A   1      47.540  25.984  33.569  1.00  0.00     0.060 A 
BRANCH  68  69
ATOM     69  S   UNL A   1      49.006  25.038  34.037  1.00  0.00     0.124 S 
ATOM     70  O   UNL A   1      48.419  23.972  34.844  1.00  0.00    -0.237 OA
ATOM     71  O   UNL A   1      49.540  24.630  32.742  1.00  0.00    -0.237 OA
ATOM     72  O   UNL A   1      49.816  26.007  34.770  1.00  0.00    -0.744 OA
ENDBRANCH  68  69
ENDBRANCH  47  61
BRANCH  48  73
ATOM     73  C   UNL A   1      37.078  32.563  30.103  1.00  0.00     0.058 A 
ATOM     74  C   UNL A   1      35.872  32.312  30.773  1.00  0.00     0.135 A 
ATOM     75  C   UNL A   1      37.072  33.540  29.093  1.00  0.00     0.135 A 
ATOM     76  F   UNL A   1      35.823  31.382  31.739  1.00  0.00    -0.206 F 
ATOM     77  C   UNL A   1      34.703  32.995  30.449  1.00  0.00     0.059 A 
ATOM     78  C   UNL A   1      35.925  34.260  28.775  1.00  0.00     0.059 A 
ATOM     79  F   UNL A   1      38.202  33.831  28.431  1.00  0.00    -0.206 F 
ATOM     80  C   UNL A   1      34.741  33.970  29.451  1.00  0.00     0.060 A 
BRANCH  80  81
ATOM     81  S   UNL A   1      33.231  34.883  29.071  1.00  0.00     0.124 S 
ATOM     82  O   UNL A   1      32.586  34.937  30.377  1.00  0.00    -0.237 OA
ATOM     83  O   UNL A   1      33.755  36.148  28.564  1.00  0.00    -0.237 OA
ATOM     84  O   UNL A   1      32.573  34.043  28.074  1.00  0.00    -0.744 OA
ENDBRANCH  80  81
ENDBRANCH  48  73
BRANCH  60  85
ATOM     85  C   UNL A   1      41.906  33.438  35.053  1.00  0.00     0.058 A 
ATOM     86  C   UNL A   1      42.623  34.617  34.803  1.00  0.00     0.135 A 
ATOM     87  C   UNL A   1      41.324  33.275  36.320  1.00  0.00     0.135 A 
ATOM     88  F   UNL A   1      43.208  34.813  33.610  1.00  0.00    -0.206 F 
ATOM     89  C   UNL A   1      42.777  35.591  35.783  1.00  0.00     0.059 A 
ATOM     90  C   UNL A   1      41.441  34.249  37.305  1.00  0.00     0.059 A 
ATOM     91  F   UNL A   1      40.621  32.167  36.605  1.00  0.00    -0.206 F 
ATOM     92  C   UNL A   1      42.180  35.398  37.031  1.00  0.00     0.060 A 
BRANCH  92  93
ATOM     93  S   UNL A   1      42.360  36.685  38.283  1.00  0.00     0.124 S 
ATOM     94  O   UNL A   1      43.288  37.602  37.630  1.00  0.00    -0.237 OA
ATOM     95  O   UNL A   1      40.991  37.168  38.433  1.00  0.00    -0.237 OA
ATOM     96  O   UNL A   1      42.893  35.965  39.435  1.00  0.00    -0.744 OA
ENDBRANCH  92  93
ENDBRANCH  60  85
ENDBRANCH  34  35
ENDBRANCH  27  29
ENDBRANCH  26  27
ENDBRANCH  25  26
ENDBRANCH  24  25
ENDBRANCH   1  24
TORSDOF 20
ENDMDL
MODEL 3
REMARK VINA RESULT:     -10.8      2.145      4.683
REMARK SMILES COc1ccc(OCCNc2c(Cl)cccc2C(=O)OCCOC(=O)c2ccc(-c3c4nc(c(-c5c(F)cc(S(=O)(=O)[O-])cc5F)c5ccc([nH]5)c(-c5c(F)cc(S(=O)(=O)[O-])cc5F)c5nc(c(-c6c(F)cc(S(=O)(=O)[O-])cc6F)c6ccc3[nH]6)C=C5)C=C4)cc2)cc1
REMARK SMILES IDX 20 1 18 2 19 3 17 4 11 5 12 6 13 7 14 8 16 9 15 10 10 11
REMARK SMILES IDX 9 13 8 14 7 15 6 16 3 17 4 18 93 19 5 20 92 21 2 22 1 23
REMARK SMILES IDX 21 24 22 25 23 26 24 27 25 28 26 29 27 30 91 31 28 32 90 33
REMARK SMILES IDX 29 34 30 35 31 36 84 37 32 38 89 39 83 40 85 41 33 42 88 43
REMARK SMILES IDX 82 44 81 45 34 47 68 48 47 49 67 50 48 51 51 52 66 53 86 54
REMARK SMILES IDX 49 55 50 56 65 58 87 59 52 60 35 61 36 62 45 63 37 64 38 65
REMARK SMILES IDX 44 66 46 67 39 68 40 69 41 70 42 71 43 72 69 73 70 74 79 75
REMARK SMILES IDX 71 76 72 77 78 78 80 79 73 80 74 81 75 82 76 83 77 84 53 85
REMARK SMILES IDX 54 86 63 87 55 88 56 89 62 90 64 91 57 92 58 93 59 94 60 95
REMARK SMILES IDX 61 96
REMARK H PARENT 10 12 85 46 51 57
REMARK Flexibility Score: inf
ROOT
ATOM      1  O   UNL A   1      33.221  29.821  26.542  1.00  0.00    -0.458 OA
ENDROOT
BRANCH   1   2
ATOM      2  C   UNL A   1      32.100  29.067  26.659  1.00  0.00     0.340 C 
ATOM      3  O   UNL A   1      31.562  28.730  27.697  1.00  0.00    -0.246 OA
BRANCH   2   4
ATOM      4  C   UNL A   1      31.539  28.669  25.352  1.00  0.00     0.084 A 
ATOM      5  C   UNL A   1      31.312  27.329  25.018  1.00  0.00     0.068 A 
ATOM      6  C   UNL A   1      30.437  27.101  23.918  1.00  0.00     0.065 A 
ATOM      7  Cl  UNL A   1      29.874  25.510  23.520  1.00  0.00    -0.082 Cl
ATOM      8  C   UNL A   1      29.916  28.133  23.132  1.00  0.00     0.023 A 
ATOM      9  C   UNL A   1      31.025  29.701  24.542  1.00  0.00     0.018 A 
ATOM     10  C   UNL A   1      30.246  29.441  23.421  1.00  0.00     0.003 A 
BRANCH   5  11
ATOM     11  N   UNL A   1      32.033  26.254  25.518  1.00  0.00    -0.380 N 
ATOM     12  H   UNL A   1      31.950  26.107  26.488  1.00  0.00     0.160 HD
BRANCH  11  13
ATOM     13  C   UNL A   1      32.894  25.310  24.820  1.00  0.00     0.154 C 
BRANCH  13  14
ATOM     14  C   UNL A   1      33.168  24.072  25.710  1.00  0.00     0.250 C 
BRANCH  14  15
ATOM     15  O   UNL A   1      33.679  22.925  25.001  1.00  0.00    -0.492 OA
BRANCH  15  16
ATOM     16  C   UNL A   1      35.020  22.658  25.048  1.00  0.00     0.119 A 
ATOM     17  C   UNL A   1      37.660  21.815  25.498  1.00  0.00     0.119 A 
ATOM     18  C   UNL A   1      36.713  20.921  25.004  1.00  0.00     0.050 A 
ATOM     19  C   UNL A   1      37.320  23.156  25.633  1.00  0.00     0.050 A 
ATOM     20  C   UNL A   1      35.392  21.338  24.796  1.00  0.00     0.050 A 
ATOM     21  C   UNL A   1      36.014  23.579  25.360  1.00  0.00     0.050 A 
BRANCH  17  22
ATOM     22  O   UNL A   1      38.914  21.332  25.752  1.00  0.00    -0.497 OA
ATOM     23  C   UNL A   1      39.712  22.214  26.545  1.00  0.00     0.278 C 
ENDBRANCH  17  22
ENDBRANCH  15  16
ENDBRANCH  14  15
ENDBRANCH  13  14
ENDBRANCH  11  13
ENDBRANCH   5  11
ENDBRANCH   2   4
ENDBRANCH   1   2
BRANCH   1  24
ATOM     24  C   UNL A   1      33.198  31.077  27.258  1.00  0.00     0.275 C 
BRANCH  24  25
ATOM     25  C   UNL A   1      34.599  31.493  27.697  1.00  0.00     0.275 C 
BRANCH  25  26
ATOM     26  O   UNL A   1      35.286  30.357  28.242  1.00  0.00    -0.458 OA
BRANCH  26  27
ATOM     27  C   UNL A   1      36.211  30.657  29.176  1.00  0.00     0.338 C 
ATOM     28  O   UNL A   1      36.074  31.362  30.166  1.00  0.00    -0.246 OA
BRANCH  27  29
ATOM     29  C   UNL A   1      37.437  29.899  28.916  1.00  0.00     0.060 A 
ATOM     30  C   UNL A   1      38.163  29.449  30.009  1.00  0.00     0.016 A 
ATOM     31  C   UNL A   1      37.973  29.826  27.636  1.00  0.00     0.016 A 
ATOM     32  C   UNL A   1      39.502  29.111  29.858  1.00  0.00     0.010 A 
ATOM     33  C   UNL A   1      39.265  29.314  27.470  1.00  0.00     0.010 A 
ATOM     34  C   UNL A   1      40.070  29.008  28.584  1.00  0.00    -0.014 A 
BRANCH  34  35
ATOM     35  C   UNL A   1      41.499  28.614  28.414  1.00  0.00     0.031 A 
ATOM     36  C   UNL A   1      42.586  29.657  28.516  1.00  0.00     0.074 A 
ATOM     37  C   UNL A   1      41.832  27.329  28.166  1.00  0.00     0.049 A 
ATOM     38  N   UNL A   1      43.835  29.592  28.133  1.00  0.00    -0.248 NA
ATOM     39  C   UNL A   1      42.210  30.955  29.103  1.00  0.00     0.031 C 
ATOM     40  C   UNL A   1      40.898  26.201  28.103  1.00  0.00     0.029 A 
ATOM     41  N   UNL A   1      43.053  26.750  27.918  1.00  0.00    -0.354 N 
ATOM     42  C   UNL A   1      44.370  30.857  28.359  1.00  0.00     0.074 A 
ATOM     43  C   UNL A   1      43.312  31.670  28.915  1.00  0.00     0.031 C 
ATOM     44  C   UNL A   1      41.578  25.068  27.879  1.00  0.00     0.029 A 
ATOM     45  C   UNL A   1      42.976  25.401  27.652  1.00  0.00     0.049 A 
ATOM     46  H   UNL A   1      43.901  27.250  27.929  1.00  0.00     0.167 HD
ATOM     47  C   UNL A   1      45.630  31.294  28.114  1.00  0.00     0.037 A 
ATOM     48  C   UNL A   1      43.903  24.535  27.201  1.00  0.00     0.037 A 
ATOM     49  C   UNL A   1      46.687  30.447  27.623  1.00  0.00     0.049 A 
ATOM     50  C   UNL A   1      45.282  25.049  26.901  1.00  0.00     0.074 A 
ATOM     51  C   UNL A   1      48.003  30.781  27.350  1.00  0.00     0.029 A 
ATOM     52  N   UNL A   1      46.554  29.092  27.351  1.00  0.00    -0.354 N 
ATOM     53  N   UNL A   1      45.753  26.266  27.038  1.00  0.00    -0.248 NA
ATOM     54  C   UNL A   1      46.246  24.082  26.363  1.00  0.00     0.031 C 
ATOM     55  C   UNL A   1      48.655  29.636  26.879  1.00  0.00     0.029 A 
ATOM     56  C   UNL A   1      47.760  28.578  26.906  1.00  0.00     0.049 A 
ATOM     57  H   UNL A   1      45.725  28.574  27.459  1.00  0.00     0.167 HD
ATOM     58  C   UNL A   1      47.076  26.207  26.618  1.00  0.00     0.074 A 
ATOM     59  C   UNL A   1      47.332  24.831  26.240  1.00  0.00     0.031 C 
ATOM     60  C   UNL A   1      47.994  27.201  26.547  1.00  0.00     0.037 A 
BRANCH  47  61
ATOM     61  C   UNL A   1      45.931  32.753  28.337  1.00  0.00     0.058 A 
ATOM     62  C   UNL A   1      45.718  33.724  27.347  1.00  0.00     0.135 A 
ATOM     63  C   UNL A   1      46.401  33.192  29.587  1.00  0.00     0.135 A 
ATOM     64  F   UNL A   1      45.286  33.363  26.128  1.00  0.00    -0.206 F 
ATOM     65  C   UNL A   1      45.982  35.072  27.578  1.00  0.00     0.059 A 
ATOM     66  C   UNL A   1      46.646  34.537  29.850  1.00  0.00     0.059 A 
ATOM     67  F   UNL A   1      46.625  32.308  30.573  1.00  0.00    -0.206 F 
ATOM     68  C   UNL A   1      46.445  35.469  28.835  1.00  0.00     0.060 A 
BRANCH  68  69
ATOM     69  S   UNL A   1      46.771  37.222  29.122  1.00  0.00     0.124 S 
ATOM     70  O   UNL A   1      46.448  37.350  30.540  1.00  0.00    -0.237 OA
ATOM     71  O   UNL A   1      48.186  37.336  28.783  1.00  0.00    -0.237 OA
ATOM     72  O   UNL A   1      45.854  37.894  28.207  1.00  0.00    -0.744 OA
ENDBRANCH  68  69
ENDBRANCH  47  61
BRANCH  48  73
ATOM     73  C   UNL A   1      43.535  23.116  26.945  1.00  0.00     0.058 A 
ATOM     74  C   UNL A   1      43.409  22.627  25.637  1.00  0.00     0.135 A 
ATOM     75  C   UNL A   1      43.324  22.213  28.002  1.00  0.00     0.135 A 
ATOM     76  F   UNL A   1      43.591  23.451  24.593  1.00  0.00    -0.206 F 
ATOM     77  C   UNL A   1      43.079  21.299  25.384  1.00  0.00     0.059 A 
ATOM     78  C   UNL A   1      43.027  20.874  27.774  1.00  0.00     0.059 A 
ATOM     79  F   UNL A   1      43.447  22.625  29.273  1.00  0.00    -0.206 F 
ATOM     80  C   UNL A   1      42.893  20.429  26.460  1.00  0.00     0.060 A 
BRANCH  80  81
ATOM     81  S   UNL A   1      42.512  18.698  26.122  1.00  0.00     0.124 S 
ATOM     82  O   UNL A   1      42.803  18.077  27.409  1.00  0.00    -0.237 OA
ATOM     83  O   UNL A   1      41.103  18.760  25.747  1.00  0.00    -0.237 OA
ATOM     84  O   UNL A   1      43.427  18.358  25.036  1.00  0.00    -0.744 OA
ENDBRANCH  80  81
ENDBRANCH  48  73
BRANCH  60  85
ATOM     85  C   UNL A   1      49.373  26.824  26.088  1.00  0.00     0.058 A 
ATOM     86  C   UNL A   1      50.350  26.367  26.985  1.00  0.00     0.135 A 
ATOM     87  C   UNL A   1      49.705  26.887  24.725  1.00  0.00     0.135 A 
ATOM     88  F   UNL A   1      50.085  26.300  28.299  1.00  0.00    -0.206 F 
ATOM     89  C   UNL A   1      51.620  26.005  26.548  1.00  0.00     0.059 A 
ATOM     90  C   UNL A   1      50.959  26.503  24.263  1.00  0.00     0.059 A 
ATOM     91  F   UNL A   1      48.801  27.310  23.827  1.00  0.00    -0.206 F 
ATOM     92  C   UNL A   1      51.914  26.076  25.184  1.00  0.00     0.060 A 
BRANCH  92  93
ATOM     93  S   UNL A   1      53.554  25.573  24.626  1.00  0.00     0.124 S 
ATOM     94  O   UNL A   1      53.452  24.119  24.688  1.00  0.00    -0.237 OA
ATOM     95  O   UNL A   1      53.619  26.148  23.286  1.00  0.00    -0.237 OA
ATOM     96  O   UNL A   1      54.448  26.182  25.606  1.00  0.00    -0.744 OA
ENDBRANCH  92  93
ENDBRANCH  60  85
ENDBRANCH  34  35
ENDBRANCH  27  29
ENDBRANCH  26  27
ENDBRANCH  25  26
ENDBRANCH  24  25
ENDBRANCH   1  24
TORSDOF 20
ENDMDL
