MODEL 1
REMARK VINA RESULT:     -12.7      0.000      0.000
REMARK SMILES Cc1ccc(Oc2cc(C(=O)OCCOC(=O)c3ccc(-c4c5nc(c(-c6c(F)cc(S(=O)(=O)[O-])cc6F)c6ccc([nH]6)c(-c6c(F)cc(S(=O)(=O)[O-])cc6F)c6nc(c(-c7c(F)cc(S(=O)(=O)[O-])cc7F)c7ccc4[nH]7)C=C6)C=C5)cc3)nc3ccccc23)cc1
REMARK SMILES IDX 14 1 13 2 12 3 10 4 11 5 9 6 7 7 8 8 90 9 85 10 89 11 84 12
REMARK SMILES IDX 86 13 88 14 87 15 6 16 5 17 1 18 2 19 3 20 92 21 4 22 91 23
REMARK SMILES IDX 15 24 16 25 17 26 18 27 19 28 83 29 20 30 82 31 21 32 22 33
REMARK SMILES IDX 23 34 76 35 24 36 81 37 75 38 77 39 25 40 80 41 74 42 73 43
REMARK SMILES IDX 26 45 60 46 39 47 59 48 40 49 43 50 58 51 78 52 41 53 42 54
REMARK SMILES IDX 57 56 79 57 44 58 27 59 28 60 37 61 29 62 30 63 36 64 38 65
REMARK SMILES IDX 31 66 32 67 33 68 34 69 35 70 61 71 62 72 71 73 63 74 64 75
REMARK SMILES IDX 70 76 72 77 65 78 66 79 67 80 68 81 69 82 45 83 46 84 55 85
REMARK SMILES IDX 47 86 48 87 54 88 56 89 49 90 50 91 51 92 52 93 53 94
REMARK H PARENT 77 44 43 55
REMARK Flexibility Score: inf
ROOT
ATOM      1  C   UNL A   1      33.131  28.214  25.933  1.00  0.00     0.275 C 
ENDROOT
BRANCH   1   2
ATOM      2  C   UNL A   1      31.837  27.451  26.265  1.00  0.00     0.275 C 
BRANCH   2   3
ATOM      3  O   UNL A   1      31.976  26.247  27.039  1.00  0.00    -0.457 OA
BRANCH   3   4
ATOM      4  C   UNL A   1      31.381  25.192  26.402  1.00  0.00     0.357 C 
ATOM      5  O   UNL A   1      30.219  24.839  26.587  1.00  0.00    -0.244 OA
BRANCH   4   6
ATOM      6  C   UNL A   1      32.291  24.355  25.568  1.00  0.00     0.152 A 
ATOM      7  C   UNL A   1      32.904  22.502  24.197  1.00  0.00     0.139 A 
ATOM      8  C   UNL A   1      31.895  23.306  24.757  1.00  0.00     0.084 A 
ATOM      9  C   UNL A   1      34.277  22.831  24.382  1.00  0.00     0.043 A 
ATOM     10  C   UNL A   1      34.543  23.901  25.255  1.00  0.00     0.075 A 
ATOM     11  C   UNL A   1      35.393  22.192  23.778  1.00  0.00     0.014 A 
ATOM     12  N   UNL A   1      33.594  24.635  25.827  1.00  0.00    -0.240 NA
ATOM     13  C   UNL A   1      35.849  24.236  25.571  1.00  0.00     0.029 A 
ATOM     14  C   UNL A   1      36.704  22.542  24.107  1.00  0.00     0.001 A 
ATOM     15  C   UNL A   1      36.933  23.558  25.020  1.00  0.00     0.002 A 
BRANCH   7  16
ATOM     16  O   UNL A   1      32.453  21.448  23.423  1.00  0.00    -0.457 OA
BRANCH  16  17
ATOM     17  C   UNL A   1      32.516  20.148  23.885  1.00  0.00     0.127 A 
ATOM     18  C   UNL A   1      32.957  15.979  24.936  1.00  0.00     0.044 C 
ATOM     19  C   UNL A   1      32.783  17.427  24.580  1.00  0.00    -0.051 A 
ATOM     20  C   UNL A   1      32.588  17.804  23.246  1.00  0.00     0.007 A 
ATOM     21  C   UNL A   1      32.783  18.420  25.567  1.00  0.00     0.007 A 
ATOM     22  C   UNL A   1      32.450  19.154  22.904  1.00  0.00     0.047 A 
ATOM     23  C   UNL A   1      32.633  19.773  25.225  1.00  0.00     0.047 A 
ENDBRANCH  16  17
ENDBRANCH   7  16
ENDBRANCH   4   6
ENDBRANCH   3   4
ENDBRANCH   2   3
ENDBRANCH   1   2
BRANCH   1  24
ATOM     24  O   UNL A   1      34.156  28.354  26.940  1.00  0.00    -0.458 OA
BRANCH  24  25
ATOM     25  C   UNL A   1      34.392  29.540  27.554  1.00  0.00     0.338 C 
ATOM     26  O   UNL A   1      33.578  30.428  27.729  1.00  0.00    -0.246 OA
BRANCH  25  27
ATOM     27  C   UNL A   1      35.772  29.667  27.992  1.00  0.00     0.060 A 
ATOM     28  C   UNL A   1      36.768  29.947  27.047  1.00  0.00     0.016 A 
ATOM     29  C   UNL A   1      36.021  29.596  29.361  1.00  0.00     0.016 A 
ATOM     30  C   UNL A   1      38.076  30.095  27.467  1.00  0.00     0.010 A 
ATOM     31  C   UNL A   1      37.296  29.857  29.794  1.00  0.00     0.010 A 
ATOM     32  C   UNL A   1      38.321  29.992  28.834  1.00  0.00    -0.014 A 
BRANCH  32  33
ATOM     33  C   UNL A   1      39.571  29.436  29.315  1.00  0.00     0.031 A 
ATOM     34  C   UNL A   1      39.934  28.038  29.092  1.00  0.00     0.074 A 
ATOM     35  C   UNL A   1      40.402  30.451  29.638  1.00  0.00     0.049 A 
ATOM     36  N   UNL A   1      41.017  27.500  29.526  1.00  0.00    -0.248 NA
ATOM     37  C   UNL A   1      39.073  27.096  28.386  1.00  0.00     0.031 C 
ATOM     38  C   UNL A   1      41.846  30.544  29.658  1.00  0.00     0.029 A 
ATOM     39  N   UNL A   1      39.977  31.687  30.158  1.00  0.00    -0.354 N 
ATOM     40  C   UNL A   1      41.167  26.292  28.871  1.00  0.00     0.074 A 
ATOM     41  C   UNL A   1      39.872  26.027  28.295  1.00  0.00     0.031 C 
ATOM     42  C   UNL A   1      42.188  31.606  30.419  1.00  0.00     0.029 A 
ATOM     43  C   UNL A   1      40.961  32.097  31.049  1.00  0.00     0.049 A 
ATOM     44  H   UNL A   1      39.147  32.166  29.934  1.00  0.00     0.167 HD
ATOM     45  C   UNL A   1      42.430  25.786  28.744  1.00  0.00     0.037 A 
ATOM     46  C   UNL A   1      40.671  32.004  32.384  1.00  0.00     0.037 A 
ATOM     47  C   UNL A   1      43.362  26.632  29.502  1.00  0.00     0.049 A 
ATOM     48  C   UNL A   1      41.574  30.968  33.022  1.00  0.00     0.074 A 
ATOM     49  C   UNL A   1      44.176  27.684  29.110  1.00  0.00     0.029 A 
ATOM     50  N   UNL A   1      43.227  26.737  30.886  1.00  0.00    -0.354 N 
ATOM     51  N   UNL A   1      41.960  29.857  32.444  1.00  0.00    -0.248 NA
ATOM     52  C   UNL A   1      42.244  31.209  34.294  1.00  0.00     0.031 C 
ATOM     53  C   UNL A   1      44.420  28.494  30.252  1.00  0.00     0.029 A 
ATOM     54  C   UNL A   1      43.768  27.928  31.338  1.00  0.00     0.049 A 
ATOM     55  H   UNL A   1      42.805  26.059  31.461  1.00  0.00     0.167 HD
ATOM     56  C   UNL A   1      42.994  29.317  33.166  1.00  0.00     0.074 A 
ATOM     57  C   UNL A   1      43.102  30.177  34.335  1.00  0.00     0.031 C 
ATOM     58  C   UNL A   1      43.758  28.259  32.755  1.00  0.00     0.037 A 
BRANCH  45  59
ATOM     59  C   UNL A   1      42.868  24.786  27.680  1.00  0.00     0.058 A 
ATOM     60  C   UNL A   1      42.737  23.395  27.907  1.00  0.00     0.135 A 
ATOM     61  C   UNL A   1      43.479  25.109  26.450  1.00  0.00     0.135 A 
ATOM     62  F   UNL A   1      42.101  22.917  28.986  1.00  0.00    -0.206 F 
ATOM     63  C   UNL A   1      43.252  22.420  27.044  1.00  0.00     0.059 A 
ATOM     64  C   UNL A   1      44.037  24.154  25.589  1.00  0.00     0.059 A 
ATOM     65  F   UNL A   1      43.513  26.364  25.992  1.00  0.00    -0.206 F 
ATOM     66  C   UNL A   1      43.928  22.808  25.897  1.00  0.00     0.060 A 
BRANCH  66  67
ATOM     67  S   UNL A   1      44.606  21.540  24.808  1.00  0.00     0.124 S 
ATOM     68  O   UNL A   1      45.963  21.387  25.322  1.00  0.00    -0.237 OA
ATOM     69  O   UNL A   1      43.705  20.418  25.046  1.00  0.00    -0.237 OA
ATOM     70  O   UNL A   1      44.510  22.143  23.480  1.00  0.00    -0.744 OA
ENDBRANCH  66  67
ENDBRANCH  45  59
BRANCH  46  71
ATOM     71  C   UNL A   1      39.235  32.301  32.745  1.00  0.00     0.058 A 
ATOM     72  C   UNL A   1      38.785  33.646  32.709  1.00  0.00     0.135 A 
ATOM     73  C   UNL A   1      38.237  31.327  32.885  1.00  0.00     0.135 A 
ATOM     74  F   UNL A   1      39.678  34.645  32.599  1.00  0.00    -0.206 F 
ATOM     75  C   UNL A   1      37.431  33.998  32.696  1.00  0.00     0.059 A 
ATOM     76  C   UNL A   1      36.868  31.658  32.897  1.00  0.00     0.059 A 
ATOM     77  F   UNL A   1      38.563  30.028  32.943  1.00  0.00    -0.206 F 
ATOM     78  C   UNL A   1      36.473  32.993  32.772  1.00  0.00     0.060 A 
BRANCH  78  79
ATOM     79  S   UNL A   1      34.724  33.425  32.524  1.00  0.00     0.124 S 
ATOM     80  O   UNL A   1      34.150  33.155  33.836  1.00  0.00    -0.237 OA
ATOM     81  O   UNL A   1      34.791  34.830  32.138  1.00  0.00    -0.237 OA
ATOM     82  O   UNL A   1      34.315  32.528  31.448  1.00  0.00    -0.744 OA
ENDBRANCH  78  79
ENDBRANCH  46  71
BRANCH  58  83
ATOM     83  C   UNL A   1      44.667  27.459  33.654  1.00  0.00     0.058 A 
ATOM     84  C   UNL A   1      46.012  27.797  33.873  1.00  0.00     0.135 A 
ATOM     85  C   UNL A   1      44.140  26.451  34.500  1.00  0.00     0.135 A 
ATOM     86  F   UNL A   1      46.600  28.798  33.202  1.00  0.00    -0.206 F 
ATOM     87  C   UNL A   1      46.792  27.158  34.833  1.00  0.00     0.059 A 
ATOM     88  C   UNL A   1      44.880  25.852  35.510  1.00  0.00     0.059 A 
ATOM     89  F   UNL A   1      42.870  26.032  34.392  1.00  0.00    -0.206 F 
ATOM     90  C   UNL A   1      46.213  26.199  35.658  1.00  0.00     0.060 A 
BRANCH  90  91
ATOM     91  S   UNL A   1      47.184  25.455  36.976  1.00  0.00     0.124 S 
ATOM     92  O   UNL A   1      46.490  25.953  38.160  1.00  0.00    -0.237 OA
ATOM     93  O   UNL A   1      47.041  24.026  36.715  1.00  0.00    -0.237 OA
ATOM     94  O   UNL A   1      48.520  25.995  36.749  1.00  0.00    -0.744 OA
ENDBRANCH  90  91
ENDBRANCH  58  83
ENDBRANCH  32  33
ENDBRANCH  25  27
ENDBRANCH  24  25
ENDBRANCH   1  24
TORSDOF 16
ENDMDL
MODEL 2
REMARK VINA RESULT:     -12.7      3.872      9.928
REMARK SMILES Cc1ccc(Oc2cc(C(=O)OCCOC(=O)c3ccc(-c4c5nc(c(-c6c(F)cc(S(=O)(=O)[O-])cc6F)c6ccc([nH]6)c(-c6c(F)cc(S(=O)(=O)[O-])cc6F)c6nc(c(-c7c(F)cc(S(=O)(=O)[O-])cc7F)c7ccc4[nH]7)C=C6)C=C5)cc3)nc3ccccc23)cc1
REMARK SMILES IDX 14 1 13 2 12 3 10 4 11 5 9 6 7 7 8 8 90 9 85 10 89 11 84 12
REMARK SMILES IDX 86 13 88 14 87 15 6 16 5 17 1 18 2 19 3 20 92 21 4 22 91 23
REMARK SMILES IDX 15 24 16 25 17 26 18 27 19 28 83 29 20 30 82 31 21 32 22 33
REMARK SMILES IDX 23 34 76 35 24 36 81 37 75 38 77 39 25 40 80 41 74 42 73 43
REMARK SMILES IDX 26 45 60 46 39 47 59 48 40 49 43 50 58 51 78 52 41 53 42 54
REMARK SMILES IDX 57 56 79 57 44 58 27 59 28 60 37 61 29 62 30 63 36 64 38 65
REMARK SMILES IDX 31 66 32 67 33 68 34 69 35 70 61 71 62 72 71 73 63 74 64 75
REMARK SMILES IDX 70 76 72 77 65 78 66 79 67 80 68 81 69 82 45 83 46 84 55 85
REMARK SMILES IDX 47 86 48 87 54 88 56 89 49 90 50 91 51 92 52 93 53 94
REMARK H PARENT 77 44 43 55
REMARK Flexibility Score: inf
ROOT
ATOM      1  C   UNL A   1      35.840  23.191  25.705  1.00  0.00     0.275 C 
ENDROOT
BRANCH   1   2
ATOM      2  C   UNL A   1      35.225  22.765  24.360  1.00  0.00     0.275 C 
BRANCH   2   3
ATOM      3  O   UNL A   1      33.835  23.074  24.158  1.00  0.00    -0.457 OA
BRANCH   3   4
ATOM      4  C   UNL A   1      33.697  24.255  23.480  1.00  0.00     0.357 C 
ATOM      5  O   UNL A   1      34.281  24.525  22.434  1.00  0.00    -0.244 OA
BRANCH   4   6
ATOM      6  C   UNL A   1      32.906  25.305  24.186  1.00  0.00     0.152 A 
ATOM      7  C   UNL A   1      31.061  26.773  24.544  1.00  0.00     0.139 A 
ATOM      8  C   UNL A   1      31.587  25.627  23.921  1.00  0.00     0.084 A 
ATOM      9  C   UNL A   1      31.836  27.503  25.490  1.00  0.00     0.043 A 
ATOM     10  C   UNL A   1      33.172  27.090  25.642  1.00  0.00     0.075 A 
ATOM     11  C   UNL A   1      31.398  28.595  26.285  1.00  0.00     0.014 A 
ATOM     12  N   UNL A   1      33.690  26.036  25.019  1.00  0.00    -0.240 NA
ATOM     13  C   UNL A   1      34.030  27.795  26.469  1.00  0.00     0.029 A 
ATOM     14  C   UNL A   1      32.276  29.296  27.115  1.00  0.00     0.001 A 
ATOM     15  C   UNL A   1      33.602  28.904  27.194  1.00  0.00     0.002 A 
BRANCH   7  16
ATOM     16  O   UNL A   1      29.749  27.069  24.218  1.00  0.00    -0.457 OA
BRANCH  16  17
ATOM     17  C   UNL A   1      29.447  28.097  23.347  1.00  0.00     0.127 A 
ATOM     18  C   UNL A   1      28.152  31.433  20.923  1.00  0.00     0.044 C 
ATOM     19  C   UNL A   1      28.607  30.262  21.746  1.00  0.00    -0.051 A 
ATOM     20  C   UNL A   1      27.670  29.481  22.432  1.00  0.00     0.007 A 
ATOM     21  C   UNL A   1      29.961  29.913  21.822  1.00  0.00     0.007 A 
ATOM     22  C   UNL A   1      28.089  28.404  23.221  1.00  0.00     0.047 A 
ATOM     23  C   UNL A   1      30.379  28.825  22.604  1.00  0.00     0.047 A 
ENDBRANCH  16  17
ENDBRANCH   7  16
ENDBRANCH   4   6
ENDBRANCH   3   4
ENDBRANCH   2   3
ENDBRANCH   1   2
BRANCH   1  24
ATOM     24  O   UNL A   1      37.037  23.997  25.718  1.00  0.00    -0.458 OA
BRANCH  24  25
ATOM     25  C   UNL A   1      38.234  23.484  26.098  1.00  0.00     0.338 C 
ATOM     26  O   UNL A   1      38.642  22.364  25.853  1.00  0.00    -0.246 OA
BRANCH  25  27
ATOM     27  C   UNL A   1      39.018  24.433  26.872  1.00  0.00     0.060 A 
ATOM     28  C   UNL A   1      38.839  24.498  28.260  1.00  0.00     0.016 A 
ATOM     29  C   UNL A   1      39.986  25.171  26.195  1.00  0.00     0.016 A 
ATOM     30  C   UNL A   1      39.602  25.380  29.000  1.00  0.00     0.010 A 
ATOM     31  C   UNL A   1      40.825  25.961  26.938  1.00  0.00     0.010 A 
ATOM     32  C   UNL A   1      40.547  26.137  28.311  1.00  0.00    -0.014 A 
BRANCH  32  33
ATOM     33  C   UNL A   1      40.869  27.482  28.746  1.00  0.00     0.031 A 
ATOM     34  C   UNL A   1      39.903  28.576  28.660  1.00  0.00     0.074 A 
ATOM     35  C   UNL A   1      41.982  27.436  29.512  1.00  0.00     0.049 A 
ATOM     36  N   UNL A   1      40.158  29.786  29.008  1.00  0.00    -0.248 NA
ATOM     37  C   UNL A   1      38.557  28.408  28.125  1.00  0.00     0.031 C 
ATOM     38  C   UNL A   1      42.448  28.288  30.585  1.00  0.00     0.029 A 
ATOM     39  N   UNL A   1      43.037  26.526  29.321  1.00  0.00    -0.354 N 
ATOM     40  C   UNL A   1      38.950  30.453  29.087  1.00  0.00     0.074 A 
ATOM     41  C   UNL A   1      38.017  29.602  28.392  1.00  0.00     0.031 C 
ATOM     42  C   UNL A   1      43.769  28.069  30.751  1.00  0.00     0.029 A 
ATOM     43  C   UNL A   1      44.204  27.203  29.654  1.00  0.00     0.049 A 
ATOM     44  H   UNL A   1      42.962  25.594  29.013  1.00  0.00     0.167 HD
ATOM     45  C   UNL A   1      38.875  31.543  29.909  1.00  0.00     0.037 A 
ATOM     46  C   UNL A   1      45.016  27.589  28.621  1.00  0.00     0.037 A 
ATOM     47  C   UNL A   1      40.214  31.841  30.433  1.00  0.00     0.049 A 
ATOM     48  C   UNL A   1      45.044  29.102  28.545  1.00  0.00     0.074 A 
ATOM     49  C   UNL A   1      40.837  31.489  31.621  1.00  0.00     0.029 A 
ATOM     50  N   UNL A   1      41.232  32.208  29.553  1.00  0.00    -0.354 N 
ATOM     51  N   UNL A   1      44.018  29.881  28.785  1.00  0.00    -0.248 NA
ATOM     52  C   UNL A   1      46.288  29.841  28.365  1.00  0.00     0.031 C 
ATOM     53  C   UNL A   1      42.240  31.523  31.403  1.00  0.00     0.029 A 
ATOM     54  C   UNL A   1      42.471  31.910  30.092  1.00  0.00     0.049 A 
ATOM     55  H   UNL A   1      41.088  32.622  28.671  1.00  0.00     0.167 HD
ATOM     56  C   UNL A   1      44.463  31.171  28.926  1.00  0.00     0.074 A 
ATOM     57  C   UNL A   1      45.882  31.098  28.611  1.00  0.00     0.031 C 
ATOM     58  C   UNL A   1      43.692  32.215  29.361  1.00  0.00     0.037 A 
BRANCH  45  59
ATOM     59  C   UNL A   1      37.587  32.095  30.512  1.00  0.00     0.058 A 
ATOM     60  C   UNL A   1      36.970  33.241  29.956  1.00  0.00     0.135 A 
ATOM     61  C   UNL A   1      36.941  31.600  31.663  1.00  0.00     0.135 A 
ATOM     62  F   UNL A   1      37.405  33.787  28.812  1.00  0.00    -0.206 F 
ATOM     63  C   UNL A   1      35.877  33.890  30.543  1.00  0.00     0.059 A 
ATOM     64  C   UNL A   1      35.871  32.252  32.291  1.00  0.00     0.059 A 
ATOM     65  F   UNL A   1      37.275  30.424  32.205  1.00  0.00    -0.206 F 
ATOM     66  C   UNL A   1      35.347  33.405  31.729  1.00  0.00     0.060 A 
BRANCH  66  67
ATOM     67  S   UNL A   1      33.954  34.266  32.484  1.00  0.00     0.124 S 
ATOM     68  O   UNL A   1      34.621  35.287  33.285  1.00  0.00    -0.237 OA
ATOM     69  O   UNL A   1      33.224  34.750  31.317  1.00  0.00    -0.237 OA
ATOM     70  O   UNL A   1      33.280  33.220  33.250  1.00  0.00    -0.744 OA
ENDBRANCH  66  67
ENDBRANCH  45  59
BRANCH  46  71
ATOM     71  C   UNL A   1      45.076  26.622  27.463  1.00  0.00     0.058 A 
ATOM     72  C   UNL A   1      45.851  25.442  27.598  1.00  0.00     0.135 A 
ATOM     73  C   UNL A   1      44.234  26.675  26.343  1.00  0.00     0.135 A 
ATOM     74  F   UNL A   1      46.703  25.317  28.631  1.00  0.00    -0.206 F 
ATOM     75  C   UNL A   1      45.719  24.339  26.747  1.00  0.00     0.059 A 
ATOM     76  C   UNL A   1      44.099  25.587  25.459  1.00  0.00     0.059 A 
ATOM     77  F   UNL A   1      43.472  27.755  26.122  1.00  0.00    -0.206 F 
ATOM     78  C   UNL A   1      44.823  24.412  25.685  1.00  0.00     0.060 A 
BRANCH  78  79
ATOM     79  S   UNL A   1      44.479  22.910  24.720  1.00  0.00     0.124 S 
ATOM     80  O   UNL A   1      44.951  21.857  25.610  1.00  0.00    -0.237 OA
ATOM     81  O   UNL A   1      43.035  22.975  24.525  1.00  0.00    -0.237 OA
ATOM     82  O   UNL A   1      45.256  23.118  23.502  1.00  0.00    -0.744 OA
ENDBRANCH  78  79
ENDBRANCH  46  71
BRANCH  58  83
ATOM     83  C   UNL A   1      44.062  33.670  29.216  1.00  0.00     0.058 A 
ATOM     84  C   UNL A   1      43.966  34.363  27.998  1.00  0.00     0.135 A 
ATOM     85  C   UNL A   1      44.312  34.468  30.360  1.00  0.00     0.135 A 
ATOM     86  F   UNL A   1      43.641  33.734  26.859  1.00  0.00    -0.206 F 
ATOM     87  C   UNL A   1      44.143  35.741  27.912  1.00  0.00     0.059 A 
ATOM     88  C   UNL A   1      44.421  35.851  30.305  1.00  0.00     0.059 A 
ATOM     89  F   UNL A   1      44.431  33.930  31.584  1.00  0.00    -0.206 F 
ATOM     90  C   UNL A   1      44.353  36.478  29.073  1.00  0.00     0.060 A 
BRANCH  90  91
ATOM     91  S   UNL A   1      44.466  38.271  28.980  1.00  0.00     0.124 S 
ATOM     92  O   UNL A   1      45.226  38.574  30.189  1.00  0.00    -0.237 OA
ATOM     93  O   UNL A   1      45.172  38.486  27.720  1.00  0.00    -0.237 OA
ATOM     94  O   UNL A   1      43.069  38.692  28.986  1.00  0.00    -0.744 OA
ENDBRANCH  90  91
ENDBRANCH  58  83
ENDBRANCH  32  33
ENDBRANCH  25  27
ENDBRANCH  24  25
ENDBRANCH   1  24
TORSDOF 16
ENDMDL
MODEL 3
REMARK VINA RESULT:     -12.7      1.650      2.823
REMARK SMILES Cc1ccc(Oc2cc(C(=O)OCCOC(=O)c3ccc(-c4c5nc(c(-c6c(F)cc(S(=O)(=O)[O-])cc6F)c6ccc([nH]6)c(-c6c(F)cc(S(=O)(=O)[O-])cc6F)c6nc(c(-c7c(F)cc(S(=O)(=O)[O-])cc7F)c7ccc4[nH]7)C=C6)C=C5)cc3)nc3ccccc23)cc1
REMARK SMILES IDX 14 1 13 2 12 3 10 4 11 5 9 6 7 7 8 8 90 9 85 10 89 11 84 12
REMARK SMILES IDX 86 13 88 14 87 15 6 16 5 17 1 18 2 19 3 20 92 21 4 22 91 23
REMARK SMILES IDX 15 24 16 25 17 26 18 27 19 28 83 29 20 30 82 31 21 32 22 33
REMARK SMILES IDX 23 34 76 35 24 36 81 37 75 38 77 39 25 40 80 41 74 42 73 43
REMARK SMILES IDX 26 45 60 46 39 47 59 48 40 49 43 50 58 51 78 52 41 53 42 54
REMARK SMILES IDX 57 56 79 57 44 58 27 59 28 60 37 61 29 62 30 63 36 64 38 65
REMARK SMILES IDX 31 66 32 67 33 68 34 69 35 70 61 71 62 72 71 73 63 74 64 75
REMARK SMILES IDX 70 76 72 77 65 78 66 79 67 80 68 81 69 82 45 83 46 84 55 85
REMARK SMILES IDX 47 86 48 87 54 88 56 89 49 90 50 91 51 92 52 93 53 94
REMARK H PARENT 77 44 43 55
REMARK Flexibility Score: inf
ROOT
ATOM      1  C   UNL A   1      33.418  28.745  25.346  1.00  0.00     0.275 C 
ENDROOT
BRANCH   1   2
ATOM      2  C   UNL A   1      33.995  28.426  23.956  1.00  0.00     0.275 C 
BRANCH   2   3
ATOM      3  O   UNL A   1      33.060  28.000  22.950  1.00  0.00    -0.457 OA
BRANCH   3   4
ATOM      4  C   UNL A   1      33.422  26.784  22.439  1.00  0.00     0.357 C 
ATOM      5  O   UNL A   1      33.656  26.574  21.252  1.00  0.00    -0.244 OA
BRANCH   4   6
ATOM      6  C   UNL A   1      33.351  25.644  23.398  1.00  0.00     0.152 A 
ATOM      7  C   UNL A   1      33.921  23.506  24.290  1.00  0.00     0.139 A 
ATOM      8  C   UNL A   1      34.249  24.592  23.460  1.00  0.00     0.084 A 
ATOM      9  C   UNL A   1      32.757  23.548  25.110  1.00  0.00     0.043 A 
ATOM     10  C   UNL A   1      31.912  24.657  24.925  1.00  0.00     0.075 A 
ATOM     11  C   UNL A   1      32.368  22.589  26.083  1.00  0.00     0.014 A 
ATOM     12  N   UNL A   1      32.193  25.665  24.106  1.00  0.00    -0.240 NA
ATOM     13  C   UNL A   1      30.710  24.740  25.608  1.00  0.00     0.029 A 
ATOM     14  C   UNL A   1      31.152  22.687  26.764  1.00  0.00     0.001 A 
ATOM     15  C   UNL A   1      30.312  23.759  26.512  1.00  0.00     0.002 A 
BRANCH   7  16
ATOM     16  O   UNL A   1      34.836  22.468  24.290  1.00  0.00    -0.457 OA
BRANCH  16  17
ATOM     17  C   UNL A   1      36.034  22.577  24.968  1.00  0.00     0.127 A 
ATOM     18  C   UNL A   1      39.984  22.696  26.719  1.00  0.00     0.044 C 
ATOM     19  C   UNL A   1      38.603  22.651  26.131  1.00  0.00    -0.051 A 
ATOM     20  C   UNL A   1      38.196  21.543  25.380  1.00  0.00     0.007 A 
ATOM     21  C   UNL A   1      37.692  23.693  26.343  1.00  0.00     0.007 A 
ATOM     22  C   UNL A   1      36.919  21.506  24.808  1.00  0.00     0.047 A 
ATOM     23  C   UNL A   1      36.408  23.650  25.780  1.00  0.00     0.047 A 
ENDBRANCH  16  17
ENDBRANCH   7  16
ENDBRANCH   4   6
ENDBRANCH   3   4
ENDBRANCH   2   3
ENDBRANCH   1   2
BRANCH   1  24
ATOM     24  O   UNL A   1      34.243  28.569  26.518  1.00  0.00    -0.458 OA
BRANCH  24  25
ATOM     25  C   UNL A   1      34.363  29.543  27.455  1.00  0.00     0.338 C 
ATOM     26  O   UNL A   1      33.462  30.246  27.875  1.00  0.00    -0.246 OA
BRANCH  25  27
ATOM     27  C   UNL A   1      35.731  29.687  27.926  1.00  0.00     0.060 A 
ATOM     28  C   UNL A   1      36.736  30.033  27.015  1.00  0.00     0.016 A 
ATOM     29  C   UNL A   1      35.955  29.563  29.296  1.00  0.00     0.016 A 
ATOM     30  C   UNL A   1      38.032  30.196  27.467  1.00  0.00     0.010 A 
ATOM     31  C   UNL A   1      37.213  29.838  29.766  1.00  0.00     0.010 A 
ATOM     32  C   UNL A   1      38.253  30.041  28.833  1.00  0.00    -0.014 A 
BRANCH  32  33
ATOM     33  C   UNL A   1      39.508  29.497  29.316  1.00  0.00     0.031 A 
ATOM     34  C   UNL A   1      39.876  28.097  29.111  1.00  0.00     0.074 A 
ATOM     35  C   UNL A   1      40.336  30.521  29.620  1.00  0.00     0.049 A 
ATOM     36  N   UNL A   1      40.964  27.570  29.546  1.00  0.00    -0.248 NA
ATOM     37  C   UNL A   1      39.016  27.142  28.422  1.00  0.00     0.031 C 
ATOM     38  C   UNL A   1      41.780  30.620  29.631  1.00  0.00     0.029 A 
ATOM     39  N   UNL A   1      39.908  31.762  30.124  1.00  0.00    -0.354 N 
ATOM     40  C   UNL A   1      41.115  26.354  28.908  1.00  0.00     0.074 A 
ATOM     41  C   UNL A   1      39.819  26.075  28.343  1.00  0.00     0.031 C 
ATOM     42  C   UNL A   1      42.121  31.694  30.374  1.00  0.00     0.029 A 
ATOM     43  C   UNL A   1      40.896  32.189  31.004  1.00  0.00     0.049 A 
ATOM     44  H   UNL A   1      39.075  32.234  29.898  1.00  0.00     0.167 HD
ATOM     45  C   UNL A   1      42.380  25.852  28.782  1.00  0.00     0.037 A 
ATOM     46  C   UNL A   1      40.613  32.113  32.342  1.00  0.00     0.037 A 
ATOM     47  C   UNL A   1      43.313  26.713  29.522  1.00  0.00     0.049 A 
ATOM     48  C   UNL A   1      41.523  31.090  32.989  1.00  0.00     0.074 A 
ATOM     49  C   UNL A   1      44.120  27.762  29.111  1.00  0.00     0.029 A 
ATOM     50  N   UNL A   1      43.184  26.837  30.905  1.00  0.00    -0.354 N 
ATOM     51  N   UNL A   1      41.911  29.973  32.425  1.00  0.00    -0.248 NA
ATOM     52  C   UNL A   1      42.198  31.352  34.255  1.00  0.00     0.031 C 
ATOM     53  C   UNL A   1      44.365  28.589  30.240  1.00  0.00     0.029 A 
ATOM     54  C   UNL A   1      43.723  28.036  31.338  1.00  0.00     0.049 A 
ATOM     55  H   UNL A   1      42.768  26.165  31.493  1.00  0.00     0.167 HD
ATOM     56  C   UNL A   1      42.951  29.448  33.150  1.00  0.00     0.074 A 
ATOM     57  C   UNL A   1      43.062  30.325  34.306  1.00  0.00     0.031 C 
ATOM     58  C   UNL A   1      43.718  28.387  32.750  1.00  0.00     0.037 A 
BRANCH  45  59
ATOM     59  C   UNL A   1      42.817  24.839  27.729  1.00  0.00     0.058 A 
ATOM     60  C   UNL A   1      43.256  23.549  28.116  1.00  0.00     0.135 A 
ATOM     61  C   UNL A   1      42.894  25.076  26.342  1.00  0.00     0.135 A 
ATOM     62  F   UNL A   1      43.168  23.129  29.385  1.00  0.00    -0.206 F 
ATOM     63  C   UNL A   1      43.811  22.624  27.224  1.00  0.00     0.059 A 
ATOM     64  C   UNL A   1      43.480  24.183  25.434  1.00  0.00     0.059 A 
ATOM     65  F   UNL A   1      42.350  26.164  25.784  1.00  0.00    -0.206 F 
ATOM     66  C   UNL A   1      43.946  22.958  25.885  1.00  0.00     0.060 A 
BRANCH  66  67
ATOM     67  S   UNL A   1      44.684  21.764  24.753  1.00  0.00     0.124 S 
ATOM     68  O   UNL A   1      46.070  21.726  25.205  1.00  0.00    -0.237 OA
ATOM     69  O   UNL A   1      43.896  20.564  25.017  1.00  0.00    -0.237 OA
ATOM     70  O   UNL A   1      44.477  22.366  23.438  1.00  0.00    -0.744 OA
ENDBRANCH  66  67
ENDBRANCH  45  59
BRANCH  46  71
ATOM     71  C   UNL A   1      39.177  32.410  32.706  1.00  0.00     0.058 A 
ATOM     72  C   UNL A   1      38.716  33.749  32.635  1.00  0.00     0.135 A 
ATOM     73  C   UNL A   1      38.188  31.432  32.882  1.00  0.00     0.135 A 
ATOM     74  F   UNL A   1      39.600  34.752  32.490  1.00  0.00    -0.206 F 
ATOM     75  C   UNL A   1      37.359  34.090  32.624  1.00  0.00     0.059 A 
ATOM     76  C   UNL A   1      36.817  31.752  32.895  1.00  0.00     0.059 A 
ATOM     77  F   UNL A   1      38.526  30.138  32.973  1.00  0.00    -0.206 F 
ATOM     78  C   UNL A   1      36.410  33.080  32.736  1.00  0.00     0.060 A 
BRANCH  78  79
ATOM     79  S   UNL A   1      34.656  33.491  32.491  1.00  0.00     0.124 S 
ATOM     80  O   UNL A   1      34.710  34.920  32.210  1.00  0.00    -0.237 OA
ATOM     81  O   UNL A   1      34.279  32.638  31.369  1.00  0.00    -0.237 OA
ATOM     82  O   UNL A   1      34.049  33.109  33.762  1.00  0.00    -0.744 OA
ENDBRANCH  78  79
ENDBRANCH  46  71
BRANCH  58  83
ATOM     83  C   UNL A   1      44.635  27.604  33.656  1.00  0.00     0.058 A 
ATOM     84  C   UNL A   1      44.193  26.525  34.439  1.00  0.00     0.135 A 
ATOM     85  C   UNL A   1      46.039  27.782  33.589  1.00  0.00     0.135 A 
ATOM     86  F   UNL A   1      42.895  26.196  34.508  1.00  0.00    -0.206 F 
ATOM     87  C   UNL A   1      45.074  25.704  35.136  1.00  0.00     0.059 A 
ATOM     88  C   UNL A   1      46.937  26.931  34.219  1.00  0.00     0.059 A 
ATOM     89  F   UNL A   1      46.592  28.778  32.879  1.00  0.00    -0.206 F 
ATOM     90  C   UNL A   1      46.445  25.904  35.006  1.00  0.00     0.060 A 
BRANCH  90  91
ATOM     91  S   UNL A   1      47.590  24.774  35.811  1.00  0.00     0.124 S 
ATOM     92  O   UNL A   1      47.934  23.881  34.709  1.00  0.00    -0.237 OA
ATOM     93  O   UNL A   1      48.658  25.662  36.261  1.00  0.00    -0.237 OA
ATOM     94  O   UNL A   1      46.783  24.187  36.876  1.00  0.00    -0.744 OA
ENDBRANCH  90  91
ENDBRANCH  58  83
ENDBRANCH  32  33
ENDBRANCH  25  27
ENDBRANCH  24  25
ENDBRANCH   1  24
TORSDOF 16
ENDMDL
