MODEL 1
REMARK VINA RESULT:     -11.5      0.000      0.000
REMARK SMILES O=C(Cc1ccccc1Nc1c(Cl)cccc1C(F)(F)F)OCCOC(=O)c1ccc(-c2c3nc(c(-c4c(F)cc(S(=O)(=O)[O-])cc4F)c4ccc([nH]4)c(-c4c(F)cc(S(=O)(=O)[O-])cc4F)c4nc(c(-c5c(F)cc(S(=O)(=O)[O-])cc5F)c5ccc2[nH]5)C=C4)C=C3)cc1
REMARK SMILES IDX 23 1 22 2 2 3 1 4 3 5 4 6 5 7 9 8 6 9 8 10 7 11 10 12 11 14
REMARK SMILES IDX 12 15 17 16 13 17 14 18 16 19 15 20 18 21 19 22 20 23 21 24
REMARK SMILES IDX 24 25 25 26 26 27 27 28 28 29 29 30 93 31 30 32 92 33 31 34
REMARK SMILES IDX 32 35 33 36 86 37 34 38 91 39 85 40 87 41 35 42 90 43 84 44
REMARK SMILES IDX 83 45 36 47 70 48 49 49 69 50 50 51 53 52 68 53 88 54 51 55
REMARK SMILES IDX 52 56 67 58 89 59 54 60 37 61 38 62 47 63 39 64 40 65 46 66
REMARK SMILES IDX 48 67 41 68 42 69 43 70 44 71 45 72 71 73 72 74 81 75 73 76
REMARK SMILES IDX 74 77 80 78 82 79 75 80 76 81 77 82 78 83 79 84 55 85 56 86
REMARK SMILES IDX 65 87 57 88 58 89 64 90 66 91 59 92 60 93 61 94 62 95 63 96
REMARK H PARENT 10 13 87 46 53 57
REMARK Flexibility Score: inf
ROOT
ATOM      1  C   UNL A   1      38.542  21.803  25.805  1.00  0.00     0.274 C 
ENDROOT
BRANCH   1   2
ATOM      2  O   UNL A   1      37.937  22.720  24.875  1.00  0.00    -0.462 OA
BRANCH   2   3
ATOM      3  C   UNL A   1      36.648  23.138  24.939  1.00  0.00     0.310 C 
ATOM      4  O   UNL A   1      36.171  23.483  26.019  1.00  0.00    -0.252 OA
BRANCH   3   5
ATOM      5  C   UNL A   1      35.808  23.106  23.679  1.00  0.00     0.160 C 
BRANCH   5   6
ATOM      6  C   UNL A   1      34.410  22.587  23.905  1.00  0.00    -0.013 A 
ATOM      7  C   UNL A   1      34.254  21.344  24.554  1.00  0.00     0.006 A 
ATOM      8  C   UNL A   1      33.267  23.326  23.554  1.00  0.00     0.042 A 
ATOM      9  C   UNL A   1      32.992  20.837  24.854  1.00  0.00     0.000 A 
ATOM     10  C   UNL A   1      32.004  22.764  23.819  1.00  0.00     0.026 A 
ATOM     11  C   UNL A   1      31.863  21.545  24.476  1.00  0.00     0.002 A 
BRANCH   8  12
ATOM     12  N   UNL A   1      33.370  24.642  23.048  1.00  0.00    -0.354 N 
ATOM     13  H   UNL A   1      34.100  24.811  22.410  1.00  0.00     0.167 HD
BRANCH  12  14
ATOM     14  C   UNL A   1      32.536  25.745  23.358  1.00  0.00     0.070 A 
ATOM     15  C   UNL A   1      31.702  26.275  22.350  1.00  0.00     0.065 A 
ATOM     16  C   UNL A   1      32.384  26.219  24.678  1.00  0.00     0.080 A 
ATOM     17  Cl  UNL A   1      31.964  25.863  20.688  1.00  0.00    -0.082 Cl
ATOM     18  C   UNL A   1      30.640  27.118  22.665  1.00  0.00     0.023 A 
ATOM     19  C   UNL A   1      31.259  27.003  24.994  1.00  0.00     0.015 A 
ATOM     20  C   UNL A   1      30.379  27.420  23.996  1.00  0.00     0.002 A 
BRANCH  16  21
ATOM     21  C   UNL A   1      33.425  26.003  25.756  1.00  0.00     0.418 C 
ATOM     22  F   UNL A   1      34.692  26.018  25.244  1.00  0.00    -0.166 F 
ATOM     23  F   UNL A   1      33.419  26.968  26.718  1.00  0.00    -0.166 F 
ATOM     24  F   UNL A   1      33.346  24.808  26.413  1.00  0.00    -0.166 F 
ENDBRANCH  16  21
ENDBRANCH  12  14
ENDBRANCH   8  12
ENDBRANCH   5   6
ENDBRANCH   3   5
ENDBRANCH   2   3
ENDBRANCH   1   2
BRANCH   1  25
ATOM     25  C   UNL A   1      39.565  22.477  26.721  1.00  0.00     0.275 C 
BRANCH  25  26
ATOM     26  O   UNL A   1      39.632  23.899  26.510  1.00  0.00    -0.458 OA
BRANCH  26  27
ATOM     27  C   UNL A   1      40.842  24.469  26.760  1.00  0.00     0.338 C 
ATOM     28  O   UNL A   1      41.881  24.236  26.177  1.00  0.00    -0.246 OA
BRANCH  27  29
ATOM     29  C   UNL A   1      40.692  25.542  27.775  1.00  0.00     0.060 A 
ATOM     30  C   UNL A   1      41.739  26.459  27.928  1.00  0.00     0.016 A 
ATOM     31  C   UNL A   1      39.550  25.649  28.574  1.00  0.00     0.016 A 
ATOM     32  C   UNL A   1      41.644  27.484  28.878  1.00  0.00     0.010 A 
ATOM     33  C   UNL A   1      39.467  26.662  29.539  1.00  0.00     0.010 A 
ATOM     34  C   UNL A   1      40.515  27.582  29.705  1.00  0.00    -0.014 A 
BRANCH  34  35
ATOM     35  C   UNL A   1      40.446  28.624  30.764  1.00  0.00     0.031 A 
ATOM     36  C   UNL A   1      41.404  28.599  31.917  1.00  0.00     0.074 A 
ATOM     37  C   UNL A   1      39.479  29.561  30.749  1.00  0.00     0.049 A 
ATOM     38  N   UNL A   1      41.476  29.412  32.939  1.00  0.00    -0.248 NA
ATOM     39  C   UNL A   1      42.364  27.487  31.955  1.00  0.00     0.031 C 
ATOM     40  C   UNL A   1      38.389  29.609  29.785  1.00  0.00     0.029 A 
ATOM     41  N   UNL A   1      39.240  30.632  31.581  1.00  0.00    -0.354 N 
ATOM     42  C   UNL A   1      42.441  28.878  33.778  1.00  0.00     0.074 A 
ATOM     43  C   UNL A   1      42.954  27.689  33.127  1.00  0.00     0.031 C 
ATOM     44  C   UNL A   1      37.617  30.671  30.068  1.00  0.00     0.029 A 
ATOM     45  C   UNL A   1      38.165  31.399  31.199  1.00  0.00     0.049 A 
ATOM     46  H   UNL A   1      39.787  30.829  32.376  1.00  0.00     0.167 HD
ATOM     47  C   UNL A   1      42.833  29.318  34.997  1.00  0.00     0.037 A 
ATOM     48  C   UNL A   1      37.674  32.557  31.686  1.00  0.00     0.037 A 
ATOM     49  C   UNL A   1      42.334  30.502  35.651  1.00  0.00     0.049 A 
ATOM     50  C   UNL A   1      38.263  33.129  32.943  1.00  0.00     0.074 A 
ATOM     51  C   UNL A   1      42.733  31.043  36.862  1.00  0.00     0.029 A 
ATOM     52  N   UNL A   1      41.324  31.318  35.167  1.00  0.00    -0.354 N 
ATOM     53  N   UNL A   1      39.245  32.663  33.672  1.00  0.00    -0.248 NA
ATOM     54  C   UNL A   1      37.643  34.355  33.474  1.00  0.00     0.031 C 
ATOM     55  C   UNL A   1      41.936  32.159  37.133  1.00  0.00     0.029 A 
ATOM     56  C   UNL A   1      41.072  32.342  36.068  1.00  0.00     0.049 A 
ATOM     57  H   UNL A   1      40.856  31.191  34.310  1.00  0.00     0.167 HD
ATOM     58  C   UNL A   1      39.318  33.502  34.777  1.00  0.00     0.074 A 
ATOM     59  C   UNL A   1      38.350  34.558  34.576  1.00  0.00     0.031 C 
ATOM     60  C   UNL A   1      40.085  33.372  35.883  1.00  0.00     0.037 A 
BRANCH  47  61
ATOM     61  C   UNL A   1      43.833  28.489  35.746  1.00  0.00     0.058 A 
ATOM     62  C   UNL A   1      45.212  28.720  35.638  1.00  0.00     0.135 A 
ATOM     63  C   UNL A   1      43.393  27.506  36.647  1.00  0.00     0.135 A 
ATOM     64  F   UNL A   1      45.679  29.635  34.775  1.00  0.00    -0.206 F 
ATOM     65  C   UNL A   1      46.124  28.001  36.402  1.00  0.00     0.059 A 
ATOM     66  C   UNL A   1      44.286  26.792  37.437  1.00  0.00     0.059 A 
ATOM     67  F   UNL A   1      42.083  27.246  36.778  1.00  0.00    -0.206 F 
ATOM     68  C   UNL A   1      45.650  27.045  37.304  1.00  0.00     0.060 A 
BRANCH  68  69
ATOM     69  S   UNL A   1      46.846  26.157  38.324  1.00  0.00     0.124 S 
ATOM     70  O   UNL A   1      47.919  27.140  38.437  1.00  0.00    -0.237 OA
ATOM     71  O   UNL A   1      46.086  25.905  39.545  1.00  0.00    -0.237 OA
ATOM     72  O   UNL A   1      47.159  24.974  37.529  1.00  0.00    -0.744 OA
ENDBRANCH  68  69
ENDBRANCH  47  61
BRANCH  48  73
ATOM     73  C   UNL A   1      36.575  33.290  30.998  1.00  0.00     0.058 A 
ATOM     74  C   UNL A   1      35.268  33.242  31.514  1.00  0.00     0.135 A 
ATOM     75  C   UNL A   1      36.779  34.005  29.811  1.00  0.00     0.135 A 
ATOM     76  F   UNL A   1      35.019  32.569  32.648  1.00  0.00    -0.206 F 
ATOM     77  C   UNL A   1      34.203  33.864  30.875  1.00  0.00     0.059 A 
ATOM     78  C   UNL A   1      35.736  34.672  29.174  1.00  0.00     0.059 A 
ATOM     79  F   UNL A   1      38.006  34.086  29.275  1.00  0.00    -0.206 F 
ATOM     80  C   UNL A   1      34.450  34.590  29.710  1.00  0.00     0.060 A 
BRANCH  80  81
ATOM     81  S   UNL A   1      33.105  35.543  28.972  1.00  0.00     0.124 S 
ATOM     82  O   UNL A   1      32.377  35.989  30.153  1.00  0.00    -0.237 OA
ATOM     83  O   UNL A   1      33.827  36.574  28.233  1.00  0.00    -0.237 OA
ATOM     84  O   UNL A   1      32.429  34.553  28.139  1.00  0.00    -0.744 OA
ENDBRANCH  80  81
ENDBRANCH  48  73
BRANCH  60  85
ATOM     85  C   UNL A   1      39.857  34.360  36.990  1.00  0.00     0.058 A 
ATOM     86  C   UNL A   1      38.954  34.080  38.030  1.00  0.00     0.135 A 
ATOM     87  C   UNL A   1      40.558  35.573  37.037  1.00  0.00     0.135 A 
ATOM     88  F   UNL A   1      38.248  32.939  38.023  1.00  0.00    -0.206 F 
ATOM     89  C   UNL A   1      38.743  34.978  39.070  1.00  0.00     0.059 A 
ATOM     90  C   UNL A   1      40.379  36.475  38.081  1.00  0.00     0.059 A 
ATOM     91  F   UNL A   1      41.431  35.888  36.067  1.00  0.00    -0.206 F 
ATOM     92  C   UNL A   1      39.462  36.173  39.089  1.00  0.00     0.060 A 
BRANCH  92  93
ATOM     93  S   UNL A   1      39.207  37.312  40.466  1.00  0.00     0.124 S 
ATOM     94  O   UNL A   1      38.730  36.410  41.509  1.00  0.00    -0.237 OA
ATOM     95  O   UNL A   1      40.543  37.863  40.667  1.00  0.00    -0.237 OA
ATOM     96  O   UNL A   1      38.218  38.252  39.948  1.00  0.00    -0.744 OA
ENDBRANCH  92  93
ENDBRANCH  60  85
ENDBRANCH  34  35
ENDBRANCH  27  29
ENDBRANCH  26  27
ENDBRANCH  25  26
ENDBRANCH   1  25
TORSDOF 18
ENDMDL
MODEL 2
REMARK VINA RESULT:     -11.5      6.740     12.072
REMARK SMILES O=C(Cc1ccccc1Nc1c(Cl)cccc1C(F)(F)F)OCCOC(=O)c1ccc(-c2c3nc(c(-c4c(F)cc(S(=O)(=O)[O-])cc4F)c4ccc([nH]4)c(-c4c(F)cc(S(=O)(=O)[O-])cc4F)c4nc(c(-c5c(F)cc(S(=O)(=O)[O-])cc5F)c5ccc2[nH]5)C=C4)C=C3)cc1
REMARK SMILES IDX 23 1 22 2 2 3 1 4 3 5 4 6 5 7 9 8 6 9 8 10 7 11 10 12 11 14
REMARK SMILES IDX 12 15 17 16 13 17 14 18 16 19 15 20 18 21 19 22 20 23 21 24
REMARK SMILES IDX 24 25 25 26 26 27 27 28 28 29 29 30 93 31 30 32 92 33 31 34
REMARK SMILES IDX 32 35 33 36 86 37 34 38 91 39 85 40 87 41 35 42 90 43 84 44
REMARK SMILES IDX 83 45 36 47 70 48 49 49 69 50 50 51 53 52 68 53 88 54 51 55
REMARK SMILES IDX 52 56 67 58 89 59 54 60 37 61 38 62 47 63 39 64 40 65 46 66
REMARK SMILES IDX 48 67 41 68 42 69 43 70 44 71 45 72 71 73 72 74 81 75 73 76
REMARK SMILES IDX 74 77 80 78 82 79 75 80 76 81 77 82 78 83 79 84 55 85 56 86
REMARK SMILES IDX 65 87 57 88 58 89 64 90 66 91 59 92 60 93 61 94 62 95 63 96
REMARK H PARENT 10 13 87 46 53 57
REMARK Flexibility Score: inf
ROOT
ATOM      1  C   UNL A   1      33.177  30.685  27.226  1.00  0.00     0.274 C 
ENDROOT
BRANCH   1   2
ATOM      2  O   UNL A   1      33.282  29.739  26.146  1.00  0.00    -0.462 OA
BRANCH   2   3
ATOM      3  C   UNL A   1      33.062  28.406  26.271  1.00  0.00     0.310 C 
ATOM      4  O   UNL A   1      34.008  27.648  26.475  1.00  0.00    -0.252 OA
BRANCH   3   5
ATOM      5  C   UNL A   1      31.653  27.880  26.089  1.00  0.00     0.160 C 
BRANCH   5   6
ATOM      6  C   UNL A   1      31.417  27.260  24.734  1.00  0.00    -0.013 A 
ATOM      7  C   UNL A   1      30.953  28.088  23.690  1.00  0.00     0.006 A 
ATOM      8  C   UNL A   1      31.707  25.911  24.463  1.00  0.00     0.042 A 
ATOM      9  C   UNL A   1      30.778  27.596  22.399  1.00  0.00     0.000 A 
ATOM     10  C   UNL A   1      31.467  25.428  23.163  1.00  0.00     0.026 A 
ATOM     11  C   UNL A   1      31.026  26.259  22.138  1.00  0.00     0.002 A 
BRANCH   8  12
ATOM     12  N   UNL A   1      32.322  25.083  25.430  1.00  0.00    -0.354 N 
ATOM     13  H   UNL A   1      32.552  25.508  26.288  1.00  0.00     0.167 HD
BRANCH  12  14
ATOM     14  C   UNL A   1      32.642  23.709  25.301  1.00  0.00     0.070 A 
ATOM     15  C   UNL A   1      31.695  22.747  25.713  1.00  0.00     0.065 A 
ATOM     16  C   UNL A   1      33.796  23.272  24.617  1.00  0.00     0.080 A 
ATOM     17  Cl  UNL A   1      30.353  23.205  26.707  1.00  0.00    -0.082 Cl
ATOM     18  C   UNL A   1      31.802  21.417  25.314  1.00  0.00     0.023 A 
ATOM     19  C   UNL A   1      33.848  21.945  24.151  1.00  0.00     0.015 A 
ATOM     20  C   UNL A   1      32.841  21.037  24.473  1.00  0.00     0.002 A 
BRANCH  16  21
ATOM     21  C   UNL A   1      35.026  24.136  24.441  1.00  0.00     0.418 C 
ATOM     22  F   UNL A   1      36.112  23.397  24.059  1.00  0.00    -0.166 F 
ATOM     23  F   UNL A   1      34.888  25.088  23.476  1.00  0.00    -0.166 F 
ATOM     24  F   UNL A   1      35.448  24.789  25.564  1.00  0.00    -0.166 F 
ENDBRANCH  16  21
ENDBRANCH  12  14
ENDBRANCH   8  12
ENDBRANCH   5   6
ENDBRANCH   3   5
ENDBRANCH   2   3
ENDBRANCH   1   2
BRANCH   1  25
ATOM     25  C   UNL A   1      34.541  31.166  27.726  1.00  0.00     0.275 C 
BRANCH  25  26
ATOM     26  O   UNL A   1      35.257  30.138  28.433  1.00  0.00    -0.458 OA
BRANCH  26  27
ATOM     27  C   UNL A   1      36.124  30.579  29.384  1.00  0.00     0.338 C 
ATOM     28  O   UNL A   1      35.837  31.192  30.391  1.00  0.00    -0.246 OA
BRANCH  27  29
ATOM     29  C   UNL A   1      37.491  30.080  29.088  1.00  0.00     0.060 A 
ATOM     30  C   UNL A   1      38.354  29.836  30.163  1.00  0.00     0.016 A 
ATOM     31  C   UNL A   1      37.930  29.861  27.779  1.00  0.00     0.016 A 
ATOM     32  C   UNL A   1      39.654  29.372  29.931  1.00  0.00     0.010 A 
ATOM     33  C   UNL A   1      39.239  29.416  27.548  1.00  0.00     0.010 A 
ATOM     34  C   UNL A   1      40.114  29.176  28.620  1.00  0.00    -0.014 A 
BRANCH  34  35
ATOM     35  C   UNL A   1      41.518  28.754  28.370  1.00  0.00     0.031 A 
ATOM     36  C   UNL A   1      42.639  29.742  28.484  1.00  0.00     0.074 A 
ATOM     37  C   UNL A   1      41.801  27.501  27.964  1.00  0.00     0.049 A 
ATOM     38  N   UNL A   1      43.918  29.557  28.281  1.00  0.00    -0.248 NA
ATOM     39  C   UNL A   1      42.270  31.127  28.809  1.00  0.00     0.031 C 
ATOM     40  C   UNL A   1      40.803  26.487  27.656  1.00  0.00     0.029 A 
ATOM     41  N   UNL A   1      43.003  26.878  27.715  1.00  0.00    -0.354 N 
ATOM     42  C   UNL A   1      44.503  30.808  28.387  1.00  0.00     0.074 A 
ATOM     43  C   UNL A   1      43.443  31.742  28.710  1.00  0.00     0.031 C 
ATOM     44  C   UNL A   1      41.439  25.363  27.287  1.00  0.00     0.029 A 
ATOM     45  C   UNL A   1      42.877  25.555  27.362  1.00  0.00     0.049 A 
ATOM     46  H   UNL A   1      43.872  27.337  27.781  1.00  0.00     0.167 HD
ATOM     47  C   UNL A   1      45.799  31.152  28.194  1.00  0.00     0.037 A 
ATOM     48  C   UNL A   1      43.799  24.598  27.133  1.00  0.00     0.037 A 
ATOM     49  C   UNL A   1      46.861  30.230  27.879  1.00  0.00     0.049 A 
ATOM     50  C   UNL A   1      45.253  24.973  27.117  1.00  0.00     0.074 A 
ATOM     51  C   UNL A   1      48.212  30.501  27.732  1.00  0.00     0.029 A 
ATOM     52  N   UNL A   1      46.703  28.873  27.648  1.00  0.00    -0.354 N 
ATOM     53  N   UNL A   1      45.797  26.146  27.320  1.00  0.00    -0.248 NA
ATOM     54  C   UNL A   1      46.214  23.907  26.790  1.00  0.00     0.031 C 
ATOM     55  C   UNL A   1      48.864  29.319  27.368  1.00  0.00     0.029 A 
ATOM     56  C   UNL A   1      47.927  28.301  27.335  1.00  0.00     0.049 A 
ATOM     57  H   UNL A   1      45.848  28.387  27.700  1.00  0.00     0.167 HD
ATOM     58  C   UNL A   1      47.154  25.971  27.083  1.00  0.00     0.074 A 
ATOM     59  C   UNL A   1      47.364  24.565  26.818  1.00  0.00     0.031 C 
ATOM     60  C   UNL A   1      48.129  26.908  27.038  1.00  0.00     0.037 A 
BRANCH  47  61
ATOM     61  C   UNL A   1      46.151  32.607  28.272  1.00  0.00     0.058 A 
ATOM     62  C   UNL A   1      46.071  33.447  27.152  1.00  0.00     0.135 A 
ATOM     63  C   UNL A   1      46.492  33.179  29.508  1.00  0.00     0.135 A 
ATOM     64  F   UNL A   1      45.768  32.940  25.947  1.00  0.00    -0.206 F 
ATOM     65  C   UNL A   1      46.318  34.811  27.257  1.00  0.00     0.059 A 
ATOM     66  C   UNL A   1      46.721  34.544  29.639  1.00  0.00     0.059 A 
ATOM     67  F   UNL A   1      46.587  32.412  30.605  1.00  0.00    -0.206 F 
ATOM     68  C   UNL A   1      46.634  35.350  28.506  1.00  0.00     0.060 A 
BRANCH  68  69
ATOM     69  S   UNL A   1      46.902  37.131  28.631  1.00  0.00     0.124 S 
ATOM     70  O   UNL A   1      46.530  37.384  30.020  1.00  0.00    -0.237 OA
ATOM     71  O   UNL A   1      48.324  37.254  28.324  1.00  0.00    -0.237 OA
ATOM     72  O   UNL A   1      45.998  37.683  27.628  1.00  0.00    -0.744 OA
ENDBRANCH  68  69
ENDBRANCH  47  61
BRANCH  48  73
ATOM     73  C   UNL A   1      43.412  23.177  26.913  1.00  0.00     0.058 A 
ATOM     74  C   UNL A   1      43.456  22.630  25.618  1.00  0.00     0.135 A 
ATOM     75  C   UNL A   1      42.955  22.355  27.950  1.00  0.00     0.135 A 
ATOM     76  F   UNL A   1      43.885  23.376  24.588  1.00  0.00    -0.206 F 
ATOM     77  C   UNL A   1      43.051  21.326  25.359  1.00  0.00     0.059 A 
ATOM     78  C   UNL A   1      42.582  21.033  27.723  1.00  0.00     0.059 A 
ATOM     79  F   UNL A   1      42.894  22.825  29.206  1.00  0.00    -0.206 F 
ATOM     80  C   UNL A   1      42.628  20.529  26.422  1.00  0.00     0.060 A 
BRANCH  80  81
ATOM     81  S   UNL A   1      42.267  18.786  26.118  1.00  0.00     0.124 S 
ATOM     82  O   UNL A   1      40.861  18.838  25.739  1.00  0.00    -0.237 OA
ATOM     83  O   UNL A   1      43.210  18.458  25.052  1.00  0.00    -0.237 OA
ATOM     84  O   UNL A   1      42.562  18.167  27.406  1.00  0.00    -0.744 OA
ENDBRANCH  80  81
ENDBRANCH  48  73
BRANCH  60  85
ATOM     85  C   UNL A   1      49.496  26.450  26.621  1.00  0.00     0.058 A 
ATOM     86  C   UNL A   1      49.941  26.622  25.299  1.00  0.00     0.135 A 
ATOM     87  C   UNL A   1      50.380  25.869  27.541  1.00  0.00     0.135 A 
ATOM     88  F   UNL A   1      49.127  27.159  24.377  1.00  0.00    -0.206 F 
ATOM     89  C   UNL A   1      51.209  26.216  24.900  1.00  0.00     0.059 A 
ATOM     90  C   UNL A   1      51.662  25.478  27.169  1.00  0.00     0.059 A 
ATOM     91  F   UNL A   1      50.003  25.683  28.816  1.00  0.00    -0.206 F 
ATOM     92  C   UNL A   1      52.065  25.648  25.844  1.00  0.00     0.060 A 
BRANCH  92  93
ATOM     93  S   UNL A   1      53.723  25.162  25.322  1.00  0.00     0.124 S 
ATOM     94  O   UNL A   1      54.554  25.838  26.313  1.00  0.00    -0.237 OA
ATOM     95  O   UNL A   1      53.669  23.707  25.426  1.00  0.00    -0.237 OA
ATOM     96  O   UNL A   1      53.817  25.684  23.962  1.00  0.00    -0.744 OA
ENDBRANCH  92  93
ENDBRANCH  60  85
ENDBRANCH  34  35
ENDBRANCH  27  29
ENDBRANCH  26  27
ENDBRANCH  25  26
ENDBRANCH   1  25
TORSDOF 18
ENDMDL
MODEL 3
REMARK VINA RESULT:     -11.4      6.872     12.082
REMARK SMILES O=C(Cc1ccccc1Nc1c(Cl)cccc1C(F)(F)F)OCCOC(=O)c1ccc(-c2c3nc(c(-c4c(F)cc(S(=O)(=O)[O-])cc4F)c4ccc([nH]4)c(-c4c(F)cc(S(=O)(=O)[O-])cc4F)c4nc(c(-c5c(F)cc(S(=O)(=O)[O-])cc5F)c5ccc2[nH]5)C=C4)C=C3)cc1
REMARK SMILES IDX 23 1 22 2 2 3 1 4 3 5 4 6 5 7 9 8 6 9 8 10 7 11 10 12 11 14
REMARK SMILES IDX 12 15 17 16 13 17 14 18 16 19 15 20 18 21 19 22 20 23 21 24
REMARK SMILES IDX 24 25 25 26 26 27 27 28 28 29 29 30 93 31 30 32 92 33 31 34
REMARK SMILES IDX 32 35 33 36 86 37 34 38 91 39 85 40 87 41 35 42 90 43 84 44
REMARK SMILES IDX 83 45 36 47 70 48 49 49 69 50 50 51 53 52 68 53 88 54 51 55
REMARK SMILES IDX 52 56 67 58 89 59 54 60 37 61 38 62 47 63 39 64 40 65 46 66
REMARK SMILES IDX 48 67 41 68 42 69 43 70 44 71 45 72 71 73 72 74 81 75 73 76
REMARK SMILES IDX 74 77 80 78 82 79 75 80 76 81 77 82 78 83 79 84 55 85 56 86
REMARK SMILES IDX 65 87 57 88 58 89 64 90 66 91 59 92 60 93 61 94 62 95 63 96
REMARK H PARENT 10 13 87 46 53 57
REMARK Flexibility Score: inf
ROOT
ATOM      1  C   UNL A   1      33.428  30.166  26.767  1.00  0.00     0.274 C 
ENDROOT
BRANCH   1   2
ATOM      2  O   UNL A   1      32.374  29.224  27.044  1.00  0.00    -0.462 OA
BRANCH   2   3
ATOM      3  C   UNL A   1      32.450  27.893  26.793  1.00  0.00     0.310 C 
ATOM      4  O   UNL A   1      31.537  27.151  27.152  1.00  0.00    -0.252 OA
BRANCH   3   5
ATOM      5  C   UNL A   1      33.697  27.347  26.128  1.00  0.00     0.160 C 
BRANCH   5   6
ATOM      6  C   UNL A   1      33.449  26.813  24.739  1.00  0.00    -0.013 A 
ATOM      7  C   UNL A   1      33.629  27.685  23.645  1.00  0.00     0.006 A 
ATOM      8  C   UNL A   1      33.115  25.468  24.499  1.00  0.00     0.042 A 
ATOM      9  C   UNL A   1      33.483  27.239  22.333  1.00  0.00     0.000 A 
ATOM     10  C   UNL A   1      32.918  25.061  23.167  1.00  0.00     0.026 A 
ATOM     11  C   UNL A   1      33.116  25.925  22.094  1.00  0.00     0.002 A 
BRANCH   8  12
ATOM     12  N   UNL A   1      33.079  24.521  25.548  1.00  0.00    -0.354 N 
ATOM     13  H   UNL A   1      32.923  24.875  26.453  1.00  0.00     0.167 HD
BRANCH  12  14
ATOM     14  C   UNL A   1      33.242  23.118  25.439  1.00  0.00     0.070 A 
ATOM     15  C   UNL A   1      32.094  22.296  25.445  1.00  0.00     0.065 A 
ATOM     16  C   UNL A   1      34.492  22.531  25.151  1.00  0.00     0.080 A 
ATOM     17  Cl  UNL A   1      30.567  22.924  25.965  1.00  0.00    -0.082 Cl
ATOM     18  C   UNL A   1      32.156  20.973  25.015  1.00  0.00     0.023 A 
ATOM     19  C   UNL A   1      34.526  21.220  24.640  1.00  0.00     0.015 A 
ATOM     20  C   UNL A   1      33.360  20.463  24.545  1.00  0.00     0.002 A 
BRANCH  16  21
ATOM     21  C   UNL A   1      35.811  23.210  25.454  1.00  0.00     0.418 C 
ATOM     22  F   UNL A   1      36.872  22.381  25.218  1.00  0.00    -0.166 F 
ATOM     23  F   UNL A   1      36.043  24.311  24.687  1.00  0.00    -0.166 F 
ATOM     24  F   UNL A   1      35.981  23.605  26.750  1.00  0.00    -0.166 F 
ENDBRANCH  16  21
ENDBRANCH  12  14
ENDBRANCH   8  12
ENDBRANCH   5   6
ENDBRANCH   3   5
ENDBRANCH   2   3
ENDBRANCH   1   2
BRANCH   1  25
ATOM     25  C   UNL A   1      34.061  30.736  28.038  1.00  0.00     0.275 C 
BRANCH  25  26
ATOM     26  O   UNL A   1      35.498  30.686  28.000  1.00  0.00    -0.458 OA
BRANCH  26  27
ATOM     27  C   UNL A   1      36.108  30.514  29.205  1.00  0.00     0.338 C 
ATOM     28  O   UNL A   1      35.568  30.527  30.292  1.00  0.00    -0.246 OA
BRANCH  27  29
ATOM     29  C   UNL A   1      37.534  30.160  29.000  1.00  0.00     0.060 A 
ATOM     30  C   UNL A   1      37.966  29.872  27.699  1.00  0.00     0.016 A 
ATOM     31  C   UNL A   1      38.440  30.100  30.063  1.00  0.00     0.016 A 
ATOM     32  C   UNL A   1      39.302  29.527  27.461  1.00  0.00     0.010 A 
ATOM     33  C   UNL A   1      39.772  29.733  29.825  1.00  0.00     0.010 A 
ATOM     34  C   UNL A   1      40.212  29.435  28.525  1.00  0.00    -0.014 A 
BRANCH  34  35
ATOM     35  C   UNL A   1      41.612  28.996  28.282  1.00  0.00     0.031 A 
ATOM     36  C   UNL A   1      42.743  29.974  28.391  1.00  0.00     0.074 A 
ATOM     37  C   UNL A   1      41.882  27.738  27.885  1.00  0.00     0.049 A 
ATOM     38  N   UNL A   1      44.021  29.772  28.194  1.00  0.00    -0.248 NA
ATOM     39  C   UNL A   1      42.389  31.365  28.707  1.00  0.00     0.031 C 
ATOM     40  C   UNL A   1      40.874  26.733  27.581  1.00  0.00     0.029 A 
ATOM     41  N   UNL A   1      43.078  27.100  27.643  1.00  0.00    -0.354 N 
ATOM     42  C   UNL A   1      44.619  31.018  28.293  1.00  0.00     0.074 A 
ATOM     43  C   UNL A   1      43.568  31.966  28.606  1.00  0.00     0.031 C 
ATOM     44  C   UNL A   1      41.498  25.600  27.221  1.00  0.00     0.029 A 
ATOM     45  C   UNL A   1      42.938  25.776  27.300  1.00  0.00     0.049 A 
ATOM     46  H   UNL A   1      43.951  27.550  27.709  1.00  0.00     0.167 HD
ATOM     47  C   UNL A   1      45.919  31.346  28.102  1.00  0.00     0.037 A 
ATOM     48  C   UNL A   1      43.851  24.808  27.080  1.00  0.00     0.037 A 
ATOM     49  C   UNL A   1      46.972  30.411  27.796  1.00  0.00     0.049 A 
ATOM     50  C   UNL A   1      45.308  25.166  27.066  1.00  0.00     0.074 A 
ATOM     51  C   UNL A   1      48.326  30.666  27.650  1.00  0.00     0.029 A 
ATOM     52  N   UNL A   1      46.800  29.054  27.574  1.00  0.00    -0.354 N 
ATOM     53  N   UNL A   1      45.865  26.335  27.261  1.00  0.00    -0.248 NA
ATOM     54  C   UNL A   1      46.259  24.088  26.749  1.00  0.00     0.031 C 
ATOM     55  C   UNL A   1      48.966  29.474  27.296  1.00  0.00     0.029 A 
ATOM     56  C   UNL A   1      48.018  28.467  27.268  1.00  0.00     0.049 A 
ATOM     57  H   UNL A   1      45.939  28.578  27.627  1.00  0.00     0.167 HD
ATOM     58  C   UNL A   1      47.221  26.143  27.030  1.00  0.00     0.074 A 
ATOM     59  C   UNL A   1      47.416  24.733  26.775  1.00  0.00     0.031 C 
ATOM     60  C   UNL A   1      48.206  27.069  26.981  1.00  0.00     0.037 A 
BRANCH  47  61
ATOM     61  C   UNL A   1      46.286  32.798  28.171  1.00  0.00     0.058 A 
ATOM     62  C   UNL A   1      46.794  33.376  29.343  1.00  0.00     0.135 A 
ATOM     63  C   UNL A   1      46.204  33.596  27.018  1.00  0.00     0.135 A 
ATOM     64  F   UNL A   1      46.872  32.657  30.473  1.00  0.00    -0.206 F 
ATOM     65  C   UNL A   1      47.211  34.702  29.369  1.00  0.00     0.059 A 
ATOM     66  C   UNL A   1      46.636  34.917  27.017  1.00  0.00     0.059 A 
ATOM     67  F   UNL A   1      45.717  33.087  25.876  1.00  0.00    -0.206 F 
ATOM     68  C   UNL A   1      47.135  35.461  28.199  1.00  0.00     0.060 A 
BRANCH  68  69
ATOM     69  S   UNL A   1      47.728  37.165  28.239  1.00  0.00     0.124 S 
ATOM     70  O   UNL A   1      48.287  37.311  26.899  1.00  0.00    -0.237 OA
ATOM     71  O   UNL A   1      46.502  37.914  28.500  1.00  0.00    -0.237 OA
ATOM     72  O   UNL A   1      48.699  37.163  29.328  1.00  0.00    -0.744 OA
ENDBRANCH  68  69
ENDBRANCH  47  61
BRANCH  48  73
ATOM     73  C   UNL A   1      43.448  23.390  26.868  1.00  0.00     0.058 A 
ATOM     74  C   UNL A   1      43.511  22.826  25.581  1.00  0.00     0.135 A 
ATOM     75  C   UNL A   1      42.959  22.586  27.906  1.00  0.00     0.135 A 
ATOM     76  F   UNL A   1      43.970  23.554  24.551  1.00  0.00    -0.206 F 
ATOM     77  C   UNL A   1      43.093  21.525  25.328  1.00  0.00     0.059 A 
ATOM     78  C   UNL A   1      42.574  21.266  27.686  1.00  0.00     0.059 A 
ATOM     79  F   UNL A   1      42.880  23.071  29.154  1.00  0.00    -0.206 F 
ATOM     80  C   UNL A   1      42.638  20.747  26.392  1.00  0.00     0.060 A 
BRANCH  80  81
ATOM     81  S   UNL A   1      42.259  19.005  26.101  1.00  0.00     0.124 S 
ATOM     82  O   UNL A   1      40.844  19.064  25.759  1.00  0.00    -0.237 OA
ATOM     83  O   UNL A   1      43.172  18.670  25.011  1.00  0.00    -0.237 OA
ATOM     84  O   UNL A   1      42.584  18.387  27.382  1.00  0.00    -0.744 OA
ENDBRANCH  80  81
ENDBRANCH  48  73
BRANCH  60  85
ATOM     85  C   UNL A   1      49.569  26.594  26.571  1.00  0.00     0.058 A 
ATOM     86  C   UNL A   1      50.402  25.924  27.484  1.00  0.00     0.135 A 
ATOM     87  C   UNL A   1      50.039  26.774  25.263  1.00  0.00     0.135 A 
ATOM     88  F   UNL A   1      50.004  25.741  28.753  1.00  0.00    -0.206 F 
ATOM     89  C   UNL A   1      51.661  25.465  27.117  1.00  0.00     0.059 A 
ATOM     90  C   UNL A   1      51.286  26.301  24.867  1.00  0.00     0.059 A 
ATOM     91  F   UNL A   1      49.282  27.408  24.354  1.00  0.00    -0.206 F 
ATOM     92  C   UNL A   1      52.094  25.655  25.804  1.00  0.00     0.060 A 
BRANCH  92  93
ATOM     93  S   UNL A   1      53.716  25.019  25.330  1.00  0.00     0.124 S 
ATOM     94  O   UNL A   1      54.573  25.606  26.355  1.00  0.00    -0.237 OA
ATOM     95  O   UNL A   1      53.522  23.575  25.417  1.00  0.00    -0.237 OA
ATOM     96  O   UNL A   1      53.903  25.541  23.980  1.00  0.00    -0.744 OA
ENDBRANCH  92  93
ENDBRANCH  60  85
ENDBRANCH  34  35
ENDBRANCH  27  29
ENDBRANCH  26  27
ENDBRANCH  25  26
ENDBRANCH   1  25
TORSDOF 18
ENDMDL
