MODEL 1
REMARK VINA RESULT:      -8.7      0.000      0.000
REMARK SMILES O=C(N[C@@H](Cc1ccc(O)cc1)C(=O)N[C@@H](Cc1c[nH]c2ccccc12)C(=O)N[C@@H](CO)C(=O)OCCOC(=O)c1ccc(-c2c3nc(c(-c4c(F)cc(S(=O)(=O)[O-])cc4F)c4ccc([nH]4)c(-c4c(F)cc(S(=O)(=O)[O-])cc4F)c4nc(c(-c5c(F)cc(S(=O)(=O)[O-])cc5F)c5ccc2[nH]5)C=C4)C=C3)cc1)c1ccc(F)cc1
REMARK SMILES IDX 33 1 34 2 30 3 29 4 27 5 28 6 16 8 15 9 13 10 14 11 4 13
REMARK SMILES IDX 3 14 1 15 2 16 107 18 108 19 113 20 109 21 112 22 110 23
REMARK SMILES IDX 111 24 5 25 6 26 7 27 12 28 8 29 11 30 9 31 10 32 17 34
REMARK SMILES IDX 18 35 19 36 26 37 20 38 21 39 25 40 22 42 24 43 23 44 31 45
REMARK SMILES IDX 32 46 35 48 36 49 37 50 38 51 39 52 40 53 41 54 42 55 106 56
REMARK SMILES IDX 43 57 105 58 44 59 45 60 46 61 99 62 47 63 104 64 98 65
REMARK SMILES IDX 100 66 48 67 103 68 97 69 96 70 49 72 83 73 62 74 82 75
REMARK SMILES IDX 63 76 66 77 81 78 101 79 64 80 65 81 80 83 102 84 67 85
REMARK SMILES IDX 50 86 51 87 60 88 52 89 53 90 59 91 61 92 54 93 55 94 56 95
REMARK SMILES IDX 57 96 58 97 84 98 85 99 94 100 86 101 87 102 93 103 95 104
REMARK SMILES IDX 88 105 89 106 90 107 91 108 92 109 68 110 69 111 78 112
REMARK SMILES IDX 70 113 71 114 77 115 79 116 72 117 73 118 74 119 75 120
REMARK SMILES IDX 76 121
REMARK H PARENT 29 7 15 12 3 17 10 33 20 41 32 47 100 71 66 82
REMARK Flexibility Score: inf
ROOT
ATOM      1  C   UNL A   1      38.746  33.649  37.592  1.00  0.00     0.331 C 
ATOM      2  O   UNL A   1      38.457  32.456  37.542  1.00  0.00    -0.250 OA
ENDROOT
BRANCH   1   3
ATOM      3  C   UNL A   1      39.461  34.453  36.341  1.00  0.00     0.218 C 
BRANCH   3   4
ATOM      4  N   UNL A   1      38.535  34.782  35.169  1.00  0.00    -0.339 N 
ATOM      5  C   UNL A   1      37.816  34.246  34.144  1.00  0.00     0.243 C 
ATOM      6  O   UNL A   1      37.850  35.051  33.180  1.00  0.00    -0.273 OA
ATOM      7  H   UNL A   1      38.411  35.758  35.148  1.00  0.00     0.164 HD
BRANCH   5   8
ATOM      8  C   UNL A   1      36.964  32.878  33.825  1.00  0.00     0.175 C 
BRANCH   8   9
ATOM      9  N   UNL A   1      37.433  31.643  34.448  1.00  0.00    -0.342 N 
ATOM     10  C   UNL A   1      38.414  30.817  33.954  1.00  0.00     0.243 C 
ATOM     11  O   UNL A   1      38.324  29.630  34.295  1.00  0.00    -0.273 OA
ATOM     12  H   UNL A   1      37.009  31.380  35.296  1.00  0.00     0.164 HD
BRANCH  10  13
ATOM     13  C   UNL A   1      39.535  31.253  32.916  1.00  0.00     0.176 C 
BRANCH  13  14
ATOM     14  N   UNL A   1      40.676  30.344  32.716  1.00  0.00    -0.340 N 
ATOM     15  O   UNL A   1      41.820  28.563  31.999  1.00  0.00    -0.269 OA
ATOM     16  C   UNL A   1      40.887  29.327  31.818  1.00  0.00     0.251 C 
ATOM     17  H   UNL A   1      41.423  30.492  33.340  1.00  0.00     0.164 HD
BRANCH  16  18
ATOM     18  C   UNL A   1      39.954  29.129  30.697  1.00  0.00     0.040 A 
ATOM     19  C   UNL A   1      40.264  29.620  29.424  1.00  0.00     0.017 A 
ATOM     20  C   UNL A   1      38.744  28.468  30.935  1.00  0.00     0.017 A 
ATOM     21  C   UNL A   1      39.313  29.545  28.410  1.00  0.00     0.040 A 
ATOM     22  C   UNL A   1      37.800  28.383  29.911  1.00  0.00     0.040 A 
ATOM     23  C   UNL A   1      38.084  28.942  28.668  1.00  0.00     0.123 A 
ATOM     24  F   UNL A   1      37.157  28.910  27.701  1.00  0.00    -0.207 F 
ENDBRANCH  16  18
ENDBRANCH  13  14
BRANCH  13  25
ATOM     25  C   UNL A   1      39.088  31.991  31.627  1.00  0.00     0.070 C 
BRANCH  25  26
ATOM     26  C   UNL A   1      39.971  32.979  30.891  1.00  0.00    -0.045 A 
ATOM     27  C   UNL A   1      41.373  32.975  30.963  1.00  0.00     0.007 A 
ATOM     28  C   UNL A   1      39.354  33.981  30.118  1.00  0.00     0.007 A 
ATOM     29  C   UNL A   1      42.127  33.857  30.179  1.00  0.00     0.046 A 
ATOM     30  C   UNL A   1      40.106  34.854  29.328  1.00  0.00     0.046 A 
ATOM     31  C   UNL A   1      41.485  34.745  29.329  1.00  0.00     0.115 A 
BRANCH  31  32
ATOM     32  O   UNL A   1      42.228  35.477  28.454  1.00  0.00    -0.508 OA
ATOM     33  H   UNL A   1      42.958  35.976  28.762  1.00  0.00     0.293 HD
ENDBRANCH  31  32
ENDBRANCH  25  26
ENDBRANCH  13  25
ENDBRANCH  10  13
ENDBRANCH   8   9
BRANCH   8  34
ATOM     34  C   UNL A   1      35.483  32.639  33.499  1.00  0.00     0.072 C 
BRANCH  34  35
ATOM     35  C   UNL A   1      35.031  33.471  32.439  1.00  0.00    -0.020 A 
ATOM     36  C   UNL A   1      34.604  34.776  32.474  1.00  0.00     0.087 A 
ATOM     37  C   UNL A   1      35.204  32.998  31.145  1.00  0.00     0.003 A 
ATOM     38  N   UNL A   1      34.628  35.184  31.180  1.00  0.00    -0.361 N 
ATOM     39  C   UNL A   1      35.112  34.140  30.424  1.00  0.00     0.046 A 
ATOM     40  C   UNL A   1      35.644  31.787  30.565  1.00  0.00     0.010 A 
ATOM     41  H   UNL A   1      34.351  36.066  30.842  1.00  0.00     0.166 HD
ATOM     42  C   UNL A   1      35.540  34.102  29.140  1.00  0.00     0.026 A 
ATOM     43  C   UNL A   1      36.176  31.785  29.291  1.00  0.00     0.001 A 
ATOM     44  C   UNL A   1      36.170  32.964  28.601  1.00  0.00     0.002 A 
ENDBRANCH  34  35
ENDBRANCH   8  34
ENDBRANCH   5   8
ENDBRANCH   3   4
BRANCH   3  45
ATOM     45  C   UNL A   1      40.094  35.767  36.831  1.00  0.00     0.193 C 
BRANCH  45  46
ATOM     46  O   UNL A   1      39.936  36.838  35.906  1.00  0.00    -0.394 OA
ATOM     47  H   UNL A   1      40.479  36.669  35.119  1.00  0.00     0.210 HD
ENDBRANCH  45  46
ENDBRANCH   3  45
ENDBRANCH   1   3
BRANCH   1  48
ATOM     48  O   UNL A   1      38.581  34.410  38.756  1.00  0.00    -0.460 OA
BRANCH  48  49
ATOM     49  C   UNL A   1      39.283  34.174  40.095  1.00  0.00     0.274 C 
BRANCH  49  50
ATOM     50  C   UNL A   1      40.446  32.942  40.445  1.00  0.00     0.275 C 
BRANCH  50  51
ATOM     51  O   UNL A   1      41.118  32.066  39.400  1.00  0.00    -0.458 OA
BRANCH  51  52
ATOM     52  C   UNL A   1      42.343  32.448  38.811  1.00  0.00     0.338 C 
ATOM     53  O   UNL A   1      42.991  33.407  39.217  1.00  0.00    -0.246 OA
BRANCH  52  54
ATOM     54  C   UNL A   1      42.940  31.499  37.715  1.00  0.00     0.060 A 
ATOM     55  C   UNL A   1      44.295  31.460  37.464  1.00  0.00     0.016 A 
ATOM     56  C   UNL A   1      42.172  30.759  36.782  1.00  0.00     0.016 A 
ATOM     57  C   UNL A   1      44.816  30.921  36.251  1.00  0.00     0.010 A 
ATOM     58  C   UNL A   1      42.761  30.017  35.669  1.00  0.00     0.010 A 
ATOM     59  C   UNL A   1      44.130  30.079  35.360  1.00  0.00    -0.014 A 
BRANCH  59  60
ATOM     60  C   UNL A   1      44.910  29.297  34.254  1.00  0.00     0.031 A 
ATOM     61  C   UNL A   1      45.725  28.008  34.492  1.00  0.00     0.074 A 
ATOM     62  C   UNL A   1      44.914  29.717  32.953  1.00  0.00     0.049 A 
ATOM     63  N   UNL A   1      46.648  27.446  33.728  1.00  0.00    -0.248 NA
ATOM     64  C   UNL A   1      45.467  27.254  35.724  1.00  0.00     0.031 C 
ATOM     65  C   UNL A   1      44.194  30.876  32.422  1.00  0.00     0.029 A 
ATOM     66  N   UNL A   1      45.542  29.220  31.815  1.00  0.00    -0.354 N 
ATOM     67  C   UNL A   1      47.124  26.322  34.414  1.00  0.00     0.074 A 
ATOM     68  C   UNL A   1      46.364  26.272  35.649  1.00  0.00     0.031 C 
ATOM     69  C   UNL A   1      44.306  30.930  31.093  1.00  0.00     0.029 A 
ATOM     70  C   UNL A   1      45.312  29.971  30.676  1.00  0.00     0.049 A 
ATOM     71  H   UNL A   1      46.098  28.407  31.819  1.00  0.00     0.167 HD
ATOM     72  C   UNL A   1      48.104  25.431  34.071  1.00  0.00     0.037 A 
ATOM     73  C   UNL A   1      45.887  30.027  29.454  1.00  0.00     0.037 A 
ATOM     74  C   UNL A   1      48.824  25.418  32.808  1.00  0.00     0.049 A 
ATOM     75  C   UNL A   1      47.033  29.127  29.122  1.00  0.00     0.074 A 
ATOM     76  C   UNL A   1      49.846  24.570  32.399  1.00  0.00     0.029 A 
ATOM     77  N   UNL A   1      48.590  26.273  31.740  1.00  0.00    -0.354 N 
ATOM     78  N   UNL A   1      47.574  28.189  29.856  1.00  0.00    -0.248 NA
ATOM     79  C   UNL A   1      47.671  29.315  27.812  1.00  0.00     0.031 C 
ATOM     80  C   UNL A   1      50.273  24.955  31.122  1.00  0.00     0.029 A 
ATOM     81  C   UNL A   1      49.473  26.001  30.699  1.00  0.00     0.049 A 
ATOM     82  H   UNL A   1      47.899  26.974  31.722  1.00  0.00     0.167 HD
ATOM     83  C   UNL A   1      48.620  27.676  29.100  1.00  0.00     0.074 A 
ATOM     84  C   UNL A   1      48.617  28.385  27.838  1.00  0.00     0.031 C 
ATOM     85  C   UNL A   1      49.504  26.706  29.439  1.00  0.00     0.037 A 
BRANCH  72  86
ATOM     86  C   UNL A   1      48.559  24.429  35.121  1.00  0.00     0.058 A 
ATOM     87  C   UNL A   1      49.561  24.694  36.069  1.00  0.00     0.135 A 
ATOM     88  C   UNL A   1      47.932  23.167  35.196  1.00  0.00     0.135 A 
ATOM     89  F   UNL A   1      50.182  25.884  36.082  1.00  0.00    -0.206 F 
ATOM     90  C   UNL A   1      49.974  23.730  36.993  1.00  0.00     0.059 A 
ATOM     91  C   UNL A   1      48.304  22.202  36.131  1.00  0.00     0.059 A 
ATOM     92  F   UNL A   1      46.936  22.857  34.352  1.00  0.00    -0.206 F 
ATOM     93  C   UNL A   1      49.352  22.479  37.004  1.00  0.00     0.060 A 
BRANCH  93  94
ATOM     94  S   UNL A   1      49.950  21.211  38.146  1.00  0.00     0.124 S 
ATOM     95  O   UNL A   1      51.277  21.721  38.479  1.00  0.00    -0.237 OA
ATOM     96  O   UNL A   1      48.965  21.261  39.221  1.00  0.00    -0.237 OA
ATOM     97  O   UNL A   1      49.934  19.991  37.344  1.00  0.00    -0.744 OA
ENDBRANCH  93  94
ENDBRANCH  72  86
BRANCH  73  98
ATOM     98  C   UNL A   1      45.457  31.094  28.494  1.00  0.00     0.058 A 
ATOM     99  C   UNL A   1      46.186  32.281  28.339  1.00  0.00     0.135 A 
ATOM    100  C   UNL A   1      44.345  30.902  27.651  1.00  0.00     0.135 A 
ATOM    101  F   UNL A   1      47.232  32.535  29.139  1.00  0.00    -0.206 F 
ATOM    102  C   UNL A   1      45.857  33.217  27.360  1.00  0.00     0.059 A 
ATOM    103  C   UNL A   1      44.024  31.800  26.639  1.00  0.00     0.059 A 
ATOM    104  F   UNL A   1      43.610  29.783  27.752  1.00  0.00    -0.206 F 
ATOM    105  C   UNL A   1      44.789  32.953  26.497  1.00  0.00     0.060 A 
BRANCH 105 106
ATOM    106  S   UNL A   1      44.467  34.094  25.133  1.00  0.00     0.124 S 
ATOM    107  O   UNL A   1      43.244  34.751  25.577  1.00  0.00    -0.237 OA
ATOM    108  O   UNL A   1      45.673  34.918  25.133  1.00  0.00    -0.237 OA
ATOM    109  O   UNL A   1      44.328  33.208  23.981  1.00  0.00    -0.744 OA
ENDBRANCH 105 106
ENDBRANCH  73  98
BRANCH  85 110
ATOM    110  C   UNL A   1      50.539  26.334  28.409  1.00  0.00     0.058 A 
ATOM    111  C   UNL A   1      50.266  25.417  27.381  1.00  0.00     0.135 A 
ATOM    112  C   UNL A   1      51.830  26.887  28.460  1.00  0.00     0.135 A 
ATOM    113  F   UNL A   1      49.056  24.844  27.291  1.00  0.00    -0.206 F 
ATOM    114  C   UNL A   1      51.243  25.035  26.463  1.00  0.00     0.059 A 
ATOM    115  C   UNL A   1      52.814  26.541  27.537  1.00  0.00     0.059 A 
ATOM    116  F   UNL A   1      52.151  27.768  29.420  1.00  0.00    -0.206 F 
ATOM    117  C   UNL A   1      52.515  25.600  26.552  1.00  0.00     0.060 A 
BRANCH 117 118
ATOM    118  S   UNL A   1      53.774  25.094  25.358  1.00  0.00     0.124 S 
ATOM    119  O   UNL A   1      53.541  23.656  25.276  1.00  0.00    -0.237 OA
ATOM    120  O   UNL A   1      53.409  25.863  24.174  1.00  0.00    -0.237 OA
ATOM    121  O   UNL A   1      55.027  25.491  25.995  1.00  0.00    -0.744 OA
ENDBRANCH 117 118
ENDBRANCH  85 110
ENDBRANCH  59  60
ENDBRANCH  52  54
ENDBRANCH  51  52
ENDBRANCH  50  51
ENDBRANCH  49  50
ENDBRANCH  48  49
ENDBRANCH   1  48
TORSDOF 27
ENDMDL
MODEL 2
REMARK VINA RESULT:      -8.2      1.347      2.087
REMARK SMILES O=C(N[C@@H](Cc1ccc(O)cc1)C(=O)N[C@@H](Cc1c[nH]c2ccccc12)C(=O)N[C@@H](CO)C(=O)OCCOC(=O)c1ccc(-c2c3nc(c(-c4c(F)cc(S(=O)(=O)[O-])cc4F)c4ccc([nH]4)c(-c4c(F)cc(S(=O)(=O)[O-])cc4F)c4nc(c(-c5c(F)cc(S(=O)(=O)[O-])cc5F)c5ccc2[nH]5)C=C4)C=C3)cc1)c1ccc(F)cc1
REMARK SMILES IDX 33 1 34 2 30 3 29 4 27 5 28 6 16 8 15 9 13 10 14 11 4 13
REMARK SMILES IDX 3 14 1 15 2 16 107 18 108 19 113 20 109 21 112 22 110 23
REMARK SMILES IDX 111 24 5 25 6 26 7 27 12 28 8 29 11 30 9 31 10 32 17 34
REMARK SMILES IDX 18 35 19 36 26 37 20 38 21 39 25 40 22 42 24 43 23 44 31 45
REMARK SMILES IDX 32 46 35 48 36 49 37 50 38 51 39 52 40 53 41 54 42 55 106 56
REMARK SMILES IDX 43 57 105 58 44 59 45 60 46 61 99 62 47 63 104 64 98 65
REMARK SMILES IDX 100 66 48 67 103 68 97 69 96 70 49 72 83 73 62 74 82 75
REMARK SMILES IDX 63 76 66 77 81 78 101 79 64 80 65 81 80 83 102 84 67 85
REMARK SMILES IDX 50 86 51 87 60 88 52 89 53 90 59 91 61 92 54 93 55 94 56 95
REMARK SMILES IDX 57 96 58 97 84 98 85 99 94 100 86 101 87 102 93 103 95 104
REMARK SMILES IDX 88 105 89 106 90 107 91 108 92 109 68 110 69 111 78 112
REMARK SMILES IDX 70 113 71 114 77 115 79 116 72 117 73 118 74 119 75 120
REMARK SMILES IDX 76 121
REMARK H PARENT 29 7 15 12 3 17 10 33 20 41 32 47 100 71 66 82
REMARK Flexibility Score: inf
ROOT
ATOM      1  C   UNL A   1      38.468  32.521  37.231  1.00  0.00     0.331 C 
ATOM      2  O   UNL A   1      38.204  31.336  37.419  1.00  0.00    -0.250 OA
ENDROOT
BRANCH   1   3
ATOM      3  C   UNL A   1      39.249  33.065  35.883  1.00  0.00     0.218 C 
BRANCH   3   4
ATOM      4  N   UNL A   1      38.384  33.878  34.918  1.00  0.00    -0.339 N 
ATOM      5  C   UNL A   1      37.572  33.800  33.828  1.00  0.00     0.243 C 
ATOM      6  O   UNL A   1      37.738  34.839  33.142  1.00  0.00    -0.273 OA
ATOM      7  H   UNL A   1      38.433  34.822  35.193  1.00  0.00     0.164 HD
BRANCH   5   8
ATOM      8  C   UNL A   1      36.491  32.750  33.174  1.00  0.00     0.175 C 
BRANCH   8   9
ATOM      9  N   UNL A   1      36.782  31.326  33.310  1.00  0.00    -0.342 N 
ATOM     10  C   UNL A   1      36.972  30.443  32.274  1.00  0.00     0.243 C 
ATOM     11  O   UNL A   1      36.698  29.263  32.530  1.00  0.00    -0.273 OA
ATOM     12  H   UNL A   1      36.847  30.966  34.224  1.00  0.00     0.164 HD
BRANCH  10  13
ATOM     13  C   UNL A   1      37.386  30.849  30.795  1.00  0.00     0.176 C 
BRANCH  13  14
ATOM     14  N   UNL A   1      36.629  30.253  29.682  1.00  0.00    -0.340 N 
ATOM     15  O   UNL A   1      36.242  29.345  27.676  1.00  0.00    -0.269 OA
ATOM     16  C   UNL A   1      37.034  29.535  28.584  1.00  0.00     0.251 C 
ATOM     17  H   UNL A   1      35.656  30.394  29.734  1.00  0.00     0.164 HD
BRANCH  16  18
ATOM     18  C   UNL A   1      38.427  29.068  28.481  1.00  0.00     0.040 A 
ATOM     19  C   UNL A   1      39.170  29.314  27.322  1.00  0.00     0.017 A 
ATOM     20  C   UNL A   1      38.980  28.355  29.550  1.00  0.00     0.017 A 
ATOM     21  C   UNL A   1      40.436  28.749  27.187  1.00  0.00     0.040 A 
ATOM     22  C   UNL A   1      40.254  27.803  29.414  1.00  0.00     0.040 A 
ATOM     23  C   UNL A   1      40.959  27.986  28.227  1.00  0.00     0.123 A 
ATOM     24  F   UNL A   1      42.159  27.410  28.076  1.00  0.00    -0.207 F 
ENDBRANCH  16  18
ENDBRANCH  13  14
BRANCH  13  25
ATOM     25  C   UNL A   1      37.829  32.314  30.538  1.00  0.00     0.070 C 
BRANCH  25  26
ATOM     26  C   UNL A   1      39.279  32.722  30.367  1.00  0.00    -0.045 A 
ATOM     27  C   UNL A   1      40.362  31.857  30.587  1.00  0.00     0.007 A 
ATOM     28  C   UNL A   1      39.561  34.051  29.998  1.00  0.00     0.007 A 
ATOM     29  C   UNL A   1      41.671  32.275  30.314  1.00  0.00     0.046 A 
ATOM     30  C   UNL A   1      40.864  34.465  29.715  1.00  0.00     0.046 A 
ATOM     31  C   UNL A   1      41.899  33.553  29.828  1.00  0.00     0.115 A 
BRANCH  31  32
ATOM     32  O   UNL A   1      43.151  33.888  29.410  1.00  0.00    -0.508 OA
ATOM     33  H   UNL A   1      43.900  33.509  29.825  1.00  0.00     0.293 HD
ENDBRANCH  31  32
ENDBRANCH  25  26
ENDBRANCH  13  25
ENDBRANCH  10  13
ENDBRANCH   8   9
BRANCH   8  34
ATOM     34  C   UNL A   1      34.975  32.841  32.947  1.00  0.00     0.072 C 
BRANCH  34  35
ATOM     35  C   UNL A   1      34.654  33.606  31.793  1.00  0.00    -0.020 A 
ATOM     36  C   UNL A   1      34.330  33.183  30.526  1.00  0.00     0.087 A 
ATOM     37  C   UNL A   1      34.445  34.966  31.972  1.00  0.00     0.003 A 
ATOM     38  N   UNL A   1      33.784  34.270  29.926  1.00  0.00    -0.361 N 
ATOM     39  C   UNL A   1      33.750  35.285  30.855  1.00  0.00     0.046 A 
ATOM     40  C   UNL A   1      34.575  35.873  33.049  1.00  0.00     0.010 A 
ATOM     41  H   UNL A   1      33.469  34.324  28.995  1.00  0.00     0.166 HD
ATOM     42  C   UNL A   1      33.107  36.476  30.839  1.00  0.00     0.026 A 
ATOM     43  C   UNL A   1      33.832  37.036  33.066  1.00  0.00     0.001 A 
ATOM     44  C   UNL A   1      33.055  37.306  31.976  1.00  0.00     0.002 A 
ENDBRANCH  34  35
ENDBRANCH   8  34
ENDBRANCH   5   8
ENDBRANCH   3   4
BRANCH   3  45
ATOM     45  C   UNL A   1      40.466  33.923  36.269  1.00  0.00     0.193 C 
BRANCH  45  46
ATOM     46  O   UNL A   1      41.379  34.108  35.193  1.00  0.00    -0.394 OA
ATOM     47  H   UNL A   1      42.279  33.897  35.491  1.00  0.00     0.210 HD
ENDBRANCH  45  46
ENDBRANCH   3  45
ENDBRANCH   1   3
BRANCH   1  48
ATOM     48  O   UNL A   1      38.215  33.505  38.195  1.00  0.00    -0.460 OA
BRANCH  48  49
ATOM     49  C   UNL A   1      39.095  33.832  39.403  1.00  0.00     0.274 C 
BRANCH  49  50
ATOM     50  C   UNL A   1      40.510  32.975  39.909  1.00  0.00     0.275 C 
BRANCH  50  51
ATOM     51  O   UNL A   1      41.297  32.014  39.033  1.00  0.00    -0.458 OA
BRANCH  51  52
ATOM     52  C   UNL A   1      42.555  32.376  38.505  1.00  0.00     0.338 C 
ATOM     53  O   UNL A   1      43.205  33.313  38.955  1.00  0.00    -0.246 OA
BRANCH  52  54
ATOM     54  C   UNL A   1      43.179  31.430  37.422  1.00  0.00     0.060 A 
ATOM     55  C   UNL A   1      44.544  31.353  37.240  1.00  0.00     0.016 A 
ATOM     56  C   UNL A   1      42.438  30.733  36.435  1.00  0.00     0.016 A 
ATOM     57  C   UNL A   1      45.109  30.821  36.043  1.00  0.00     0.010 A 
ATOM     58  C   UNL A   1      43.061  29.994  35.339  1.00  0.00     0.010 A 
ATOM     59  C   UNL A   1      44.445  30.019  35.101  1.00  0.00    -0.014 A 
BRANCH  59  60
ATOM     60  C   UNL A   1      45.257  29.234  34.021  1.00  0.00     0.031 A 
ATOM     61  C   UNL A   1      46.027  27.919  34.275  1.00  0.00     0.074 A 
ATOM     62  C   UNL A   1      45.335  29.674  32.729  1.00  0.00     0.049 A 
ATOM     63  N   UNL A   1      46.970  27.346  33.547  1.00  0.00    -0.248 NA
ATOM     64  C   UNL A   1      45.689  27.153  35.480  1.00  0.00     0.031 C 
ATOM     65  C   UNL A   1      44.672  30.861  32.184  1.00  0.00     0.029 A 
ATOM     66  N   UNL A   1      46.004  29.179  31.613  1.00  0.00    -0.354 N 
ATOM     67  C   UNL A   1      47.383  26.198  34.235  1.00  0.00     0.074 A 
ATOM     68  C   UNL A   1      46.563  26.149  35.431  1.00  0.00     0.031 C 
ATOM     69  C   UNL A   1      44.849  30.933  30.863  1.00  0.00     0.029 A 
ATOM     70  C   UNL A   1      45.849  29.954  30.478  1.00  0.00     0.049 A 
ATOM     71  H   UNL A   1      46.538  28.352  31.630  1.00  0.00     0.167 HD
ATOM     72  C   UNL A   1      48.355  25.287  33.924  1.00  0.00     0.037 A 
ATOM     73  C   UNL A   1      46.484  30.014  29.286  1.00  0.00     0.037 A 
ATOM     74  C   UNL A   1      49.134  25.275  32.697  1.00  0.00     0.049 A 
ATOM     75  C   UNL A   1      47.621  29.089  28.994  1.00  0.00     0.074 A 
ATOM     76  C   UNL A   1      50.153  24.406  32.323  1.00  0.00     0.029 A 
ATOM     77  N   UNL A   1      48.975  26.153  31.634  1.00  0.00    -0.354 N 
ATOM     78  N   UNL A   1      48.102  28.125  29.737  1.00  0.00    -0.248 NA
ATOM     79  C   UNL A   1      48.326  29.282  27.719  1.00  0.00     0.031 C 
ATOM     80  C   UNL A   1      50.651  24.801  31.074  1.00  0.00     0.029 A 
ATOM     81  C   UNL A   1      49.899  25.874  30.632  1.00  0.00     0.049 A 
ATOM     82  H   UNL A   1      48.304  26.872  31.595  1.00  0.00     0.167 HD
ATOM     83  C   UNL A   1      49.169  27.596  29.023  1.00  0.00     0.074 A 
ATOM     84  C   UNL A   1      49.245  28.326  27.774  1.00  0.00     0.031 C 
ATOM     85  C   UNL A   1      50.010  26.598  29.387  1.00  0.00     0.037 A 
BRANCH  72  86
ATOM     86  C   UNL A   1      48.733  24.257  34.977  1.00  0.00     0.058 A 
ATOM     87  C   UNL A   1      49.763  24.441  35.914  1.00  0.00     0.135 A 
ATOM     88  C   UNL A   1      48.000  23.054  35.067  1.00  0.00     0.135 A 
ATOM     89  F   UNL A   1      50.484  25.573  35.913  1.00  0.00    -0.206 F 
ATOM     90  C   UNL A   1      50.100  23.451  36.841  1.00  0.00     0.059 A 
ATOM     91  C   UNL A   1      48.297  22.067  36.006  1.00  0.00     0.059 A 
ATOM     92  F   UNL A   1      46.973  22.825  34.234  1.00  0.00    -0.206 F 
ATOM     93  C   UNL A   1      49.373  22.258  36.867  1.00  0.00     0.060 A 
BRANCH  93  94
ATOM     94  S   UNL A   1      49.872  20.951  38.013  1.00  0.00     0.124 S 
ATOM     95  O   UNL A   1      49.234  21.389  39.250  1.00  0.00    -0.237 OA
ATOM     96  O   UNL A   1      49.303  19.755  37.397  1.00  0.00    -0.237 OA
ATOM     97  O   UNL A   1      51.330  21.021  38.002  1.00  0.00    -0.744 OA
ENDBRANCH  93  94
ENDBRANCH  72  86
BRANCH  73  98
ATOM     98  C   UNL A   1      46.129  31.107  28.325  1.00  0.00     0.058 A 
ATOM     99  C   UNL A   1      45.117  30.946  27.369  1.00  0.00     0.135 A 
ATOM    100  C   UNL A   1      46.749  32.370  28.405  1.00  0.00     0.135 A 
ATOM    101  F   UNL A   1      44.516  29.755  27.222  1.00  0.00    -0.206 F 
ATOM    102  C   UNL A   1      44.703  32.002  26.559  1.00  0.00     0.059 A 
ATOM    103  C   UNL A   1      46.325  33.449  27.638  1.00  0.00     0.059 A 
ATOM    104  F   UNL A   1      47.724  32.584  29.303  1.00  0.00    -0.206 F 
ATOM    105  C   UNL A   1      45.296  33.257  26.720  1.00  0.00     0.060 A 
BRANCH 105 106
ATOM    106  S   UNL A   1      44.648  34.656  25.778  1.00  0.00     0.124 S 
ATOM    107  O   UNL A   1      45.677  35.665  25.998  1.00  0.00    -0.237 OA
ATOM    108  O   UNL A   1      44.568  34.105  24.428  1.00  0.00    -0.237 OA
ATOM    109  O   UNL A   1      43.358  34.918  26.412  1.00  0.00    -0.744 OA
ENDBRANCH 105 106
ENDBRANCH  73  98
BRANCH  85 110
ATOM    110  C   UNL A   1      51.084  26.216  28.402  1.00  0.00     0.058 A 
ATOM    111  C   UNL A   1      50.832  25.338  27.334  1.00  0.00     0.135 A 
ATOM    112  C   UNL A   1      52.389  26.717  28.536  1.00  0.00     0.135 A 
ATOM    113  F   UNL A   1      49.607  24.815  27.165  1.00  0.00    -0.206 F 
ATOM    114  C   UNL A   1      51.841  24.945  26.457  1.00  0.00     0.059 A 
ATOM    115  C   UNL A   1      53.407  26.358  27.655  1.00  0.00     0.059 A 
ATOM    116  F   UNL A   1      52.691  27.558  29.537  1.00  0.00    -0.206 F 
ATOM    117  C   UNL A   1      53.127  25.457  26.629  1.00  0.00     0.060 A 
BRANCH 117 118
ATOM    118  S   UNL A   1      54.427  24.936  25.487  1.00  0.00     0.124 S 
ATOM    119  O   UNL A   1      55.087  23.883  26.253  1.00  0.00    -0.237 OA
ATOM    120  O   UNL A   1      53.664  24.492  24.326  1.00  0.00    -0.237 OA
ATOM    121  O   UNL A   1      55.211  26.152  25.287  1.00  0.00    -0.744 OA
ENDBRANCH 117 118
ENDBRANCH  85 110
ENDBRANCH  59  60
ENDBRANCH  52  54
ENDBRANCH  51  52
ENDBRANCH  50  51
ENDBRANCH  49  50
ENDBRANCH  48  49
ENDBRANCH   1  48
TORSDOF 27
ENDMDL
MODEL 3
REMARK VINA RESULT:      -8.1      5.819     14.027
REMARK SMILES O=C(N[C@@H](Cc1ccc(O)cc1)C(=O)N[C@@H](Cc1c[nH]c2ccccc12)C(=O)N[C@@H](CO)C(=O)OCCOC(=O)c1ccc(-c2c3nc(c(-c4c(F)cc(S(=O)(=O)[O-])cc4F)c4ccc([nH]4)c(-c4c(F)cc(S(=O)(=O)[O-])cc4F)c4nc(c(-c5c(F)cc(S(=O)(=O)[O-])cc5F)c5ccc2[nH]5)C=C4)C=C3)cc1)c1ccc(F)cc1
REMARK SMILES IDX 33 1 34 2 30 3 29 4 27 5 28 6 16 8 15 9 13 10 14 11 4 13
REMARK SMILES IDX 3 14 1 15 2 16 107 18 108 19 113 20 109 21 112 22 110 23
REMARK SMILES IDX 111 24 5 25 6 26 7 27 12 28 8 29 11 30 9 31 10 32 17 34
REMARK SMILES IDX 18 35 19 36 26 37 20 38 21 39 25 40 22 42 24 43 23 44 31 45
REMARK SMILES IDX 32 46 35 48 36 49 37 50 38 51 39 52 40 53 41 54 42 55 106 56
REMARK SMILES IDX 43 57 105 58 44 59 45 60 46 61 99 62 47 63 104 64 98 65
REMARK SMILES IDX 100 66 48 67 103 68 97 69 96 70 49 72 83 73 62 74 82 75
REMARK SMILES IDX 63 76 66 77 81 78 101 79 64 80 65 81 80 83 102 84 67 85
REMARK SMILES IDX 50 86 51 87 60 88 52 89 53 90 59 91 61 92 54 93 55 94 56 95
REMARK SMILES IDX 57 96 58 97 84 98 85 99 94 100 86 101 87 102 93 103 95 104
REMARK SMILES IDX 88 105 89 106 90 107 91 108 92 109 68 110 69 111 78 112
REMARK SMILES IDX 70 113 71 114 77 115 79 116 72 117 73 118 74 119 75 120
REMARK SMILES IDX 76 121
REMARK H PARENT 29 7 15 12 3 17 10 33 20 41 32 47 100 71 66 82
REMARK Flexibility Score: inf
ROOT
ATOM      1  C   UNL A   1      47.157  31.765  26.920  1.00  0.00     0.331 C 
ATOM      2  O   UNL A   1      47.812  30.804  26.525  1.00  0.00    -0.250 OA
ENDROOT
BRANCH   1   3
ATOM      3  C   UNL A   1      45.829  32.336  26.125  1.00  0.00     0.218 C 
BRANCH   3   4
ATOM      4  N   UNL A   1      44.510  31.656  26.498  1.00  0.00    -0.339 N 
ATOM      5  C   UNL A   1      43.960  30.567  27.104  1.00  0.00     0.243 C 
ATOM      6  O   UNL A   1      42.907  30.268  26.488  1.00  0.00    -0.273 OA
ATOM      7  H   UNL A   1      43.776  32.226  26.175  1.00  0.00     0.164 HD
BRANCH   5   8
ATOM      8  C   UNL A   1      44.293  29.561  28.359  1.00  0.00     0.175 C 
BRANCH   8   9
ATOM      9  N   UNL A   1      45.548  28.817  28.299  1.00  0.00    -0.342 N 
ATOM     10  C   UNL A   1      45.678  27.490  27.963  1.00  0.00     0.243 C 
ATOM     11  O   UNL A   1      46.667  26.920  28.444  1.00  0.00    -0.273 OA
ATOM     12  H   UNL A   1      46.372  29.308  28.519  1.00  0.00     0.164 HD
BRANCH  10  13
ATOM     13  C   UNL A   1      44.615  26.652  27.133  1.00  0.00     0.176 C 
BRANCH  13  14
ATOM     14  N   UNL A   1      43.989  27.299  25.968  1.00  0.00    -0.340 N 
ATOM     15  O   UNL A   1      42.460  27.730  24.395  1.00  0.00    -0.269 OA
ATOM     16  C   UNL A   1      42.692  27.312  25.517  1.00  0.00     0.251 C 
ATOM     17  H   UNL A   1      44.615  27.818  25.410  1.00  0.00     0.164 HD
BRANCH  16  18
ATOM     18  C   UNL A   1      41.616  26.759  26.355  1.00  0.00     0.040 A 
ATOM     19  C   UNL A   1      41.355  27.303  27.618  1.00  0.00     0.017 A 
ATOM     20  C   UNL A   1      40.881  25.669  25.879  1.00  0.00     0.017 A 
ATOM     21  C   UNL A   1      40.428  26.683  28.452  1.00  0.00     0.040 A 
ATOM     22  C   UNL A   1      39.943  25.061  26.714  1.00  0.00     0.040 A 
ATOM     23  C   UNL A   1      39.743  25.559  27.999  1.00  0.00     0.123 A 
ATOM     24  F   UNL A   1      38.884  24.942  28.820  1.00  0.00    -0.207 F 
ENDBRANCH  16  18
ENDBRANCH  13  14
BRANCH  13  25
ATOM     25  C   UNL A   1      44.870  25.133  26.944  1.00  0.00     0.070 C 
BRANCH  25  26
ATOM     26  C   UNL A   1      43.884  24.069  27.384  1.00  0.00    -0.045 A 
ATOM     27  C   UNL A   1      43.326  24.007  28.670  1.00  0.00     0.007 A 
ATOM     28  C   UNL A   1      43.529  23.064  26.464  1.00  0.00     0.007 A 
ATOM     29  C   UNL A   1      42.347  23.053  28.975  1.00  0.00     0.046 A 
ATOM     30  C   UNL A   1      42.546  22.119  26.763  1.00  0.00     0.046 A 
ATOM     31  C   UNL A   1      41.929  22.159  28.001  1.00  0.00     0.115 A 
BRANCH  31  32
ATOM     32  O   UNL A   1      40.864  21.351  28.258  1.00  0.00    -0.508 OA
ATOM     33  H   UNL A   1      40.880  20.454  27.988  1.00  0.00     0.293 HD
ENDBRANCH  31  32
ENDBRANCH  25  26
ENDBRANCH  13  25
ENDBRANCH  10  13
ENDBRANCH   8   9
BRANCH   8  34
ATOM     34  C   UNL A   1      43.913  29.610  29.846  1.00  0.00     0.072 C 
BRANCH  34  35
ATOM     35  C   UNL A   1      43.215  30.802  30.178  1.00  0.00    -0.020 A 
ATOM     36  C   UNL A   1      43.604  32.112  30.037  1.00  0.00     0.087 A 
ATOM     37  C   UNL A   1      41.875  30.676  30.522  1.00  0.00     0.003 A 
ATOM     38  N   UNL A   1      42.461  32.830  30.169  1.00  0.00    -0.361 N 
ATOM     39  C   UNL A   1      41.425  31.939  30.332  1.00  0.00     0.046 A 
ATOM     40  C   UNL A   1      40.989  29.598  30.746  1.00  0.00     0.010 A 
ATOM     41  H   UNL A   1      42.385  33.812  30.151  1.00  0.00     0.166 HD
ATOM     42  C   UNL A   1      40.085  32.120  30.276  1.00  0.00     0.026 A 
ATOM     43  C   UNL A   1      39.630  29.777  30.584  1.00  0.00     0.001 A 
ATOM     44  C   UNL A   1      39.188  31.035  30.294  1.00  0.00     0.002 A 
ENDBRANCH  34  35
ENDBRANCH   8  34
ENDBRANCH   5   8
ENDBRANCH   3   4
BRANCH   3  45
ATOM     45  C   UNL A   1      45.666  33.848  26.354  1.00  0.00     0.193 C 
BRANCH  45  46
ATOM     46  O   UNL A   1      45.068  34.159  27.608  1.00  0.00    -0.394 OA
ATOM     47  H   UNL A   1      44.246  33.654  27.709  1.00  0.00     0.210 HD
ENDBRANCH  45  46
ENDBRANCH   3  45
ENDBRANCH   1   3
BRANCH   1  48
ATOM     48  O   UNL A   1      47.541  32.525  28.032  1.00  0.00    -0.460 OA
BRANCH  48  49
ATOM     49  C   UNL A   1      48.974  32.904  28.415  1.00  0.00     0.274 C 
BRANCH  49  50
ATOM     50  C   UNL A   1      49.450  34.137  29.531  1.00  0.00     0.275 C 
BRANCH  50  51
ATOM     51  O   UNL A   1      48.634  34.573  30.737  1.00  0.00    -0.458 OA
BRANCH  51  52
ATOM     52  C   UNL A   1      48.879  34.026  32.015  1.00  0.00     0.338 C 
ATOM     53  O   UNL A   1      49.996  34.025  32.521  1.00  0.00    -0.246 OA
BRANCH  52  54
ATOM     54  C   UNL A   1      47.634  33.562  32.848  1.00  0.00     0.060 A 
ATOM     55  C   UNL A   1      46.890  34.462  33.582  1.00  0.00     0.016 A 
ATOM     56  C   UNL A   1      47.272  32.212  33.077  1.00  0.00     0.016 A 
ATOM     57  C   UNL A   1      46.020  34.034  34.628  1.00  0.00     0.010 A 
ATOM     58  C   UNL A   1      46.206  31.812  33.993  1.00  0.00     0.010 A 
ATOM     59  C   UNL A   1      45.535  32.730  34.818  1.00  0.00    -0.014 A 
BRANCH  59  60
ATOM     60  C   UNL A   1      44.340  32.466  35.790  1.00  0.00     0.031 A 
ATOM     61  C   UNL A   1      42.850  32.495  35.387  1.00  0.00     0.074 A 
ATOM     62  C   UNL A   1      44.546  32.174  37.110  1.00  0.00     0.049 A 
ATOM     63  N   UNL A   1      41.776  32.590  36.153  1.00  0.00    -0.248 NA
ATOM     64  C   UNL A   1      42.526  32.393  33.960  1.00  0.00     0.031 C 
ATOM     65  C   UNL A   1      45.848  32.032  37.766  1.00  0.00     0.029 A 
ATOM     66  N   UNL A   1      43.665  31.932  38.160  1.00  0.00    -0.354 N 
ATOM     67  C   UNL A   1      40.663  32.628  35.303  1.00  0.00     0.074 A 
ATOM     68  C   UNL A   1      41.201  32.520  33.959  1.00  0.00     0.031 C 
ATOM     69  C   UNL A   1      45.696  31.617  39.025  1.00  0.00     0.029 A 
ATOM     70  C   UNL A   1      44.290  31.703  39.373  1.00  0.00     0.049 A 
ATOM     71  H   UNL A   1      42.687  31.924  38.050  1.00  0.00     0.167 HD
ATOM     72  C   UNL A   1      39.335  32.760  35.597  1.00  0.00     0.037 A 
ATOM     73  C   UNL A   1      43.870  31.680  40.657  1.00  0.00     0.037 A 
ATOM     74  C   UNL A   1      38.769  32.793  36.936  1.00  0.00     0.049 A 
ATOM     75  C   UNL A   1      42.434  31.936  40.983  1.00  0.00     0.074 A 
ATOM     76  C   UNL A   1      37.441  32.953  37.315  1.00  0.00     0.029 A 
ATOM     77  N   UNL A   1      39.485  32.644  38.115  1.00  0.00    -0.354 N 
ATOM     78  N   UNL A   1      41.435  32.141  40.164  1.00  0.00    -0.248 NA
ATOM     79  C   UNL A   1      42.073  31.995  42.406  1.00  0.00     0.031 C 
ATOM     80  C   UNL A   1      37.367  32.970  38.714  1.00  0.00     0.029 A 
ATOM     81  C   UNL A   1      38.637  32.751  39.214  1.00  0.00     0.049 A 
ATOM     82  H   UNL A   1      40.455  32.486  38.167  1.00  0.00     0.167 HD
ATOM     83  C   UNL A   1      40.325  32.357  40.970  1.00  0.00     0.074 A 
ATOM     84  C   UNL A   1      40.769  32.226  42.343  1.00  0.00     0.031 C 
ATOM     85  C   UNL A   1      39.057  32.645  40.592  1.00  0.00     0.037 A 
BRANCH  72  86
ATOM     86  C   UNL A   1      38.366  32.992  34.446  1.00  0.00     0.058 A 
ATOM     87  C   UNL A   1      38.140  34.247  33.859  1.00  0.00     0.135 A 
ATOM     88  C   UNL A   1      37.670  31.896  33.892  1.00  0.00     0.135 A 
ATOM     89  F   UNL A   1      38.789  35.332  34.310  1.00  0.00    -0.206 F 
ATOM     90  C   UNL A   1      37.213  34.420  32.827  1.00  0.00     0.059 A 
ATOM     91  C   UNL A   1      36.766  32.040  32.841  1.00  0.00     0.059 A 
ATOM     92  F   UNL A   1      37.867  30.658  34.373  1.00  0.00    -0.206 F 
ATOM     93  C   UNL A   1      36.517  33.313  32.337  1.00  0.00     0.060 A 
BRANCH  93  94
ATOM     94  S   UNL A   1      35.259  33.561  31.061  1.00  0.00     0.124 S 
ATOM     95  O   UNL A   1      36.065  33.514  29.845  1.00  0.00    -0.237 OA
ATOM     96  O   UNL A   1      34.365  32.426  31.272  1.00  0.00    -0.237 OA
ATOM     97  O   UNL A   1      34.693  34.867  31.386  1.00  0.00    -0.744 OA
ENDBRANCH  93  94
ENDBRANCH  72  86
BRANCH  73  98
ATOM     98  C   UNL A   1      44.883  31.537  41.753  1.00  0.00     0.058 A 
ATOM     99  C   UNL A   1      45.486  32.654  42.347  1.00  0.00     0.135 A 
ATOM    100  C   UNL A   1      45.203  30.271  42.281  1.00  0.00     0.135 A 
ATOM    101  F   UNL A   1      45.248  33.882  41.863  1.00  0.00    -0.206 F 
ATOM    102  C   UNL A   1      46.333  32.528  43.447  1.00  0.00     0.059 A 
ATOM    103  C   UNL A   1      46.010  30.123  43.402  1.00  0.00     0.059 A 
ATOM    104  F   UNL A   1      44.655  29.165  41.753  1.00  0.00    -0.206 F 
ATOM    105  C   UNL A   1      46.567  31.258  43.983  1.00  0.00     0.060 A 
BRANCH 105 106
ATOM    106  S   UNL A   1      47.538  31.118  45.501  1.00  0.00     0.124 S 
ATOM    107  O   UNL A   1      46.629  30.380  46.369  1.00  0.00    -0.237 OA
ATOM    108  O   UNL A   1      48.719  30.392  45.043  1.00  0.00    -0.237 OA
ATOM    109  O   UNL A   1      47.779  32.510  45.874  1.00  0.00    -0.744 OA
ENDBRANCH 105 106
ENDBRANCH  73  98
BRANCH  85 110
ATOM    110  C   UNL A   1      38.039  32.820  41.690  1.00  0.00     0.058 A 
ATOM    111  C   UNL A   1      37.329  31.731  42.222  1.00  0.00     0.135 A 
ATOM    112  C   UNL A   1      37.754  34.095  42.205  1.00  0.00     0.135 A 
ATOM    113  F   UNL A   1      37.547  30.490  41.758  1.00  0.00    -0.206 F 
ATOM    114  C   UNL A   1      36.350  31.903  43.199  1.00  0.00     0.059 A 
ATOM    115  C   UNL A   1      36.799  34.287  43.201  1.00  0.00     0.059 A 
ATOM    116  F   UNL A   1      38.399  35.174  41.736  1.00  0.00    -0.206 F 
ATOM    117  C   UNL A   1      36.090  33.187  43.679  1.00  0.00     0.060 A 
BRANCH 117 118
ATOM    118  S   UNL A   1      34.816  33.397  44.944  1.00  0.00     0.124 S 
ATOM    119  O   UNL A   1      35.276  32.480  45.981  1.00  0.00    -0.237 OA
ATOM    120  O   UNL A   1      34.922  34.817  45.262  1.00  0.00    -0.237 OA
ATOM    121  O   UNL A   1      33.588  33.004  44.258  1.00  0.00    -0.744 OA
ENDBRANCH 117 118
ENDBRANCH  85 110
ENDBRANCH  59  60
ENDBRANCH  52  54
ENDBRANCH  51  52
ENDBRANCH  50  51
ENDBRANCH  49  50
ENDBRANCH  48  49
ENDBRANCH   1  48
TORSDOF 27
ENDMDL
