MODEL 1
REMARK VINA RESULT:     -12.9      0.000      0.000
REMARK SMILES Cc1cccc(OCC(=O)Nc2cc(C(=O)OCCOC(=O)c3ccc(-c4c5nc(c(-c6c(F)cc(S(=O)(=O)[O-])cc6F)c6ccc([nH]6)c(-c6c(F)cc(S(=O)(=O)[O-])cc6F)c6nc(c(-c7c(F)cc(S(=O)(=O)[O-])cc7F)c7ccc4[nH]7)C=C6)C=C5)cc3)c(Cl)cc2Cl)c1
REMARK SMILES IDX 18 1 17 2 15 3 16 4 14 5 12 6 13 7 92 8 91 9 93 10 89 11
REMARK SMILES IDX 90 12 11 13 9 14 10 15 8 17 7 18 6 19 1 20 2 21 3 22 94 23
REMARK SMILES IDX 4 24 5 25 19 26 20 27 21 28 22 29 23 30 24 31 88 32 25 33
REMARK SMILES IDX 87 34 26 35 27 36 28 37 81 38 29 39 86 40 80 41 82 42 30 43
REMARK SMILES IDX 85 44 79 45 78 46 31 48 65 49 44 50 64 51 45 52 48 53 63 54
REMARK SMILES IDX 83 55 46 56 47 57 62 59 84 60 49 61 32 62 33 63 42 64 34 65
REMARK SMILES IDX 35 66 41 67 43 68 36 69 37 70 38 71 39 72 40 73 66 74 67 75
REMARK SMILES IDX 76 76 68 77 69 78 75 79 77 80 70 81 71 82 72 83 73 84 74 85
REMARK SMILES IDX 50 86 51 87 60 88 52 89 53 90 59 91 61 92 54 93 55 94 56 95
REMARK SMILES IDX 57 96 58 97
REMARK H PARENT 11 16 82 47 48 58
REMARK Flexibility Score: inf
ROOT
ATOM      1  C   UNL A   1      36.576  22.519  26.112  1.00  0.00     0.275 C 
ENDROOT
BRANCH   1   2
ATOM      2  O   UNL A   1      35.591  22.994  25.171  1.00  0.00    -0.458 OA
BRANCH   2   3
ATOM      3  C   UNL A   1      34.546  22.168  24.928  1.00  0.00     0.339 C 
ATOM      4  O   UNL A   1      34.594  20.965  24.763  1.00  0.00    -0.246 OA
BRANCH   3   5
ATOM      5  C   UNL A   1      33.287  22.918  25.122  1.00  0.00     0.080 A 
ATOM      6  C   UNL A   1      31.671  24.423  24.087  1.00  0.00     0.061 A 
ATOM      7  C   UNL A   1      32.739  23.532  23.982  1.00  0.00     0.045 A 
ATOM      8  C   UNL A   1      31.142  24.684  25.362  1.00  0.00     0.066 A 
ATOM      9  C   UNL A   1      31.654  24.049  26.494  1.00  0.00     0.044 A 
ATOM     10  Cl  UNL A   1      29.870  25.838  25.580  1.00  0.00    -0.082 Cl
ATOM     11  C   UNL A   1      32.755  23.194  26.381  1.00  0.00     0.057 A 
ATOM     12  Cl  UNL A   1      33.454  22.630  27.845  1.00  0.00    -0.083 Cl
BRANCH   6  13
ATOM     13  N   UNL A   1      31.255  25.217  23.002  1.00  0.00    -0.322 N 
ATOM     14  C   UNL A   1      31.758  26.360  22.451  1.00  0.00     0.262 C 
ATOM     15  O   UNL A   1      30.991  27.067  21.785  1.00  0.00    -0.271 OA
ATOM     16  H   UNL A   1      30.443  24.882  22.554  1.00  0.00     0.170 HD
BRANCH  14  17
ATOM     17  C   UNL A   1      33.275  26.640  22.461  1.00  0.00     0.329 C 
BRANCH  17  18
ATOM     18  O   UNL A   1      33.841  27.812  22.996  1.00  0.00    -0.484 OA
BRANCH  18  19
ATOM     19  C   UNL A   1      33.517  28.193  24.265  1.00  0.00     0.120 A 
ATOM     20  C   UNL A   1      31.757  30.805  26.392  1.00  0.00     0.044 C 
ATOM     21  C   UNL A   1      32.475  29.555  25.974  1.00  0.00    -0.047 A 
ATOM     22  C   UNL A   1      32.735  28.557  26.922  1.00  0.00     0.003 A 
ATOM     23  C   UNL A   1      32.882  29.372  24.644  1.00  0.00     0.049 A 
ATOM     24  C   UNL A   1      33.417  27.401  26.554  1.00  0.00     0.004 A 
ATOM     25  C   UNL A   1      33.814  27.228  25.231  1.00  0.00     0.046 A 
ENDBRANCH  18  19
ENDBRANCH  17  18
ENDBRANCH  14  17
ENDBRANCH   6  13
ENDBRANCH   3   5
ENDBRANCH   2   3
ENDBRANCH   1   2
BRANCH   1  26
ATOM     26  C   UNL A   1      38.044  22.764  25.710  1.00  0.00     0.275 C 
BRANCH  26  27
ATOM     27  O   UNL A   1      38.536  24.043  26.139  1.00  0.00    -0.458 OA
BRANCH  27  28
ATOM     28  C   UNL A   1      39.765  23.971  26.733  1.00  0.00     0.338 C 
ATOM     29  O   UNL A   1      40.618  23.167  26.421  1.00  0.00    -0.246 OA
BRANCH  28  30
ATOM     30  C   UNL A   1      39.987  25.286  27.402  1.00  0.00     0.060 A 
ATOM     31  C   UNL A   1      40.393  26.393  26.640  1.00  0.00     0.016 A 
ATOM     32  C   UNL A   1      39.460  25.469  28.686  1.00  0.00     0.016 A 
ATOM     33  C   UNL A   1      40.188  27.685  27.133  1.00  0.00     0.010 A 
ATOM     34  C   UNL A   1      39.157  26.737  29.123  1.00  0.00     0.010 A 
ATOM     35  C   UNL A   1      39.539  27.849  28.363  1.00  0.00    -0.014 A 
BRANCH  35  36
ATOM     36  C   UNL A   1      39.543  29.092  29.123  1.00  0.00     0.031 A 
ATOM     37  C   UNL A   1      38.488  30.118  29.110  1.00  0.00     0.074 A 
ATOM     38  C   UNL A   1      40.621  29.217  29.927  1.00  0.00     0.049 A 
ATOM     39  N   UNL A   1      38.726  31.376  29.292  1.00  0.00    -0.248 NA
ATOM     40  C   UNL A   1      37.072  29.827  28.909  1.00  0.00     0.031 C 
ATOM     41  C   UNL A   1      40.897  30.185  30.970  1.00  0.00     0.029 A 
ATOM     42  N   UNL A   1      41.808  28.510  29.803  1.00  0.00    -0.354 N 
ATOM     43  C   UNL A   1      37.521  31.997  29.525  1.00  0.00     0.074 A 
ATOM     44  C   UNL A   1      36.513  31.019  29.174  1.00  0.00     0.031 C 
ATOM     45  C   UNL A   1      42.223  30.188  31.204  1.00  0.00     0.029 A 
ATOM     46  C   UNL A   1      42.852  29.317  30.215  1.00  0.00     0.049 A 
ATOM     47  H   UNL A   1      41.893  27.585  29.475  1.00  0.00     0.167 HD
ATOM     48  C   UNL A   1      37.485  33.206  30.160  1.00  0.00     0.037 A 
ATOM     49  C   UNL A   1      43.788  29.698  29.297  1.00  0.00     0.037 A 
ATOM     50  C   UNL A   1      38.822  33.624  30.566  1.00  0.00     0.049 A 
ATOM     51  C   UNL A   1      43.771  31.190  29.080  1.00  0.00     0.074 A 
ATOM     52  C   UNL A   1      39.503  33.450  31.760  1.00  0.00     0.029 A 
ATOM     53  N   UNL A   1      39.776  33.984  29.617  1.00  0.00    -0.354 N 
ATOM     54  N   UNL A   1      42.720  31.944  29.258  1.00  0.00    -0.248 NA
ATOM     55  C   UNL A   1      44.956  31.953  28.706  1.00  0.00     0.031 C 
ATOM     56  C   UNL A   1      40.883  33.621  31.512  1.00  0.00     0.029 A 
ATOM     57  C   UNL A   1      41.042  33.933  30.174  1.00  0.00     0.049 A 
ATOM     58  H   UNL A   1      39.580  34.236  28.687  1.00  0.00     0.167 HD
ATOM     59  C   UNL A   1      43.084  33.259  29.137  1.00  0.00     0.074 A 
ATOM     60  C   UNL A   1      44.487  33.212  28.761  1.00  0.00     0.031 C 
ATOM     61  C   UNL A   1      42.230  34.289  29.417  1.00  0.00     0.037 A 
BRANCH  48  62
ATOM     62  C   UNL A   1      36.208  33.804  30.709  1.00  0.00     0.058 A 
ATOM     63  C   UNL A   1      35.221  34.347  29.857  1.00  0.00     0.135 A 
ATOM     64  C   UNL A   1      35.921  33.887  32.086  1.00  0.00     0.135 A 
ATOM     65  F   UNL A   1      35.339  34.302  28.524  1.00  0.00    -0.206 F 
ATOM     66  C   UNL A   1      34.080  34.995  30.329  1.00  0.00     0.059 A 
ATOM     67  C   UNL A   1      34.792  34.554  32.586  1.00  0.00     0.059 A 
ATOM     68  F   UNL A   1      36.741  33.322  32.988  1.00  0.00    -0.206 F 
ATOM     69  C   UNL A   1      33.882  35.118  31.697  1.00  0.00     0.060 A 
BRANCH  69  70
ATOM     70  S   UNL A   1      32.450  36.055  32.270  1.00  0.00     0.124 S 
ATOM     71  O   UNL A   1      32.085  36.816  31.078  1.00  0.00    -0.237 OA
ATOM     72  O   UNL A   1      31.523  34.995  32.651  1.00  0.00    -0.237 OA
ATOM     73  O   UNL A   1      32.984  36.852  33.372  1.00  0.00    -0.744 OA
ENDBRANCH  69  70
ENDBRANCH  48  62
BRANCH  49  74
ATOM     74  C   UNL A   1      44.107  28.665  28.259  1.00  0.00     0.058 A 
ATOM     75  C   UNL A   1      44.667  27.440  28.687  1.00  0.00     0.135 A 
ATOM     76  C   UNL A   1      43.642  28.720  26.937  1.00  0.00     0.135 A 
ATOM     77  F   UNL A   1      45.129  27.315  29.942  1.00  0.00    -0.206 F 
ATOM     78  C   UNL A   1      44.673  26.302  27.886  1.00  0.00     0.059 A 
ATOM     79  C   UNL A   1      43.655  27.590  26.107  1.00  0.00     0.059 A 
ATOM     80  F   UNL A   1      43.097  29.845  26.455  1.00  0.00    -0.206 F 
ATOM     81  C   UNL A   1      44.140  26.379  26.605  1.00  0.00     0.060 A 
BRANCH  81  82
ATOM     82  S   UNL A   1      43.948  24.840  25.673  1.00  0.00     0.124 S 
ATOM     83  O   UNL A   1      43.840  23.856  26.745  1.00  0.00    -0.237 OA
ATOM     84  O   UNL A   1      42.719  25.100  24.925  1.00  0.00    -0.237 OA
ATOM     85  O   UNL A   1      45.171  24.784  24.882  1.00  0.00    -0.744 OA
ENDBRANCH  81  82
ENDBRANCH  49  74
BRANCH  61  86
ATOM     86  C   UNL A   1      42.508  35.749  29.175  1.00  0.00     0.058 A 
ATOM     87  C   UNL A   1      43.372  36.517  29.972  1.00  0.00     0.135 A 
ATOM     88  C   UNL A   1      42.006  36.393  28.016  1.00  0.00     0.135 A 
ATOM     89  F   UNL A   1      43.993  35.987  31.036  1.00  0.00    -0.206 F 
ATOM     90  C   UNL A   1      43.669  37.848  29.678  1.00  0.00     0.059 A 
ATOM     91  C   UNL A   1      42.334  37.699  27.675  1.00  0.00     0.059 A 
ATOM     92  F   UNL A   1      41.185  35.767  27.160  1.00  0.00    -0.206 F 
ATOM     93  C   UNL A   1      43.150  38.429  28.525  1.00  0.00     0.060 A 
BRANCH  93  94
ATOM     94  S   UNL A   1      43.591  40.118  28.085  1.00  0.00     0.124 S 
ATOM     95  O   UNL A   1      43.845  40.702  29.398  1.00  0.00    -0.237 OA
ATOM     96  O   UNL A   1      44.764  39.938  27.236  1.00  0.00    -0.237 OA
ATOM     97  O   UNL A   1      42.397  40.600  27.397  1.00  0.00    -0.744 OA
ENDBRANCH  93  94
ENDBRANCH  61  86
ENDBRANCH  35  36
ENDBRANCH  28  30
ENDBRANCH  27  28
ENDBRANCH  26  27
ENDBRANCH   1  26
TORSDOF 18
ENDMDL
MODEL 2
REMARK VINA RESULT:     -12.9      4.663     11.228
REMARK SMILES Cc1cccc(OCC(=O)Nc2cc(C(=O)OCCOC(=O)c3ccc(-c4c5nc(c(-c6c(F)cc(S(=O)(=O)[O-])cc6F)c6ccc([nH]6)c(-c6c(F)cc(S(=O)(=O)[O-])cc6F)c6nc(c(-c7c(F)cc(S(=O)(=O)[O-])cc7F)c7ccc4[nH]7)C=C6)C=C5)cc3)c(Cl)cc2Cl)c1
REMARK SMILES IDX 18 1 17 2 15 3 16 4 14 5 12 6 13 7 92 8 91 9 93 10 89 11
REMARK SMILES IDX 90 12 11 13 9 14 10 15 8 17 7 18 6 19 1 20 2 21 3 22 94 23
REMARK SMILES IDX 4 24 5 25 19 26 20 27 21 28 22 29 23 30 24 31 88 32 25 33
REMARK SMILES IDX 87 34 26 35 27 36 28 37 81 38 29 39 86 40 80 41 82 42 30 43
REMARK SMILES IDX 85 44 79 45 78 46 31 48 65 49 44 50 64 51 45 52 48 53 63 54
REMARK SMILES IDX 83 55 46 56 47 57 62 59 84 60 49 61 32 62 33 63 42 64 34 65
REMARK SMILES IDX 35 66 41 67 43 68 36 69 37 70 38 71 39 72 40 73 66 74 67 75
REMARK SMILES IDX 76 76 68 77 69 78 75 79 77 80 70 81 71 82 72 83 73 84 74 85
REMARK SMILES IDX 50 86 51 87 60 88 52 89 53 90 59 91 61 92 54 93 55 94 56 95
REMARK SMILES IDX 57 96 58 97
REMARK H PARENT 11 16 82 47 48 58
REMARK Flexibility Score: inf
ROOT
ATOM      1  C   UNL A   1      33.463  29.113  27.095  1.00  0.00     0.275 C 
ENDROOT
BRANCH   1   2
ATOM      2  O   UNL A   1      33.213  29.006  25.679  1.00  0.00    -0.458 OA
BRANCH   2   3
ATOM      3  C   UNL A   1      31.922  29.124  25.287  1.00  0.00     0.339 C 
ATOM      4  O   UNL A   1      31.275  30.151  25.215  1.00  0.00    -0.246 OA
BRANCH   3   5
ATOM      5  C   UNL A   1      31.471  27.832  24.728  1.00  0.00     0.080 A 
ATOM      6  C   UNL A   1      30.474  25.666  25.240  1.00  0.00     0.061 A 
ATOM      7  C   UNL A   1      30.770  26.981  25.600  1.00  0.00     0.045 A 
ATOM      8  C   UNL A   1      30.881  25.212  23.974  1.00  0.00     0.066 A 
ATOM      9  C   UNL A   1      31.543  26.063  23.087  1.00  0.00     0.044 A 
ATOM     10  Cl  UNL A   1      30.621  23.571  23.490  1.00  0.00    -0.082 Cl
ATOM     11  C   UNL A   1      31.874  27.363  23.478  1.00  0.00     0.057 A 
ATOM     12  Cl  UNL A   1      32.876  28.264  22.411  1.00  0.00    -0.083 Cl
BRANCH   6  13
ATOM     13  N   UNL A   1      29.980  24.733  26.170  1.00  0.00    -0.322 N 
ATOM     14  C   UNL A   1      30.540  23.640  26.765  1.00  0.00     0.262 C 
ATOM     15  O   UNL A   1      29.781  22.772  27.213  1.00  0.00    -0.271 OA
ATOM     16  H   UNL A   1      29.049  24.902  26.445  1.00  0.00     0.170 HD
BRANCH  14  17
ATOM     17  C   UNL A   1      32.051  23.597  27.073  1.00  0.00     0.329 C 
BRANCH  17  18
ATOM     18  O   UNL A   1      33.045  23.853  26.109  1.00  0.00    -0.484 OA
BRANCH  18  19
ATOM     19  C   UNL A   1      33.774  22.816  25.609  1.00  0.00     0.120 A 
ATOM     20  C   UNL A   1      37.219  21.672  24.480  1.00  0.00     0.044 C 
ATOM     21  C   UNL A   1      35.769  21.660  24.868  1.00  0.00    -0.047 A 
ATOM     22  C   UNL A   1      35.068  20.447  24.886  1.00  0.00     0.003 A 
ATOM     23  C   UNL A   1      35.110  22.848  25.219  1.00  0.00     0.049 A 
ATOM     24  C   UNL A   1      33.719  20.422  25.224  1.00  0.00     0.004 A 
ATOM     25  C   UNL A   1      33.075  21.606  25.574  1.00  0.00     0.046 A 
ENDBRANCH  18  19
ENDBRANCH  17  18
ENDBRANCH  14  17
ENDBRANCH   6  13
ENDBRANCH   3   5
ENDBRANCH   2   3
ENDBRANCH   1   2
BRANCH   1  26
ATOM     26  C   UNL A   1      34.113  30.434  27.552  1.00  0.00     0.275 C 
BRANCH  26  27
ATOM     27  O   UNL A   1      35.543  30.428  27.428  1.00  0.00    -0.458 OA
BRANCH  27  28
ATOM     28  C   UNL A   1      36.185  30.453  28.634  1.00  0.00     0.338 C 
ATOM     29  O   UNL A   1      35.655  30.787  29.673  1.00  0.00    -0.246 OA
BRANCH  28  30
ATOM     30  C   UNL A   1      37.385  29.577  28.492  1.00  0.00     0.060 A 
ATOM     31  C   UNL A   1      38.290  29.805  27.444  1.00  0.00     0.016 A 
ATOM     32  C   UNL A   1      37.756  28.787  29.586  1.00  0.00     0.016 A 
ATOM     33  C   UNL A   1      39.595  29.312  27.538  1.00  0.00     0.010 A 
ATOM     34  C   UNL A   1      39.067  28.398  29.731  1.00  0.00     0.010 A 
ATOM     35  C   UNL A   1      39.985  28.636  28.701  1.00  0.00    -0.014 A 
BRANCH  35  36
ATOM     36  C   UNL A   1      41.186  27.817  28.800  1.00  0.00     0.031 A 
ATOM     37  C   UNL A   1      41.335  26.437  28.308  1.00  0.00     0.074 A 
ATOM     38  C   UNL A   1      42.227  28.470  29.359  1.00  0.00     0.049 A 
ATOM     39  N   UNL A   1      42.118  25.572  28.866  1.00  0.00    -0.248 NA
ATOM     40  C   UNL A   1      40.638  25.910  27.140  1.00  0.00     0.031 C 
ATOM     41  C   UNL A   1      43.623  28.088  29.453  1.00  0.00     0.029 A 
ATOM     42  N   UNL A   1      42.140  29.618  30.134  1.00  0.00    -0.354 N 
ATOM     43  C   UNL A   1      42.254  24.514  27.997  1.00  0.00     0.074 A 
ATOM     44  C   UNL A   1      41.237  24.717  26.986  1.00  0.00     0.031 C 
ATOM     45  C   UNL A   1      44.194  28.817  30.431  1.00  0.00     0.029 A 
ATOM     46  C   UNL A   1      43.143  29.589  31.085  1.00  0.00     0.049 A 
ATOM     47  H   UNL A   1      41.473  30.335  30.023  1.00  0.00     0.167 HD
ATOM     48  C   UNL A   1      43.322  23.670  28.107  1.00  0.00     0.037 A 
ATOM     49  C   UNL A   1      42.793  29.506  32.403  1.00  0.00     0.037 A 
ATOM     50  C   UNL A   1      44.228  24.108  29.163  1.00  0.00     0.049 A 
ATOM     51  C   UNL A   1      43.268  28.213  33.016  1.00  0.00     0.074 A 
ATOM     52  C   UNL A   1      45.357  24.910  29.114  1.00  0.00     0.029 A 
ATOM     53  N   UNL A   1      43.849  24.043  30.502  1.00  0.00    -0.354 N 
ATOM     54  N   UNL A   1      43.461  27.111  32.345  1.00  0.00    -0.248 NA
ATOM     55  C   UNL A   1      43.622  28.085  34.425  1.00  0.00     0.031 C 
ATOM     56  C   UNL A   1      45.609  25.400  30.414  1.00  0.00     0.029 A 
ATOM     57  C   UNL A   1      44.655  24.870  31.264  1.00  0.00     0.049 A 
ATOM     58  H   UNL A   1      43.115  23.491  30.854  1.00  0.00     0.167 HD
ATOM     59  C   UNL A   1      44.046  26.181  33.164  1.00  0.00     0.074 A 
ATOM     60  C   UNL A   1      44.098  26.828  34.465  1.00  0.00     0.031 C 
ATOM     61  C   UNL A   1      44.502  24.978  32.705  1.00  0.00     0.037 A 
BRANCH  48  62
ATOM     62  C   UNL A   1      43.697  22.680  27.027  1.00  0.00     0.058 A 
ATOM     63  C   UNL A   1      42.954  21.497  26.820  1.00  0.00     0.135 A 
ATOM     64  C   UNL A   1      44.809  22.844  26.177  1.00  0.00     0.135 A 
ATOM     65  F   UNL A   1      41.849  21.226  27.525  1.00  0.00    -0.206 F 
ATOM     66  C   UNL A   1      43.327  20.514  25.903  1.00  0.00     0.059 A 
ATOM     67  C   UNL A   1      45.218  21.860  25.264  1.00  0.00     0.059 A 
ATOM     68  F   UNL A   1      45.536  23.973  26.218  1.00  0.00    -0.206 F 
ATOM     69  C   UNL A   1      44.475  20.689  25.144  1.00  0.00     0.060 A 
BRANCH  69  70
ATOM     70  S   UNL A   1      44.983  19.349  24.046  1.00  0.00     0.124 S 
ATOM     71  O   UNL A   1      44.379  19.746  22.777  1.00  0.00    -0.237 OA
ATOM     72  O   UNL A   1      46.438  19.438  24.109  1.00  0.00    -0.237 OA
ATOM     73  O   UNL A   1      44.398  18.163  24.665  1.00  0.00    -0.744 OA
ENDBRANCH  69  70
ENDBRANCH  48  62
BRANCH  49  74
ATOM     74  C   UNL A   1      41.540  30.242  32.768  1.00  0.00     0.058 A 
ATOM     75  C   UNL A   1      40.397  29.485  33.110  1.00  0.00     0.135 A 
ATOM     76  C   UNL A   1      41.498  31.614  33.056  1.00  0.00     0.135 A 
ATOM     77  F   UNL A   1      40.369  28.164  32.866  1.00  0.00    -0.206 F 
ATOM     78  C   UNL A   1      39.315  30.033  33.792  1.00  0.00     0.059 A 
ATOM     79  C   UNL A   1      40.411  32.190  33.726  1.00  0.00     0.059 A 
ATOM     80  F   UNL A   1      42.543  32.401  32.763  1.00  0.00    -0.206 F 
ATOM     81  C   UNL A   1      39.342  31.383  34.120  1.00  0.00     0.060 A 
BRANCH  81  82
ATOM     82  S   UNL A   1      38.039  32.018  35.203  1.00  0.00     0.124 S 
ATOM     83  O   UNL A   1      38.693  33.174  35.808  1.00  0.00    -0.237 OA
ATOM     84  O   UNL A   1      36.979  32.320  34.242  1.00  0.00    -0.237 OA
ATOM     85  O   UNL A   1      37.782  30.895  36.096  1.00  0.00    -0.744 OA
ENDBRANCH  81  82
ENDBRANCH  49  74
BRANCH  61  86
ATOM     86  C   UNL A   1      45.025  23.853  33.561  1.00  0.00     0.058 A 
ATOM     87  C   UNL A   1      46.296  23.858  34.157  1.00  0.00     0.135 A 
ATOM     88  C   UNL A   1      44.179  22.777  33.927  1.00  0.00     0.135 A 
ATOM     89  F   UNL A   1      47.148  24.877  33.971  1.00  0.00    -0.206 F 
ATOM     90  C   UNL A   1      46.723  22.838  35.006  1.00  0.00     0.059 A 
ATOM     91  C   UNL A   1      44.563  21.781  34.815  1.00  0.00     0.059 A 
ATOM     92  F   UNL A   1      42.932  22.662  33.443  1.00  0.00    -0.206 F 
ATOM     93  C   UNL A   1      45.848  21.805  35.333  1.00  0.00     0.060 A 
BRANCH  93  94
ATOM     94  S   UNL A   1      46.353  20.526  36.495  1.00  0.00     0.124 S 
ATOM     95  O   UNL A   1      47.800  20.517  36.305  1.00  0.00    -0.237 OA
ATOM     96  O   UNL A   1      45.887  21.046  37.776  1.00  0.00    -0.237 OA
ATOM     97  O   UNL A   1      45.642  19.346  36.012  1.00  0.00    -0.744 OA
ENDBRANCH  93  94
ENDBRANCH  61  86
ENDBRANCH  35  36
ENDBRANCH  28  30
ENDBRANCH  27  28
ENDBRANCH  26  27
ENDBRANCH   1  26
TORSDOF 18
ENDMDL
MODEL 3
REMARK VINA RESULT:     -12.8      4.491     11.039
REMARK SMILES Cc1cccc(OCC(=O)Nc2cc(C(=O)OCCOC(=O)c3ccc(-c4c5nc(c(-c6c(F)cc(S(=O)(=O)[O-])cc6F)c6ccc([nH]6)c(-c6c(F)cc(S(=O)(=O)[O-])cc6F)c6nc(c(-c7c(F)cc(S(=O)(=O)[O-])cc7F)c7ccc4[nH]7)C=C6)C=C5)cc3)c(Cl)cc2Cl)c1
REMARK SMILES IDX 18 1 17 2 15 3 16 4 14 5 12 6 13 7 92 8 91 9 93 10 89 11
REMARK SMILES IDX 90 12 11 13 9 14 10 15 8 17 7 18 6 19 1 20 2 21 3 22 94 23
REMARK SMILES IDX 4 24 5 25 19 26 20 27 21 28 22 29 23 30 24 31 88 32 25 33
REMARK SMILES IDX 87 34 26 35 27 36 28 37 81 38 29 39 86 40 80 41 82 42 30 43
REMARK SMILES IDX 85 44 79 45 78 46 31 48 65 49 44 50 64 51 45 52 48 53 63 54
REMARK SMILES IDX 83 55 46 56 47 57 62 59 84 60 49 61 32 62 33 63 42 64 34 65
REMARK SMILES IDX 35 66 41 67 43 68 36 69 37 70 38 71 39 72 40 73 66 74 67 75
REMARK SMILES IDX 76 76 68 77 69 78 75 79 77 80 70 81 71 82 72 83 73 84 74 85
REMARK SMILES IDX 50 86 51 87 60 88 52 89 53 90 59 91 61 92 54 93 55 94 56 95
REMARK SMILES IDX 57 96 58 97
REMARK H PARENT 11 16 82 47 48 58
REMARK Flexibility Score: inf
ROOT
ATOM      1  C   UNL A   1      32.784  29.908  27.033  1.00  0.00     0.275 C 
ENDROOT
BRANCH   1   2
ATOM      2  O   UNL A   1      33.136  28.683  26.357  1.00  0.00    -0.458 OA
BRANCH   2   3
ATOM      3  C   UNL A   1      32.179  27.727  26.310  1.00  0.00     0.339 C 
ATOM      4  O   UNL A   1      31.365  27.470  27.177  1.00  0.00    -0.246 OA
BRANCH   3   5
ATOM      5  C   UNL A   1      32.112  27.183  24.938  1.00  0.00     0.080 A 
ATOM      6  C   UNL A   1      33.163  25.690  23.321  1.00  0.00     0.061 A 
ATOM      7  C   UNL A   1      33.003  26.140  24.632  1.00  0.00     0.045 A 
ATOM      8  C   UNL A   1      32.399  26.296  22.309  1.00  0.00     0.066 A 
ATOM      9  C   UNL A   1      31.483  27.305  22.610  1.00  0.00     0.044 A 
ATOM     10  Cl  UNL A   1      32.602  25.847  20.650  1.00  0.00    -0.082 Cl
ATOM     11  C   UNL A   1      31.367  27.778  23.920  1.00  0.00     0.057 A 
ATOM     12  Cl  UNL A   1      30.380  29.163  24.161  1.00  0.00    -0.083 Cl
BRANCH   6  13
ATOM     13  N   UNL A   1      34.202  24.813  22.957  1.00  0.00    -0.322 N 
ATOM     14  C   UNL A   1      34.254  23.456  22.815  1.00  0.00     0.262 C 
ATOM     15  O   UNL A   1      35.361  22.909  22.889  1.00  0.00    -0.271 OA
ATOM     16  H   UNL A   1      35.056  25.266  22.768  1.00  0.00     0.170 HD
BRANCH  14  17
ATOM     17  C   UNL A   1      33.015  22.664  22.349  1.00  0.00     0.329 C 
BRANCH  17  18
ATOM     18  O   UNL A   1      32.251  21.849  23.205  1.00  0.00    -0.484 OA
BRANCH  18  19
ATOM     19  C   UNL A   1      32.025  22.254  24.488  1.00  0.00     0.120 A 
ATOM     20  C   UNL A   1      33.377  22.290  28.040  1.00  0.00     0.044 C 
ATOM     21  C   UNL A   1      32.528  22.573  26.835  1.00  0.00    -0.047 A 
ATOM     22  C   UNL A   1      31.456  23.469  26.938  1.00  0.00     0.003 A 
ATOM     23  C   UNL A   1      32.800  21.955  25.604  1.00  0.00     0.049 A 
ATOM     24  C   UNL A   1      30.649  23.727  25.836  1.00  0.00     0.004 A 
ATOM     25  C   UNL A   1      30.929  23.112  24.618  1.00  0.00     0.046 A 
ENDBRANCH  18  19
ENDBRANCH  17  18
ENDBRANCH  14  17
ENDBRANCH   6  13
ENDBRANCH   3   5
ENDBRANCH   2   3
ENDBRANCH   1   2
BRANCH   1  26
ATOM     26  C   UNL A   1      33.975  30.749  27.535  1.00  0.00     0.275 C 
BRANCH  26  27
ATOM     27  O   UNL A   1      35.223  30.042  27.481  1.00  0.00    -0.458 OA
BRANCH  27  28
ATOM     28  C   UNL A   1      36.092  30.414  28.468  1.00  0.00     0.338 C 
ATOM     29  O   UNL A   1      35.762  31.031  29.459  1.00  0.00    -0.246 OA
BRANCH  28  30
ATOM     30  C   UNL A   1      37.291  29.537  28.327  1.00  0.00     0.060 A 
ATOM     31  C   UNL A   1      38.221  29.792  27.307  1.00  0.00     0.016 A 
ATOM     32  C   UNL A   1      37.635  28.714  29.406  1.00  0.00     0.016 A 
ATOM     33  C   UNL A   1      39.521  29.290  27.416  1.00  0.00     0.010 A 
ATOM     34  C   UNL A   1      38.941  28.315  29.569  1.00  0.00     0.010 A 
ATOM     35  C   UNL A   1      39.882  28.579  28.567  1.00  0.00    -0.014 A 
BRANCH  35  36
ATOM     36  C   UNL A   1      41.077  27.751  28.668  1.00  0.00     0.031 A 
ATOM     37  C   UNL A   1      41.201  26.352  28.228  1.00  0.00     0.074 A 
ATOM     38  C   UNL A   1      42.138  28.415  29.175  1.00  0.00     0.049 A 
ATOM     39  N   UNL A   1      41.989  25.501  28.800  1.00  0.00    -0.248 NA
ATOM     40  C   UNL A   1      40.470  25.786  27.099  1.00  0.00     0.031 C 
ATOM     41  C   UNL A   1      43.532  28.022  29.250  1.00  0.00     0.029 A 
ATOM     42  N   UNL A   1      42.081  29.592  29.907  1.00  0.00    -0.354 N 
ATOM     43  C   UNL A   1      42.093  24.408  27.970  1.00  0.00     0.074 A 
ATOM     44  C   UNL A   1      41.054  24.583  26.978  1.00  0.00     0.031 C 
ATOM     45  C   UNL A   1      44.135  28.782  30.185  1.00  0.00     0.029 A 
ATOM     46  C   UNL A   1      43.107  29.591  30.834  1.00  0.00     0.049 A 
ATOM     47  H   UNL A   1      41.419  30.312  29.785  1.00  0.00     0.167 HD
ATOM     48  C   UNL A   1      43.156  23.559  28.087  1.00  0.00     0.037 A 
ATOM     49  C   UNL A   1      42.790  29.562  32.162  1.00  0.00     0.037 A 
ATOM     50  C   UNL A   1      44.092  24.027  29.103  1.00  0.00     0.049 A 
ATOM     51  C   UNL A   1      43.267  28.290  32.814  1.00  0.00     0.074 A 
ATOM     52  C   UNL A   1      45.227  24.815  28.995  1.00  0.00     0.029 A 
ATOM     53  N   UNL A   1      43.746  24.019  30.452  1.00  0.00    -0.354 N 
ATOM     54  N   UNL A   1      43.433  27.160  32.182  1.00  0.00    -0.248 NA
ATOM     55  C   UNL A   1      43.655  28.213  34.218  1.00  0.00     0.031 C 
ATOM     56  C   UNL A   1      45.516  25.353  30.268  1.00  0.00     0.029 A 
ATOM     57  C   UNL A   1      44.578  24.867  31.161  1.00  0.00     0.049 A 
ATOM     58  H   UNL A   1      43.015  23.489  30.843  1.00  0.00     0.167 HD
ATOM     59  C   UNL A   1      44.029  26.257  33.023  1.00  0.00     0.074 A 
ATOM     60  C   UNL A   1      44.119  26.954  34.295  1.00  0.00     0.031 C 
ATOM     61  C   UNL A   1      44.462  25.032  32.600  1.00  0.00     0.037 A 
BRANCH  48  62
ATOM     62  C   UNL A   1      43.494  22.523  27.038  1.00  0.00     0.058 A 
ATOM     63  C   UNL A   1      42.796  21.297  26.958  1.00  0.00     0.135 A 
ATOM     64  C   UNL A   1      44.528  22.685  26.094  1.00  0.00     0.135 A 
ATOM     65  F   UNL A   1      41.763  21.021  27.763  1.00  0.00    -0.206 F 
ATOM     66  C   UNL A   1      43.145  20.279  26.071  1.00  0.00     0.059 A 
ATOM     67  C   UNL A   1      44.913  21.666  25.209  1.00  0.00     0.059 A 
ATOM     68  F   UNL A   1      45.200  23.845  26.013  1.00  0.00    -0.206 F 
ATOM     69  C   UNL A   1      44.221  20.459  25.214  1.00  0.00     0.060 A 
BRANCH  69  70
ATOM     70  S   UNL A   1      44.708  19.080  24.156  1.00  0.00     0.124 S 
ATOM     71  O   UNL A   1      46.116  18.908  24.505  1.00  0.00    -0.237 OA
ATOM     72  O   UNL A   1      43.812  18.020  24.604  1.00  0.00    -0.237 OA
ATOM     73  O   UNL A   1      44.464  19.583  22.808  1.00  0.00    -0.744 OA
ENDBRANCH  69  70
ENDBRANCH  48  62
BRANCH  49  74
ATOM     74  C   UNL A   1      41.553  30.325  32.528  1.00  0.00     0.058 A 
ATOM     75  C   UNL A   1      41.625  31.736  32.563  1.00  0.00     0.135 A 
ATOM     76  C   UNL A   1      40.272  29.757  32.574  1.00  0.00     0.135 A 
ATOM     77  F   UNL A   1      42.820  32.349  32.519  1.00  0.00    -0.206 F 
ATOM     78  C   UNL A   1      40.491  32.543  32.540  1.00  0.00     0.059 A 
ATOM     79  C   UNL A   1      39.117  30.550  32.569  1.00  0.00     0.059 A 
ATOM     80  F   UNL A   1      40.118  28.426  32.545  1.00  0.00    -0.206 F 
ATOM     81  C   UNL A   1      39.239  31.940  32.516  1.00  0.00     0.060 A 
BRANCH  81  82
ATOM     82  S   UNL A   1      37.795  32.998  32.252  1.00  0.00     0.124 S 
ATOM     83  O   UNL A   1      38.136  34.169  33.053  1.00  0.00    -0.237 OA
ATOM     84  O   UNL A   1      37.831  33.189  30.803  1.00  0.00    -0.237 OA
ATOM     85  O   UNL A   1      36.697  32.182  32.756  1.00  0.00    -0.744 OA
ENDBRANCH  81  82
ENDBRANCH  49  74
BRANCH  61  86
ATOM     86  C   UNL A   1      44.995  23.936  33.486  1.00  0.00     0.058 A 
ATOM     87  C   UNL A   1      46.335  23.851  33.894  1.00  0.00     0.135 A 
ATOM     88  C   UNL A   1      44.112  22.998  34.078  1.00  0.00     0.135 A 
ATOM     89  F   UNL A   1      47.245  24.747  33.485  1.00  0.00    -0.206 F 
ATOM     90  C   UNL A   1      46.783  22.869  34.776  1.00  0.00     0.059 A 
ATOM     91  C   UNL A   1      44.526  22.048  35.002  1.00  0.00     0.059 A 
ATOM     92  F   UNL A   1      42.802  22.982  33.789  1.00  0.00    -0.206 F 
ATOM     93  C   UNL A   1      45.871  21.974  35.329  1.00  0.00     0.060 A 
BRANCH  93  94
ATOM     94  S   UNL A   1      46.417  20.754  36.535  1.00  0.00     0.124 S 
ATOM     95  O   UNL A   1      45.947  19.514  35.926  1.00  0.00    -0.237 OA
ATOM     96  O   UNL A   1      47.865  20.938  36.553  1.00  0.00    -0.237 OA
ATOM     97  O   UNL A   1      45.726  21.165  37.753  1.00  0.00    -0.744 OA
ENDBRANCH  93  94
ENDBRANCH  61  86
ENDBRANCH  35  36
ENDBRANCH  28  30
ENDBRANCH  27  28
ENDBRANCH  26  27
ENDBRANCH   1  26
TORSDOF 18
ENDMDL
