MODEL 1
REMARK VINA RESULT:     -11.9      0.000      0.000
REMARK SMILES O=C(OCCOC(=O)[C@@H]1CCCC[C@@H]1C(=O)Nc1cccc(C(F)(F)F)c1)c1ccc(-c2c3nc(c(-c4c(F)cc(S(=O)(=O)[O-])cc4F)c4ccc([nH]4)c(-c4c(F)cc(S(=O)(=O)[O-])cc4F)c4nc(c(-c5c(F)cc(S(=O)(=O)[O-])cc5F)c5ccc2[nH]5)C=C4)C=C3)cc1
REMARK SMILES IDX 4 1 3 2 2 3 1 4 28 5 29 6 93 7 30 8 92 9 31 10 32 11 33 12
REMARK SMILES IDX 86 13 34 14 91 15 85 16 87 17 35 18 90 19 84 20 83 21 36 23
REMARK SMILES IDX 70 24 49 25 69 26 50 27 53 28 68 29 88 30 51 31 52 32 67 34
REMARK SMILES IDX 89 35 54 36 37 37 38 38 47 39 39 40 40 41 46 42 48 43 41 44
REMARK SMILES IDX 42 45 43 46 44 47 45 48 71 49 72 50 81 51 73 52 74 53 80 54
REMARK SMILES IDX 82 55 75 56 76 57 77 58 78 59 79 60 55 61 56 62 65 63 57 64
REMARK SMILES IDX 58 65 64 66 66 67 59 68 60 69 61 70 62 71 63 72 5 73 6 74
REMARK SMILES IDX 7 75 8 76 9 77 10 78 14 79 11 80 13 81 12 82 15 83 16 84
REMARK SMILES IDX 17 85 18 87 19 88 27 89 20 90 22 91 21 92 23 93 24 94 25 95
REMARK SMILES IDX 26 96
REMARK H PARENT 87 22 53 33 17 86
REMARK Flexibility Score: inf
ROOT
ATOM      1  C   UNL A   1      36.968  22.704  24.094  1.00  0.00     0.275 C 
ENDROOT
BRANCH   1   2
ATOM      2  O   UNL A   1      37.275  22.789  25.505  1.00  0.00    -0.458 OA
BRANCH   2   3
ATOM      3  C   UNL A   1      38.495  22.731  26.103  1.00  0.00     0.338 C 
ATOM      4  O   UNL A   1      39.012  21.635  26.309  1.00  0.00    -0.246 OA
BRANCH   3   5
ATOM      5  C   UNL A   1      39.227  23.943  26.573  1.00  0.00     0.060 A 
ATOM      6  C   UNL A   1      39.995  24.780  25.750  1.00  0.00     0.016 A 
ATOM      7  C   UNL A   1      39.138  24.250  27.941  1.00  0.00     0.016 A 
ATOM      8  C   UNL A   1      40.507  26.000  26.255  1.00  0.00     0.010 A 
ATOM      9  C   UNL A   1      39.642  25.461  28.436  1.00  0.00     0.010 A 
ATOM     10  C   UNL A   1      40.285  26.381  27.590  1.00  0.00    -0.014 A 
BRANCH  10  11
ATOM     11  C   UNL A   1      40.822  27.653  28.170  1.00  0.00     0.031 A 
ATOM     12  C   UNL A   1      42.302  27.750  28.364  1.00  0.00     0.074 A 
ATOM     13  C   UNL A   1      40.051  28.671  28.614  1.00  0.00     0.049 A 
ATOM     14  N   UNL A   1      43.010  28.760  28.793  1.00  0.00    -0.248 NA
ATOM     15  C   UNL A   1      43.084  26.546  28.042  1.00  0.00     0.031 C 
ATOM     16  C   UNL A   1      38.600  28.700  28.567  1.00  0.00     0.029 A 
ATOM     17  N   UNL A   1      40.361  29.865  29.229  1.00  0.00    -0.354 N 
ATOM     18  C   UNL A   1      44.325  28.342  28.706  1.00  0.00     0.074 A 
ATOM     19  C   UNL A   1      44.311  26.944  28.331  1.00  0.00     0.031 C 
ATOM     20  C   UNL A   1      38.130  29.794  29.190  1.00  0.00     0.029 A 
ATOM     21  C   UNL A   1      39.260  30.600  29.628  1.00  0.00     0.049 A 
ATOM     22  H   UNL A   1      41.286  30.169  29.373  1.00  0.00     0.167 HD
ATOM     23  C   UNL A   1      45.451  29.079  28.835  1.00  0.00     0.037 A 
ATOM     24  C   UNL A   1      39.167  31.798  30.243  1.00  0.00     0.037 A 
ATOM     25  C   UNL A   1      45.476  30.448  29.258  1.00  0.00     0.049 A 
ATOM     26  C   UNL A   1      40.437  32.568  30.505  1.00  0.00     0.074 A 
ATOM     27  C   UNL A   1      46.561  31.292  29.395  1.00  0.00     0.029 A 
ATOM     28  N   UNL A   1      44.353  31.167  29.640  1.00  0.00    -0.354 N 
ATOM     29  N   UNL A   1      41.674  32.215  30.249  1.00  0.00    -0.248 NA
ATOM     30  C   UNL A   1      40.304  33.908  31.095  1.00  0.00     0.031 C 
ATOM     31  C   UNL A   1      46.095  32.519  29.886  1.00  0.00     0.029 A 
ATOM     32  C   UNL A   1      44.717  32.444  30.028  1.00  0.00     0.049 A 
ATOM     33  H   UNL A   1      43.431  30.820  29.636  1.00  0.00     0.167 HD
ATOM     34  C   UNL A   1      42.460  33.309  30.593  1.00  0.00     0.074 A 
ATOM     35  C   UNL A   1      41.560  34.332  31.086  1.00  0.00     0.031 C 
ATOM     36  C   UNL A   1      43.804  33.457  30.494  1.00  0.00     0.037 A 
BRANCH  23  37
ATOM     37  C   UNL A   1      46.712  28.388  28.420  1.00  0.00     0.058 A 
ATOM     38  C   UNL A   1      47.050  28.313  27.056  1.00  0.00     0.135 A 
ATOM     39  C   UNL A   1      47.514  27.704  29.341  1.00  0.00     0.135 A 
ATOM     40  F   UNL A   1      46.288  28.926  26.136  1.00  0.00    -0.206 F 
ATOM     41  C   UNL A   1      48.108  27.533  26.615  1.00  0.00     0.059 A 
ATOM     42  C   UNL A   1      48.595  26.934  28.921  1.00  0.00     0.059 A 
ATOM     43  F   UNL A   1      47.218  27.733  30.649  1.00  0.00    -0.206 F 
ATOM     44  C   UNL A   1      48.865  26.834  27.554  1.00  0.00     0.060 A 
BRANCH  44  45
ATOM     45  S   UNL A   1      50.192  25.768  26.957  1.00  0.00     0.124 S 
ATOM     46  O   UNL A   1      51.351  26.345  27.630  1.00  0.00    -0.237 OA
ATOM     47  O   UNL A   1      49.774  24.453  27.431  1.00  0.00    -0.237 OA
ATOM     48  O   UNL A   1      50.149  25.953  25.511  1.00  0.00    -0.744 OA
ENDBRANCH  44  45
ENDBRANCH  23  37
BRANCH  24  49
ATOM     49  C   UNL A   1      37.845  32.388  30.620  1.00  0.00     0.058 A 
ATOM     50  C   UNL A   1      37.130  33.208  29.732  1.00  0.00     0.135 A 
ATOM     51  C   UNL A   1      37.310  32.212  31.905  1.00  0.00     0.135 A 
ATOM     52  F   UNL A   1      37.596  33.417  28.491  1.00  0.00    -0.206 F 
ATOM     53  C   UNL A   1      35.965  33.870  30.116  1.00  0.00     0.059 A 
ATOM     54  C   UNL A   1      36.134  32.847  32.308  1.00  0.00     0.059 A 
ATOM     55  F   UNL A   1      37.940  31.426  32.792  1.00  0.00    -0.206 F 
ATOM     56  C   UNL A   1      35.480  33.691  31.412  1.00  0.00     0.060 A 
BRANCH  56  57
ATOM     57  S   UNL A   1      33.981  34.577  31.903  1.00  0.00     0.124 S 
ATOM     58  O   UNL A   1      34.533  35.808  32.457  1.00  0.00    -0.237 OA
ATOM     59  O   UNL A   1      33.277  34.708  30.631  1.00  0.00    -0.237 OA
ATOM     60  O   UNL A   1      33.358  33.676  32.867  1.00  0.00    -0.744 OA
ENDBRANCH  56  57
ENDBRANCH  24  49
BRANCH  36  61
ATOM     61  C   UNL A   1      44.377  34.791  30.869  1.00  0.00     0.058 A 
ATOM     62  C   UNL A   1      44.479  35.838  29.941  1.00  0.00     0.135 A 
ATOM     63  C   UNL A   1      44.774  35.039  32.192  1.00  0.00     0.135 A 
ATOM     64  F   UNL A   1      44.125  35.644  28.661  1.00  0.00    -0.206 F 
ATOM     65  C   UNL A   1      44.968  37.086  30.311  1.00  0.00     0.059 A 
ATOM     66  C   UNL A   1      45.242  36.285  32.589  1.00  0.00     0.059 A 
ATOM     67  F   UNL A   1      44.691  34.069  33.117  1.00  0.00    -0.206 F 
ATOM     68  C   UNL A   1      45.342  37.302  31.640  1.00  0.00     0.060 A 
BRANCH  68  69
ATOM     69  S   UNL A   1      45.916  38.942  32.127  1.00  0.00     0.124 S 
ATOM     70  O   UNL A   1      44.985  39.270  33.202  1.00  0.00    -0.237 OA
ATOM     71  O   UNL A   1      47.293  38.687  32.536  1.00  0.00    -0.237 OA
ATOM     72  O   UNL A   1      45.769  39.727  30.905  1.00  0.00    -0.744 OA
ENDBRANCH  68  69
ENDBRANCH  36  61
ENDBRANCH  10  11
ENDBRANCH   3   5
ENDBRANCH   2   3
ENDBRANCH   1   2
BRANCH   1  73
ATOM     73  C   UNL A   1      35.452  22.629  23.809  1.00  0.00     0.274 C 
BRANCH  73  74
ATOM     74  O   UNL A   1      35.010  23.734  23.002  1.00  0.00    -0.462 OA
BRANCH  74  75
ATOM     75  C   UNL A   1      33.713  24.155  23.173  1.00  0.00     0.309 C 
ATOM     76  O   UNL A   1      32.798  23.933  22.400  1.00  0.00    -0.252 OA
BRANCH  75  77
ATOM     77  C   UNL A   1      33.634  25.019  24.440  1.00  0.00     0.111 C 
ATOM     78  C   UNL A   1      32.394  24.817  25.303  1.00  0.00     0.016 C 
ATOM     79  C   UNL A   1      33.782  26.481  24.030  1.00  0.00     0.093 C 
ATOM     80  C   UNL A   1      32.264  25.834  26.451  1.00  0.00     0.001 C 
ATOM     81  C   UNL A   1      33.692  27.497  25.157  1.00  0.00     0.014 C 
ATOM     82  C   UNL A   1      32.549  27.299  26.123  1.00  0.00     0.001 C 
BRANCH  79  83
ATOM     83  C   UNL A   1      33.246  26.831  22.642  1.00  0.00     0.228 C 
ATOM     84  O   UNL A   1      34.028  26.713  21.690  1.00  0.00    -0.274 OA
ATOM     85  N   UNL A   1      32.036  27.107  22.158  1.00  0.00    -0.326 N 
ATOM     86  H   UNL A   1      32.053  27.038  21.176  1.00  0.00     0.169 HD
BRANCH  85  87
ATOM     87  C   UNL A   1      30.763  27.459  22.566  1.00  0.00     0.041 A 
ATOM     88  C   UNL A   1      30.056  26.474  23.264  1.00  0.00     0.026 A 
ATOM     89  C   UNL A   1      30.142  28.652  22.272  1.00  0.00     0.039 A 
ATOM     90  C   UNL A   1      28.774  26.722  23.740  1.00  0.00     0.003 A 
ATOM     91  C   UNL A   1      28.854  28.932  22.756  1.00  0.00     0.058 A 
ATOM     92  C   UNL A   1      28.179  27.957  23.502  1.00  0.00     0.013 A 
BRANCH  91  93
ATOM     93  C   UNL A   1      28.258  30.295  22.513  1.00  0.00     0.416 C 
ATOM     94  F   UNL A   1      27.250  30.613  23.363  1.00  0.00    -0.166 F 
ATOM     95  F   UNL A   1      29.198  31.275  22.667  1.00  0.00    -0.166 F 
ATOM     96  F   UNL A   1      27.781  30.444  21.249  1.00  0.00    -0.166 F 
ENDBRANCH  91  93
ENDBRANCH  85  87
ENDBRANCH  79  83
ENDBRANCH  75  77
ENDBRANCH  74  75
ENDBRANCH  73  74
ENDBRANCH   1  73
TORSDOF 17
ENDMDL
MODEL 2
REMARK VINA RESULT:     -11.8      3.328      4.517
REMARK SMILES O=C(OCCOC(=O)[C@@H]1CCCC[C@@H]1C(=O)Nc1cccc(C(F)(F)F)c1)c1ccc(-c2c3nc(c(-c4c(F)cc(S(=O)(=O)[O-])cc4F)c4ccc([nH]4)c(-c4c(F)cc(S(=O)(=O)[O-])cc4F)c4nc(c(-c5c(F)cc(S(=O)(=O)[O-])cc5F)c5ccc2[nH]5)C=C4)C=C3)cc1
REMARK SMILES IDX 4 1 3 2 2 3 1 4 28 5 29 6 93 7 30 8 92 9 31 10 32 11 33 12
REMARK SMILES IDX 86 13 34 14 91 15 85 16 87 17 35 18 90 19 84 20 83 21 36 23
REMARK SMILES IDX 70 24 49 25 69 26 50 27 53 28 68 29 88 30 51 31 52 32 67 34
REMARK SMILES IDX 89 35 54 36 37 37 38 38 47 39 39 40 40 41 46 42 48 43 41 44
REMARK SMILES IDX 42 45 43 46 44 47 45 48 71 49 72 50 81 51 73 52 74 53 80 54
REMARK SMILES IDX 82 55 75 56 76 57 77 58 78 59 79 60 55 61 56 62 65 63 57 64
REMARK SMILES IDX 58 65 64 66 66 67 59 68 60 69 61 70 62 71 63 72 5 73 6 74
REMARK SMILES IDX 7 75 8 76 9 77 10 78 14 79 11 80 13 81 12 82 15 83 16 84
REMARK SMILES IDX 17 85 18 87 19 88 27 89 20 90 22 91 21 92 23 93 24 94 25 95
REMARK SMILES IDX 26 96
REMARK H PARENT 87 22 53 33 17 86
REMARK Flexibility Score: inf
ROOT
ATOM      1  C   UNL A   1      37.133  21.916  24.762  1.00  0.00     0.275 C 
ENDROOT
BRANCH   1   2
ATOM      2  O   UNL A   1      37.800  22.131  26.026  1.00  0.00    -0.458 OA
BRANCH   2   3
ATOM      3  C   UNL A   1      39.072  22.562  26.242  1.00  0.00     0.338 C 
ATOM      4  O   UNL A   1      40.012  21.806  26.003  1.00  0.00    -0.246 OA
BRANCH   3   5
ATOM      5  C   UNL A   1      39.389  23.906  26.805  1.00  0.00     0.060 A 
ATOM      6  C   UNL A   1      39.153  24.290  28.134  1.00  0.00     0.016 A 
ATOM      7  C   UNL A   1      39.958  24.846  25.930  1.00  0.00     0.016 A 
ATOM      8  C   UNL A   1      39.648  25.526  28.617  1.00  0.00     0.010 A 
ATOM      9  C   UNL A   1      40.452  26.066  26.412  1.00  0.00     0.010 A 
ATOM     10  C   UNL A   1      40.355  26.402  27.774  1.00  0.00    -0.014 A 
BRANCH  10  11
ATOM     11  C   UNL A   1      40.881  27.725  28.238  1.00  0.00     0.031 A 
ATOM     12  C   UNL A   1      42.366  27.899  28.285  1.00  0.00     0.074 A 
ATOM     13  C   UNL A   1      40.104  28.729  28.706  1.00  0.00     0.049 A 
ATOM     14  N   UNL A   1      43.059  28.960  28.596  1.00  0.00    -0.248 NA
ATOM     15  C   UNL A   1      43.172  26.716  27.947  1.00  0.00     0.031 C 
ATOM     16  C   UNL A   1      38.656  28.690  28.796  1.00  0.00     0.029 A 
ATOM     17  N   UNL A   1      40.411  29.966  29.231  1.00  0.00    -0.354 N 
ATOM     18  C   UNL A   1      44.380  28.598  28.404  1.00  0.00     0.074 A 
ATOM     19  C   UNL A   1      44.400  27.184  28.099  1.00  0.00     0.031 C 
ATOM     20  C   UNL A   1      38.192  29.793  29.408  1.00  0.00     0.029 A 
ATOM     21  C   UNL A   1      39.316  30.670  29.698  1.00  0.00     0.049 A 
ATOM     22  H   UNL A   1      41.329  30.318  29.271  1.00  0.00     0.167 HD
ATOM     23  C   UNL A   1      45.475  29.390  28.389  1.00  0.00     0.037 A 
ATOM     24  C   UNL A   1      39.221  31.893  30.261  1.00  0.00     0.037 A 
ATOM     25  C   UNL A   1      45.471  30.779  28.743  1.00  0.00     0.049 A 
ATOM     26  C   UNL A   1      40.470  32.732  30.364  1.00  0.00     0.074 A 
ATOM     27  C   UNL A   1      46.520  31.677  28.736  1.00  0.00     0.029 A 
ATOM     28  N   UNL A   1      44.353  31.466  29.197  1.00  0.00    -0.354 N 
ATOM     29  N   UNL A   1      41.695  32.423  30.008  1.00  0.00    -0.248 NA
ATOM     30  C   UNL A   1      40.327  34.094  30.900  1.00  0.00     0.031 C 
ATOM     31  C   UNL A   1      46.042  32.906  29.211  1.00  0.00     0.029 A 
ATOM     32  C   UNL A   1      44.689  32.776  29.487  1.00  0.00     0.049 A 
ATOM     33  H   UNL A   1      43.454  31.078  29.297  1.00  0.00     0.167 HD
ATOM     34  C   UNL A   1      42.454  33.567  30.224  1.00  0.00     0.074 A 
ATOM     35  C   UNL A   1      41.554  34.572  30.751  1.00  0.00     0.031 C 
ATOM     36  C   UNL A   1      43.774  33.770  29.990  1.00  0.00     0.037 A 
BRANCH  23  37
ATOM     37  C   UNL A   1      46.724  28.736  27.889  1.00  0.00     0.058 A 
ATOM     38  C   UNL A   1      47.648  28.203  28.808  1.00  0.00     0.135 A 
ATOM     39  C   UNL A   1      47.065  28.741  26.532  1.00  0.00     0.135 A 
ATOM     40  F   UNL A   1      47.375  28.210  30.122  1.00  0.00    -0.206 F 
ATOM     41  C   UNL A   1      48.894  27.751  28.400  1.00  0.00     0.059 A 
ATOM     42  C   UNL A   1      48.301  28.271  26.099  1.00  0.00     0.059 A 
ATOM     43  F   UNL A   1      46.222  29.256  25.623  1.00  0.00    -0.206 F 
ATOM     44  C   UNL A   1      49.218  27.804  27.045  1.00  0.00     0.060 A 
BRANCH  44  45
ATOM     45  S   UNL A   1      50.868  27.279  26.542  1.00  0.00     0.124 S 
ATOM     46  O   UNL A   1      51.555  27.213  27.828  1.00  0.00    -0.237 OA
ATOM     47  O   UNL A   1      50.606  25.996  25.898  1.00  0.00    -0.237 OA
ATOM     48  O   UNL A   1      51.305  28.347  25.650  1.00  0.00    -0.744 OA
ENDBRANCH  44  45
ENDBRANCH  23  37
BRANCH  24  49
ATOM     49  C   UNL A   1      37.913  32.442  30.735  1.00  0.00     0.058 A 
ATOM     50  C   UNL A   1      37.074  33.174  29.879  1.00  0.00     0.135 A 
ATOM     51  C   UNL A   1      37.514  32.318  32.074  1.00  0.00     0.135 A 
ATOM     52  F   UNL A   1      37.407  33.331  28.588  1.00  0.00    -0.206 F 
ATOM     53  C   UNL A   1      35.918  33.801  30.339  1.00  0.00     0.059 A 
ATOM     54  C   UNL A   1      36.351  32.919  32.557  1.00  0.00     0.059 A 
ATOM     55  F   UNL A   1      38.267  31.616  32.936  1.00  0.00    -0.206 F 
ATOM     56  C   UNL A   1      35.570  33.677  31.685  1.00  0.00     0.060 A 
BRANCH  56  57
ATOM     57  S   UNL A   1      34.081  34.519  32.273  1.00  0.00     0.124 S 
ATOM     58  O   UNL A   1      34.646  35.672  32.965  1.00  0.00    -0.237 OA
ATOM     59  O   UNL A   1      33.381  34.804  31.024  1.00  0.00    -0.237 OA
ATOM     60  O   UNL A   1      33.444  33.522  33.127  1.00  0.00    -0.744 OA
ENDBRANCH  56  57
ENDBRANCH  24  49
BRANCH  36  61
ATOM     61  C   UNL A   1      44.312  35.147  30.244  1.00  0.00     0.058 A 
ATOM     62  C   UNL A   1      44.885  35.501  31.474  1.00  0.00     0.135 A 
ATOM     63  C   UNL A   1      44.305  36.104  29.218  1.00  0.00     0.135 A 
ATOM     64  F   UNL A   1      44.901  34.623  32.489  1.00  0.00    -0.206 F 
ATOM     65  C   UNL A   1      45.424  36.765  31.683  1.00  0.00     0.059 A 
ATOM     66  C   UNL A   1      44.860  37.365  29.396  1.00  0.00     0.059 A 
ATOM     67  F   UNL A   1      43.771  35.811  28.021  1.00  0.00    -0.206 F 
ATOM     68  C   UNL A   1      45.411  37.689  30.635  1.00  0.00     0.060 A 
BRANCH  68  69
ATOM     69  S   UNL A   1      46.170  39.307  30.892  1.00  0.00     0.124 S 
ATOM     70  O   UNL A   1      44.997  40.161  31.041  1.00  0.00    -0.237 OA
ATOM     71  O   UNL A   1      46.960  39.096  32.101  1.00  0.00    -0.237 OA
ATOM     72  O   UNL A   1      46.948  39.511  29.673  1.00  0.00    -0.744 OA
ENDBRANCH  68  69
ENDBRANCH  36  61
ENDBRANCH  10  11
ENDBRANCH   3   5
ENDBRANCH   2   3
ENDBRANCH   1   2
BRANCH   1  73
ATOM     73  C   UNL A   1      37.001  23.205  23.921  1.00  0.00     0.274 C 
BRANCH  73  74
ATOM     74  O   UNL A   1      35.843  23.969  24.301  1.00  0.00    -0.462 OA
BRANCH  74  75
ATOM     75  C   UNL A   1      34.696  23.770  23.572  1.00  0.00     0.309 C 
ATOM     76  O   UNL A   1      34.623  23.114  22.548  1.00  0.00    -0.252 OA
BRANCH  75  77
ATOM     77  C   UNL A   1      33.556  24.579  24.207  1.00  0.00     0.111 C 
ATOM     78  C   UNL A   1      33.973  25.853  24.933  1.00  0.00     0.016 C 
ATOM     79  C   UNL A   1      32.774  23.652  25.134  1.00  0.00     0.093 C 
ATOM     80  C   UNL A   1      32.829  26.524  25.715  1.00  0.00     0.001 C 
ATOM     81  C   UNL A   1      31.618  24.291  25.887  1.00  0.00     0.014 C 
ATOM     82  C   UNL A   1      31.922  25.615  26.544  1.00  0.00     0.001 C 
BRANCH  79  83
ATOM     83  C   UNL A   1      33.590  22.539  25.790  1.00  0.00     0.228 C 
ATOM     84  O   UNL A   1      34.227  22.834  26.810  1.00  0.00    -0.274 OA
ATOM     85  N   UNL A   1      33.674  21.221  25.611  1.00  0.00    -0.326 N 
ATOM     86  H   UNL A   1      34.123  20.814  26.387  1.00  0.00     0.169 HD
BRANCH  85  87
ATOM     87  C   UNL A   1      33.345  20.231  24.706  1.00  0.00     0.041 A 
ATOM     88  C   UNL A   1      32.466  20.608  23.686  1.00  0.00     0.026 A 
ATOM     89  C   UNL A   1      33.759  18.920  24.786  1.00  0.00     0.039 A 
ATOM     90  C   UNL A   1      32.080  19.700  22.707  1.00  0.00     0.003 A 
ATOM     91  C   UNL A   1      33.396  17.988  23.801  1.00  0.00     0.058 A 
ATOM     92  C   UNL A   1      32.559  18.395  22.754  1.00  0.00     0.013 A 
BRANCH  91  93
ATOM     93  C   UNL A   1      33.967  16.594  23.861  1.00  0.00     0.416 C 
ATOM     94  F   UNL A   1      33.076  15.653  24.259  1.00  0.00    -0.166 F 
ATOM     95  F   UNL A   1      34.410  16.193  22.632  1.00  0.00    -0.166 F 
ATOM     96  F   UNL A   1      35.045  16.502  24.684  1.00  0.00    -0.166 F 
ENDBRANCH  91  93
ENDBRANCH  85  87
ENDBRANCH  79  83
ENDBRANCH  75  77
ENDBRANCH  74  75
ENDBRANCH  73  74
ENDBRANCH   1  73
TORSDOF 17
ENDMDL
MODEL 3
REMARK VINA RESULT:     -11.7      4.237      9.540
REMARK SMILES O=C(OCCOC(=O)[C@@H]1CCCC[C@@H]1C(=O)Nc1cccc(C(F)(F)F)c1)c1ccc(-c2c3nc(c(-c4c(F)cc(S(=O)(=O)[O-])cc4F)c4ccc([nH]4)c(-c4c(F)cc(S(=O)(=O)[O-])cc4F)c4nc(c(-c5c(F)cc(S(=O)(=O)[O-])cc5F)c5ccc2[nH]5)C=C4)C=C3)cc1
REMARK SMILES IDX 4 1 3 2 2 3 1 4 28 5 29 6 93 7 30 8 92 9 31 10 32 11 33 12
REMARK SMILES IDX 86 13 34 14 91 15 85 16 87 17 35 18 90 19 84 20 83 21 36 23
REMARK SMILES IDX 70 24 49 25 69 26 50 27 53 28 68 29 88 30 51 31 52 32 67 34
REMARK SMILES IDX 89 35 54 36 37 37 38 38 47 39 39 40 40 41 46 42 48 43 41 44
REMARK SMILES IDX 42 45 43 46 44 47 45 48 71 49 72 50 81 51 73 52 74 53 80 54
REMARK SMILES IDX 82 55 75 56 76 57 77 58 78 59 79 60 55 61 56 62 65 63 57 64
REMARK SMILES IDX 58 65 64 66 66 67 59 68 60 69 61 70 62 71 63 72 5 73 6 74
REMARK SMILES IDX 7 75 8 76 9 77 10 78 14 79 11 80 13 81 12 82 15 83 16 84
REMARK SMILES IDX 17 85 18 87 19 88 27 89 20 90 22 91 21 92 23 93 24 94 25 95
REMARK SMILES IDX 26 96
REMARK H PARENT 87 22 53 33 17 86
REMARK Flexibility Score: inf
ROOT
ATOM      1  C   UNL A   1      32.477  29.913  26.436  1.00  0.00     0.275 C 
ENDROOT
BRANCH   1   2
ATOM      2  O   UNL A   1      33.886  30.190  26.607  1.00  0.00    -0.458 OA
BRANCH   2   3
ATOM      3  C   UNL A   1      34.477  30.990  27.535  1.00  0.00     0.338 C 
ATOM      4  O   UNL A   1      34.024  32.116  27.733  1.00  0.00    -0.246 OA
BRANCH   3   5
ATOM      5  C   UNL A   1      35.692  30.585  28.301  1.00  0.00     0.060 A 
ATOM      6  C   UNL A   1      35.672  29.867  29.506  1.00  0.00     0.016 A 
ATOM      7  C   UNL A   1      36.935  30.964  27.769  1.00  0.00     0.016 A 
ATOM      8  C   UNL A   1      36.879  29.381  30.064  1.00  0.00     0.010 A 
ATOM      9  C   UNL A   1      38.128  30.477  28.322  1.00  0.00     0.010 A 
ATOM     10  C   UNL A   1      38.116  29.632  29.444  1.00  0.00    -0.014 A 
BRANCH  10  11
ATOM     11  C   UNL A   1      39.418  29.152  30.010  1.00  0.00     0.031 A 
ATOM     12  C   UNL A   1      40.018  29.944  31.128  1.00  0.00     0.074 A 
ATOM     13  C   UNL A   1      40.125  28.112  29.512  1.00  0.00     0.049 A 
ATOM     14  N   UNL A   1      41.101  29.704  31.816  1.00  0.00    -0.248 NA
ATOM     15  C   UNL A   1      39.308  31.174  31.510  1.00  0.00     0.031 C 
ATOM     16  C   UNL A   1      39.718  27.290  28.387  1.00  0.00     0.029 A 
ATOM     17  N   UNL A   1      41.351  27.581  29.851  1.00  0.00    -0.354 N 
ATOM     18  C   UNL A   1      41.151  30.704  32.770  1.00  0.00     0.074 A 
ATOM     19  C   UNL A   1      40.082  31.634  32.479  1.00  0.00     0.031 C 
ATOM     20  C   UNL A   1      40.688  26.417  28.065  1.00  0.00     0.029 A 
ATOM     21  C   UNL A   1      41.778  26.563  29.018  1.00  0.00     0.049 A 
ATOM     22  H   UNL A   1      41.877  27.898  30.620  1.00  0.00     0.167 HD
ATOM     23  C   UNL A   1      41.957  30.792  33.852  1.00  0.00     0.037 A 
ATOM     24  C   UNL A   1      42.899  25.812  29.037  1.00  0.00     0.037 A 
ATOM     25  C   UNL A   1      43.052  29.907  34.118  1.00  0.00     0.049 A 
ATOM     26  C   UNL A   1      43.867  26.000  30.178  1.00  0.00     0.074 A 
ATOM     27  C   UNL A   1      43.912  29.894  35.198  1.00  0.00     0.029 A 
ATOM     28  N   UNL A   1      43.452  28.883  33.270  1.00  0.00    -0.354 N 
ATOM     29  N   UNL A   1      43.799  26.848  31.177  1.00  0.00    -0.248 NA
ATOM     30  C   UNL A   1      45.036  25.110  30.226  1.00  0.00     0.031 C 
ATOM     31  C   UNL A   1      44.852  28.876  34.991  1.00  0.00     0.029 A 
ATOM     32  C   UNL A   1      44.558  28.239  33.794  1.00  0.00     0.049 A 
ATOM     33  H   UNL A   1      43.013  28.650  32.420  1.00  0.00     0.167 HD
ATOM     34  C   UNL A   1      44.882  26.556  31.998  1.00  0.00     0.074 A 
ATOM     35  C   UNL A   1      45.596  25.460  31.375  1.00  0.00     0.031 C 
ATOM     36  C   UNL A   1      45.241  27.134  33.171  1.00  0.00     0.037 A 
BRANCH  23  37
ATOM     37  C   UNL A   1      41.583  31.856  34.835  1.00  0.00     0.058 A 
ATOM     38  C   UNL A   1      40.568  31.609  35.778  1.00  0.00     0.135 A 
ATOM     39  C   UNL A   1      42.131  33.143  34.772  1.00  0.00     0.135 A 
ATOM     40  F   UNL A   1      39.992  30.398  35.849  1.00  0.00    -0.206 F 
ATOM     41  C   UNL A   1      40.068  32.620  36.585  1.00  0.00     0.059 A 
ATOM     42  C   UNL A   1      41.660  34.166  35.589  1.00  0.00     0.059 A 
ATOM     43  F   UNL A   1      43.088  33.428  33.876  1.00  0.00    -0.206 F 
ATOM     44  C   UNL A   1      40.611  33.900  36.472  1.00  0.00     0.060 A 
BRANCH  44  45
ATOM     45  S   UNL A   1      39.901  35.218  37.478  1.00  0.00     0.124 S 
ATOM     46  O   UNL A   1      40.939  35.403  38.486  1.00  0.00    -0.237 OA
ATOM     47  O   UNL A   1      39.755  36.303  36.513  1.00  0.00    -0.237 OA
ATOM     48  O   UNL A   1      38.652  34.639  37.960  1.00  0.00    -0.744 OA
ENDBRANCH  44  45
ENDBRANCH  23  37
BRANCH  24  49
ATOM     49  C   UNL A   1      43.172  24.779  27.990  1.00  0.00     0.058 A 
ATOM     50  C   UNL A   1      42.810  23.435  28.177  1.00  0.00     0.135 A 
ATOM     51  C   UNL A   1      43.874  25.099  26.818  1.00  0.00     0.135 A 
ATOM     52  F   UNL A   1      42.142  23.069  29.283  1.00  0.00    -0.206 F 
ATOM     53  C   UNL A   1      43.174  22.441  27.271  1.00  0.00     0.059 A 
ATOM     54  C   UNL A   1      44.232  24.126  25.884  1.00  0.00     0.059 A 
ATOM     55  F   UNL A   1      44.232  26.369  26.577  1.00  0.00    -0.206 F 
ATOM     56  C   UNL A   1      43.896  22.795  26.130  1.00  0.00     0.060 A 
BRANCH  56  57
ATOM     57  S   UNL A   1      44.384  21.490  24.977  1.00  0.00     0.124 S 
ATOM     58  O   UNL A   1      45.733  21.179  25.435  1.00  0.00    -0.237 OA
ATOM     59  O   UNL A   1      43.371  20.469  25.230  1.00  0.00    -0.237 OA
ATOM     60  O   UNL A   1      44.295  22.142  23.674  1.00  0.00    -0.744 OA
ENDBRANCH  56  57
ENDBRANCH  24  49
BRANCH  36  61
ATOM     61  C   UNL A   1      46.424  26.553  33.888  1.00  0.00     0.058 A 
ATOM     62  C   UNL A   1      47.720  27.052  33.700  1.00  0.00     0.135 A 
ATOM     63  C   UNL A   1      46.242  25.519  34.820  1.00  0.00     0.135 A 
ATOM     64  F   UNL A   1      47.945  28.030  32.808  1.00  0.00    -0.206 F 
ATOM     65  C   UNL A   1      48.802  26.538  34.406  1.00  0.00     0.059 A 
ATOM     66  C   UNL A   1      47.304  25.007  35.554  1.00  0.00     0.059 A 
ATOM     67  F   UNL A   1      45.018  25.011  35.037  1.00  0.00    -0.206 F 
ATOM     68  C   UNL A   1      48.583  25.518  35.335  1.00  0.00     0.060 A 
BRANCH  68  69
ATOM     69  S   UNL A   1      49.981  24.899  36.294  1.00  0.00     0.124 S 
ATOM     70  O   UNL A   1      49.415  24.847  37.637  1.00  0.00    -0.237 OA
ATOM     71  O   UNL A   1      50.247  23.608  35.666  1.00  0.00    -0.237 OA
ATOM     72  O   UNL A   1      51.010  25.913  36.082  1.00  0.00    -0.744 OA
ENDBRANCH  68  69
ENDBRANCH  36  61
ENDBRANCH  10  11
ENDBRANCH   3   5
ENDBRANCH   2   3
ENDBRANCH   1   2
BRANCH   1  73
ATOM     73  C   UNL A   1      32.012  28.651  27.196  1.00  0.00     0.274 C 
BRANCH  73  74
ATOM     74  O   UNL A   1      32.541  27.452  26.605  1.00  0.00    -0.462 OA
BRANCH  74  75
ATOM     75  C   UNL A   1      31.635  26.508  26.186  1.00  0.00     0.309 C 
ATOM     76  O   UNL A   1      30.445  26.516  26.450  1.00  0.00    -0.252 OA
BRANCH  75  77
ATOM     77  C   UNL A   1      32.380  25.408  25.417  1.00  0.00     0.111 C 
ATOM     78  C   UNL A   1      33.707  24.961  26.021  1.00  0.00     0.016 C 
ATOM     79  C   UNL A   1      32.565  25.877  23.977  1.00  0.00     0.093 C 
ATOM     80  C   UNL A   1      34.507  24.003  25.120  1.00  0.00     0.001 C 
ATOM     81  C   UNL A   1      33.322  24.925  23.064  1.00  0.00     0.014 C 
ATOM     82  C   UNL A   1      34.596  24.351  23.635  1.00  0.00     0.001 C 
BRANCH  79  83
ATOM     83  C   UNL A   1      32.706  27.387  23.791  1.00  0.00     0.228 C 
ATOM     84  O   UNL A   1      33.854  27.850  23.789  1.00  0.00    -0.274 OA
ATOM     85  N   UNL A   1      31.860  28.364  23.465  1.00  0.00    -0.326 N 
ATOM     86  H   UNL A   1      32.371  29.164  23.203  1.00  0.00     0.169 HD
BRANCH  85  87
ATOM     87  C   UNL A   1      30.509  28.637  23.370  1.00  0.00     0.041 A 
ATOM     88  C   UNL A   1      29.672  27.523  23.255  1.00  0.00     0.026 A 
ATOM     89  C   UNL A   1      29.961  29.899  23.311  1.00  0.00     0.039 A 
ATOM     90  C   UNL A   1      28.293  27.676  23.171  1.00  0.00     0.003 A 
ATOM     91  C   UNL A   1      28.571  30.079  23.244  1.00  0.00     0.058 A 
ATOM     92  C   UNL A   1      27.740  28.952  23.184  1.00  0.00     0.013 A 
BRANCH  91  93
ATOM     93  C   UNL A   1      28.006  31.475  23.301  1.00  0.00     0.416 C 
ATOM     94  F   UNL A   1      26.875  31.580  24.041  1.00  0.00    -0.166 F 
ATOM     95  F   UNL A   1      28.901  32.342  23.863  1.00  0.00    -0.166 F 
ATOM     96  F   UNL A   1      27.731  31.983  22.070  1.00  0.00    -0.166 F 
ENDBRANCH  91  93
ENDBRANCH  85  87
ENDBRANCH  79  83
ENDBRANCH  75  77
ENDBRANCH  74  75
ENDBRANCH  73  74
ENDBRANCH   1  73
TORSDOF 17
ENDMDL
