MODEL 1
REMARK VINA RESULT:     -12.6      0.000      0.000
REMARK SMILES C[C@]12CC[C@H]3[C@@H](CCC4=CC(=O)C=C[C@@]43C)[C@@H]1CC[C@H]2O[C@@H]1O[C@H](C(=O)OCCOC(=O)c2ccc(-c3c4nc(c(-c5c(F)cc(S(=O)(=O)[O-])cc5F)c5ccc([nH]5)c(-c5c(F)cc(S(=O)(=O)[O-])cc5F)c5nc(c(-c6c(F)cc(S(=O)(=O)[O-])cc6F)c6ccc3[nH]6)C=C5)C=C4)cc2)[C@@H](O)[C@H](O)[C@H]1O
REMARK SMILES IDX 29 1 28 2 27 3 25 4 26 5 24 6 22 7 23 8 103 9 101 10 99 11
REMARK SMILES IDX 21 12 20 13 1 14 2 15 3 16 17 17 4 18 6 19 18 20 19 21 5 22
REMARK SMILES IDX 7 23 15 24 8 25 9 26 14 27 16 28 10 29 13 30 11 31 12 32
REMARK SMILES IDX 104 33 102 35 100 37 30 39 31 40 32 41 33 42 34 43 98 44
REMARK SMILES IDX 35 45 97 46 36 47 37 48 38 49 91 50 39 51 96 52 90 53 92 54
REMARK SMILES IDX 40 55 95 56 89 57 88 58 41 60 75 61 54 62 74 63 55 64 58 65
REMARK SMILES IDX 73 66 93 67 56 68 57 69 72 71 94 72 59 73 42 74 43 75 52 76
REMARK SMILES IDX 44 77 45 78 51 79 53 80 46 81 47 82 48 83 49 84 50 85 76 86
REMARK SMILES IDX 77 87 86 88 78 89 79 90 85 91 87 92 80 93 81 94 82 95 83 96
REMARK SMILES IDX 84 97 60 98 61 99 70 100 62 101 63 102 69 103 71 104 64 105
REMARK SMILES IDX 65 106 66 107 67 108 68 109
REMARK H PARENT 104 34 102 36 100 38 92 59 58 70
REMARK Flexibility Score: inf
ROOT
ATOM      1  C   UNL A   1      41.284  23.238  27.591  1.00  0.00     0.275 C 
ENDROOT
BRANCH   1   2
ATOM      2  C   UNL A   1      40.805  21.795  27.422  1.00  0.00     0.274 C 
BRANCH   2   3
ATOM      3  O   UNL A   1      41.939  20.908  27.311  1.00  0.00    -0.460 OA
BRANCH   3   4
ATOM      4  C   UNL A   1      42.017  20.150  26.195  1.00  0.00     0.338 C 
ATOM      5  O   UNL A   1      41.081  19.535  25.694  1.00  0.00    -0.249 OA
BRANCH   4   6
ATOM      6  C   UNL A   1      43.423  20.110  25.587  1.00  0.00     0.262 C 
ATOM      7  C   UNL A   1      45.498  21.235  25.109  1.00  0.00     0.282 C 
ATOM      8  O   UNL A   1      44.245  21.254  25.798  1.00  0.00    -0.332 OA
ATOM      9  C   UNL A   1      46.252  19.878  25.155  1.00  0.00     0.202 C 
ATOM     10  C   UNL A   1      45.335  18.648  25.129  1.00  0.00     0.180 C 
ATOM     11  C   UNL A   1      44.157  18.863  26.088  1.00  0.00     0.186 C 
BRANCH   7  12
ATOM     12  O   UNL A   1      46.311  22.387  25.395  1.00  0.00    -0.346 OA
BRANCH  12  13
ATOM     13  C   UNL A   1      45.989  23.774  25.241  1.00  0.00     0.127 C 
ATOM     14  C   UNL A   1      44.805  25.855  26.113  1.00  0.00     0.014 C 
ATOM     15  C   UNL A   1      45.632  24.593  26.517  1.00  0.00    -0.003 C 
ATOM     16  C   UNL A   1      44.873  23.864  27.620  1.00  0.00     0.010 C 
ATOM     17  C   UNL A   1      47.041  24.959  26.992  1.00  0.00     0.001 C 
ATOM     18  C   UNL A   1      44.826  24.695  28.919  1.00  0.00     0.006 C 
ATOM     19  C   UNL A   1      47.096  25.798  28.269  1.00  0.00    -0.003 C 
ATOM     20  C   UNL A   1      47.748  25.437  25.716  1.00  0.00     0.007 C 
ATOM     21  C   UNL A   1      47.030  24.687  24.562  1.00  0.00     0.033 C 
ATOM     22  C   UNL A   1      46.225  25.150  29.402  1.00  0.00     0.006 C 
ATOM     23  C   UNL A   1      48.552  25.887  28.771  1.00  0.00     0.009 C 
ATOM     24  C   UNL A   1      46.240  26.037  30.707  1.00  0.00     0.010 C 
ATOM     25  C   UNL A   1      48.681  26.664  30.078  1.00  0.00     0.032 C 
ATOM     26  C   UNL A   1      47.709  26.197  31.136  1.00  0.00    -0.056 C 
ATOM     27  C   UNL A   1      45.402  25.439  31.831  1.00  0.00    -0.012 C 
ATOM     28  C   UNL A   1      45.638  27.438  30.472  1.00  0.00     0.021 C 
ATOM     29  C   UNL A   1      48.152  25.913  32.376  1.00  0.00     0.052 C 
ATOM     30  C   UNL A   1      45.843  25.182  33.071  1.00  0.00     0.048 C 
ATOM     31  C   UNL A   1      47.255  25.402  33.432  1.00  0.00     0.178 C 
ATOM     32  O   UNL A   1      47.677  25.125  34.547  1.00  0.00    -0.290 OA
ENDBRANCH  12  13
ENDBRANCH   7  12
BRANCH   9  33
ATOM     33  O   UNL A   1      47.248  19.799  24.124  1.00  0.00    -0.385 OA
ATOM     34  H   UNL A   1      48.022  20.323  24.381  1.00  0.00     0.211 HD
ENDBRANCH   9  33
BRANCH  10  35
ATOM     35  O   UNL A   1      46.092  17.483  25.496  1.00  0.00    -0.387 OA
ATOM     36  H   UNL A   1      47.029  17.627  25.292  1.00  0.00     0.211 HD
ENDBRANCH  10  35
BRANCH  11  37
ATOM     37  O   UNL A   1      43.377  17.673  26.168  1.00  0.00    -0.387 OA
ATOM     38  H   UNL A   1      43.126  17.512  27.091  1.00  0.00     0.211 HD
ENDBRANCH  11  37
ENDBRANCH   4   6
ENDBRANCH   3   4
ENDBRANCH   2   3
ENDBRANCH   1   2
BRANCH   1  39
ATOM     39  O   UNL A   1      40.301  24.131  27.075  1.00  0.00    -0.458 OA
BRANCH  39  40
ATOM     40  C   UNL A   1      40.797  25.276  26.556  1.00  0.00     0.338 C 
ATOM     41  O   UNL A   1      41.005  25.555  25.392  1.00  0.00    -0.246 OA
BRANCH  40  42
ATOM     42  C   UNL A   1      40.745  26.231  27.659  1.00  0.00     0.060 A 
ATOM     43  C   UNL A   1      39.642  26.174  28.515  1.00  0.00     0.016 A 
ATOM     44  C   UNL A   1      41.832  27.072  27.903  1.00  0.00     0.016 A 
ATOM     45  C   UNL A   1      39.630  26.957  29.654  1.00  0.00     0.010 A 
ATOM     46  C   UNL A   1      41.814  27.868  29.033  1.00  0.00     0.010 A 
ATOM     47  C   UNL A   1      40.704  27.822  29.891  1.00  0.00    -0.014 A 
BRANCH  47  48
ATOM     48  C   UNL A   1      40.561  28.860  30.917  1.00  0.00     0.031 A 
ATOM     49  C   UNL A   1      41.462  28.755  32.108  1.00  0.00     0.074 A 
ATOM     50  C   UNL A   1      39.661  29.841  30.751  1.00  0.00     0.049 A 
ATOM     51  N   UNL A   1      41.474  29.465  33.199  1.00  0.00    -0.248 NA
ATOM     52  C   UNL A   1      42.481  27.687  32.072  1.00  0.00     0.031 C 
ATOM     53  C   UNL A   1      38.786  29.999  29.587  1.00  0.00     0.029 A 
ATOM     54  N   UNL A   1      39.328  30.883  31.568  1.00  0.00    -0.354 N 
ATOM     55  C   UNL A   1      42.476  28.913  33.988  1.00  0.00     0.074 A 
ATOM     56  C   UNL A   1      43.035  27.795  33.268  1.00  0.00     0.031 C 
ATOM     57  C   UNL A   1      38.005  31.078  29.771  1.00  0.00     0.029 A 
ATOM     58  C   UNL A   1      38.301  31.654  31.079  1.00  0.00     0.049 A 
ATOM     59  H   UNL A   1      39.780  31.066  32.424  1.00  0.00     0.167 HD
ATOM     60  C   UNL A   1      42.885  29.323  35.208  1.00  0.00     0.037 A 
ATOM     61  C   UNL A   1      37.665  32.690  31.657  1.00  0.00     0.037 A 
ATOM     62  C   UNL A   1      42.304  30.456  35.874  1.00  0.00     0.049 A 
ATOM     63  C   UNL A   1      38.137  33.117  33.023  1.00  0.00     0.074 A 
ATOM     64  C   UNL A   1      42.621  30.991  37.106  1.00  0.00     0.029 A 
ATOM     65  N   UNL A   1      41.280  31.233  35.344  1.00  0.00    -0.354 N 
ATOM     66  N   UNL A   1      39.083  32.592  33.770  1.00  0.00    -0.248 NA
ATOM     67  C   UNL A   1      37.470  34.277  33.623  1.00  0.00     0.031 C 
ATOM     68  C   UNL A   1      41.759  32.067  37.340  1.00  0.00     0.029 A 
ATOM     69  C   UNL A   1      40.948  32.240  36.227  1.00  0.00     0.049 A 
ATOM     70  H   UNL A   1      40.854  31.086  34.468  1.00  0.00     0.167 HD
ATOM     71  C   UNL A   1      39.150  33.379  34.912  1.00  0.00     0.074 A 
ATOM     72  C   UNL A   1      38.154  34.422  34.750  1.00  0.00     0.031 C 
ATOM     73  C   UNL A   1      39.956  33.263  35.999  1.00  0.00     0.037 A 
BRANCH  60  74
ATOM     74  C   UNL A   1      43.968  28.536  35.890  1.00  0.00     0.058 A 
ATOM     75  C   UNL A   1      45.325  28.879  35.773  1.00  0.00     0.135 A 
ATOM     76  C   UNL A   1      43.641  27.430  36.690  1.00  0.00     0.135 A 
ATOM     77  F   UNL A   1      45.700  29.903  34.991  1.00  0.00    -0.206 F 
ATOM     78  C   UNL A   1      46.318  28.151  36.423  1.00  0.00     0.059 A 
ATOM     79  C   UNL A   1      44.615  26.705  37.371  1.00  0.00     0.059 A 
ATOM     80  F   UNL A   1      42.362  27.043  36.818  1.00  0.00    -0.206 F 
ATOM     81  C   UNL A   1      45.952  27.071  37.227  1.00  0.00     0.060 A 
BRANCH  81  82
ATOM     82  S   UNL A   1      47.247  26.169  38.101  1.00  0.00     0.124 S 
ATOM     83  O   UNL A   1      47.160  26.750  39.437  1.00  0.00    -0.237 OA
ATOM     84  O   UNL A   1      46.796  24.786  37.982  1.00  0.00    -0.237 OA
ATOM     85  O   UNL A   1      48.457  26.497  37.353  1.00  0.00    -0.744 OA
ENDBRANCH  81  82
ENDBRANCH  60  74
BRANCH  61  86
ATOM     86  C   UNL A   1      36.537  33.368  30.964  1.00  0.00     0.058 A 
ATOM     87  C   UNL A   1      36.752  34.174  29.836  1.00  0.00     0.135 A 
ATOM     88  C   UNL A   1      35.214  33.220  31.413  1.00  0.00     0.135 A 
ATOM     89  F   UNL A   1      37.995  34.345  29.363  1.00  0.00    -0.206 F 
ATOM     90  C   UNL A   1      35.705  34.836  29.200  1.00  0.00     0.059 A 
ATOM     91  C   UNL A   1      34.147  33.847  30.776  1.00  0.00     0.059 A 
ATOM     92  F   UNL A   1      34.946  32.443  32.475  1.00  0.00    -0.206 F 
ATOM     93  C   UNL A   1      34.406  34.668  29.681  1.00  0.00     0.060 A 
BRANCH  93  94
ATOM     94  S   UNL A   1      33.053  35.522  28.841  1.00  0.00     0.124 S 
ATOM     95  O   UNL A   1      32.271  36.012  29.970  1.00  0.00    -0.237 OA
ATOM     96  O   UNL A   1      33.764  36.535  28.068  1.00  0.00    -0.237 OA
ATOM     97  O   UNL A   1      32.427  34.467  28.051  1.00  0.00    -0.744 OA
ENDBRANCH  93  94
ENDBRANCH  61  86
BRANCH  73  98
ATOM     98  C   UNL A   1      39.831  34.326  37.049  1.00  0.00     0.058 A 
ATOM     99  C   UNL A   1      40.497  35.556  36.942  1.00  0.00     0.135 A 
ATOM    100  C   UNL A   1      38.988  34.121  38.153  1.00  0.00     0.135 A 
ATOM    101  F   UNL A   1      41.314  35.793  35.904  1.00  0.00    -0.206 F 
ATOM    102  C   UNL A   1      40.358  36.536  37.916  1.00  0.00     0.059 A 
ATOM    103  C   UNL A   1      38.808  35.101  39.121  1.00  0.00     0.059 A 
ATOM    104  F   UNL A   1      38.318  32.966  38.289  1.00  0.00    -0.206 F 
ATOM    105  C   UNL A   1      39.511  36.298  39.001  1.00  0.00     0.060 A 
BRANCH 105 106
ATOM    106  S   UNL A   1      39.324  37.587  40.248  1.00  0.00     0.124 S 
ATOM    107  O   UNL A   1      40.668  38.157  40.280  1.00  0.00    -0.237 OA
ATOM    108  O   UNL A   1      38.289  38.436  39.667  1.00  0.00    -0.237 OA
ATOM    109  O   UNL A   1      38.926  36.849  41.443  1.00  0.00    -0.744 OA
ENDBRANCH 105 106
ENDBRANCH  73  98
ENDBRANCH  47  48
ENDBRANCH  40  42
ENDBRANCH  39  40
ENDBRANCH   1  39
TORSDOF 19
ENDMDL
MODEL 2
REMARK VINA RESULT:     -12.5      5.586     14.432
REMARK SMILES C[C@]12CC[C@H]3[C@@H](CCC4=CC(=O)C=C[C@@]43C)[C@@H]1CC[C@H]2O[C@@H]1O[C@H](C(=O)OCCOC(=O)c2ccc(-c3c4nc(c(-c5c(F)cc(S(=O)(=O)[O-])cc5F)c5ccc([nH]5)c(-c5c(F)cc(S(=O)(=O)[O-])cc5F)c5nc(c(-c6c(F)cc(S(=O)(=O)[O-])cc6F)c6ccc3[nH]6)C=C5)C=C4)cc2)[C@@H](O)[C@H](O)[C@H]1O
REMARK SMILES IDX 29 1 28 2 27 3 25 4 26 5 24 6 22 7 23 8 103 9 101 10 99 11
REMARK SMILES IDX 21 12 20 13 1 14 2 15 3 16 17 17 4 18 6 19 18 20 19 21 5 22
REMARK SMILES IDX 7 23 15 24 8 25 9 26 14 27 16 28 10 29 13 30 11 31 12 32
REMARK SMILES IDX 104 33 102 35 100 37 30 39 31 40 32 41 33 42 34 43 98 44
REMARK SMILES IDX 35 45 97 46 36 47 37 48 38 49 91 50 39 51 96 52 90 53 92 54
REMARK SMILES IDX 40 55 95 56 89 57 88 58 41 60 75 61 54 62 74 63 55 64 58 65
REMARK SMILES IDX 73 66 93 67 56 68 57 69 72 71 94 72 59 73 42 74 43 75 52 76
REMARK SMILES IDX 44 77 45 78 51 79 53 80 46 81 47 82 48 83 49 84 50 85 76 86
REMARK SMILES IDX 77 87 86 88 78 89 79 90 85 91 87 92 80 93 81 94 82 95 83 96
REMARK SMILES IDX 84 97 60 98 61 99 70 100 62 101 63 102 69 103 71 104 64 105
REMARK SMILES IDX 65 106 66 107 67 108 68 109
REMARK H PARENT 104 34 102 36 100 38 92 59 58 70
REMARK Flexibility Score: inf
ROOT
ATOM      1  C   UNL A   1      36.423  32.391  29.007  1.00  0.00     0.275 C 
ENDROOT
BRANCH   1   2
ATOM      2  C   UNL A   1      35.463  33.178  28.115  1.00  0.00     0.274 C 
BRANCH   2   3
ATOM      3  O   UNL A   1      35.117  34.430  28.744  1.00  0.00    -0.460 OA
BRANCH   3   4
ATOM      4  C   UNL A   1      33.847  34.562  29.188  1.00  0.00     0.338 C 
ATOM      5  O   UNL A   1      32.846  34.202  28.578  1.00  0.00    -0.249 OA
BRANCH   4   6
ATOM      6  C   UNL A   1      33.753  35.232  30.563  1.00  0.00     0.262 C 
ATOM      7  C   UNL A   1      34.609  35.484  32.800  1.00  0.00     0.282 C 
ATOM      8  O   UNL A   1      34.797  34.946  31.488  1.00  0.00    -0.332 OA
ATOM      9  C   UNL A   1      34.090  36.947  32.841  1.00  0.00     0.202 C 
ATOM     10  C   UNL A   1      33.113  37.299  31.712  1.00  0.00     0.180 C 
ATOM     11  C   UNL A   1      33.642  36.749  30.381  1.00  0.00     0.186 C 
BRANCH   7  12
ATOM     12  O   UNL A   1      35.714  35.210  33.680  1.00  0.00    -0.346 OA
BRANCH  12  13
ATOM     13  C   UNL A   1      36.313  33.951  34.004  1.00  0.00     0.127 C 
ATOM     14  C   UNL A   1      37.856  32.031  33.353  1.00  0.00     0.014 C 
ATOM     15  C   UNL A   1      37.662  33.580  33.320  1.00  0.00    -0.003 C 
ATOM     16  C   UNL A   1      37.863  34.050  31.883  1.00  0.00     0.010 C 
ATOM     17  C   UNL A   1      38.635  34.299  34.257  1.00  0.00     0.001 C 
ATOM     18  C   UNL A   1      39.324  33.858  31.424  1.00  0.00     0.006 C 
ATOM     19  C   UNL A   1      40.113  34.155  33.891  1.00  0.00    -0.003 C 
ATOM     20  C   UNL A   1      38.142  33.924  35.661  1.00  0.00     0.007 C 
ATOM     21  C   UNL A   1      36.623  33.657  35.486  1.00  0.00     0.033 C 
ATOM     22  C   UNL A   1      40.352  34.510  32.381  1.00  0.00     0.006 C 
ATOM     23  C   UNL A   1      40.959  35.115  34.753  1.00  0.00     0.009 C 
ATOM     24  C   UNL A   1      41.868  34.316  31.987  1.00  0.00     0.010 C 
ATOM     25  C   UNL A   1      42.444  35.070  34.405  1.00  0.00     0.032 C 
ATOM     26  C   UNL A   1      42.704  35.207  32.922  1.00  0.00    -0.056 C 
ATOM     27  C   UNL A   1      42.140  34.651  30.525  1.00  0.00    -0.012 C 
ATOM     28  C   UNL A   1      42.335  32.855  32.147  1.00  0.00     0.021 C 
ATOM     29  C   UNL A   1      43.608  36.101  32.480  1.00  0.00     0.052 C 
ATOM     30  C   UNL A   1      43.059  35.524  30.089  1.00  0.00     0.048 C 
ATOM     31  C   UNL A   1      43.862  36.313  31.041  1.00  0.00     0.178 C 
ATOM     32  O   UNL A   1      44.669  37.147  30.652  1.00  0.00    -0.290 OA
ENDBRANCH  12  13
ENDBRANCH   7  12
BRANCH   9  33
ATOM     33  O   UNL A   1      33.530  37.265  34.125  1.00  0.00    -0.385 OA
ATOM     34  H   UNL A   1      33.756  38.179  34.359  1.00  0.00     0.211 HD
ENDBRANCH   9  33
BRANCH  10  35
ATOM     35  O   UNL A   1      32.951  38.726  31.651  1.00  0.00    -0.387 OA
ATOM     36  H   UNL A   1      32.837  39.000  30.728  1.00  0.00     0.211 HD
ENDBRANCH  10  35
BRANCH  11  37
ATOM     37  O   UNL A   1      32.809  37.187  29.313  1.00  0.00    -0.387 OA
ATOM     38  H   UNL A   1      33.118  36.797  28.480  1.00  0.00     0.211 HD
ENDBRANCH  11  37
ENDBRANCH   4   6
ENDBRANCH   3   4
ENDBRANCH   2   3
ENDBRANCH   1   2
BRANCH   1  39
ATOM     39  O   UNL A   1      36.212  30.995  28.822  1.00  0.00    -0.458 OA
BRANCH  39  40
ATOM     40  C   UNL A   1      36.617  30.221  29.854  1.00  0.00     0.338 C 
ATOM     41  O   UNL A   1      35.946  29.708  30.728  1.00  0.00    -0.246 OA
BRANCH  40  42
ATOM     42  C   UNL A   1      37.998  29.872  29.531  1.00  0.00     0.060 A 
ATOM     43  C   UNL A   1      38.299  29.584  28.198  1.00  0.00     0.016 A 
ATOM     44  C   UNL A   1      38.985  29.956  30.514  1.00  0.00     0.016 A 
ATOM     45  C   UNL A   1      39.618  29.397  27.828  1.00  0.00     0.010 A 
ATOM     46  C   UNL A   1      40.303  29.754  30.150  1.00  0.00     0.010 A 
ATOM     47  C   UNL A   1      40.610  29.454  28.814  1.00  0.00    -0.014 A 
BRANCH  47  48
ATOM     48  C   UNL A   1      41.954  28.964  28.492  1.00  0.00     0.031 A 
ATOM     49  C   UNL A   1      43.053  29.980  28.474  1.00  0.00     0.074 A 
ATOM     50  C   UNL A   1      42.145  27.660  28.239  1.00  0.00     0.049 A 
ATOM     51  N   UNL A   1      44.297  29.844  28.119  1.00  0.00    -0.248 NA
ATOM     52  C   UNL A   1      42.692  31.348  28.898  1.00  0.00     0.031 C 
ATOM     53  C   UNL A   1      41.104  26.629  28.279  1.00  0.00     0.029 A 
ATOM     54  N   UNL A   1      43.278  26.983  27.890  1.00  0.00    -0.354 N 
ATOM     55  C   UNL A   1      44.860  31.108  28.249  1.00  0.00     0.074 A 
ATOM     56  C   UNL A   1      43.821  32.007  28.688  1.00  0.00     0.031 C 
ATOM     57  C   UNL A   1      41.652  25.444  27.956  1.00  0.00     0.029 A 
ATOM     58  C   UNL A   1      43.065  25.647  27.650  1.00  0.00     0.049 A 
ATOM     59  H   UNL A   1      44.162  27.410  27.819  1.00  0.00     0.167 HD
ATOM     60  C   UNL A   1      46.140  31.469  28.020  1.00  0.00     0.037 A 
ATOM     61  C   UNL A   1      43.926  24.715  27.203  1.00  0.00     0.037 A 
ATOM     62  C   UNL A   1      47.142  30.528  27.599  1.00  0.00     0.049 A 
ATOM     63  C   UNL A   1      45.346  25.150  26.946  1.00  0.00     0.074 A 
ATOM     64  C   UNL A   1      48.479  30.748  27.337  1.00  0.00     0.029 A 
ATOM     65  N   UNL A   1      46.902  29.176  27.386  1.00  0.00    -0.354 N 
ATOM     66  N   UNL A   1      45.876  26.347  27.067  1.00  0.00    -0.248 NA
ATOM     67  C   UNL A   1      46.288  24.116  26.506  1.00  0.00     0.031 C 
ATOM     68  C   UNL A   1      49.039  29.534  26.924  1.00  0.00     0.029 A 
ATOM     69  C   UNL A   1      48.065  28.547  26.989  1.00  0.00     0.049 A 
ATOM     70  H   UNL A   1      46.030  28.731  27.501  1.00  0.00     0.167 HD
ATOM     71  C   UNL A   1      47.221  26.205  26.752  1.00  0.00     0.074 A 
ATOM     72  C   UNL A   1      47.422  24.801  26.446  1.00  0.00     0.031 C 
ATOM     73  C   UNL A   1      48.206  27.138  26.717  1.00  0.00     0.037 A 
BRANCH  60  74
ATOM     74  C   UNL A   1      46.507  32.916  28.190  1.00  0.00     0.058 A 
ATOM     75  C   UNL A   1      47.040  33.415  29.390  1.00  0.00     0.135 A 
ATOM     76  C   UNL A   1      46.339  33.817  27.127  1.00  0.00     0.135 A 
ATOM     77  F   UNL A   1      47.186  32.608  30.453  1.00  0.00    -0.206 F 
ATOM     78  C   UNL A   1      47.390  34.755  29.530  1.00  0.00     0.059 A 
ATOM     79  C   UNL A   1      46.708  35.155  27.235  1.00  0.00     0.059 A 
ATOM     80  F   UNL A   1      45.812  33.400  25.964  1.00  0.00    -0.206 F 
ATOM     81  C   UNL A   1      47.229  35.616  28.443  1.00  0.00     0.060 A 
BRANCH  81  82
ATOM     82  S   UNL A   1      47.734  37.338  28.625  1.00  0.00     0.124 S 
ATOM     83  O   UNL A   1      46.601  38.041  28.031  1.00  0.00    -0.237 OA
ATOM     84  O   UNL A   1      47.871  37.469  30.072  1.00  0.00    -0.237 OA
ATOM     85  O   UNL A   1      48.982  37.410  27.871  1.00  0.00    -0.744 OA
ENDBRANCH  81  82
ENDBRANCH  60  74
BRANCH  61  86
ATOM     86  C   UNL A   1      43.475  23.317  26.968  1.00  0.00     0.058 A 
ATOM     87  C   UNL A   1      43.189  22.453  28.036  1.00  0.00     0.135 A 
ATOM     88  C   UNL A   1      43.313  22.815  25.666  1.00  0.00     0.135 A 
ATOM     89  F   UNL A   1      43.322  22.883  29.299  1.00  0.00    -0.206 F 
ATOM     90  C   UNL A   1      42.795  21.134  27.824  1.00  0.00     0.059 A 
ATOM     91  C   UNL A   1      42.891  21.510  25.429  1.00  0.00     0.059 A 
ATOM     92  F   UNL A   1      43.550  23.604  24.606  1.00  0.00    -0.206 F 
ATOM     93  C   UNL A   1      42.652  20.672  26.515  1.00  0.00     0.060 A 
BRANCH  93  94
ATOM     94  S   UNL A   1      42.129  18.963  26.252  1.00  0.00     0.124 S 
ATOM     95  O   UNL A   1      42.319  18.391  27.579  1.00  0.00    -0.237 OA
ATOM     96  O   UNL A   1      40.745  19.129  25.819  1.00  0.00    -0.237 OA
ATOM     97  O   UNL A   1      43.046  18.486  25.221  1.00  0.00    -0.744 OA
ENDBRANCH  93  94
ENDBRANCH  61  86
BRANCH  73  98
ATOM     98  C   UNL A   1      49.589  26.648  26.403  1.00  0.00     0.058 A 
ATOM     99  C   UNL A   1      50.430  26.119  27.392  1.00  0.00     0.135 A 
ATOM    100  C   UNL A   1      50.051  26.665  25.077  1.00  0.00     0.135 A 
ATOM    101  F   UNL A   1      50.030  26.085  28.673  1.00  0.00    -0.206 F 
ATOM    102  C   UNL A   1      51.702  25.656  27.082  1.00  0.00     0.059 A 
ATOM    103  C   UNL A   1      51.306  26.175  24.739  1.00  0.00     0.059 A 
ATOM    104  F   UNL A   1      49.274  27.147  24.094  1.00  0.00    -0.206 F 
ATOM    105  C   UNL A   1      52.130  25.688  25.752  1.00  0.00     0.060 A 
BRANCH 105 106
ATOM    106  S   UNL A   1      53.776  25.064  25.361  1.00  0.00     0.124 S 
ATOM    107  O   UNL A   1      54.547  25.543  26.503  1.00  0.00    -0.237 OA
ATOM    108  O   UNL A   1      53.558  23.622  25.303  1.00  0.00    -0.237 OA
ATOM    109  O   UNL A   1      54.084  25.699  24.083  1.00  0.00    -0.744 OA
ENDBRANCH 105 106
ENDBRANCH  73  98
ENDBRANCH  47  48
ENDBRANCH  40  42
ENDBRANCH  39  40
ENDBRANCH   1  39
TORSDOF 19
ENDMDL
MODEL 3
REMARK VINA RESULT:     -12.3      0.464      7.865
REMARK SMILES C[C@]12CC[C@H]3[C@@H](CCC4=CC(=O)C=C[C@@]43C)[C@@H]1CC[C@H]2O[C@@H]1O[C@H](C(=O)OCCOC(=O)c2ccc(-c3c4nc(c(-c5c(F)cc(S(=O)(=O)[O-])cc5F)c5ccc([nH]5)c(-c5c(F)cc(S(=O)(=O)[O-])cc5F)c5nc(c(-c6c(F)cc(S(=O)(=O)[O-])cc6F)c6ccc3[nH]6)C=C5)C=C4)cc2)[C@@H](O)[C@H](O)[C@H]1O
REMARK SMILES IDX 29 1 28 2 27 3 25 4 26 5 24 6 22 7 23 8 103 9 101 10 99 11
REMARK SMILES IDX 21 12 20 13 1 14 2 15 3 16 17 17 4 18 6 19 18 20 19 21 5 22
REMARK SMILES IDX 7 23 15 24 8 25 9 26 14 27 16 28 10 29 13 30 11 31 12 32
REMARK SMILES IDX 104 33 102 35 100 37 30 39 31 40 32 41 33 42 34 43 98 44
REMARK SMILES IDX 35 45 97 46 36 47 37 48 38 49 91 50 39 51 96 52 90 53 92 54
REMARK SMILES IDX 40 55 95 56 89 57 88 58 41 60 75 61 54 62 74 63 55 64 58 65
REMARK SMILES IDX 73 66 93 67 56 68 57 69 72 71 94 72 59 73 42 74 43 75 52 76
REMARK SMILES IDX 44 77 45 78 51 79 53 80 46 81 47 82 48 83 49 84 50 85 76 86
REMARK SMILES IDX 77 87 86 88 78 89 79 90 85 91 87 92 80 93 81 94 82 95 83 96
REMARK SMILES IDX 84 97 60 98 61 99 70 100 62 101 63 102 69 103 71 104 64 105
REMARK SMILES IDX 65 106 66 107 67 108 68 109
REMARK H PARENT 104 34 102 36 100 38 92 59 58 70
REMARK Flexibility Score: inf
ROOT
ATOM      1  C   UNL A   1      40.655  22.986  26.610  1.00  0.00     0.275 C 
ENDROOT
BRANCH   1   2
ATOM      2  C   UNL A   1      40.682  21.713  27.456  1.00  0.00     0.274 C 
BRANCH   2   3
ATOM      3  O   UNL A   1      41.936  21.022  27.269  1.00  0.00    -0.460 OA
BRANCH   3   4
ATOM      4  C   UNL A   1      42.026  20.192  26.205  1.00  0.00     0.338 C 
ATOM      5  O   UNL A   1      41.102  19.524  25.753  1.00  0.00    -0.249 OA
BRANCH   4   6
ATOM      6  C   UNL A   1      43.429  20.144  25.593  1.00  0.00     0.262 C 
ATOM      7  C   UNL A   1      45.512  21.253  25.113  1.00  0.00     0.282 C 
ATOM      8  O   UNL A   1      44.262  21.279  25.807  1.00  0.00    -0.332 OA
ATOM      9  C   UNL A   1      46.255  19.889  25.149  1.00  0.00     0.202 C 
ATOM     10  C   UNL A   1      45.327  18.668  25.119  1.00  0.00     0.180 C 
ATOM     11  C   UNL A   1      44.154  18.887  26.083  1.00  0.00     0.186 C 
BRANCH   7  12
ATOM     12  O   UNL A   1      46.336  22.396  25.404  1.00  0.00    -0.346 OA
BRANCH  12  13
ATOM     13  C   UNL A   1      46.031  23.787  25.246  1.00  0.00     0.127 C 
ATOM     14  C   UNL A   1      44.858  25.879  26.103  1.00  0.00     0.014 C 
ATOM     15  C   UNL A   1      45.666  24.609  26.517  1.00  0.00    -0.003 C 
ATOM     16  C   UNL A   1      44.883  23.887  27.610  1.00  0.00     0.010 C 
ATOM     17  C   UNL A   1      47.071  24.960  27.012  1.00  0.00     0.001 C 
ATOM     18  C   UNL A   1      44.826  24.719  28.908  1.00  0.00     0.006 C 
ATOM     19  C   UNL A   1      47.118  25.798  28.290  1.00  0.00    -0.003 C 
ATOM     20  C   UNL A   1      47.801  25.431  25.746  1.00  0.00     0.007 C 
ATOM     21  C   UNL A   1      47.091  24.689  24.582  1.00  0.00     0.033 C 
ATOM     22  C   UNL A   1      46.223  25.159  29.410  1.00  0.00     0.006 C 
ATOM     23  C   UNL A   1      48.567  25.871  28.812  1.00  0.00     0.009 C 
ATOM     24  C   UNL A   1      46.230  26.046  30.715  1.00  0.00     0.010 C 
ATOM     25  C   UNL A   1      48.686  26.647  30.121  1.00  0.00     0.032 C 
ATOM     26  C   UNL A   1      47.694  26.190  31.166  1.00  0.00    -0.056 C 
ATOM     27  C   UNL A   1      45.370  25.457  31.828  1.00  0.00    -0.012 C 
ATOM     28  C   UNL A   1      45.646  27.453  30.473  1.00  0.00     0.021 C 
ATOM     29  C   UNL A   1      48.117  25.901  32.411  1.00  0.00     0.052 C 
ATOM     30  C   UNL A   1      45.790  25.194  33.073  1.00  0.00     0.048 C 
ATOM     31  C   UNL A   1      47.200  25.400  33.454  1.00  0.00     0.178 C 
ATOM     32  O   UNL A   1      47.603  25.117  34.575  1.00  0.00    -0.290 OA
ENDBRANCH  12  13
ENDBRANCH   7  12
BRANCH   9  33
ATOM     33  O   UNL A   1      47.246  19.808  24.114  1.00  0.00    -0.385 OA
ATOM     34  H   UNL A   1      46.898  20.205  23.300  1.00  0.00     0.211 HD
ENDBRANCH   9  33
BRANCH  10  35
ATOM     35  O   UNL A   1      46.075  17.494  25.476  1.00  0.00    -0.387 OA
ATOM     36  H   UNL A   1      46.150  16.911  24.704  1.00  0.00     0.211 HD
ENDBRANCH  10  35
BRANCH  11  37
ATOM     37  O   UNL A   1      43.364  17.704  26.159  1.00  0.00    -0.387 OA
ATOM     38  H   UNL A   1      43.897  16.982  26.528  1.00  0.00     0.211 HD
ENDBRANCH  11  37
ENDBRANCH   4   6
ENDBRANCH   3   4
ENDBRANCH   2   3
ENDBRANCH   1   2
BRANCH   1  39
ATOM     39  O   UNL A   1      41.378  24.017  27.276  1.00  0.00    -0.458 OA
BRANCH  39  40
ATOM     40  C   UNL A   1      41.257  25.242  26.717  1.00  0.00     0.338 C 
ATOM     41  O   UNL A   1      41.097  25.532  25.548  1.00  0.00    -0.246 OA
BRANCH  40  42
ATOM     42  C   UNL A   1      41.051  26.143  27.849  1.00  0.00     0.060 A 
ATOM     43  C   UNL A   1      41.955  27.195  28.013  1.00  0.00     0.016 A 
ATOM     44  C   UNL A   1      39.912  26.011  28.644  1.00  0.00     0.016 A 
ATOM     45  C   UNL A   1      41.708  28.153  28.978  1.00  0.00     0.010 A 
ATOM     46  C   UNL A   1      39.672  26.959  29.622  1.00  0.00     0.010 A 
ATOM     47  C   UNL A   1      40.582  28.012  29.797  1.00  0.00    -0.014 A 
BRANCH  47  48
ATOM     48  C   UNL A   1      40.478  28.841  31.003  1.00  0.00     0.031 A 
ATOM     49  C   UNL A   1      39.427  29.907  30.996  1.00  0.00     0.074 A 
ATOM     50  C   UNL A   1      41.299  28.615  32.039  1.00  0.00     0.049 A 
ATOM     51  N   UNL A   1      39.192  30.839  31.873  1.00  0.00    -0.248 NA
ATOM     52  C   UNL A   1      38.526  29.937  29.826  1.00  0.00     0.031 C 
ATOM     53  C   UNL A   1      42.317  27.562  32.099  1.00  0.00     0.029 A 
ATOM     54  N   UNL A   1      41.413  29.263  33.236  1.00  0.00    -0.354 N 
ATOM     55  C   UNL A   1      38.139  31.582  31.350  1.00  0.00     0.074 A 
ATOM     56  C   UNL A   1      37.796  31.014  30.070  1.00  0.00     0.031 C 
ATOM     57  C   UNL A   1      42.960  27.644  33.277  1.00  0.00     0.029 A 
ATOM     58  C   UNL A   1      42.426  28.776  34.027  1.00  0.00     0.049 A 
ATOM     59  H   UNL A   1      40.827  30.006  33.506  1.00  0.00     0.167 HD
ATOM     60  C   UNL A   1      37.522  32.644  31.909  1.00  0.00     0.037 A 
ATOM     61  C   UNL A   1      42.873  29.231  35.212  1.00  0.00     0.037 A 
ATOM     62  C   UNL A   1      37.893  33.160  33.198  1.00  0.00     0.049 A 
ATOM     63  C   UNL A   1      42.170  30.425  35.805  1.00  0.00     0.074 A 
ATOM     64  C   UNL A   1      37.352  34.223  33.892  1.00  0.00     0.029 A 
ATOM     65  N   UNL A   1      38.908  32.632  33.987  1.00  0.00    -0.354 N 
ATOM     66  N   UNL A   1      41.177  31.128  35.308  1.00  0.00    -0.248 NA
ATOM     67  C   UNL A   1      42.633  30.883  37.119  1.00  0.00     0.031 C 
ATOM     68  C   UNL A   1      38.069  34.364  35.085  1.00  0.00     0.029 A 
ATOM     69  C   UNL A   1      39.015  33.351  35.161  1.00  0.00     0.049 A 
ATOM     70  H   UNL A   1      39.469  31.859  33.745  1.00  0.00     0.167 HD
ATOM     71  C   UNL A   1      40.873  32.090  36.263  1.00  0.00     0.074 A 
ATOM     72  C   UNL A   1      41.782  31.868  37.371  1.00  0.00     0.031 C 
ATOM     73  C   UNL A   1      39.932  33.068  36.238  1.00  0.00     0.037 A 
BRANCH  60  74
ATOM     74  C   UNL A   1      36.428  33.315  31.129  1.00  0.00     0.058 A 
ATOM     75  C   UNL A   1      35.079  33.227  31.508  1.00  0.00     0.135 A 
ATOM     76  C   UNL A   1      36.736  34.076  29.990  1.00  0.00     0.135 A 
ATOM     77  F   UNL A   1      34.720  32.482  32.566  1.00  0.00    -0.206 F 
ATOM     78  C   UNL A   1      34.075  33.866  30.786  1.00  0.00     0.059 A 
ATOM     79  C   UNL A   1      35.752  34.746  29.268  1.00  0.00     0.059 A 
ATOM     80  F   UNL A   1      38.006  34.175  29.566  1.00  0.00    -0.206 F 
ATOM     81  C   UNL A   1      34.423  34.631  29.671  1.00  0.00     0.060 A 
BRANCH  81  82
ATOM     82  S   UNL A   1      33.116  35.493  28.775  1.00  0.00     0.124 S 
ATOM     83  O   UNL A   1      33.881  36.475  28.013  1.00  0.00    -0.237 OA
ATOM     84  O   UNL A   1      32.513  34.416  27.996  1.00  0.00    -0.237 OA
ATOM     85  O   UNL A   1      32.277  36.040  29.837  1.00  0.00    -0.744 OA
ENDBRANCH  81  82
ENDBRANCH  60  74
BRANCH  61  86
ATOM     86  C   UNL A   1      44.023  28.575  35.889  1.00  0.00     0.058 A 
ATOM     87  C   UNL A   1      45.343  28.983  35.645  1.00  0.00     0.135 A 
ATOM     88  C   UNL A   1      43.826  27.527  36.803  1.00  0.00     0.135 A 
ATOM     89  F   UNL A   1      45.588  29.983  34.785  1.00  0.00    -0.206 F 
ATOM     90  C   UNL A   1      46.427  28.354  36.253  1.00  0.00     0.059 A 
ATOM     91  C   UNL A   1      44.892  26.902  37.446  1.00  0.00     0.059 A 
ATOM     92  F   UNL A   1      42.584  27.110  37.092  1.00  0.00    -0.206 F 
ATOM     93  C   UNL A   1      46.190  27.312  37.150  1.00  0.00     0.060 A 
BRANCH  93  94
ATOM     94  S   UNL A   1      47.602  26.511  37.942  1.00  0.00     0.124 S 
ATOM     95  O   UNL A   1      47.539  27.070  39.287  1.00  0.00    -0.237 OA
ATOM     96  O   UNL A   1      47.260  25.097  37.821  1.00  0.00    -0.237 OA
ATOM     97  O   UNL A   1      48.734  26.946  37.131  1.00  0.00    -0.744 OA
ENDBRANCH  93  94
ENDBRANCH  61  86
BRANCH  73  98
ATOM     98  C   UNL A   1      39.804  33.913  37.470  1.00  0.00     0.058 A 
ATOM     99  C   UNL A   1      38.994  33.533  38.550  1.00  0.00     0.135 A 
ATOM    100  C   UNL A   1      40.550  35.098  37.585  1.00  0.00     0.135 A 
ATOM    101  F   UNL A   1      38.263  32.409  38.483  1.00  0.00    -0.206 F 
ATOM    102  C   UNL A   1      38.900  34.320  39.691  1.00  0.00     0.059 A 
ATOM    103  C   UNL A   1      40.497  35.882  38.730  1.00  0.00     0.059 A 
ATOM    104  F   UNL A   1      41.352  35.493  36.583  1.00  0.00    -0.206 F 
ATOM    105  C   UNL A   1      39.655  35.492  39.770  1.00  0.00     0.060 A 
BRANCH 105 106
ATOM    106  S   UNL A   1      39.538  36.493  41.265  1.00  0.00     0.124 S 
ATOM    107  O   UNL A   1      40.928  36.520  41.707  1.00  0.00    -0.237 OA
ATOM    108  O   UNL A   1      39.010  37.755  40.755  1.00  0.00    -0.237 OA
ATOM    109  O   UNL A   1      38.623  35.733  42.111  1.00  0.00    -0.744 OA
ENDBRANCH 105 106
ENDBRANCH  73  98
ENDBRANCH  47  48
ENDBRANCH  40  42
ENDBRANCH  39  40
ENDBRANCH   1  39
TORSDOF 19
ENDMDL
