MODEL 1
REMARK VINA RESULT:     -10.6      0.000      0.000
REMARK SMILES C[C@@](NC(=O)CSCc1ccccc1)(C(=O)OCCOC(=O)c1ccc(-c2c3nc(c(-c4c(F)cc(S(=O)(=O)[O-])cc4F)c4ccc([nH]4)c(-c4c(F)cc(S(=O)(=O)[O-])cc4F)c4nc(c(-c5c(F)cc(S(=O)(=O)[O-])cc5F)c5ccc2[nH]5)C=C4)C=C3)cc1)C1CC1
REMARK SMILES IDX 18 1 17 2 15 3 16 4 2 5 1 6 3 7 4 8 5 10 6 11 7 12 8 13 9 14
REMARK SMILES IDX 10 15 14 16 11 17 13 18 12 19 89 20 90 21 91 22 19 23 20 24
REMARK SMILES IDX 21 25 22 26 23 27 24 28 88 29 25 30 87 31 26 32 27 33 28 34
REMARK SMILES IDX 81 35 29 36 86 37 80 38 82 39 30 40 85 41 79 42 78 43 31 45
REMARK SMILES IDX 65 46 44 47 64 48 45 49 48 50 63 51 83 52 46 53 47 54 62 56
REMARK SMILES IDX 84 57 49 58 32 59 33 60 42 61 34 62 35 63 41 64 43 65 36 66
REMARK SMILES IDX 37 67 38 68 39 69 40 70 66 71 67 72 76 73 68 74 69 75 75 76
REMARK SMILES IDX 77 77 70 78 71 79 72 80 73 81 74 82 50 83 51 84 60 85 52 86
REMARK SMILES IDX 53 87 59 88 61 89 54 90 55 91 56 92 57 93 58 94
REMARK H PARENT 3 9 82 44 48 55
REMARK Flexibility Score: inf
ROOT
ATOM      1  C   UNL A   1      32.393  28.922  27.039  1.00  0.00     0.274 C 
ENDROOT
BRANCH   1   2
ATOM      2  O   UNL A   1      31.863  28.680  25.713  1.00  0.00    -0.460 OA
BRANCH   2   3
ATOM      3  C   UNL A   1      31.284  27.460  25.492  1.00  0.00     0.331 C 
ATOM      4  O   UNL A   1      30.743  26.806  26.378  1.00  0.00    -0.249 OA
BRANCH   3   5
ATOM      5  C   UNL A   1      31.519  26.921  24.037  1.00  0.00     0.138 C 
ATOM      6  C   UNL A   1      32.984  27.204  23.621  1.00  0.00     0.048 C 
BRANCH   5   7
ATOM      7  N   UNL A   1      31.333  25.450  23.864  1.00  0.00    -0.340 N 
ATOM      8  C   UNL A   1      31.785  24.358  24.534  1.00  0.00     0.230 C 
ATOM      9  H   UNL A   1      30.758  25.221  23.098  1.00  0.00     0.164 HD
ATOM     10  O   UNL A   1      31.040  23.371  24.559  1.00  0.00    -0.274 OA
BRANCH   8  11
ATOM     11  C   UNL A   1      33.196  24.253  25.070  1.00  0.00     0.169 C 
BRANCH  11  12
ATOM     12  S   UNL A   1      33.787  22.522  25.106  1.00  0.00    -0.147 SA
BRANCH  12  13
ATOM     13  C   UNL A   1      35.143  22.581  23.893  1.00  0.00     0.105 C 
BRANCH  13  14
ATOM     14  C   UNL A   1      36.462  22.588  24.609  1.00  0.00    -0.038 A 
ATOM     15  C   UNL A   1      36.854  23.707  25.358  1.00  0.00     0.004 A 
ATOM     16  C   UNL A   1      37.268  21.442  24.615  1.00  0.00     0.004 A 
ATOM     17  C   UNL A   1      38.025  23.673  26.111  1.00  0.00     0.000 A 
ATOM     18  C   UNL A   1      38.434  21.407  25.376  1.00  0.00     0.000 A 
ATOM     19  C   UNL A   1      38.810  22.521  26.126  1.00  0.00     0.000 A 
ENDBRANCH  13  14
ENDBRANCH  12  13
ENDBRANCH  11  12
ENDBRANCH   8  11
ENDBRANCH   5   7
BRANCH   5  20
ATOM     20  C   UNL A   1      30.628  27.554  22.953  1.00  0.00     0.026 C 
ATOM     21  C   UNL A   1      29.228  28.082  23.161  1.00  0.00     0.007 C 
ATOM     22  C   UNL A   1      30.364  29.039  22.906  1.00  0.00     0.007 C 
ENDBRANCH   5  20
ENDBRANCH   3   5
ENDBRANCH   2   3
ENDBRANCH   1   2
BRANCH   1  23
ATOM     23  C   UNL A   1      32.774  30.381  27.237  1.00  0.00     0.275 C 
BRANCH  23  24
ATOM     24  O   UNL A   1      34.199  30.485  27.161  1.00  0.00    -0.458 OA
BRANCH  24  25
ATOM     25  C   UNL A   1      34.822  30.847  28.297  1.00  0.00     0.338 C 
ATOM     26  O   UNL A   1      34.403  31.582  29.182  1.00  0.00    -0.246 OA
BRANCH  25  27
ATOM     27  C   UNL A   1      36.108  30.146  28.366  1.00  0.00     0.060 A 
ATOM     28  C   UNL A   1      36.544  29.655  29.596  1.00  0.00     0.016 A 
ATOM     29  C   UNL A   1      36.937  30.097  27.251  1.00  0.00     0.016 A 
ATOM     30  C   UNL A   1      37.856  29.223  29.749  1.00  0.00     0.010 A 
ATOM     31  C   UNL A   1      38.218  29.559  27.383  1.00  0.00     0.010 A 
ATOM     32  C   UNL A   1      38.709  29.162  28.644  1.00  0.00    -0.014 A 
BRANCH  32  33
ATOM     33  C   UNL A   1      40.135  28.771  28.790  1.00  0.00     0.031 A 
ATOM     34  C   UNL A   1      41.130  29.820  29.203  1.00  0.00     0.074 A 
ATOM     35  C   UNL A   1      40.555  27.515  28.543  1.00  0.00     0.049 A 
ATOM     36  N   UNL A   1      42.422  29.852  29.019  1.00  0.00    -0.248 NA
ATOM     37  C   UNL A   1      40.590  31.007  29.887  1.00  0.00     0.031 C 
ATOM     38  C   UNL A   1      39.698  26.371  28.228  1.00  0.00     0.029 A 
ATOM     39  N   UNL A   1      41.826  26.996  28.506  1.00  0.00    -0.354 N 
ATOM     40  C   UNL A   1      42.832  31.105  29.459  1.00  0.00     0.074 A 
ATOM     41  C   UNL A   1      41.660  31.786  29.964  1.00  0.00     0.031 C 
ATOM     42  C   UNL A   1      40.463  25.284  28.046  1.00  0.00     0.029 A 
ATOM     43  C   UNL A   1      41.864  25.678  28.113  1.00  0.00     0.049 A 
ATOM     44  H   UNL A   1      42.629  27.515  28.737  1.00  0.00     0.167 HD
ATOM     45  C   UNL A   1      44.074  31.638  29.409  1.00  0.00     0.037 A 
ATOM     46  C   UNL A   1      42.904  24.898  27.762  1.00  0.00     0.037 A 
ATOM     47  C   UNL A   1      45.238  30.902  28.989  1.00  0.00     0.049 A 
ATOM     48  C   UNL A   1      44.279  25.498  27.724  1.00  0.00     0.074 A 
ATOM     49  C   UNL A   1      46.551  31.328  28.914  1.00  0.00     0.029 A 
ATOM     50  N   UNL A   1      45.225  29.569  28.603  1.00  0.00    -0.354 N 
ATOM     51  N   UNL A   1      44.650  26.724  28.011  1.00  0.00    -0.248 NA
ATOM     52  C   UNL A   1      45.372  24.626  27.272  1.00  0.00     0.031 C 
ATOM     53  C   UNL A   1      47.331  30.256  28.467  1.00  0.00     0.029 A 
ATOM     54  C   UNL A   1      46.506  29.156  28.288  1.00  0.00     0.049 A 
ATOM     55  H   UNL A   1      44.422  29.002  28.559  1.00  0.00     0.167 HD
ATOM     56  C   UNL A   1      46.013  26.777  27.756  1.00  0.00     0.074 A 
ATOM     57  C   UNL A   1      46.410  25.451  27.321  1.00  0.00     0.031 C 
ATOM     58  C   UNL A   1      46.862  27.829  27.855  1.00  0.00     0.037 A 
BRANCH  45  59
ATOM     59  C   UNL A   1      44.230  33.090  29.757  1.00  0.00     0.058 A 
ATOM     60  C   UNL A   1      44.622  33.522  31.032  1.00  0.00     0.135 A 
ATOM     61  C   UNL A   1      44.005  34.068  28.773  1.00  0.00     0.135 A 
ATOM     62  F   UNL A   1      44.825  32.630  32.014  1.00  0.00    -0.206 F 
ATOM     63  C   UNL A   1      44.771  34.875  31.324  1.00  0.00     0.059 A 
ATOM     64  C   UNL A   1      44.167  35.425  29.038  1.00  0.00     0.059 A 
ATOM     65  F   UNL A   1      43.618  33.709  27.539  1.00  0.00    -0.206 F 
ATOM     66  C   UNL A   1      44.539  35.819  30.322  1.00  0.00     0.060 A 
BRANCH  66  67
ATOM     67  S   UNL A   1      44.748  37.571  30.706  1.00  0.00     0.124 S 
ATOM     68  O   UNL A   1      46.153  37.617  31.100  1.00  0.00    -0.237 OA
ATOM     69  O   UNL A   1      44.427  38.214  29.435  1.00  0.00    -0.237 OA
ATOM     70  O   UNL A   1      43.785  37.800  31.779  1.00  0.00    -0.744 OA
ENDBRANCH  66  67
ENDBRANCH  45  59
BRANCH  46  71
ATOM     71  C   UNL A   1      42.657  23.502  27.318  1.00  0.00     0.058 A 
ATOM     72  C   UNL A   1      42.726  23.151  25.962  1.00  0.00     0.135 A 
ATOM     73  C   UNL A   1      42.400  22.480  28.247  1.00  0.00     0.135 A 
ATOM     74  F   UNL A   1      42.955  24.095  25.036  1.00  0.00    -0.206 F 
ATOM     75  C   UNL A   1      42.561  21.835  25.543  1.00  0.00     0.059 A 
ATOM     76  C   UNL A   1      42.256  21.154  27.853  1.00  0.00     0.059 A 
ATOM     77  F   UNL A   1      42.335  22.764  29.557  1.00  0.00    -0.206 F 
ATOM     78  C   UNL A   1      42.333  20.841  26.498  1.00  0.00     0.060 A 
BRANCH  78  79
ATOM     79  S   UNL A   1      42.214  19.119  25.965  1.00  0.00     0.124 S 
ATOM     80  O   UNL A   1      43.039  19.128  24.761  1.00  0.00    -0.237 OA
ATOM     81  O   UNL A   1      42.764  18.397  27.109  1.00  0.00    -0.237 OA
ATOM     82  O   UNL A   1      40.782  18.938  25.751  1.00  0.00    -0.744 OA
ENDBRANCH  78  79
ENDBRANCH  46  71
BRANCH  58  83
ATOM     83  C   UNL A   1      48.294  27.585  27.489  1.00  0.00     0.058 A 
ATOM     84  C   UNL A   1      49.208  27.092  28.431  1.00  0.00     0.135 A 
ATOM     85  C   UNL A   1      48.740  27.793  26.176  1.00  0.00     0.135 A 
ATOM     86  F   UNL A   1      48.825  26.885  29.701  1.00  0.00    -0.206 F 
ATOM     87  C   UNL A   1      50.526  26.820  28.084  1.00  0.00     0.059 A 
ATOM     88  C   UNL A   1      50.050  27.515  25.803  1.00  0.00     0.059 A 
ATOM     89  F   UNL A   1      47.896  28.259  25.241  1.00  0.00    -0.206 F 
ATOM     90  C   UNL A   1      50.937  27.035  26.767  1.00  0.00     0.060 A 
BRANCH  90  91
ATOM     91  S   UNL A   1      52.640  26.643  26.314  1.00  0.00     0.124 S 
ATOM     92  O   UNL A   1      52.464  26.061  24.987  1.00  0.00    -0.237 OA
ATOM     93  O   UNL A   1      53.288  27.950  26.353  1.00  0.00    -0.237 OA
ATOM     94  O   UNL A   1      53.060  25.712  27.358  1.00  0.00    -0.744 OA
ENDBRANCH  90  91
ENDBRANCH  58  83
ENDBRANCH  32  33
ENDBRANCH  25  27
ENDBRANCH  24  25
ENDBRANCH  23  24
ENDBRANCH   1  23
TORSDOF 20
ENDMDL
MODEL 2
REMARK VINA RESULT:     -10.6      4.607     10.427
REMARK SMILES C[C@@](NC(=O)CSCc1ccccc1)(C(=O)OCCOC(=O)c1ccc(-c2c3nc(c(-c4c(F)cc(S(=O)(=O)[O-])cc4F)c4ccc([nH]4)c(-c4c(F)cc(S(=O)(=O)[O-])cc4F)c4nc(c(-c5c(F)cc(S(=O)(=O)[O-])cc5F)c5ccc2[nH]5)C=C4)C=C3)cc1)C1CC1
REMARK SMILES IDX 18 1 17 2 15 3 16 4 2 5 1 6 3 7 4 8 5 10 6 11 7 12 8 13 9 14
REMARK SMILES IDX 10 15 14 16 11 17 13 18 12 19 89 20 90 21 91 22 19 23 20 24
REMARK SMILES IDX 21 25 22 26 23 27 24 28 88 29 25 30 87 31 26 32 27 33 28 34
REMARK SMILES IDX 81 35 29 36 86 37 80 38 82 39 30 40 85 41 79 42 78 43 31 45
REMARK SMILES IDX 65 46 44 47 64 48 45 49 48 50 63 51 83 52 46 53 47 54 62 56
REMARK SMILES IDX 84 57 49 58 32 59 33 60 42 61 34 62 35 63 41 64 43 65 36 66
REMARK SMILES IDX 37 67 38 68 39 69 40 70 66 71 67 72 76 73 68 74 69 75 75 76
REMARK SMILES IDX 77 77 70 78 71 79 72 80 73 81 74 82 50 83 51 84 60 85 52 86
REMARK SMILES IDX 53 87 59 88 61 89 54 90 55 91 56 92 57 93 58 94
REMARK H PARENT 3 9 82 44 48 55
REMARK Flexibility Score: inf
ROOT
ATOM      1  C   UNL A   1      36.588  20.875  25.366  1.00  0.00     0.274 C 
ENDROOT
BRANCH   1   2
ATOM      2  O   UNL A   1      35.724  21.883  25.947  1.00  0.00    -0.460 OA
BRANCH   2   3
ATOM      3  C   UNL A   1      34.439  21.938  25.480  1.00  0.00     0.331 C 
ATOM      4  O   UNL A   1      33.694  20.964  25.454  1.00  0.00    -0.249 OA
BRANCH   3   5
ATOM      5  C   UNL A   1      34.073  23.326  24.848  1.00  0.00     0.138 C 
ATOM      6  C   UNL A   1      35.368  24.157  24.661  1.00  0.00     0.048 C 
BRANCH   5   7
ATOM      7  N   UNL A   1      33.441  23.265  23.496  1.00  0.00    -0.340 N 
ATOM      8  C   UNL A   1      33.502  24.054  22.391  1.00  0.00     0.230 C 
ATOM      9  H   UNL A   1      32.854  22.484  23.380  1.00  0.00     0.164 HD
ATOM     10  O   UNL A   1      33.388  23.491  21.297  1.00  0.00    -0.274 OA
BRANCH   8  11
ATOM     11  C   UNL A   1      33.517  25.566  22.465  1.00  0.00     0.169 C 
BRANCH  11  12
ATOM     12  S   UNL A   1      31.835  26.272  22.333  1.00  0.00    -0.147 SA
BRANCH  12  13
ATOM     13  C   UNL A   1      32.122  27.985  22.880  1.00  0.00     0.105 C 
BRANCH  13  14
ATOM     14  C   UNL A   1      32.375  28.009  24.359  1.00  0.00    -0.038 A 
ATOM     15  C   UNL A   1      31.321  27.802  25.260  1.00  0.00     0.004 A 
ATOM     16  C   UNL A   1      33.681  28.140  24.849  1.00  0.00     0.004 A 
ATOM     17  C   UNL A   1      31.572  27.714  26.627  1.00  0.00     0.000 A 
ATOM     18  C   UNL A   1      33.931  28.043  26.216  1.00  0.00     0.000 A 
ATOM     19  C   UNL A   1      32.878  27.826  27.103  1.00  0.00     0.000 A 
ENDBRANCH  13  14
ENDBRANCH  12  13
ENDBRANCH  11  12
ENDBRANCH   8  11
ENDBRANCH   5   7
BRANCH   5  20
ATOM     20  C   UNL A   1      33.116  24.196  25.683  1.00  0.00     0.026 C 
ATOM     21  C   UNL A   1      31.609  24.098  25.679  1.00  0.00     0.007 C 
ATOM     22  C   UNL A   1      32.389  23.649  26.887  1.00  0.00     0.007 C 
ENDBRANCH   5  20
ENDBRANCH   3   5
ENDBRANCH   2   3
ENDBRANCH   1   2
BRANCH   1  23
ATOM     23  C   UNL A   1      37.989  21.409  25.114  1.00  0.00     0.275 C 
BRANCH  23  24
ATOM     24  O   UNL A   1      38.251  22.444  26.068  1.00  0.00    -0.458 OA
BRANCH  24  25
ATOM     25  C   UNL A   1      39.546  22.763  26.246  1.00  0.00     0.338 C 
ATOM     26  O   UNL A   1      40.531  22.122  25.904  1.00  0.00    -0.246 OA
BRANCH  25  27
ATOM     27  C   UNL A   1      39.617  24.086  26.875  1.00  0.00     0.060 A 
ATOM     28  C   UNL A   1      40.472  25.045  26.333  1.00  0.00     0.016 A 
ATOM     29  C   UNL A   1      38.946  24.330  28.068  1.00  0.00     0.016 A 
ATOM     30  C   UNL A   1      40.759  26.204  27.044  1.00  0.00     0.010 A 
ATOM     31  C   UNL A   1      39.152  25.544  28.724  1.00  0.00     0.010 A 
ATOM     32  C   UNL A   1      40.097  26.473  28.245  1.00  0.00    -0.014 A 
BRANCH  32  33
ATOM     33  C   UNL A   1      40.433  27.670  29.060  1.00  0.00     0.031 A 
ATOM     34  C   UNL A   1      41.688  27.646  29.888  1.00  0.00     0.074 A 
ATOM     35  C   UNL A   1      39.636  28.755  29.088  1.00  0.00     0.049 A 
ATOM     36  N   UNL A   1      41.992  28.346  30.947  1.00  0.00    -0.248 NA
ATOM     37  C   UNL A   1      42.724  26.680  29.487  1.00  0.00     0.031 C 
ATOM     38  C   UNL A   1      38.441  28.963  28.269  1.00  0.00     0.029 A 
ATOM     39  N   UNL A   1      39.711  29.891  29.857  1.00  0.00    -0.354 N 
ATOM     40  C   UNL A   1      43.199  27.829  31.404  1.00  0.00     0.074 A 
ATOM     41  C   UNL A   1      43.595  26.789  30.480  1.00  0.00     0.031 C 
ATOM     42  C   UNL A   1      37.905  30.156  28.566  1.00  0.00     0.029 A 
ATOM     43  C   UNL A   1      38.646  30.743  29.676  1.00  0.00     0.049 A 
ATOM     44  H   UNL A   1      40.453  30.076  30.477  1.00  0.00     0.167 HD
ATOM     45  C   UNL A   1      43.886  28.180  32.515  1.00  0.00     0.037 A 
ATOM     46  C   UNL A   1      38.260  31.824  30.378  1.00  0.00     0.037 A 
ATOM     47  C   UNL A   1      43.516  29.283  33.363  1.00  0.00     0.049 A 
ATOM     48  C   UNL A   1      39.039  32.211  31.601  1.00  0.00     0.074 A 
ATOM     49  C   UNL A   1      44.144  29.746  34.505  1.00  0.00     0.029 A 
ATOM     50  N   UNL A   1      42.431  30.116  33.135  1.00  0.00    -0.354 N 
ATOM     51  N   UNL A   1      40.104  31.639  32.112  1.00  0.00    -0.248 NA
ATOM     52  C   UNL A   1      38.541  33.359  32.371  1.00  0.00     0.031 C 
ATOM     53  C   UNL A   1      43.427  30.851  34.977  1.00  0.00     0.029 A 
ATOM     54  C   UNL A   1      42.368  31.091  34.114  1.00  0.00     0.049 A 
ATOM     55  H   UNL A   1      41.797  30.026  32.386  1.00  0.00     0.167 HD
ATOM     56  C   UNL A   1      40.393  32.344  33.272  1.00  0.00     0.074 A 
ATOM     57  C   UNL A   1      39.409  33.405  33.372  1.00  0.00     0.031 C 
ATOM     58  C   UNL A   1      41.372  32.128  34.184  1.00  0.00     0.037 A 
BRANCH  45  59
ATOM     59  C   UNL A   1      45.062  27.334  32.909  1.00  0.00     0.058 A 
ATOM     60  C   UNL A   1      46.375  27.643  32.528  1.00  0.00     0.135 A 
ATOM     61  C   UNL A   1      44.863  26.199  33.715  1.00  0.00     0.135 A 
ATOM     62  F   UNL A   1      46.617  28.701  31.740  1.00  0.00    -0.206 F 
ATOM     63  C   UNL A   1      47.449  26.848  32.919  1.00  0.00     0.059 A 
ATOM     64  C   UNL A   1      45.923  25.402  34.133  1.00  0.00     0.059 A 
ATOM     65  F   UNL A   1      43.623  25.853  34.100  1.00  0.00    -0.206 F 
ATOM     66  C   UNL A   1      47.213  25.728  33.719  1.00  0.00     0.060 A 
BRANCH  66  67
ATOM     67  S   UNL A   1      48.614  24.710  34.232  1.00  0.00     0.124 S 
ATOM     68  O   UNL A   1      49.161  25.501  35.331  1.00  0.00    -0.237 OA
ATOM     69  O   UNL A   1      47.970  23.457  34.616  1.00  0.00    -0.237 OA
ATOM     70  O   UNL A   1      49.441  24.642  33.032  1.00  0.00    -0.744 OA
ENDBRANCH  66  67
ENDBRANCH  45  59
BRANCH  46  71
ATOM     71  C   UNL A   1      37.017  32.543  29.993  1.00  0.00     0.058 A 
ATOM     72  C   UNL A   1      35.777  32.187  30.540  1.00  0.00     0.135 A 
ATOM     73  C   UNL A   1      37.055  33.637  29.112  1.00  0.00     0.135 A 
ATOM     74  F   UNL A   1      35.688  31.141  31.376  1.00  0.00    -0.206 F 
ATOM     75  C   UNL A   1      34.618  32.895  30.237  1.00  0.00     0.059 A 
ATOM     76  C   UNL A   1      35.915  34.374  28.814  1.00  0.00     0.059 A 
ATOM     77  F   UNL A   1      38.221  34.023  28.571  1.00  0.00    -0.206 F 
ATOM     78  C   UNL A   1      34.699  33.993  29.377  1.00  0.00     0.060 A 
BRANCH  78  79
ATOM     79  S   UNL A   1      33.214  34.972  29.058  1.00  0.00     0.124 S 
ATOM     80  O   UNL A   1      32.535  34.154  28.059  1.00  0.00    -0.237 OA
ATOM     81  O   UNL A   1      32.585  35.027  30.374  1.00  0.00    -0.237 OA
ATOM     82  O   UNL A   1      33.753  36.241  28.578  1.00  0.00    -0.744 OA
ENDBRANCH  78  79
ENDBRANCH  46  71
BRANCH  58  83
ATOM     83  C   UNL A   1      41.424  33.055  35.360  1.00  0.00     0.058 A 
ATOM     84  C   UNL A   1      42.186  34.232  35.321  1.00  0.00     0.135 A 
ATOM     85  C   UNL A   1      40.665  32.792  36.509  1.00  0.00     0.135 A 
ATOM     86  F   UNL A   1      42.932  34.519  34.243  1.00  0.00    -0.206 F 
ATOM     87  C   UNL A   1      42.200  35.118  36.392  1.00  0.00     0.059 A 
ATOM     88  C   UNL A   1      40.652  33.670  37.586  1.00  0.00     0.059 A 
ATOM     89  F   UNL A   1      39.917  31.679  36.585  1.00  0.00    -0.206 F 
ATOM     90  C   UNL A   1      41.430  34.827  37.521  1.00  0.00     0.060 A 
BRANCH  90  91
ATOM     91  S   UNL A   1      41.422  36.001  38.892  1.00  0.00     0.124 S 
ATOM     92  O   UNL A   1      42.125  35.249  39.926  1.00  0.00    -0.237 OA
ATOM     93  O   UNL A   1      42.143  37.142  38.336  1.00  0.00    -0.237 OA
ATOM     94  O   UNL A   1      39.999  36.226  39.135  1.00  0.00    -0.744 OA
ENDBRANCH  90  91
ENDBRANCH  58  83
ENDBRANCH  32  33
ENDBRANCH  25  27
ENDBRANCH  24  25
ENDBRANCH  23  24
ENDBRANCH   1  23
TORSDOF 20
ENDMDL
MODEL 3
REMARK VINA RESULT:     -10.6      1.503      2.297
REMARK SMILES C[C@@](NC(=O)CSCc1ccccc1)(C(=O)OCCOC(=O)c1ccc(-c2c3nc(c(-c4c(F)cc(S(=O)(=O)[O-])cc4F)c4ccc([nH]4)c(-c4c(F)cc(S(=O)(=O)[O-])cc4F)c4nc(c(-c5c(F)cc(S(=O)(=O)[O-])cc5F)c5ccc2[nH]5)C=C4)C=C3)cc1)C1CC1
REMARK SMILES IDX 18 1 17 2 15 3 16 4 2 5 1 6 3 7 4 8 5 10 6 11 7 12 8 13 9 14
REMARK SMILES IDX 10 15 14 16 11 17 13 18 12 19 89 20 90 21 91 22 19 23 20 24
REMARK SMILES IDX 21 25 22 26 23 27 24 28 88 29 25 30 87 31 26 32 27 33 28 34
REMARK SMILES IDX 81 35 29 36 86 37 80 38 82 39 30 40 85 41 79 42 78 43 31 45
REMARK SMILES IDX 65 46 44 47 64 48 45 49 48 50 63 51 83 52 46 53 47 54 62 56
REMARK SMILES IDX 84 57 49 58 32 59 33 60 42 61 34 62 35 63 41 64 43 65 36 66
REMARK SMILES IDX 37 67 38 68 39 69 40 70 66 71 67 72 76 73 68 74 69 75 75 76
REMARK SMILES IDX 77 77 70 78 71 79 72 80 73 81 74 82 50 83 51 84 60 85 52 86
REMARK SMILES IDX 53 87 59 88 61 89 54 90 55 91 56 92 57 93 58 94
REMARK H PARENT 3 9 82 44 48 55
REMARK Flexibility Score: inf
ROOT
ATOM      1  C   UNL A   1      32.591  28.984  27.148  1.00  0.00     0.274 C 
ENDROOT
BRANCH   1   2
ATOM      2  O   UNL A   1      32.942  28.423  25.859  1.00  0.00    -0.460 OA
BRANCH   2   3
ATOM      3  C   UNL A   1      32.050  27.549  25.302  1.00  0.00     0.331 C 
ATOM      4  O   UNL A   1      30.880  27.840  25.075  1.00  0.00    -0.249 OA
BRANCH   3   5
ATOM      5  C   UNL A   1      32.632  26.102  25.129  1.00  0.00     0.138 C 
ATOM      6  C   UNL A   1      34.066  26.058  25.715  1.00  0.00     0.048 C 
BRANCH   5   7
ATOM      7  N   UNL A   1      31.879  25.023  25.836  1.00  0.00    -0.340 N 
ATOM      8  C   UNL A   1      32.251  23.945  26.575  1.00  0.00     0.230 C 
ATOM      9  H   UNL A   1      30.903  25.112  25.748  1.00  0.00     0.164 HD
ATOM     10  O   UNL A   1      31.487  23.603  27.486  1.00  0.00    -0.274 OA
BRANCH   8  11
ATOM     11  C   UNL A   1      33.431  23.070  26.211  1.00  0.00     0.169 C 
BRANCH  11  12
ATOM     12  S   UNL A   1      32.999  21.294  26.239  1.00  0.00    -0.147 SA
BRANCH  12  13
ATOM     13  C   UNL A   1      32.599  20.993  24.489  1.00  0.00     0.105 C 
BRANCH  13  14
ATOM     14  C   UNL A   1      33.006  19.599  24.108  1.00  0.00    -0.038 A 
ATOM     15  C   UNL A   1      32.315  18.911  23.101  1.00  0.00     0.004 A 
ATOM     16  C   UNL A   1      34.138  19.012  24.689  1.00  0.00     0.004 A 
ATOM     17  C   UNL A   1      32.759  17.663  22.671  1.00  0.00     0.000 A 
ATOM     18  C   UNL A   1      34.585  17.767  24.251  1.00  0.00     0.000 A 
ATOM     19  C   UNL A   1      33.898  17.096  23.241  1.00  0.00     0.000 A 
ENDBRANCH  13  14
ENDBRANCH  12  13
ENDBRANCH  11  12
ENDBRANCH   8  11
ENDBRANCH   5   7
BRANCH   5  20
ATOM     20  C   UNL A   1      32.740  25.609  23.674  1.00  0.00     0.026 C 
ATOM     21  C   UNL A   1      31.643  25.675  22.638  1.00  0.00     0.007 C 
ATOM     22  C   UNL A   1      32.851  26.567  22.515  1.00  0.00     0.007 C 
ENDBRANCH   5  20
ENDBRANCH   3   5
ENDBRANCH   2   3
ENDBRANCH   1   2
BRANCH   1  23
ATOM     23  C   UNL A   1      32.725  30.499  27.160  1.00  0.00     0.275 C 
BRANCH  23  24
ATOM     24  O   UNL A   1      34.118  30.824  27.120  1.00  0.00    -0.458 OA
BRANCH  24  25
ATOM     25  C   UNL A   1      34.679  31.145  28.301  1.00  0.00     0.338 C 
ATOM     26  O   UNL A   1      34.217  31.857  29.183  1.00  0.00    -0.246 OA
BRANCH  25  27
ATOM     27  C   UNL A   1      35.953  30.428  28.420  1.00  0.00     0.060 A 
ATOM     28  C   UNL A   1      36.355  29.970  29.674  1.00  0.00     0.016 A 
ATOM     29  C   UNL A   1      36.805  30.330  27.326  1.00  0.00     0.016 A 
ATOM     30  C   UNL A   1      37.656  29.524  29.870  1.00  0.00     0.010 A 
ATOM     31  C   UNL A   1      38.074  29.779  27.503  1.00  0.00     0.010 A 
ATOM     32  C   UNL A   1      38.531  29.415  28.786  1.00  0.00    -0.014 A 
BRANCH  32  33
ATOM     33  C   UNL A   1      39.948  29.009  28.975  1.00  0.00     0.031 A 
ATOM     34  C   UNL A   1      40.938  30.042  29.436  1.00  0.00     0.074 A 
ATOM     35  C   UNL A   1      40.364  27.752  28.727  1.00  0.00     0.049 A 
ATOM     36  N   UNL A   1      42.236  30.065  29.297  1.00  0.00    -0.248 NA
ATOM     37  C   UNL A   1      40.386  31.226  30.117  1.00  0.00     0.031 C 
ATOM     38  C   UNL A   1      39.508  26.621  28.367  1.00  0.00     0.029 A 
ATOM     39  N   UNL A   1      41.631  27.221  28.726  1.00  0.00    -0.354 N 
ATOM     40  C   UNL A   1      42.642  31.308  29.767  1.00  0.00     0.074 A 
ATOM     41  C   UNL A   1      41.460  31.993  30.241  1.00  0.00     0.031 C 
ATOM     42  C   UNL A   1      40.269  25.528  28.197  1.00  0.00     0.029 A 
ATOM     43  C   UNL A   1      41.671  25.908  28.318  1.00  0.00     0.049 A 
ATOM     44  H   UNL A   1      42.431  27.729  28.992  1.00  0.00     0.167 HD
ATOM     45  C   UNL A   1      43.890  31.829  29.768  1.00  0.00     0.037 A 
ATOM     46  C   UNL A   1      42.715  25.123  27.992  1.00  0.00     0.037 A 
ATOM     47  C   UNL A   1      45.061  31.087  29.378  1.00  0.00     0.049 A 
ATOM     48  C   UNL A   1      44.096  25.710  28.009  1.00  0.00     0.074 A 
ATOM     49  C   UNL A   1      46.380  31.502  29.354  1.00  0.00     0.029 A 
ATOM     50  N   UNL A   1      45.049  29.760  28.974  1.00  0.00    -0.354 N 
ATOM     51  N   UNL A   1      44.468  26.928  28.325  1.00  0.00    -0.248 NA
ATOM     52  C   UNL A   1      45.195  24.833  27.584  1.00  0.00     0.031 C 
ATOM     53  C   UNL A   1      47.165  30.427  28.919  1.00  0.00     0.029 A 
ATOM     54  C   UNL A   1      46.336  29.338  28.697  1.00  0.00     0.049 A 
ATOM     55  H   UNL A   1      44.242  29.201  28.895  1.00  0.00     0.167 HD
ATOM     56  C   UNL A   1      45.840  26.971  28.117  1.00  0.00     0.074 A 
ATOM     57  C   UNL A   1      46.238  25.647  27.679  1.00  0.00     0.031 C 
ATOM     58  C   UNL A   1      46.694  28.014  28.260  1.00  0.00     0.037 A 
BRANCH  45  59
ATOM     59  C   UNL A   1      44.047  33.275  30.140  1.00  0.00     0.058 A 
ATOM     60  C   UNL A   1      43.922  34.312  29.206  1.00  0.00     0.135 A 
ATOM     61  C   UNL A   1      44.301  33.624  31.478  1.00  0.00     0.135 A 
ATOM     62  F   UNL A   1      43.705  34.032  27.912  1.00  0.00    -0.206 F 
ATOM     63  C   UNL A   1      44.059  35.646  29.581  1.00  0.00     0.059 A 
ATOM     64  C   UNL A   1      44.422  34.951  31.878  1.00  0.00     0.059 A 
ATOM     65  F   UNL A   1      44.438  32.669  32.411  1.00  0.00    -0.206 F 
ATOM     66  C   UNL A   1      44.311  35.956  30.919  1.00  0.00     0.060 A 
BRANCH  66  67
ATOM     67  S   UNL A   1      44.475  37.689  31.399  1.00  0.00     0.124 S 
ATOM     68  O   UNL A   1      43.801  38.361  30.292  1.00  0.00    -0.237 OA
ATOM     69  O   UNL A   1      43.777  37.728  32.681  1.00  0.00    -0.237 OA
ATOM     70  O   UNL A   1      45.919  37.886  31.470  1.00  0.00    -0.744 OA
ENDBRANCH  66  67
ENDBRANCH  45  59
BRANCH  46  71
ATOM     71  C   UNL A   1      42.470  23.735  27.521  1.00  0.00     0.058 A 
ATOM     72  C   UNL A   1      42.395  23.438  26.154  1.00  0.00     0.135 A 
ATOM     73  C   UNL A   1      42.361  22.669  28.430  1.00  0.00     0.135 A 
ATOM     74  F   UNL A   1      42.480  24.424  25.248  1.00  0.00    -0.206 F 
ATOM     75  C   UNL A   1      42.232  22.132  25.701  1.00  0.00     0.059 A 
ATOM     76  C   UNL A   1      42.222  21.354  28.001  1.00  0.00     0.059 A 
ATOM     77  F   UNL A   1      42.437  22.902  29.750  1.00  0.00    -0.206 F 
ATOM     78  C   UNL A   1      42.153  21.095  26.634  1.00  0.00     0.060 A 
BRANCH  78  79
ATOM     79  S   UNL A   1      42.038  19.390  26.047  1.00  0.00     0.124 S 
ATOM     80  O   UNL A   1      40.612  19.276  25.762  1.00  0.00    -0.237 OA
ATOM     81  O   UNL A   1      42.922  19.397  24.885  1.00  0.00    -0.237 OA
ATOM     82  O   UNL A   1      42.520  18.615  27.186  1.00  0.00    -0.744 OA
ENDBRANCH  78  79
ENDBRANCH  46  71
BRANCH  58  83
ATOM     83  C   UNL A   1      48.136  27.760  27.940  1.00  0.00     0.058 A 
ATOM     84  C   UNL A   1      49.004  27.213  28.895  1.00  0.00     0.135 A 
ATOM     85  C   UNL A   1      48.637  28.015  26.655  1.00  0.00     0.135 A 
ATOM     86  F   UNL A   1      48.567  26.960  30.139  1.00  0.00    -0.206 F 
ATOM     87  C   UNL A   1      50.330  26.932  28.589  1.00  0.00     0.059 A 
ATOM     88  C   UNL A   1      49.956  27.729  26.322  1.00  0.00     0.059 A 
ATOM     89  F   UNL A   1      47.838  28.533  25.708  1.00  0.00    -0.206 F 
ATOM     90  C   UNL A   1      50.797  27.195  27.299  1.00  0.00     0.060 A 
BRANCH  90  91
ATOM     91  S   UNL A   1      52.510  26.793  26.896  1.00  0.00     0.124 S 
ATOM     92  O   UNL A   1      53.224  27.399  28.015  1.00  0.00    -0.237 OA
ATOM     93  O   UNL A   1      52.494  25.333  26.869  1.00  0.00    -0.237 OA
ATOM     94  O   UNL A   1      52.711  27.434  25.599  1.00  0.00    -0.744 OA
ENDBRANCH  90  91
ENDBRANCH  58  83
ENDBRANCH  32  33
ENDBRANCH  25  27
ENDBRANCH  24  25
ENDBRANCH  23  24
ENDBRANCH   1  23
TORSDOF 20
ENDMDL
