MODEL 1
REMARK VINA RESULT:     -10.6      0.000      0.000
REMARK SMILES CC(=O)N/N=C/c1ccc(O[C@H](C)C(=O)OCCOC(=O)c2ccc(-c3c4nc(c(-c5c(F)cc(S(=O)(=O)[O-])cc5F)c5ccc([nH]5)c(-c5c(F)cc(S(=O)(=O)[O-])cc5F)c5nc(c(-c6c(F)cc(S(=O)(=O)[O-])cc6F)c6ccc3[nH]6)C=C5)C=C4)cc2)cc1
REMARK SMILES IDX 17 1 16 2 14 3 15 4 12 5 13 6 11 7 10 8 7 9 8 10 89 11 9 12
REMARK SMILES IDX 88 13 6 14 5 15 4 16 1 17 2 18 3 19 18 21 19 22 20 23 21 24
REMARK SMILES IDX 22 25 23 26 87 27 24 28 86 29 25 30 26 31 27 32 80 33 28 34
REMARK SMILES IDX 85 35 79 36 81 37 29 38 84 39 78 40 77 41 30 43 64 44 43 45
REMARK SMILES IDX 63 46 44 47 47 48 62 49 82 50 45 51 46 52 61 54 83 55 48 56
REMARK SMILES IDX 31 57 32 58 41 59 33 60 34 61 40 62 42 63 35 64 36 65 37 66
REMARK SMILES IDX 38 67 39 68 65 69 66 70 75 71 67 72 68 73 74 74 76 75 69 76
REMARK SMILES IDX 70 77 71 78 72 79 73 80 49 81 50 82 59 83 51 84 52 85 58 86
REMARK SMILES IDX 60 87 53 88 54 89 55 90 56 91 57 92
REMARK H PARENT 4 20 81 42 47 53
REMARK Flexibility Score: inf
ROOT
ATOM      1  C   UNL A   1      33.872  34.181  28.462  1.00  0.00     0.274 C 
ENDROOT
BRANCH   1   2
ATOM      2  O   UNL A   1      32.826  34.559  29.375  1.00  0.00    -0.459 OA
BRANCH   2   3
ATOM      3  C   UNL A   1      32.992  35.734  30.039  1.00  0.00     0.347 C 
ATOM      4  O   UNL A   1      32.934  36.838  29.506  1.00  0.00    -0.248 OA
BRANCH   3   5
ATOM      5  C   UNL A   1      33.228  35.546  31.542  1.00  0.00     0.279 C 
ATOM      6  C   UNL A   1      32.105  36.079  32.439  1.00  0.00     0.066 C 
BRANCH   5   7
ATOM      7  O   UNL A   1      33.451  34.147  31.743  1.00  0.00    -0.479 OA
BRANCH   7   8
ATOM      8  C   UNL A   1      34.495  33.751  32.532  1.00  0.00     0.120 A 
ATOM      9  C   UNL A   1      36.558  32.617  34.051  1.00  0.00    -0.005 A 
ATOM     10  C   UNL A   1      35.976  33.821  34.451  1.00  0.00     0.013 A 
ATOM     11  C   UNL A   1      36.138  31.995  32.873  1.00  0.00     0.013 A 
ATOM     12  C   UNL A   1      34.951  34.389  33.688  1.00  0.00     0.047 A 
ATOM     13  C   UNL A   1      35.110  32.567  32.120  1.00  0.00     0.047 A 
BRANCH   9  14
ATOM     14  C   UNL A   1      37.605  32.015  34.898  1.00  0.00     0.141 C 
ATOM     15  N   UNL A   1      38.091  30.839  34.649  1.00  0.00    -0.181 NA
BRANCH  15  16
ATOM     16  N   UNL A   1      39.035  30.381  35.519  1.00  0.00    -0.247 N 
ATOM     17  C   UNL A   1      40.865  30.284  33.848  1.00  0.00     0.116 C 
ATOM     18  C   UNL A   1      40.359  30.124  35.258  1.00  0.00     0.236 C 
ATOM     19  O   UNL A   1      41.112  29.768  36.166  1.00  0.00    -0.274 OA
ATOM     20  H   UNL A   1      38.733  30.213  36.440  1.00  0.00     0.193 HD
ENDBRANCH  15  16
ENDBRANCH   9  14
ENDBRANCH   7   8
ENDBRANCH   5   7
ENDBRANCH   3   5
ENDBRANCH   2   3
ENDBRANCH   1   2
BRANCH   1  21
ATOM     21  C   UNL A   1      33.657  32.751  27.954  1.00  0.00     0.275 C 
BRANCH  21  22
ATOM     22  O   UNL A   1      34.382  31.783  28.735  1.00  0.00    -0.458 OA
BRANCH  22  23
ATOM     23  C   UNL A   1      34.533  30.563  28.171  1.00  0.00     0.338 C 
ATOM     24  O   UNL A   1      33.724  29.955  27.492  1.00  0.00    -0.246 OA
BRANCH  23  25
ATOM     25  C   UNL A   1      35.899  30.076  28.402  1.00  0.00     0.060 A 
ATOM     26  C   UNL A   1      36.258  29.667  29.691  1.00  0.00     0.016 A 
ATOM     27  C   UNL A   1      36.839  30.105  27.373  1.00  0.00     0.016 A 
ATOM     28  C   UNL A   1      37.572  29.295  29.961  1.00  0.00     0.010 A 
ATOM     29  C   UNL A   1      38.153  29.723  27.644  1.00  0.00     0.010 A 
ATOM     30  C   UNL A   1      38.529  29.328  28.939  1.00  0.00    -0.014 A 
BRANCH  30  31
ATOM     31  C   UNL A   1      39.944  28.979  29.206  1.00  0.00     0.031 A 
ATOM     32  C   UNL A   1      40.877  30.034  29.721  1.00  0.00     0.074 A 
ATOM     33  C   UNL A   1      40.392  27.741  28.930  1.00  0.00     0.049 A 
ATOM     34  N   UNL A   1      42.180  30.013  29.812  1.00  0.00    -0.248 NA
ATOM     35  C   UNL A   1      40.258  31.286  30.190  1.00  0.00     0.031 C 
ATOM     36  C   UNL A   1      39.564  26.624  28.475  1.00  0.00     0.029 A 
ATOM     37  N   UNL A   1      41.662  27.226  28.966  1.00  0.00    -0.354 N 
ATOM     38  C   UNL A   1      42.545  31.256  30.312  1.00  0.00     0.074 A 
ATOM     39  C   UNL A   1      41.324  32.009  30.508  1.00  0.00     0.031 C 
ATOM     40  C   UNL A   1      40.351  25.559  28.253  1.00  0.00     0.029 A 
ATOM     41  C   UNL A   1      41.741  25.938  28.495  1.00  0.00     0.049 A 
ATOM     42  H   UNL A   1      42.440  27.729  29.297  1.00  0.00     0.167 HD
ATOM     43  C   UNL A   1      43.788  31.724  30.575  1.00  0.00     0.037 A 
ATOM     44  C   UNL A   1      42.816  25.167  28.240  1.00  0.00     0.037 A 
ATOM     45  C   UNL A   1      44.990  30.955  30.388  1.00  0.00     0.049 A 
ATOM     46  C   UNL A   1      44.191  25.726  28.490  1.00  0.00     0.074 A 
ATOM     47  C   UNL A   1      46.300  31.331  30.627  1.00  0.00     0.029 A 
ATOM     48  N   UNL A   1      45.028  29.650  29.916  1.00  0.00    -0.354 N 
ATOM     49  N   UNL A   1      44.529  26.911  28.938  1.00  0.00    -0.248 NA
ATOM     50  C   UNL A   1      45.331  24.849  28.188  1.00  0.00     0.031 C 
ATOM     51  C   UNL A   1      47.133  30.265  30.270  1.00  0.00     0.029 A 
ATOM     52  C   UNL A   1      46.339  29.210  29.847  1.00  0.00     0.049 A 
ATOM     53  H   UNL A   1      44.239  29.117  29.668  1.00  0.00     0.167 HD
ATOM     54  C   UNL A   1      45.917  26.912  29.001  1.00  0.00     0.074 A 
ATOM     55  C   UNL A   1      46.358  25.611  28.542  1.00  0.00     0.031 C 
ATOM     56  C   UNL A   1      46.752  27.901  29.408  1.00  0.00     0.037 A 
BRANCH  43  57
ATOM     57  C   UNL A   1      43.911  33.140  31.056  1.00  0.00     0.058 A 
ATOM     58  C   UNL A   1      43.899  34.228  30.169  1.00  0.00     0.135 A 
ATOM     59  C   UNL A   1      44.017  33.415  32.430  1.00  0.00     0.135 A 
ATOM     60  F   UNL A   1      43.820  34.020  28.846  1.00  0.00    -0.206 F 
ATOM     61  C   UNL A   1      44.012  35.538  30.626  1.00  0.00     0.059 A 
ATOM     62  C   UNL A   1      44.109  34.719  32.910  1.00  0.00     0.059 A 
ATOM     63  F   UNL A   1      44.036  32.411  33.320  1.00  0.00    -0.206 F 
ATOM     64  C   UNL A   1      44.121  35.774  31.997  1.00  0.00     0.060 A 
BRANCH  64  65
ATOM     65  S   UNL A   1      44.275  37.476  32.576  1.00  0.00     0.124 S 
ATOM     66  O   UNL A   1      43.115  37.588  33.455  1.00  0.00    -0.237 OA
ATOM     67  O   UNL A   1      45.574  37.467  33.240  1.00  0.00    -0.237 OA
ATOM     68  O   UNL A   1      44.209  38.260  31.347  1.00  0.00    -0.744 OA
ENDBRANCH  64  65
ENDBRANCH  43  57
BRANCH  44  69
ATOM     69  C   UNL A   1      42.632  23.796  27.697  1.00  0.00     0.058 A 
ATOM     70  C   UNL A   1      42.555  22.688  28.552  1.00  0.00     0.135 A 
ATOM     71  C   UNL A   1      42.507  23.571  26.317  1.00  0.00     0.135 A 
ATOM     72  F   UNL A   1      42.679  22.854  29.878  1.00  0.00    -0.206 F 
ATOM     73  C   UNL A   1      42.367  21.401  28.059  1.00  0.00     0.059 A 
ATOM     74  C   UNL A   1      42.295  22.296  25.802  1.00  0.00     0.059 A 
ATOM     75  F   UNL A   1      42.562  24.601  25.459  1.00  0.00    -0.206 F 
ATOM     76  C   UNL A   1      42.235  21.216  26.681  1.00  0.00     0.060 A 
BRANCH  76  77
ATOM     77  S   UNL A   1      41.935  19.549  26.055  1.00  0.00     0.124 S 
ATOM     78  O   UNL A   1      42.779  19.527  24.866  1.00  0.00    -0.237 OA
ATOM     79  O   UNL A   1      42.378  18.715  27.169  1.00  0.00    -0.237 OA
ATOM     80  O   UNL A   1      40.496  19.538  25.810  1.00  0.00    -0.744 OA
ENDBRANCH  76  77
ENDBRANCH  44  69
BRANCH  56  81
ATOM     81  C   UNL A   1      48.223  27.600  29.430  1.00  0.00     0.058 A 
ATOM     82  C   UNL A   1      49.055  27.911  28.346  1.00  0.00     0.135 A 
ATOM     83  C   UNL A   1      48.815  27.069  30.587  1.00  0.00     0.135 A 
ATOM     84  F   UNL A   1      48.533  28.412  27.214  1.00  0.00    -0.206 F 
ATOM     85  C   UNL A   1      50.429  27.700  28.404  1.00  0.00     0.059 A 
ATOM     86  C   UNL A   1      50.188  26.869  30.675  1.00  0.00     0.059 A 
ATOM     87  F   UNL A   1      48.059  26.763  31.654  1.00  0.00    -0.206 F 
ATOM     88  C   UNL A   1      50.987  27.183  29.576  1.00  0.00     0.060 A 
BRANCH  88  89
ATOM     89  S   UNL A   1      52.778  26.974  29.667  1.00  0.00     0.124 S 
ATOM     90  O   UNL A   1      53.053  26.252  28.429  1.00  0.00    -0.237 OA
ATOM     91  O   UNL A   1      53.254  28.354  29.716  1.00  0.00    -0.237 OA
ATOM     92  O   UNL A   1      52.967  26.210  30.896  1.00  0.00    -0.744 OA
ENDBRANCH  88  89
ENDBRANCH  56  81
ENDBRANCH  30  31
ENDBRANCH  23  25
ENDBRANCH  22  23
ENDBRANCH  21  22
ENDBRANCH   1  21
TORSDOF 18
ENDMDL
MODEL 2
REMARK VINA RESULT:     -10.1      3.978      6.720
REMARK SMILES CC(=O)N/N=C/c1ccc(O[C@H](C)C(=O)OCCOC(=O)c2ccc(-c3c4nc(c(-c5c(F)cc(S(=O)(=O)[O-])cc5F)c5ccc([nH]5)c(-c5c(F)cc(S(=O)(=O)[O-])cc5F)c5nc(c(-c6c(F)cc(S(=O)(=O)[O-])cc6F)c6ccc3[nH]6)C=C5)C=C4)cc2)cc1
REMARK SMILES IDX 17 1 16 2 14 3 15 4 12 5 13 6 11 7 10 8 7 9 8 10 89 11 9 12
REMARK SMILES IDX 88 13 6 14 5 15 4 16 1 17 2 18 3 19 18 21 19 22 20 23 21 24
REMARK SMILES IDX 22 25 23 26 87 27 24 28 86 29 25 30 26 31 27 32 80 33 28 34
REMARK SMILES IDX 85 35 79 36 81 37 29 38 84 39 78 40 77 41 30 43 64 44 43 45
REMARK SMILES IDX 63 46 44 47 47 48 62 49 82 50 45 51 46 52 61 54 83 55 48 56
REMARK SMILES IDX 31 57 32 58 41 59 33 60 34 61 40 62 42 63 35 64 36 65 37 66
REMARK SMILES IDX 38 67 39 68 65 69 66 70 75 71 67 72 68 73 74 74 76 75 69 76
REMARK SMILES IDX 70 77 71 78 72 79 73 80 49 81 50 82 59 83 51 84 52 85 58 86
REMARK SMILES IDX 60 87 53 88 54 89 55 90 56 91 57 92
REMARK H PARENT 4 20 81 42 47 53
REMARK Flexibility Score: inf
ROOT
ATOM      1  C   UNL A   1      32.644  29.417  25.312  1.00  0.00     0.274 C 
ENDROOT
BRANCH   1   2
ATOM      2  O   UNL A   1      33.207  28.095  25.228  1.00  0.00    -0.459 OA
BRANCH   2   3
ATOM      3  C   UNL A   1      32.553  27.203  24.437  1.00  0.00     0.347 C 
ATOM      4  O   UNL A   1      32.453  27.311  23.218  1.00  0.00    -0.248 OA
BRANCH   3   5
ATOM      5  C   UNL A   1      31.973  26.019  25.218  1.00  0.00     0.279 C 
ATOM      6  C   UNL A   1      30.681  26.326  25.983  1.00  0.00     0.066 C 
BRANCH   5   7
ATOM      7  O   UNL A   1      31.793  24.961  24.271  1.00  0.00    -0.479 OA
BRANCH   7   8
ATOM      8  C   UNL A   1      32.170  23.693  24.616  1.00  0.00     0.120 A 
ATOM      9  C   UNL A   1      32.818  20.997  25.017  1.00  0.00    -0.005 A 
ATOM     10  C   UNL A   1      32.563  21.825  26.112  1.00  0.00     0.013 A 
ATOM     11  C   UNL A   1      32.787  21.521  23.723  1.00  0.00     0.013 A 
ATOM     12  C   UNL A   1      32.247  23.173  25.910  1.00  0.00     0.047 A 
ATOM     13  C   UNL A   1      32.465  22.866  23.530  1.00  0.00     0.047 A 
BRANCH   9  14
ATOM     14  C   UNL A   1      33.103  19.570  25.254  1.00  0.00     0.141 C 
ATOM     15  N   UNL A   1      32.269  18.640  24.906  1.00  0.00    -0.181 NA
BRANCH  15  16
ATOM     16  N   UNL A   1      32.634  17.361  25.201  1.00  0.00    -0.247 N 
ATOM     17  C   UNL A   1      33.862  16.973  23.082  1.00  0.00     0.116 C 
ATOM     18  C   UNL A   1      33.401  16.513  24.440  1.00  0.00     0.236 C 
ATOM     19  O   UNL A   1      33.702  15.397  24.867  1.00  0.00    -0.274 OA
ATOM     20  H   UNL A   1      32.310  17.002  26.058  1.00  0.00     0.193 HD
ENDBRANCH  15  16
ENDBRANCH   9  14
ENDBRANCH   7   8
ENDBRANCH   5   7
ENDBRANCH   3   5
ENDBRANCH   2   3
ENDBRANCH   1   2
BRANCH   1  21
ATOM     21  C   UNL A   1      32.549  29.873  26.772  1.00  0.00     0.275 C 
BRANCH  21  22
ATOM     22  O   UNL A   1      33.698  29.472  27.541  1.00  0.00    -0.458 OA
BRANCH  22  23
ATOM     23  C   UNL A   1      34.432  30.476  28.074  1.00  0.00     0.338 C 
ATOM     24  O   UNL A   1      34.041  31.579  28.416  1.00  0.00    -0.246 OA
BRANCH  23  25
ATOM     25  C   UNL A   1      35.809  30.019  28.298  1.00  0.00     0.060 A 
ATOM     26  C   UNL A   1      36.189  29.639  29.590  1.00  0.00     0.016 A 
ATOM     27  C   UNL A   1      36.737  30.047  27.259  1.00  0.00     0.016 A 
ATOM     28  C   UNL A   1      37.513  29.296  29.852  1.00  0.00     0.010 A 
ATOM     29  C   UNL A   1      38.061  29.694  27.522  1.00  0.00     0.010 A 
ATOM     30  C   UNL A   1      38.458  29.328  28.819  1.00  0.00    -0.014 A 
BRANCH  30  31
ATOM     31  C   UNL A   1      39.881  29.011  29.078  1.00  0.00     0.031 A 
ATOM     32  C   UNL A   1      40.801  30.091  29.565  1.00  0.00     0.074 A 
ATOM     33  C   UNL A   1      40.350  27.776  28.818  1.00  0.00     0.049 A 
ATOM     34  N   UNL A   1      42.104  30.095  29.642  1.00  0.00    -0.248 NA
ATOM     35  C   UNL A   1      40.164  31.339  30.018  1.00  0.00     0.031 C 
ATOM     36  C   UNL A   1      39.537  26.637  28.391  1.00  0.00     0.029 A 
ATOM     37  N   UNL A   1      41.629  27.285  28.849  1.00  0.00    -0.354 N 
ATOM     38  C   UNL A   1      42.451  31.353  30.117  1.00  0.00     0.074 A 
ATOM     39  C   UNL A   1      41.219  32.087  30.313  1.00  0.00     0.031 C 
ATOM     40  C   UNL A   1      40.342  25.582  28.179  1.00  0.00     0.029 A 
ATOM     41  C   UNL A   1      41.727  25.990  28.399  1.00  0.00     0.049 A 
ATOM     42  H   UNL A   1      42.402  27.808  29.163  1.00  0.00     0.167 HD
ATOM     43  C   UNL A   1      43.688  31.848  30.358  1.00  0.00     0.037 A 
ATOM     44  C   UNL A   1      42.814  25.236  28.146  1.00  0.00     0.037 A 
ATOM     45  C   UNL A   1      44.903  31.098  30.171  1.00  0.00     0.049 A 
ATOM     46  C   UNL A   1      44.180  25.823  28.372  1.00  0.00     0.074 A 
ATOM     47  C   UNL A   1      46.208  31.502  30.390  1.00  0.00     0.029 A 
ATOM     48  N   UNL A   1      44.960  29.786  29.721  1.00  0.00    -0.354 N 
ATOM     49  N   UNL A   1      44.501  27.022  28.796  1.00  0.00    -0.248 NA
ATOM     50  C   UNL A   1      45.333  24.962  28.072  1.00  0.00     0.031 C 
ATOM     51  C   UNL A   1      47.056  30.446  30.043  1.00  0.00     0.029 A 
ATOM     52  C   UNL A   1      46.278  29.369  29.646  1.00  0.00     0.049 A 
ATOM     53  H   UNL A   1      44.178  29.235  29.491  1.00  0.00     0.167 HD
ATOM     54  C   UNL A   1      45.890  27.050  28.844  1.00  0.00     0.074 A 
ATOM     55  C   UNL A   1      46.350  25.750  28.402  1.00  0.00     0.031 C 
ATOM     56  C   UNL A   1      46.711  28.060  29.225  1.00  0.00     0.037 A 
BRANCH  43  57
ATOM     57  C   UNL A   1      43.790  33.275  30.814  1.00  0.00     0.058 A 
ATOM     58  C   UNL A   1      43.750  34.347  29.908  1.00  0.00     0.135 A 
ATOM     59  C   UNL A   1      43.904  33.576  32.181  1.00  0.00     0.135 A 
ATOM     60  F   UNL A   1      43.661  34.114  28.590  1.00  0.00    -0.206 F 
ATOM     61  C   UNL A   1      43.843  35.666  30.341  1.00  0.00     0.059 A 
ATOM     62  C   UNL A   1      43.977  34.889  32.637  1.00  0.00     0.059 A 
ATOM     63  F   UNL A   1      43.950  32.588  33.089  1.00  0.00    -0.206 F 
ATOM     64  C   UNL A   1      43.961  35.927  31.707  1.00  0.00     0.060 A 
BRANCH  64  65
ATOM     65  S   UNL A   1      44.090  37.643  32.254  1.00  0.00     0.124 S 
ATOM     66  O   UNL A   1      43.087  37.683  33.315  1.00  0.00    -0.237 OA
ATOM     67  O   UNL A   1      45.478  37.730  32.694  1.00  0.00    -0.237 OA
ATOM     68  O   UNL A   1      43.766  38.408  31.055  1.00  0.00    -0.744 OA
ENDBRANCH  64  65
ENDBRANCH  43  57
BRANCH  44  69
ATOM     69  C   UNL A   1      42.650  23.852  27.629  1.00  0.00     0.058 A 
ATOM     70  C   UNL A   1      42.562  22.762  28.505  1.00  0.00     0.135 A 
ATOM     71  C   UNL A   1      42.553  23.597  26.252  1.00  0.00     0.135 A 
ATOM     72  F   UNL A   1      42.659  22.957  29.829  1.00  0.00    -0.206 F 
ATOM     73  C   UNL A   1      42.392  21.464  28.036  1.00  0.00     0.059 A 
ATOM     74  C   UNL A   1      42.360  22.310  25.760  1.00  0.00     0.059 A 
ATOM     75  F   UNL A   1      42.619  24.609  25.373  1.00  0.00    -0.206 F 
ATOM     76  C   UNL A   1      42.290  21.249  26.660  1.00  0.00     0.060 A 
BRANCH  76  77
ATOM     77  S   UNL A   1      42.013  19.567  26.063  1.00  0.00     0.124 S 
ATOM     78  O   UNL A   1      42.416  18.776  27.219  1.00  0.00    -0.237 OA
ATOM     79  O   UNL A   1      40.584  19.577  25.762  1.00  0.00    -0.237 OA
ATOM     80  O   UNL A   1      42.889  19.477  24.899  1.00  0.00    -0.744 OA
ENDBRANCH  76  77
ENDBRANCH  44  69
BRANCH  56  81
ATOM     81  C   UNL A   1      48.186  27.788  29.236  1.00  0.00     0.058 A 
ATOM     82  C   UNL A   1      48.818  27.198  30.340  1.00  0.00     0.135 A 
ATOM     83  C   UNL A   1      48.959  28.047  28.093  1.00  0.00     0.135 A 
ATOM     84  F   UNL A   1      48.123  26.939  31.459  1.00  0.00    -0.206 F 
ATOM     85  C   UNL A   1      50.172  26.879  30.313  1.00  0.00     0.059 A 
ATOM     86  C   UNL A   1      50.308  27.718  28.036  1.00  0.00     0.059 A 
ATOM     87  F   UNL A   1      48.396  28.605  27.008  1.00  0.00    -0.206 F 
ATOM     88  C   UNL A   1      50.908  27.138  29.154  1.00  0.00     0.060 A 
BRANCH  88  89
ATOM     89  S   UNL A   1      52.649  26.660  29.104  1.00  0.00     0.124 S 
ATOM     90  O   UNL A   1      52.779  25.896  30.340  1.00  0.00    -0.237 OA
ATOM     91  O   UNL A   1      52.727  25.886  27.868  1.00  0.00    -0.237 OA
ATOM     92  O   UNL A   1      53.350  27.940  29.078  1.00  0.00    -0.744 OA
ENDBRANCH  88  89
ENDBRANCH  56  81
ENDBRANCH  30  31
ENDBRANCH  23  25
ENDBRANCH  22  23
ENDBRANCH  21  22
ENDBRANCH   1  21
TORSDOF 18
ENDMDL
MODEL 3
REMARK VINA RESULT:     -10.1      3.930      6.775
REMARK SMILES CC(=O)N/N=C/c1ccc(O[C@H](C)C(=O)OCCOC(=O)c2ccc(-c3c4nc(c(-c5c(F)cc(S(=O)(=O)[O-])cc5F)c5ccc([nH]5)c(-c5c(F)cc(S(=O)(=O)[O-])cc5F)c5nc(c(-c6c(F)cc(S(=O)(=O)[O-])cc6F)c6ccc3[nH]6)C=C5)C=C4)cc2)cc1
REMARK SMILES IDX 17 1 16 2 14 3 15 4 12 5 13 6 11 7 10 8 7 9 8 10 89 11 9 12
REMARK SMILES IDX 88 13 6 14 5 15 4 16 1 17 2 18 3 19 18 21 19 22 20 23 21 24
REMARK SMILES IDX 22 25 23 26 87 27 24 28 86 29 25 30 26 31 27 32 80 33 28 34
REMARK SMILES IDX 85 35 79 36 81 37 29 38 84 39 78 40 77 41 30 43 64 44 43 45
REMARK SMILES IDX 63 46 44 47 47 48 62 49 82 50 45 51 46 52 61 54 83 55 48 56
REMARK SMILES IDX 31 57 32 58 41 59 33 60 34 61 40 62 42 63 35 64 36 65 37 66
REMARK SMILES IDX 38 67 39 68 65 69 66 70 75 71 67 72 68 73 74 74 76 75 69 76
REMARK SMILES IDX 70 77 71 78 72 79 73 80 49 81 50 82 59 83 51 84 52 85 58 86
REMARK SMILES IDX 60 87 53 88 54 89 55 90 56 91 57 92
REMARK H PARENT 4 20 81 42 47 53
REMARK Flexibility Score: inf
ROOT
ATOM      1  C   UNL A   1      32.907  26.965  26.506  1.00  0.00     0.274 C 
ENDROOT
BRANCH   1   2
ATOM      2  O   UNL A   1      31.737  26.231  26.910  1.00  0.00    -0.459 OA
BRANCH   2   3
ATOM      3  C   UNL A   1      31.718  24.903  26.616  1.00  0.00     0.347 C 
ATOM      4  O   UNL A   1      31.089  24.067  27.258  1.00  0.00    -0.248 OA
BRANCH   3   5
ATOM      5  C   UNL A   1      32.541  24.551  25.372  1.00  0.00     0.279 C 
ATOM      6  C   UNL A   1      33.424  23.306  25.519  1.00  0.00     0.066 C 
BRANCH   5   7
ATOM      7  O   UNL A   1      31.607  24.418  24.296  1.00  0.00    -0.479 OA
BRANCH   7   8
ATOM      8  C   UNL A   1      31.097  25.548  23.721  1.00  0.00     0.120 A 
ATOM      9  C   UNL A   1      30.371  27.994  22.564  1.00  0.00    -0.005 A 
ATOM     10  C   UNL A   1      29.424  27.244  23.264  1.00  0.00     0.013 A 
ATOM     11  C   UNL A   1      31.671  27.510  22.408  1.00  0.00     0.013 A 
ATOM     12  C   UNL A   1      29.787  26.020  23.835  1.00  0.00     0.047 A 
ATOM     13  C   UNL A   1      32.026  26.289  22.985  1.00  0.00     0.047 A 
BRANCH   9  14
ATOM     14  C   UNL A   1      29.975  29.304  22.012  1.00  0.00     0.141 C 
ATOM     15  N   UNL A   1      28.730  29.631  21.856  1.00  0.00    -0.181 NA
BRANCH  15  16
ATOM     16  N   UNL A   1      28.492  30.858  21.313  1.00  0.00    -0.247 N 
ATOM     17  C   UNL A   1      27.606  31.869  23.397  1.00  0.00     0.116 C 
ATOM     18  C   UNL A   1      28.005  31.975  21.949  1.00  0.00     0.236 C 
ATOM     19  O   UNL A   1      27.899  33.039  21.337  1.00  0.00    -0.274 OA
ATOM     20  H   UNL A   1      28.691  30.955  20.354  1.00  0.00     0.193 HD
ENDBRANCH  15  16
ENDBRANCH   9  14
ENDBRANCH   7   8
ENDBRANCH   5   7
ENDBRANCH   3   5
ENDBRANCH   2   3
ENDBRANCH   1   2
BRANCH   1  21
ATOM     21  C   UNL A   1      32.936  28.346  27.170  1.00  0.00     0.275 C 
BRANCH  21  22
ATOM     22  O   UNL A   1      34.100  29.105  26.791  1.00  0.00    -0.458 OA
BRANCH  22  23
ATOM     23  C   UNL A   1      34.475  30.079  27.652  1.00  0.00     0.338 C 
ATOM     24  O   UNL A   1      33.780  30.966  28.115  1.00  0.00    -0.246 OA
BRANCH  23  25
ATOM     25  C   UNL A   1      35.868  29.865  28.065  1.00  0.00     0.060 A 
ATOM     26  C   UNL A   1      36.880  29.999  27.109  1.00  0.00     0.016 A 
ATOM     27  C   UNL A   1      36.161  29.453  29.364  1.00  0.00     0.016 A 
ATOM     28  C   UNL A   1      38.199  29.706  27.447  1.00  0.00     0.010 A 
ATOM     29  C   UNL A   1      37.484  29.169  29.703  1.00  0.00     0.010 A 
ATOM     30  C   UNL A   1      38.507  29.283  28.746  1.00  0.00    -0.014 A 
BRANCH  30  31
ATOM     31  C   UNL A   1      39.893  28.923  29.122  1.00  0.00     0.031 A 
ATOM     32  C   UNL A   1      40.784  29.963  29.734  1.00  0.00     0.074 A 
ATOM     33  C   UNL A   1      40.359  27.688  28.858  1.00  0.00     0.049 A 
ATOM     34  N   UNL A   1      42.074  29.933  29.932  1.00  0.00    -0.248 NA
ATOM     35  C   UNL A   1      40.132  31.207  30.176  1.00  0.00     0.031 C 
ATOM     36  C   UNL A   1      39.568  26.585  28.313  1.00  0.00     0.029 A 
ATOM     37  N   UNL A   1      41.620  27.166  28.988  1.00  0.00    -0.354 N 
ATOM     38  C   UNL A   1      42.401  31.164  30.487  1.00  0.00     0.074 A 
ATOM     39  C   UNL A   1      41.170  31.918  30.596  1.00  0.00     0.031 C 
ATOM     40  C   UNL A   1      40.367  25.521  28.135  1.00  0.00     0.029 A 
ATOM     41  C   UNL A   1      41.734  25.888  28.498  1.00  0.00     0.049 A 
ATOM     42  H   UNL A   1      42.370  27.659  29.393  1.00  0.00     0.167 HD
ATOM     43  C   UNL A   1      43.619  31.620  30.861  1.00  0.00     0.037 A 
ATOM     44  C   UNL A   1      42.824  25.118  28.318  1.00  0.00     0.037 A 
ATOM     45  C   UNL A   1      44.831  30.850  30.758  1.00  0.00     0.049 A 
ATOM     46  C   UNL A   1      44.175  25.664  28.692  1.00  0.00     0.074 A 
ATOM     47  C   UNL A   1      46.117  31.215  31.113  1.00  0.00     0.029 A 
ATOM     48  N   UNL A   1      44.904  29.555  30.264  1.00  0.00    -0.354 N 
ATOM     49  N   UNL A   1      44.479  26.839  29.191  1.00  0.00    -0.248 NA
ATOM     50  C   UNL A   1      45.334  24.789  28.467  1.00  0.00     0.031 C 
ATOM     51  C   UNL A   1      46.973  30.153  30.803  1.00  0.00     0.029 A 
ATOM     52  C   UNL A   1      46.214  29.110  30.294  1.00  0.00     0.049 A 
ATOM     53  H   UNL A   1      44.136  29.031  29.940  1.00  0.00     0.167 HD
ATOM     54  C   UNL A   1      45.857  26.832  29.369  1.00  0.00     0.074 A 
ATOM     55  C   UNL A   1      46.331  25.539  28.920  1.00  0.00     0.031 C 
ATOM     56  C   UNL A   1      46.659  27.808  29.863  1.00  0.00     0.037 A 
BRANCH  43  57
ATOM     57  C   UNL A   1      43.706  33.026  31.380  1.00  0.00     0.058 A 
ATOM     58  C   UNL A   1      43.613  33.318  32.750  1.00  0.00     0.135 A 
ATOM     59  C   UNL A   1      43.913  34.097  30.494  1.00  0.00     0.135 A 
ATOM     60  F   UNL A   1      43.396  32.335  33.636  1.00  0.00    -0.206 F 
ATOM     61  C   UNL A   1      43.696  34.625  33.220  1.00  0.00     0.059 A 
ATOM     62  C   UNL A   1      44.022  35.409  30.945  1.00  0.00     0.059 A 
ATOM     63  F   UNL A   1      44.007  33.873  29.174  1.00  0.00    -0.206 F 
ATOM     64  C   UNL A   1      43.896  35.665  32.311  1.00  0.00     0.060 A 
BRANCH  64  65
ATOM     65  S   UNL A   1      43.995  37.356  32.933  1.00  0.00     0.124 S 
ATOM     66  O   UNL A   1      43.708  38.125  31.726  1.00  0.00    -0.237 OA
ATOM     67  O   UNL A   1      42.956  37.375  33.958  1.00  0.00    -0.237 OA
ATOM     68  O   UNL A   1      45.363  37.456  33.430  1.00  0.00    -0.744 OA
ENDBRANCH  64  65
ENDBRANCH  43  57
BRANCH  44  69
ATOM     69  C   UNL A   1      42.682  23.759  27.733  1.00  0.00     0.058 A 
ATOM     70  C   UNL A   1      42.834  23.549  26.356  1.00  0.00     0.135 A 
ATOM     71  C   UNL A   1      42.415  22.643  28.542  1.00  0.00     0.135 A 
ATOM     72  F   UNL A   1      43.081  24.587  25.543  1.00  0.00    -0.206 F 
ATOM     73  C   UNL A   1      42.720  22.280  25.797  1.00  0.00     0.059 A 
ATOM     74  C   UNL A   1      42.318  21.362  28.010  1.00  0.00     0.059 A 
ATOM     75  F   UNL A   1      42.273  22.791  29.869  1.00  0.00    -0.206 F 
ATOM     76  C   UNL A   1      42.464  21.192  26.634  1.00  0.00     0.060 A 
BRANCH  76  77
ATOM     77  S   UNL A   1      42.372  19.541  25.906  1.00  0.00     0.124 S 
ATOM     78  O   UNL A   1      42.885  18.714  26.992  1.00  0.00    -0.237 OA
ATOM     79  O   UNL A   1      40.947  19.408  25.619  1.00  0.00    -0.237 OA
ATOM     80  O   UNL A   1      43.232  19.646  24.730  1.00  0.00    -0.744 OA
ENDBRANCH  76  77
ENDBRANCH  44  69
BRANCH  56  81
ATOM     81  C   UNL A   1      48.121  27.501  30.001  1.00  0.00     0.058 A 
ATOM     82  C   UNL A   1      49.026  27.742  28.959  1.00  0.00     0.135 A 
ATOM     83  C   UNL A   1      48.630  27.033  31.223  1.00  0.00     0.135 A 
ATOM     84  F   UNL A   1      48.586  28.181  27.768  1.00  0.00    -0.206 F 
ATOM     85  C   UNL A   1      50.391  27.526  29.121  1.00  0.00     0.059 A 
ATOM     86  C   UNL A   1      49.992  26.830  31.414  1.00  0.00     0.059 A 
ATOM     87  F   UNL A   1      47.802  26.794  32.254  1.00  0.00    -0.206 F 
ATOM     88  C   UNL A   1      50.865  27.075  30.355  1.00  0.00     0.060 A 
BRANCH  88  89
ATOM     89  S   UNL A   1      52.644  26.860  30.577  1.00  0.00     0.124 S 
ATOM     90  O   UNL A   1      52.950  27.916  31.536  1.00  0.00    -0.237 OA
ATOM     91  O   UNL A   1      52.734  25.495  31.087  1.00  0.00    -0.237 OA
ATOM     92  O   UNL A   1      53.179  27.056  29.233  1.00  0.00    -0.744 OA
ENDBRANCH  88  89
ENDBRANCH  56  81
ENDBRANCH  30  31
ENDBRANCH  23  25
ENDBRANCH  22  23
ENDBRANCH  21  22
ENDBRANCH   1  21
TORSDOF 18
ENDMDL
