MODEL 1
REMARK VINA RESULT:     -12.1      0.000      0.000
REMARK SMILES COc1ccc(C)cc1[C@@H](C)[C@@](O)(C(=O)OCCOC(=O)c1ccc(-c2c3nc(c(-c4c(F)cc(S(=O)(=O)[O-])cc4F)c4ccc([nH]4)c(-c4c(F)cc(S(=O)(=O)[O-])cc4F)c4nc(c(-c5c(F)cc(S(=O)(=O)[O-])cc5F)c5ccc2[nH]5)C=C4)C=C3)cc1)C(C)C
REMARK SMILES IDX 17 1 16 2 14 3 15 4 12 5 10 6 11 7 9 8 3 9 4 10 5 11 8 12
REMARK SMILES IDX 6 13 7 14 2 15 1 16 13 17 88 19 89 20 90 21 18 22 19 23
REMARK SMILES IDX 20 24 21 25 22 26 23 27 87 28 24 29 86 30 25 31 26 32 27 33
REMARK SMILES IDX 80 34 28 35 85 36 79 37 81 38 29 39 84 40 78 41 77 42 30 44
REMARK SMILES IDX 64 45 43 46 63 47 44 48 47 49 62 50 82 51 45 52 46 53 61 55
REMARK SMILES IDX 83 56 48 57 31 58 32 59 41 60 33 61 34 62 40 63 42 64 35 65
REMARK SMILES IDX 36 66 37 67 38 68 39 69 65 70 66 71 75 72 67 73 68 74 74 75
REMARK SMILES IDX 76 76 69 77 70 78 71 79 72 80 73 81 49 82 50 83 59 84 51 85
REMARK SMILES IDX 52 86 58 87 60 88 53 89 54 90 55 91 56 92 57 93
REMARK H PARENT 13 18 81 43 47 54
REMARK Flexibility Score: inf
ROOT
ATOM      1  C   UNL A   1      36.416  23.209  24.751  1.00  0.00     0.274 C 
ENDROOT
BRANCH   1   2
ATOM      2  O   UNL A   1      35.608  24.314  25.203  1.00  0.00    -0.460 OA
BRANCH   2   3
ATOM      3  C   UNL A   1      34.319  24.013  25.485  1.00  0.00     0.339 C 
ATOM      4  O   UNL A   1      33.998  23.053  26.180  1.00  0.00    -0.249 OA
BRANCH   3   5
ATOM      5  C   UNL A   1      33.264  24.899  24.766  1.00  0.00     0.170 C 
BRANCH   5   6
ATOM      6  C   UNL A   1      32.381  25.597  25.866  1.00  0.00     0.063 C 
ATOM      7  C   UNL A   1      31.299  24.751  26.568  1.00  0.00     0.016 C 
BRANCH   6   8
ATOM      8  C   UNL A   1      31.824  26.938  25.391  1.00  0.00     0.001 A 
ATOM      9  C   UNL A   1      32.592  28.113  25.480  1.00  0.00     0.122 A 
ATOM     10  C   UNL A   1      32.200  29.270  24.810  1.00  0.00     0.047 A 
ATOM     11  C   UNL A   1      31.030  29.278  24.049  1.00  0.00     0.007 A 
ATOM     12  C   UNL A   1      30.610  26.990  24.687  1.00  0.00     0.011 A 
ATOM     13  C   UNL A   1      30.225  28.137  23.983  1.00  0.00    -0.051 A 
ATOM     14  C   UNL A   1      29.074  28.052  23.027  1.00  0.00     0.044 C 
BRANCH   9  15
ATOM     15  O   UNL A   1      33.842  28.110  26.044  1.00  0.00    -0.496 OA
ATOM     16  C   UNL A   1      33.857  28.741  27.317  1.00  0.00     0.278 C 
ENDBRANCH   9  15
ENDBRANCH   6   8
ENDBRANCH   5   6
BRANCH   5  17
ATOM     17  O   UNL A   1      34.159  25.930  24.208  1.00  0.00    -0.377 OA
ATOM     18  H   UNL A   1      34.844  25.504  23.670  1.00  0.00     0.212 HD
ENDBRANCH   5  17
BRANCH   5  19
ATOM     19  C   UNL A   1      32.619  24.240  23.504  1.00  0.00     0.027 C 
ATOM     20  C   UNL A   1      32.644  25.045  22.210  1.00  0.00     0.011 C 
ATOM     21  C   UNL A   1      33.091  22.797  23.213  1.00  0.00     0.011 C 
ENDBRANCH   5  19
ENDBRANCH   3   5
ENDBRANCH   2   3
ENDBRANCH   1   2
BRANCH   1  22
ATOM     22  C   UNL A   1      37.602  22.971  25.704  1.00  0.00     0.275 C 
BRANCH  22  23
ATOM     23  O   UNL A   1      38.366  24.139  26.067  1.00  0.00    -0.458 OA
BRANCH  23  24
ATOM     24  C   UNL A   1      39.515  23.894  26.750  1.00  0.00     0.338 C 
ATOM     25  O   UNL A   1      40.220  22.906  26.557  1.00  0.00    -0.246 OA
BRANCH  24  26
ATOM     26  C   UNL A   1      39.914  25.165  27.417  1.00  0.00     0.060 A 
ATOM     27  C   UNL A   1      40.410  26.222  26.646  1.00  0.00     0.016 A 
ATOM     28  C   UNL A   1      39.468  25.403  28.722  1.00  0.00     0.016 A 
ATOM     29  C   UNL A   1      40.318  27.536  27.118  1.00  0.00     0.010 A 
ATOM     30  C   UNL A   1      39.307  26.699  29.157  1.00  0.00     0.010 A 
ATOM     31  C   UNL A   1      39.716  27.773  28.355  1.00  0.00    -0.014 A 
BRANCH  31  32
ATOM     32  C   UNL A   1      39.769  29.052  29.057  1.00  0.00     0.031 A 
ATOM     33  C   UNL A   1      38.740  30.115  28.973  1.00  0.00     0.074 A 
ATOM     34  C   UNL A   1      40.827  29.127  29.894  1.00  0.00     0.049 A 
ATOM     35  N   UNL A   1      38.914  31.330  29.377  1.00  0.00    -0.248 NA
ATOM     36  C   UNL A   1      37.422  29.921  28.386  1.00  0.00     0.031 C 
ATOM     37  C   UNL A   1      41.111  30.101  30.928  1.00  0.00     0.029 A 
ATOM     38  N   UNL A   1      42.015  28.385  29.792  1.00  0.00    -0.354 N 
ATOM     39  C   UNL A   1      37.691  31.981  29.363  1.00  0.00     0.074 A 
ATOM     40  C   UNL A   1      36.829  31.096  28.626  1.00  0.00     0.031 C 
ATOM     41  C   UNL A   1      42.444  30.130  31.110  1.00  0.00     0.029 A 
ATOM     42  C   UNL A   1      43.033  29.292  30.068  1.00  0.00     0.049 A 
ATOM     43  H   UNL A   1      42.108  27.431  29.573  1.00  0.00     0.167 HD
ATOM     44  C   UNL A   1      37.535  33.119  30.109  1.00  0.00     0.037 A 
ATOM     45  C   UNL A   1      43.897  29.724  29.101  1.00  0.00     0.037 A 
ATOM     46  C   UNL A   1      38.841  33.551  30.610  1.00  0.00     0.049 A 
ATOM     47  C   UNL A   1      43.838  31.227  28.966  1.00  0.00     0.074 A 
ATOM     48  C   UNL A   1      39.488  33.335  31.815  1.00  0.00     0.029 A 
ATOM     49  N   UNL A   1      39.807  33.998  29.713  1.00  0.00    -0.354 N 
ATOM     50  N   UNL A   1      42.767  31.942  29.190  1.00  0.00    -0.248 NA
ATOM     51  C   UNL A   1      45.006  32.036  28.643  1.00  0.00     0.031 C 
ATOM     52  C   UNL A   1      40.878  33.514  31.595  1.00  0.00     0.029 A 
ATOM     53  C   UNL A   1      41.066  33.892  30.274  1.00  0.00     0.049 A 
ATOM     54  H   UNL A   1      39.621  34.338  28.808  1.00  0.00     0.167 HD
ATOM     55  C   UNL A   1      43.109  33.269  29.170  1.00  0.00     0.074 A 
ATOM     56  C   UNL A   1      44.511  33.276  28.785  1.00  0.00     0.031 C 
ATOM     57  C   UNL A   1      42.255  34.274  29.529  1.00  0.00     0.037 A 
BRANCH  44  58
ATOM     58  C   UNL A   1      36.212  33.673  30.655  1.00  0.00     0.058 A 
ATOM     59  C   UNL A   1      35.256  34.237  29.771  1.00  0.00     0.135 A 
ATOM     60  C   UNL A   1      35.852  33.780  32.014  1.00  0.00     0.135 A 
ATOM     61  F   UNL A   1      35.392  34.142  28.441  1.00  0.00    -0.206 F 
ATOM     62  C   UNL A   1      34.120  34.940  30.200  1.00  0.00     0.059 A 
ATOM     63  C   UNL A   1      34.736  34.496  32.470  1.00  0.00     0.059 A 
ATOM     64  F   UNL A   1      36.542  33.167  32.978  1.00  0.00    -0.206 F 
ATOM     65  C   UNL A   1      33.885  35.097  31.558  1.00  0.00     0.060 A 
BRANCH  65  66
ATOM     66  S   UNL A   1      32.467  36.069  32.107  1.00  0.00     0.124 S 
ATOM     67  O   UNL A   1      33.033  36.837  33.211  1.00  0.00    -0.237 OA
ATOM     68  O   UNL A   1      32.129  36.832  30.911  1.00  0.00    -0.237 OA
ATOM     69  O   UNL A   1      31.488  35.057  32.496  1.00  0.00    -0.744 OA
ENDBRANCH  65  66
ENDBRANCH  44  58
BRANCH  45  70
ATOM     70  C   UNL A   1      44.188  28.763  27.992  1.00  0.00     0.058 A 
ATOM     71  C   UNL A   1      44.891  27.579  28.300  1.00  0.00     0.135 A 
ATOM     72  C   UNL A   1      43.563  28.819  26.738  1.00  0.00     0.135 A 
ATOM     73  F   UNL A   1      45.530  27.466  29.475  1.00  0.00    -0.206 F 
ATOM     74  C   UNL A   1      44.865  26.461  27.470  1.00  0.00     0.059 A 
ATOM     75  C   UNL A   1      43.539  27.713  25.876  1.00  0.00     0.059 A 
ATOM     76  F   UNL A   1      42.875  29.909  26.370  1.00  0.00    -0.206 F 
ATOM     77  C   UNL A   1      44.151  26.523  26.276  1.00  0.00     0.060 A 
BRANCH  77  78
ATOM     78  S   UNL A   1      43.892  24.979  25.366  1.00  0.00     0.124 S 
ATOM     79  O   UNL A   1      42.711  25.289  24.570  1.00  0.00    -0.237 OA
ATOM     80  O   UNL A   1      45.147  24.864  24.628  1.00  0.00    -0.237 OA
ATOM     81  O   UNL A   1      43.701  23.998  26.430  1.00  0.00    -0.744 OA
ENDBRANCH  77  78
ENDBRANCH  45  70
BRANCH  57  82
ATOM     82  C   UNL A   1      42.538  35.740  29.333  1.00  0.00     0.058 A 
ATOM     83  C   UNL A   1      43.432  36.459  30.143  1.00  0.00     0.135 A 
ATOM     84  C   UNL A   1      42.021  36.433  28.215  1.00  0.00     0.135 A 
ATOM     85  F   UNL A   1      44.071  35.870  31.166  1.00  0.00    -0.206 F 
ATOM     86  C   UNL A   1      43.732  37.800  29.909  1.00  0.00     0.059 A 
ATOM     87  C   UNL A   1      42.350  37.753  27.931  1.00  0.00     0.059 A 
ATOM     88  F   UNL A   1      41.178  35.844  27.352  1.00  0.00    -0.206 F 
ATOM     89  C   UNL A   1      43.185  38.439  28.801  1.00  0.00     0.060 A 
BRANCH  89  90
ATOM     90  S   UNL A   1      43.601  40.156  28.458  1.00  0.00     0.124 S 
ATOM     91  O   UNL A   1      42.890  40.381  27.203  1.00  0.00    -0.237 OA
ATOM     92  O   UNL A   1      43.066  40.862  29.619  1.00  0.00    -0.237 OA
ATOM     93  O   UNL A   1      45.057  40.131  28.367  1.00  0.00    -0.744 OA
ENDBRANCH  89  90
ENDBRANCH  57  82
ENDBRANCH  31  32
ENDBRANCH  24  26
ENDBRANCH  23  24
ENDBRANCH  22  23
ENDBRANCH   1  22
TORSDOF 19
ENDMDL
MODEL 2
REMARK VINA RESULT:     -12.1      4.538     11.139
REMARK SMILES COc1ccc(C)cc1[C@@H](C)[C@@](O)(C(=O)OCCOC(=O)c1ccc(-c2c3nc(c(-c4c(F)cc(S(=O)(=O)[O-])cc4F)c4ccc([nH]4)c(-c4c(F)cc(S(=O)(=O)[O-])cc4F)c4nc(c(-c5c(F)cc(S(=O)(=O)[O-])cc5F)c5ccc2[nH]5)C=C4)C=C3)cc1)C(C)C
REMARK SMILES IDX 17 1 16 2 14 3 15 4 12 5 10 6 11 7 9 8 3 9 4 10 5 11 8 12
REMARK SMILES IDX 6 13 7 14 2 15 1 16 13 17 88 19 89 20 90 21 18 22 19 23
REMARK SMILES IDX 20 24 21 25 22 26 23 27 87 28 24 29 86 30 25 31 26 32 27 33
REMARK SMILES IDX 80 34 28 35 85 36 79 37 81 38 29 39 84 40 78 41 77 42 30 44
REMARK SMILES IDX 64 45 43 46 63 47 44 48 47 49 62 50 82 51 45 52 46 53 61 55
REMARK SMILES IDX 83 56 48 57 31 58 32 59 41 60 33 61 34 62 40 63 42 64 35 65
REMARK SMILES IDX 36 66 37 67 38 68 39 69 65 70 66 71 75 72 67 73 68 74 74 75
REMARK SMILES IDX 76 76 69 77 70 78 71 79 72 80 73 81 49 82 50 83 59 84 51 85
REMARK SMILES IDX 52 86 58 87 60 88 53 89 54 90 55 91 56 92 57 93
REMARK H PARENT 13 18 81 43 47 54
REMARK Flexibility Score: inf
ROOT
ATOM      1  C   UNL A   1      33.055  29.575  26.859  1.00  0.00     0.274 C 
ENDROOT
BRANCH   1   2
ATOM      2  O   UNL A   1      32.929  28.624  25.784  1.00  0.00    -0.460 OA
BRANCH   2   3
ATOM      3  C   UNL A   1      32.056  27.612  26.003  1.00  0.00     0.339 C 
ATOM      4  O   UNL A   1      31.476  27.455  27.074  1.00  0.00    -0.249 OA
BRANCH   3   5
ATOM      5  C   UNL A   1      31.930  26.589  24.840  1.00  0.00     0.170 C 
BRANCH   5   6
ATOM      6  C   UNL A   1      33.354  26.404  24.195  1.00  0.00     0.063 C 
ATOM      7  C   UNL A   1      33.529  26.781  22.710  1.00  0.00     0.016 C 
BRANCH   6   8
ATOM      8  C   UNL A   1      33.948  25.030  24.499  1.00  0.00     0.001 A 
ATOM      9  C   UNL A   1      33.475  23.877  23.848  1.00  0.00     0.122 A 
ATOM     10  C   UNL A   1      34.183  22.679  23.919  1.00  0.00     0.047 A 
ATOM     11  C   UNL A   1      35.371  22.609  24.649  1.00  0.00     0.007 A 
ATOM     12  C   UNL A   1      35.101  24.917  25.293  1.00  0.00     0.011 A 
ATOM     13  C   UNL A   1      35.837  23.728  25.343  1.00  0.00    -0.051 A 
ATOM     14  C   UNL A   1      37.199  23.741  25.972  1.00  0.00     0.044 C 
BRANCH   9  15
ATOM     15  O   UNL A   1      32.430  23.934  22.961  1.00  0.00    -0.496 OA
ATOM     16  C   UNL A   1      31.542  22.835  23.108  1.00  0.00     0.278 C 
ENDBRANCH   9  15
ENDBRANCH   6   8
ENDBRANCH   5   6
BRANCH   5  17
ATOM     17  O   UNL A   1      31.645  25.372  25.621  1.00  0.00    -0.377 OA
ATOM     18  H   UNL A   1      32.451  25.086  26.079  1.00  0.00     0.212 HD
ENDBRANCH   5  17
BRANCH   5  19
ATOM     19  C   UNL A   1      30.655  26.773  23.954  1.00  0.00     0.027 C 
ATOM     20  C   UNL A   1      29.425  25.956  24.330  1.00  0.00     0.011 C 
ATOM     21  C   UNL A   1      30.236  28.241  23.717  1.00  0.00     0.011 C 
ENDBRANCH   5  19
ENDBRANCH   3   5
ENDBRANCH   2   3
ENDBRANCH   1   2
BRANCH   1  22
ATOM     22  C   UNL A   1      34.394  29.394  27.597  1.00  0.00     0.275 C 
BRANCH  22  23
ATOM     23  O   UNL A   1      35.271  30.539  27.605  1.00  0.00    -0.458 OA
BRANCH  23  24
ATOM     24  C   UNL A   1      36.056  30.665  28.706  1.00  0.00     0.338 C 
ATOM     25  O   UNL A   1      35.695  31.237  29.733  1.00  0.00    -0.246 OA
BRANCH  24  26
ATOM     26  C   UNL A   1      37.174  29.691  28.568  1.00  0.00     0.060 A 
ATOM     27  C   UNL A   1      38.125  29.870  27.559  1.00  0.00     0.016 A 
ATOM     28  C   UNL A   1      37.450  28.835  29.642  1.00  0.00     0.016 A 
ATOM     29  C   UNL A   1      39.405  29.321  27.696  1.00  0.00     0.010 A 
ATOM     30  C   UNL A   1      38.729  28.357  29.815  1.00  0.00     0.010 A 
ATOM     31  C   UNL A   1      39.717  28.607  28.854  1.00  0.00    -0.014 A 
BRANCH  31  32
ATOM     32  C   UNL A   1      40.920  27.795  29.013  1.00  0.00     0.031 A 
ATOM     33  C   UNL A   1      41.041  26.366  28.638  1.00  0.00     0.074 A 
ATOM     34  C   UNL A   1      41.970  28.524  29.450  1.00  0.00     0.049 A 
ATOM     35  N   UNL A   1      42.005  25.593  29.018  1.00  0.00    -0.248 NA
ATOM     36  C   UNL A   1      40.062  25.655  27.828  1.00  0.00     0.031 C 
ATOM     37  C   UNL A   1      43.372  28.168  29.511  1.00  0.00     0.029 A 
ATOM     38  N   UNL A   1      41.896  29.734  30.159  1.00  0.00    -0.354 N 
ATOM     39  C   UNL A   1      41.929  24.407  28.305  1.00  0.00     0.074 A 
ATOM     40  C   UNL A   1      40.636  24.457  27.675  1.00  0.00     0.031 C 
ATOM     41  C   UNL A   1      43.944  28.914  30.474  1.00  0.00     0.029 A 
ATOM     42  C   UNL A   1      42.866  29.631  31.151  1.00  0.00     0.049 A 
ATOM     43  H   UNL A   1      41.290  30.491  29.991  1.00  0.00     0.167 HD
ATOM     44  C   UNL A   1      43.037  23.607  28.227  1.00  0.00     0.037 A 
ATOM     45  C   UNL A   1      42.538  29.502  32.471  1.00  0.00     0.037 A 
ATOM     46  C   UNL A   1      44.055  24.098  29.157  1.00  0.00     0.049 A 
ATOM     47  C   UNL A   1      43.122  28.232  33.044  1.00  0.00     0.074 A 
ATOM     48  C   UNL A   1      45.144  24.934  28.980  1.00  0.00     0.029 A 
ATOM     49  N   UNL A   1      43.822  24.030  30.528  1.00  0.00    -0.354 N 
ATOM     50  N   UNL A   1      43.319  27.139  32.356  1.00  0.00    -0.248 NA
ATOM     51  C   UNL A   1      43.596  28.133  34.418  1.00  0.00     0.031 C 
ATOM     52  C   UNL A   1      45.472  25.485  30.246  1.00  0.00     0.029 A 
ATOM     53  C   UNL A   1      44.620  24.941  31.194  1.00  0.00     0.049 A 
ATOM     54  H   UNL A   1      43.180  23.422  30.961  1.00  0.00     0.167 HD
ATOM     55  C   UNL A   1      44.037  26.257  33.120  1.00  0.00     0.074 A 
ATOM     56  C   UNL A   1      44.152  26.910  34.414  1.00  0.00     0.031 C 
ATOM     57  C   UNL A   1      44.550  25.085  32.640  1.00  0.00     0.037 A 
BRANCH  44  58
ATOM     58  C   UNL A   1      43.346  22.590  27.119  1.00  0.00     0.058 A 
ATOM     59  C   UNL A   1      42.662  21.347  27.080  1.00  0.00     0.135 A 
ATOM     60  C   UNL A   1      44.350  22.709  26.137  1.00  0.00     0.135 A 
ATOM     61  F   UNL A   1      41.616  21.100  27.882  1.00  0.00    -0.206 F 
ATOM     62  C   UNL A   1      43.019  20.289  26.232  1.00  0.00     0.059 A 
ATOM     63  C   UNL A   1      44.742  21.660  25.293  1.00  0.00     0.059 A 
ATOM     64  F   UNL A   1      44.987  23.860  25.913  1.00  0.00    -0.206 F 
ATOM     65  C   UNL A   1      44.089  20.441  25.362  1.00  0.00     0.060 A 
BRANCH  65  66
ATOM     66  S   UNL A   1      44.597  19.052  24.329  1.00  0.00     0.124 S 
ATOM     67  O   UNL A   1      45.972  18.834  24.766  1.00  0.00    -0.237 OA
ATOM     68  O   UNL A   1      43.640  18.017  24.703  1.00  0.00    -0.237 OA
ATOM     69  O   UNL A   1      44.455  19.566  22.969  1.00  0.00    -0.744 OA
ENDBRANCH  65  66
ENDBRANCH  44  58
BRANCH  45  70
ATOM     70  C   UNL A   1      41.255  30.139  32.903  1.00  0.00     0.058 A 
ATOM     71  C   UNL A   1      41.233  31.537  33.092  1.00  0.00     0.135 A 
ATOM     72  C   UNL A   1      40.013  29.489  32.850  1.00  0.00     0.135 A 
ATOM     73  F   UNL A   1      42.386  32.220  33.172  1.00  0.00    -0.206 F 
ATOM     74  C   UNL A   1      40.048  32.269  33.094  1.00  0.00     0.059 A 
ATOM     75  C   UNL A   1      38.806  30.203  32.869  1.00  0.00     0.059 A 
ATOM     76  F   UNL A   1      39.948  28.163  32.672  1.00  0.00    -0.206 F 
ATOM     77  C   UNL A   1      38.839  31.597  32.941  1.00  0.00     0.060 A 
BRANCH  77  78
ATOM     78  S   UNL A   1      37.352  32.590  32.655  1.00  0.00     0.124 S 
ATOM     79  O   UNL A   1      37.444  33.588  33.714  1.00  0.00    -0.237 OA
ATOM     80  O   UNL A   1      37.586  33.077  31.298  1.00  0.00    -0.237 OA
ATOM     81  O   UNL A   1      36.274  31.616  32.792  1.00  0.00    -0.744 OA
ENDBRANCH  77  78
ENDBRANCH  45  70
BRANCH  57  82
ATOM     82  C   UNL A   1      45.171  24.015  33.497  1.00  0.00     0.058 A 
ATOM     83  C   UNL A   1      46.489  24.090  33.975  1.00  0.00     0.135 A 
ATOM     84  C   UNL A   1      44.394  22.941  33.989  1.00  0.00     0.135 A 
ATOM     85  F   UNL A   1      47.283  25.127  33.665  1.00  0.00    -0.206 F 
ATOM     86  C   UNL A   1      47.029  23.123  34.821  1.00  0.00     0.059 A 
ATOM     87  C   UNL A   1      44.895  21.997  34.878  1.00  0.00     0.059 A 
ATOM     88  F   UNL A   1      43.112  22.778  33.627  1.00  0.00    -0.206 F 
ATOM     89  C   UNL A   1      46.224  22.078  35.266  1.00  0.00     0.060 A 
BRANCH  89  90
ATOM     90  S   UNL A   1      46.892  20.848  36.398  1.00  0.00     0.124 S 
ATOM     91  O   UNL A   1      47.713  21.678  37.274  1.00  0.00    -0.237 OA
ATOM     92  O   UNL A   1      45.693  20.281  37.010  1.00  0.00    -0.237 OA
ATOM     93  O   UNL A   1      47.620  19.946  35.512  1.00  0.00    -0.744 OA
ENDBRANCH  89  90
ENDBRANCH  57  82
ENDBRANCH  31  32
ENDBRANCH  24  26
ENDBRANCH  23  24
ENDBRANCH  22  23
ENDBRANCH   1  22
TORSDOF 19
ENDMDL
MODEL 3
REMARK VINA RESULT:     -12.0      4.835     11.251
REMARK SMILES COc1ccc(C)cc1[C@@H](C)[C@@](O)(C(=O)OCCOC(=O)c1ccc(-c2c3nc(c(-c4c(F)cc(S(=O)(=O)[O-])cc4F)c4ccc([nH]4)c(-c4c(F)cc(S(=O)(=O)[O-])cc4F)c4nc(c(-c5c(F)cc(S(=O)(=O)[O-])cc5F)c5ccc2[nH]5)C=C4)C=C3)cc1)C(C)C
REMARK SMILES IDX 17 1 16 2 14 3 15 4 12 5 10 6 11 7 9 8 3 9 4 10 5 11 8 12
REMARK SMILES IDX 6 13 7 14 2 15 1 16 13 17 88 19 89 20 90 21 18 22 19 23
REMARK SMILES IDX 20 24 21 25 22 26 23 27 87 28 24 29 86 30 25 31 26 32 27 33
REMARK SMILES IDX 80 34 28 35 85 36 79 37 81 38 29 39 84 40 78 41 77 42 30 44
REMARK SMILES IDX 64 45 43 46 63 47 44 48 47 49 62 50 82 51 45 52 46 53 61 55
REMARK SMILES IDX 83 56 48 57 31 58 32 59 41 60 33 61 34 62 40 63 42 64 35 65
REMARK SMILES IDX 36 66 37 67 38 68 39 69 65 70 66 71 75 72 67 73 68 74 74 75
REMARK SMILES IDX 76 76 69 77 70 78 71 79 72 80 73 81 49 82 50 83 59 84 51 85
REMARK SMILES IDX 52 86 58 87 60 88 53 89 54 90 55 91 56 92 57 93
REMARK H PARENT 13 18 81 43 47 54
REMARK Flexibility Score: inf
ROOT
ATOM      1  C   UNL A   1      32.979  30.903  27.262  1.00  0.00     0.274 C 
ENDROOT
BRANCH   1   2
ATOM      2  O   UNL A   1      33.225  30.217  26.020  1.00  0.00    -0.460 OA
BRANCH   2   3
ATOM      3  C   UNL A   1      32.120  29.795  25.361  1.00  0.00     0.339 C 
ATOM      4  O   UNL A   1      31.122  30.496  25.223  1.00  0.00    -0.249 OA
BRANCH   3   5
ATOM      5  C   UNL A   1      32.159  28.313  24.894  1.00  0.00     0.170 C 
BRANCH   5   6
ATOM      6  C   UNL A   1      31.147  27.495  25.780  1.00  0.00     0.063 C 
ATOM      7  C   UNL A   1      31.293  27.585  27.313  1.00  0.00     0.016 C 
BRANCH   6   8
ATOM      8  C   UNL A   1      31.016  26.047  25.313  1.00  0.00     0.001 A 
ATOM      9  C   UNL A   1      30.234  25.716  24.192  1.00  0.00     0.122 A 
ATOM     10  C   UNL A   1      30.327  24.454  23.608  1.00  0.00     0.047 A 
ATOM     11  C   UNL A   1      31.193  23.497  24.140  1.00  0.00     0.007 A 
ATOM     12  C   UNL A   1      31.819  25.045  25.880  1.00  0.00     0.011 A 
ATOM     13  C   UNL A   1      31.945  23.786  25.282  1.00  0.00    -0.051 A 
ATOM     14  C   UNL A   1      33.020  22.856  25.760  1.00  0.00     0.044 C 
BRANCH   9  15
ATOM     15  O   UNL A   1      29.520  26.669  23.511  1.00  0.00    -0.496 OA
ATOM     16  C   UNL A   1      28.140  26.649  23.850  1.00  0.00     0.278 C 
ENDBRANCH   9  15
ENDBRANCH   6   8
ENDBRANCH   5   6
BRANCH   5  17
ATOM     17  O   UNL A   1      31.546  28.466  23.562  1.00  0.00    -0.377 OA
ATOM     18  H   UNL A   1      30.751  27.913  23.507  1.00  0.00     0.212 HD
ENDBRANCH   5  17
BRANCH   5  19
ATOM     19  C   UNL A   1      33.592  27.771  24.586  1.00  0.00     0.027 C 
ATOM     20  C   UNL A   1      34.311  27.030  25.708  1.00  0.00     0.011 C 
ATOM     21  C   UNL A   1      33.710  26.952  23.281  1.00  0.00     0.011 C 
ENDBRANCH   5  19
ENDBRANCH   3   5
ENDBRANCH   2   3
ENDBRANCH   1   2
BRANCH   1  22
ATOM     22  C   UNL A   1      34.294  31.422  27.872  1.00  0.00     0.275 C 
BRANCH  22  23
ATOM     23  O   UNL A   1      35.310  30.429  28.124  1.00  0.00    -0.458 OA
BRANCH  23  24
ATOM     24  C   UNL A   1      36.370  30.853  28.861  1.00  0.00     0.338 C 
ATOM     25  O   UNL A   1      36.295  31.747  29.701  1.00  0.00    -0.246 OA
BRANCH  24  26
ATOM     26  C   UNL A   1      37.434  29.818  28.744  1.00  0.00     0.060 A 
ATOM     27  C   UNL A   1      38.290  29.829  27.637  1.00  0.00     0.016 A 
ATOM     28  C   UNL A   1      37.781  29.086  29.886  1.00  0.00     0.016 A 
ATOM     29  C   UNL A   1      39.556  29.241  27.725  1.00  0.00     0.010 A 
ATOM     30  C   UNL A   1      39.054  28.573  30.001  1.00  0.00     0.010 A 
ATOM     31  C   UNL A   1      39.953  28.658  28.930  1.00  0.00    -0.014 A 
BRANCH  31  32
ATOM     32  C   UNL A   1      41.136  27.816  29.079  1.00  0.00     0.031 A 
ATOM     33  C   UNL A   1      41.222  26.389  28.689  1.00  0.00     0.074 A 
ATOM     34  C   UNL A   1      42.203  28.515  29.522  1.00  0.00     0.049 A 
ATOM     35  N   UNL A   1      42.167  25.588  29.059  1.00  0.00    -0.248 NA
ATOM     36  C   UNL A   1      40.225  25.710  27.872  1.00  0.00     0.031 C 
ATOM     37  C   UNL A   1      43.597  28.124  29.578  1.00  0.00     0.029 A 
ATOM     38  N   UNL A   1      42.159  29.718  30.245  1.00  0.00    -0.354 N 
ATOM     39  C   UNL A   1      42.062  24.412  28.333  1.00  0.00     0.074 A 
ATOM     40  C   UNL A   1      40.770  24.500  27.705  1.00  0.00     0.031 C 
ATOM     41  C   UNL A   1      44.187  28.845  30.549  1.00  0.00     0.029 A 
ATOM     42  C   UNL A   1      43.127  29.581  31.235  1.00  0.00     0.049 A 
ATOM     43  H   UNL A   1      41.572  30.491  30.086  1.00  0.00     0.167 HD
ATOM     44  C   UNL A   1      43.151  23.586  28.245  1.00  0.00     0.037 A 
ATOM     45  C   UNL A   1      42.797  29.445  32.554  1.00  0.00     0.037 A 
ATOM     46  C   UNL A   1      44.180  24.043  29.180  1.00  0.00     0.049 A 
ATOM     47  C   UNL A   1      43.350  28.155  33.113  1.00  0.00     0.074 A 
ATOM     48  C   UNL A   1      45.290  24.854  29.011  1.00  0.00     0.029 A 
ATOM     49  N   UNL A   1      43.947  23.965  30.550  1.00  0.00    -0.354 N 
ATOM     50  N   UNL A   1      43.521  27.066  32.412  1.00  0.00    -0.248 NA
ATOM     51  C   UNL A   1      43.823  28.029  34.485  1.00  0.00     0.031 C 
ATOM     52  C   UNL A   1      45.632  25.383  30.282  1.00  0.00     0.029 A 
ATOM     53  C   UNL A   1      44.767  24.850  31.226  1.00  0.00     0.049 A 
ATOM     54  H   UNL A   1      43.291  23.368  30.977  1.00  0.00     0.167 HD
ATOM     55  C   UNL A   1      44.218  26.158  33.166  1.00  0.00     0.074 A 
ATOM     56  C   UNL A   1      44.349  26.794  34.467  1.00  0.00     0.031 C 
ATOM     57  C   UNL A   1      44.702  24.980  32.672  1.00  0.00     0.037 A 
BRANCH  44  58
ATOM     58  C   UNL A   1      43.433  22.575  27.126  1.00  0.00     0.058 A 
ATOM     59  C   UNL A   1      42.689  21.369  27.049  1.00  0.00     0.135 A 
ATOM     60  C   UNL A   1      44.466  22.659  26.170  1.00  0.00     0.135 A 
ATOM     61  F   UNL A   1      41.613  21.162  27.821  1.00  0.00    -0.206 F 
ATOM     62  C   UNL A   1      43.013  20.309  26.189  1.00  0.00     0.059 A 
ATOM     63  C   UNL A   1      44.824  21.606  25.315  1.00  0.00     0.059 A 
ATOM     64  F   UNL A   1      45.165  23.780  25.981  1.00  0.00    -0.206 F 
ATOM     65  C   UNL A   1      44.109  20.421  25.347  1.00  0.00     0.060 A 
BRANCH  65  66
ATOM     66  S   UNL A   1      44.571  19.026  24.300  1.00  0.00     0.124 S 
ATOM     67  O   UNL A   1      45.952  18.786  24.704  1.00  0.00    -0.237 OA
ATOM     68  O   UNL A   1      43.606  18.005  24.695  1.00  0.00    -0.237 OA
ATOM     69  O   UNL A   1      44.405  19.545  22.945  1.00  0.00    -0.744 OA
ENDBRANCH  65  66
ENDBRANCH  44  58
BRANCH  45  70
ATOM     70  C   UNL A   1      41.530  30.108  32.994  1.00  0.00     0.058 A 
ATOM     71  C   UNL A   1      40.437  29.292  33.354  1.00  0.00     0.135 A 
ATOM     72  C   UNL A   1      41.451  31.463  33.350  1.00  0.00     0.135 A 
ATOM     73  F   UNL A   1      40.439  27.990  33.028  1.00  0.00    -0.206 F 
ATOM     74  C   UNL A   1      39.386  29.759  34.139  1.00  0.00     0.059 A 
ATOM     75  C   UNL A   1      40.393  31.961  34.123  1.00  0.00     0.059 A 
ATOM     76  F   UNL A   1      42.449  32.304  33.045  1.00  0.00    -0.206 F 
ATOM     77  C   UNL A   1      39.392  31.088  34.554  1.00  0.00     0.060 A 
BRANCH  77  78
ATOM     78  S   UNL A   1      38.179  31.587  35.803  1.00  0.00     0.124 S 
ATOM     79  O   UNL A   1      37.068  32.049  34.980  1.00  0.00    -0.237 OA
ATOM     80  O   UNL A   1      37.965  30.331  36.516  1.00  0.00    -0.237 OA
ATOM     81  O   UNL A   1      38.886  32.620  36.554  1.00  0.00    -0.744 OA
ENDBRANCH  77  78
ENDBRANCH  45  70
BRANCH  57  82
ATOM     82  C   UNL A   1      45.298  23.886  33.518  1.00  0.00     0.058 A 
ATOM     83  C   UNL A   1      46.624  23.913  33.977  1.00  0.00     0.135 A 
ATOM     84  C   UNL A   1      44.491  22.837  34.017  1.00  0.00     0.135 A 
ATOM     85  F   UNL A   1      47.449  24.923  33.659  1.00  0.00    -0.206 F 
ATOM     86  C   UNL A   1      47.142  22.925  34.812  1.00  0.00     0.059 A 
ATOM     87  C   UNL A   1      44.971  21.873  34.895  1.00  0.00     0.059 A 
ATOM     88  F   UNL A   1      43.199  22.720  33.673  1.00  0.00    -0.206 F 
ATOM     89  C   UNL A   1      46.308  21.907  35.265  1.00  0.00     0.060 A 
BRANCH  89  90
ATOM     90  S   UNL A   1      46.948  20.650  36.383  1.00  0.00     0.124 S 
ATOM     91  O   UNL A   1      46.479  21.146  37.673  1.00  0.00    -0.237 OA
ATOM     92  O   UNL A   1      46.305  19.429  35.907  1.00  0.00    -0.237 OA
ATOM     93  O   UNL A   1      48.389  20.716  36.163  1.00  0.00    -0.744 OA
ENDBRANCH  89  90
ENDBRANCH  57  82
ENDBRANCH  31  32
ENDBRANCH  24  26
ENDBRANCH  23  24
ENDBRANCH  22  23
ENDBRANCH   1  22
TORSDOF 19
ENDMDL
