MODEL 1
REMARK VINA RESULT:     -10.9      0.000      0.000
REMARK SMILES O=C(OCCOC(=O)[C@@H]1C=C[C@@H](NS(=O)(=O)c2ccc(F)c(F)c2F)C1)c1ccc(-c2c3nc(c(-c4c(F)cc(S(=O)(=O)[O-])cc4F)c4ccc([nH]4)c(-c4c(F)cc(S(=O)(=O)[O-])cc4F)c4nc(c(-c5c(F)cc(S(=O)(=O)[O-])cc5F)c5ccc2[nH]5)C=C4)C=C3)cc1
REMARK SMILES IDX 4 1 3 2 2 3 1 4 27 5 28 6 92 7 29 8 91 9 30 10 31 11 32 12
REMARK SMILES IDX 85 13 33 14 90 15 84 16 86 17 34 18 89 19 83 20 82 21 35 23
REMARK SMILES IDX 69 24 48 25 68 26 49 27 52 28 67 29 87 30 50 31 51 32 66 34
REMARK SMILES IDX 88 35 53 36 36 37 37 38 46 39 38 40 39 41 45 42 47 43 40 44
REMARK SMILES IDX 41 45 42 46 43 47 44 48 70 49 71 50 80 51 72 52 73 53 79 54
REMARK SMILES IDX 81 55 74 56 75 57 76 58 77 59 78 60 54 61 55 62 64 63 56 64
REMARK SMILES IDX 57 65 63 66 65 67 58 68 59 69 60 70 61 71 62 72 5 73 6 74
REMARK SMILES IDX 7 75 8 76 9 77 10 78 26 79 11 80 12 81 13 82 14 84 15 85
REMARK SMILES IDX 16 86 17 87 18 88 24 89 19 90 22 91 25 92 20 93 23 94 21 95
REMARK H PARENT 86 22 52 33 13 83
REMARK Flexibility Score: inf
ROOT
ATOM      1  C   UNL A   1      32.387  28.706  27.354  1.00  0.00     0.275 C 
ENDROOT
BRANCH   1   2
ATOM      2  O   UNL A   1      33.816  28.852  27.373  1.00  0.00    -0.458 OA
BRANCH   2   3
ATOM      3  C   UNL A   1      34.527  29.864  27.933  1.00  0.00     0.338 C 
ATOM      4  O   UNL A   1      34.050  30.997  27.925  1.00  0.00    -0.246 OA
BRANCH   3   5
ATOM      5  C   UNL A   1      35.959  29.699  28.347  1.00  0.00     0.060 A 
ATOM      6  C   UNL A   1      36.419  29.319  29.611  1.00  0.00     0.016 A 
ATOM      7  C   UNL A   1      36.922  29.905  27.340  1.00  0.00     0.016 A 
ATOM      8  C   UNL A   1      37.771  29.055  29.846  1.00  0.00     0.010 A 
ATOM      9  C   UNL A   1      38.277  29.619  27.562  1.00  0.00     0.010 A 
ATOM     10  C   UNL A   1      38.708  29.173  28.820  1.00  0.00    -0.014 A 
BRANCH  10  11
ATOM     11  C   UNL A   1      40.145  28.963  29.121  1.00  0.00     0.031 A 
ATOM     12  C   UNL A   1      40.741  27.634  28.766  1.00  0.00     0.074 A 
ATOM     13  C   UNL A   1      40.909  29.951  29.631  1.00  0.00     0.049 A 
ATOM     14  N   UNL A   1      41.972  27.220  28.895  1.00  0.00    -0.248 NA
ATOM     15  C   UNL A   1      39.823  26.634  28.195  1.00  0.00     0.031 C 
ATOM     16  C   UNL A   1      40.435  31.285  29.998  1.00  0.00     0.029 A 
ATOM     17  N   UNL A   1      42.252  29.996  29.920  1.00  0.00    -0.354 N 
ATOM     18  C   UNL A   1      41.971  25.914  28.426  1.00  0.00     0.074 A 
ATOM     19  C   UNL A   1      40.610  25.580  28.075  1.00  0.00     0.031 C 
ATOM     20  C   UNL A   1      41.466  32.022  30.446  1.00  0.00     0.029 A 
ATOM     21  C   UNL A   1      42.677  31.210  30.417  1.00  0.00     0.049 A 
ATOM     22  H   UNL A   1      42.856  29.230  29.784  1.00  0.00     0.167 HD
ATOM     23  C   UNL A   1      43.018  25.076  28.267  1.00  0.00     0.037 A 
ATOM     24  C   UNL A   1      43.908  31.612  30.797  1.00  0.00     0.037 A 
ATOM     25  C   UNL A   1      44.369  25.421  28.604  1.00  0.00     0.049 A 
ATOM     26  C   UNL A   1      45.054  30.641  30.652  1.00  0.00     0.074 A 
ATOM     27  C   UNL A   1      45.509  24.650  28.495  1.00  0.00     0.029 A 
ATOM     28  N   UNL A   1      44.757  26.651  29.119  1.00  0.00    -0.354 N 
ATOM     29  N   UNL A   1      45.039  29.417  30.175  1.00  0.00    -0.248 NA
ATOM     30  C   UNL A   1      46.380  31.101  31.085  1.00  0.00     0.031 C 
ATOM     31  C   UNL A   1      46.586  25.403  28.973  1.00  0.00     0.029 A 
ATOM     32  C   UNL A   1      46.121  26.657  29.342  1.00  0.00     0.049 A 
ATOM     33  H   UNL A   1      44.150  27.405  29.298  1.00  0.00     0.167 HD
ATOM     34  C   UNL A   1      46.356  28.973  30.224  1.00  0.00     0.074 A 
ATOM     35  C   UNL A   1      47.143  30.064  30.764  1.00  0.00     0.031 C 
ATOM     36  C   UNL A   1      46.873  27.773  29.860  1.00  0.00     0.037 A 
BRANCH  23  37
ATOM     37  C   UNL A   1      42.711  23.716  27.712  1.00  0.00     0.058 A 
ATOM     38  C   UNL A   1      42.479  22.616  28.555  1.00  0.00     0.135 A 
ATOM     39  C   UNL A   1      42.712  23.495  26.326  1.00  0.00     0.135 A 
ATOM     40  F   UNL A   1      42.504  22.770  29.889  1.00  0.00    -0.206 F 
ATOM     41  C   UNL A   1      42.300  21.336  28.045  1.00  0.00     0.059 A 
ATOM     42  C   UNL A   1      42.507  22.226  25.794  1.00  0.00     0.059 A 
ATOM     43  F   UNL A   1      42.943  24.510  25.480  1.00  0.00    -0.206 F 
ATOM     44  C   UNL A   1      42.323  21.150  26.662  1.00  0.00     0.060 A 
BRANCH  44  45
ATOM     45  S   UNL A   1      42.116  19.479  26.015  1.00  0.00     0.124 S 
ATOM     46  O   UNL A   1      40.670  19.419  25.825  1.00  0.00    -0.237 OA
ATOM     47  O   UNL A   1      42.913  19.518  24.793  1.00  0.00    -0.237 OA
ATOM     48  O   UNL A   1      42.645  18.634  27.080  1.00  0.00    -0.744 OA
ENDBRANCH  44  45
ENDBRANCH  23  37
BRANCH  24  49
ATOM     49  C   UNL A   1      44.140  32.986  31.335  1.00  0.00     0.058 A 
ATOM     50  C   UNL A   1      44.096  33.245  32.715  1.00  0.00     0.135 A 
ATOM     51  C   UNL A   1      44.368  34.077  30.481  1.00  0.00     0.135 A 
ATOM     52  F   UNL A   1      43.876  32.242  33.578  1.00  0.00    -0.206 F 
ATOM     53  C   UNL A   1      44.241  34.533  33.226  1.00  0.00     0.059 A 
ATOM     54  C   UNL A   1      44.539  35.371  30.970  1.00  0.00     0.059 A 
ATOM     55  F   UNL A   1      44.435  33.889  29.155  1.00  0.00    -0.206 F 
ATOM     56  C   UNL A   1      44.458  35.592  32.344  1.00  0.00     0.060 A 
BRANCH  56  57
ATOM     57  S   UNL A   1      44.665  37.257  33.017  1.00  0.00     0.124 S 
ATOM     58  O   UNL A   1      44.016  37.132  34.317  1.00  0.00    -0.237 OA
ATOM     59  O   UNL A   1      46.117  37.400  33.038  1.00  0.00    -0.237 OA
ATOM     60  O   UNL A   1      43.975  38.099  32.044  1.00  0.00    -0.744 OA
ENDBRANCH  56  57
ENDBRANCH  24  49
BRANCH  36  61
ATOM     61  C   UNL A   1      48.356  27.590  29.993  1.00  0.00     0.058 A 
ATOM     62  C   UNL A   1      48.937  27.145  31.189  1.00  0.00     0.135 A 
ATOM     63  C   UNL A   1      49.194  27.781  28.883  1.00  0.00     0.135 A 
ATOM     64  F   UNL A   1      48.177  26.952  32.280  1.00  0.00    -0.206 F 
ATOM     65  C   UNL A   1      50.303  26.906  31.285  1.00  0.00     0.059 A 
ATOM     66  C   UNL A   1      50.558  27.523  28.948  1.00  0.00     0.059 A 
ATOM     67  F   UNL A   1      48.682  28.196  27.712  1.00  0.00    -0.206 F 
ATOM     68  C   UNL A   1      51.104  27.093  30.156  1.00  0.00     0.060 A 
BRANCH  68  69
ATOM     69  S   UNL A   1      52.867  26.725  30.276  1.00  0.00     0.124 S 
ATOM     70  O   UNL A   1      53.219  26.522  28.874  1.00  0.00    -0.237 OA
ATOM     71  O   UNL A   1      53.398  27.935  30.895  1.00  0.00    -0.237 OA
ATOM     72  O   UNL A   1      52.907  25.531  31.113  1.00  0.00    -0.744 OA
ENDBRANCH  68  69
ENDBRANCH  36  61
ENDBRANCH  10  11
ENDBRANCH   3   5
ENDBRANCH   2   3
ENDBRANCH   1   2
BRANCH   1  73
ATOM     73  C   UNL A   1      31.775  29.262  26.066  1.00  0.00     0.274 C 
BRANCH  73  74
ATOM     74  O   UNL A   1      31.576  28.252  25.057  1.00  0.00    -0.462 OA
BRANCH  74  75
ATOM     75  C   UNL A   1      31.946  28.580  23.782  1.00  0.00     0.312 C 
ATOM     76  O   UNL A   1      31.225  29.138  22.964  1.00  0.00    -0.252 OA
BRANCH  75  77
ATOM     77  C   UNL A   1      33.394  28.163  23.509  1.00  0.00     0.123 C 
ATOM     78  C   UNL A   1      33.591  27.930  22.052  1.00  0.00    -0.015 C 
ATOM     79  C   UNL A   1      33.735  26.760  24.037  1.00  0.00     0.043 C 
ATOM     80  C   UNL A   1      33.496  26.643  21.719  1.00  0.00    -0.011 C 
ATOM     81  C   UNL A   1      33.273  25.798  22.921  1.00  0.00     0.093 C 
BRANCH  81  82
ATOM     82  N   UNL A   1      34.062  24.575  22.883  1.00  0.00    -0.204 NA
ATOM     83  H   UNL A   1      35.032  24.858  23.028  1.00  0.00     0.142 HD
BRANCH  82  84
ATOM     84  S   UNL A   1      33.791  23.286  23.935  1.00  0.00     0.244 S 
ATOM     85  O   UNL A   1      32.905  23.670  25.015  1.00  0.00    -0.207 OA
ATOM     86  O   UNL A   1      33.432  22.188  23.069  1.00  0.00    -0.207 OA
BRANCH  84  87
ATOM     87  C   UNL A   1      35.349  22.874  24.653  1.00  0.00     0.121 A 
ATOM     88  C   UNL A   1      35.868  21.580  24.489  1.00  0.00     0.028 A 
ATOM     89  C   UNL A   1      36.024  23.790  25.451  1.00  0.00     0.181 A 
ATOM     90  C   UNL A   1      37.093  21.246  25.070  1.00  0.00     0.044 A 
ATOM     91  C   UNL A   1      37.272  23.476  25.972  1.00  0.00     0.195 A 
ATOM     92  F   UNL A   1      35.486  24.972  25.773  1.00  0.00    -0.202 F 
ATOM     93  C   UNL A   1      37.803  22.209  25.781  1.00  0.00     0.161 A 
ATOM     94  F   UNL A   1      37.958  24.393  26.669  1.00  0.00    -0.200 F 
ATOM     95  F   UNL A   1      38.996  21.894  26.303  1.00  0.00    -0.204 F 
ENDBRANCH  84  87
ENDBRANCH  82  84
ENDBRANCH  81  82
ENDBRANCH  75  77
ENDBRANCH  74  75
ENDBRANCH  73  74
ENDBRANCH   1  73
TORSDOF 17
ENDMDL
MODEL 2
REMARK VINA RESULT:     -10.8      1.456      8.422
REMARK SMILES O=C(OCCOC(=O)[C@@H]1C=C[C@@H](NS(=O)(=O)c2ccc(F)c(F)c2F)C1)c1ccc(-c2c3nc(c(-c4c(F)cc(S(=O)(=O)[O-])cc4F)c4ccc([nH]4)c(-c4c(F)cc(S(=O)(=O)[O-])cc4F)c4nc(c(-c5c(F)cc(S(=O)(=O)[O-])cc5F)c5ccc2[nH]5)C=C4)C=C3)cc1
REMARK SMILES IDX 4 1 3 2 2 3 1 4 27 5 28 6 92 7 29 8 91 9 30 10 31 11 32 12
REMARK SMILES IDX 85 13 33 14 90 15 84 16 86 17 34 18 89 19 83 20 82 21 35 23
REMARK SMILES IDX 69 24 48 25 68 26 49 27 52 28 67 29 87 30 50 31 51 32 66 34
REMARK SMILES IDX 88 35 53 36 36 37 37 38 46 39 38 40 39 41 45 42 47 43 40 44
REMARK SMILES IDX 41 45 42 46 43 47 44 48 70 49 71 50 80 51 72 52 73 53 79 54
REMARK SMILES IDX 81 55 74 56 75 57 76 58 77 59 78 60 54 61 55 62 64 63 56 64
REMARK SMILES IDX 57 65 63 66 65 67 58 68 59 69 60 70 61 71 62 72 5 73 6 74
REMARK SMILES IDX 7 75 8 76 9 77 10 78 26 79 11 80 12 81 13 82 14 84 15 85
REMARK SMILES IDX 16 86 17 87 18 88 24 89 19 90 22 91 25 92 20 93 23 94 21 95
REMARK H PARENT 86 22 52 33 13 83
REMARK Flexibility Score: inf
ROOT
ATOM      1  C   UNL A   1      31.988  29.557  27.022  1.00  0.00     0.275 C 
ENDROOT
BRANCH   1   2
ATOM      2  O   UNL A   1      33.396  29.439  27.286  1.00  0.00    -0.458 OA
BRANCH   2   3
ATOM      3  C   UNL A   1      34.179  30.323  27.953  1.00  0.00     0.338 C 
ATOM      4  O   UNL A   1      33.770  31.471  28.116  1.00  0.00    -0.246 OA
BRANCH   3   5
ATOM      5  C   UNL A   1      35.610  30.025  28.291  1.00  0.00     0.060 A 
ATOM      6  C   UNL A   1      36.096  29.579  29.525  1.00  0.00     0.016 A 
ATOM      7  C   UNL A   1      36.537  30.166  27.240  1.00  0.00     0.016 A 
ATOM      8  C   UNL A   1      37.429  29.193  29.686  1.00  0.00     0.010 A 
ATOM      9  C   UNL A   1      37.870  29.758  27.389  1.00  0.00     0.010 A 
ATOM     10  C   UNL A   1      38.321  29.249  28.616  1.00  0.00    -0.014 A 
BRANCH  10  11
ATOM     11  C   UNL A   1      39.747  28.907  28.840  1.00  0.00     0.031 A 
ATOM     12  C   UNL A   1      40.603  29.923  29.533  1.00  0.00     0.074 A 
ATOM     13  C   UNL A   1      40.244  27.701  28.497  1.00  0.00     0.049 A 
ATOM     14  N   UNL A   1      41.861  29.850  29.875  1.00  0.00    -0.248 NA
ATOM     15  C   UNL A   1      39.956  31.200  29.883  1.00  0.00     0.031 C 
ATOM     16  C   UNL A   1      39.495  26.634  27.833  1.00  0.00     0.029 A 
ATOM     17  N   UNL A   1      41.494  27.157  28.671  1.00  0.00    -0.354 N 
ATOM     18  C   UNL A   1      42.152  31.068  30.472  1.00  0.00     0.074 A 
ATOM     19  C   UNL A   1      40.965  31.887  30.387  1.00  0.00     0.031 C 
ATOM     20  C   UNL A   1      40.289  25.561  27.668  1.00  0.00     0.029 A 
ATOM     21  C   UNL A   1      41.613  25.866  28.199  1.00  0.00     0.049 A 
ATOM     22  H   UNL A   1      42.237  27.645  29.093  1.00  0.00     0.167 HD
ATOM     23  C   UNL A   1      43.296  31.459  31.073  1.00  0.00     0.037 A 
ATOM     24  C   UNL A   1      42.674  25.032  28.206  1.00  0.00     0.037 A 
ATOM     25  C   UNL A   1      44.465  30.634  31.167  1.00  0.00     0.049 A 
ATOM     26  C   UNL A   1      43.956  25.510  28.842  1.00  0.00     0.074 A 
ATOM     27  C   UNL A   1      45.685  30.927  31.743  1.00  0.00     0.029 A 
ATOM     28  N   UNL A   1      44.553  29.342  30.664  1.00  0.00    -0.354 N 
ATOM     29  N   UNL A   1      44.203  26.656  29.433  1.00  0.00    -0.248 NA
ATOM     30  C   UNL A   1      45.098  24.586  28.824  1.00  0.00     0.031 C 
ATOM     31  C   UNL A   1      46.523  29.822  31.563  1.00  0.00     0.029 A 
ATOM     32  C   UNL A   1      45.812  28.826  30.910  1.00  0.00     0.049 A 
ATOM     33  H   UNL A   1      43.827  28.864  30.202  1.00  0.00     0.167 HD
ATOM     34  C   UNL A   1      45.517  26.580  29.881  1.00  0.00     0.074 A 
ATOM     35  C   UNL A   1      46.008  25.269  29.505  1.00  0.00     0.031 C 
ATOM     36  C   UNL A   1      46.256  27.506  30.541  1.00  0.00     0.037 A 
BRANCH  23  37
ATOM     37  C   UNL A   1      43.310  32.841  31.655  1.00  0.00     0.058 A 
ATOM     38  C   UNL A   1      43.720  33.951  30.898  1.00  0.00     0.135 A 
ATOM     39  C   UNL A   1      42.971  33.051  33.001  1.00  0.00     0.135 A 
ATOM     40  F   UNL A   1      44.090  33.796  29.616  1.00  0.00    -0.206 F 
ATOM     41  C   UNL A   1      43.835  35.214  31.465  1.00  0.00     0.059 A 
ATOM     42  C   UNL A   1      43.053  34.313  33.581  1.00  0.00     0.059 A 
ATOM     43  F   UNL A   1      42.587  32.021  33.770  1.00  0.00    -0.206 F 
ATOM     44  C   UNL A   1      43.506  35.384  32.810  1.00  0.00     0.060 A 
BRANCH  44  45
ATOM     45  S   UNL A   1      43.686  37.023  33.541  1.00  0.00     0.124 S 
ATOM     46  O   UNL A   1      42.468  37.119  34.341  1.00  0.00    -0.237 OA
ATOM     47  O   UNL A   1      44.929  36.894  34.295  1.00  0.00    -0.237 OA
ATOM     48  O   UNL A   1      43.747  37.907  32.382  1.00  0.00    -0.744 OA
ENDBRANCH  44  45
ENDBRANCH  23  37
BRANCH  24  49
ATOM     49  C   UNL A   1      42.584  23.664  27.612  1.00  0.00     0.058 A 
ATOM     50  C   UNL A   1      42.403  22.529  28.419  1.00  0.00     0.135 A 
ATOM     51  C   UNL A   1      42.719  23.457  26.230  1.00  0.00     0.135 A 
ATOM     52  F   UNL A   1      42.274  22.666  29.748  1.00  0.00    -0.206 F 
ATOM     53  C   UNL A   1      42.388  21.243  27.886  1.00  0.00     0.059 A 
ATOM     54  C   UNL A   1      42.684  22.181  25.670  1.00  0.00     0.059 A 
ATOM     55  F   UNL A   1      42.880  24.503  25.406  1.00  0.00    -0.206 F 
ATOM     56  C   UNL A   1      42.533  21.078  26.508  1.00  0.00     0.060 A 
BRANCH  56  57
ATOM     57  S   UNL A   1      42.492  19.405  25.822  1.00  0.00     0.124 S 
ATOM     58  O   UNL A   1      42.840  18.601  26.987  1.00  0.00    -0.237 OA
ATOM     59  O   UNL A   1      41.111  19.299  25.360  1.00  0.00    -0.237 OA
ATOM     60  O   UNL A   1      43.495  19.453  24.763  1.00  0.00    -0.744 OA
ENDBRANCH  56  57
ENDBRANCH  24  49
BRANCH  36  61
ATOM     61  C   UNL A   1      47.653  27.123  30.933  1.00  0.00     0.058 A 
ATOM     62  C   UNL A   1      47.914  26.393  32.101  1.00  0.00     0.135 A 
ATOM     63  C   UNL A   1      48.731  27.420  30.084  1.00  0.00     0.135 A 
ATOM     64  F   UNL A   1      46.916  26.090  32.947  1.00  0.00    -0.206 F 
ATOM     65  C   UNL A   1      49.202  25.977  32.421  1.00  0.00     0.059 A 
ATOM     66  C   UNL A   1      50.022  26.991  30.370  1.00  0.00     0.059 A 
ATOM     67  F   UNL A   1      48.528  28.108  28.948  1.00  0.00    -0.206 F 
ATOM     68  C   UNL A   1      50.247  26.277  31.546  1.00  0.00     0.060 A 
BRANCH  68  69
ATOM     69  S   UNL A   1      51.905  25.682  31.943  1.00  0.00     0.124 S 
ATOM     70  O   UNL A   1      52.219  26.465  33.134  1.00  0.00    -0.237 OA
ATOM     71  O   UNL A   1      51.682  24.256  32.160  1.00  0.00    -0.237 OA
ATOM     72  O   UNL A   1      52.678  26.015  30.751  1.00  0.00    -0.744 OA
ENDBRANCH  68  69
ENDBRANCH  36  61
ENDBRANCH  10  11
ENDBRANCH   3   5
ENDBRANCH   2   3
ENDBRANCH   1   2
BRANCH   1  73
ATOM     73  C   UNL A   1      31.716  30.102  25.617  1.00  0.00     0.274 C 
BRANCH  73  74
ATOM     74  O   UNL A   1      31.082  29.138  24.754  1.00  0.00    -0.462 OA
BRANCH  74  75
ATOM     75  C   UNL A   1      31.911  28.341  24.013  1.00  0.00     0.312 C 
ATOM     76  O   UNL A   1      33.131  28.440  23.978  1.00  0.00    -0.252 OA
BRANCH  75  77
ATOM     77  C   UNL A   1      31.111  27.294  23.234  1.00  0.00     0.123 C 
ATOM     78  C   UNL A   1      29.721  27.219  23.762  1.00  0.00    -0.015 C 
ATOM     79  C   UNL A   1      31.564  25.850  23.509  1.00  0.00     0.043 C 
ATOM     80  C   UNL A   1      29.556  26.227  24.636  1.00  0.00    -0.011 C 
ATOM     81  C   UNL A   1      30.807  25.441  24.791  1.00  0.00     0.093 C 
BRANCH  81  82
ATOM     82  N   UNL A   1      30.549  24.008  24.847  1.00  0.00    -0.204 NA
ATOM     83  H   UNL A   1      30.993  23.608  24.020  1.00  0.00     0.142 HD
BRANCH  82  84
ATOM     84  S   UNL A   1      31.031  23.047  26.145  1.00  0.00     0.244 S 
ATOM     85  O   UNL A   1      31.218  23.841  27.342  1.00  0.00    -0.207 OA
ATOM     86  O   UNL A   1      30.087  21.954  26.150  1.00  0.00    -0.207 OA
BRANCH  84  87
ATOM     87  C   UNL A   1      32.598  22.358  25.720  1.00  0.00     0.121 A 
ATOM     88  C   UNL A   1      32.702  20.985  25.450  1.00  0.00     0.028 A 
ATOM     89  C   UNL A   1      33.743  23.146  25.736  1.00  0.00     0.181 A 
ATOM     90  C   UNL A   1      33.945  20.434  25.130  1.00  0.00     0.044 A 
ATOM     91  C   UNL A   1      34.965  22.608  25.353  1.00  0.00     0.195 A 
ATOM     92  F   UNL A   1      33.717  24.417  26.152  1.00  0.00    -0.202 F 
ATOM     93  C   UNL A   1      35.063  21.258  25.051  1.00  0.00     0.161 A 
ATOM     94  F   UNL A   1      36.051  23.392  25.286  1.00  0.00    -0.200 F 
ATOM     95  F   UNL A   1      36.245  20.730  24.704  1.00  0.00    -0.204 F 
ENDBRANCH  84  87
ENDBRANCH  82  84
ENDBRANCH  81  82
ENDBRANCH  75  77
ENDBRANCH  74  75
ENDBRANCH  73  74
ENDBRANCH   1  73
TORSDOF 17
ENDMDL
MODEL 3
REMARK VINA RESULT:     -10.7      2.846      8.889
REMARK SMILES O=C(OCCOC(=O)[C@@H]1C=C[C@@H](NS(=O)(=O)c2ccc(F)c(F)c2F)C1)c1ccc(-c2c3nc(c(-c4c(F)cc(S(=O)(=O)[O-])cc4F)c4ccc([nH]4)c(-c4c(F)cc(S(=O)(=O)[O-])cc4F)c4nc(c(-c5c(F)cc(S(=O)(=O)[O-])cc5F)c5ccc2[nH]5)C=C4)C=C3)cc1
REMARK SMILES IDX 4 1 3 2 2 3 1 4 27 5 28 6 92 7 29 8 91 9 30 10 31 11 32 12
REMARK SMILES IDX 85 13 33 14 90 15 84 16 86 17 34 18 89 19 83 20 82 21 35 23
REMARK SMILES IDX 69 24 48 25 68 26 49 27 52 28 67 29 87 30 50 31 51 32 66 34
REMARK SMILES IDX 88 35 53 36 36 37 37 38 46 39 38 40 39 41 45 42 47 43 40 44
REMARK SMILES IDX 41 45 42 46 43 47 44 48 70 49 71 50 80 51 72 52 73 53 79 54
REMARK SMILES IDX 81 55 74 56 75 57 76 58 77 59 78 60 54 61 55 62 64 63 56 64
REMARK SMILES IDX 57 65 63 66 65 67 58 68 59 69 60 70 61 71 62 72 5 73 6 74
REMARK SMILES IDX 7 75 8 76 9 77 10 78 26 79 11 80 12 81 13 82 14 84 15 85
REMARK SMILES IDX 16 86 17 87 18 88 24 89 19 90 22 91 25 92 20 93 23 94 21 95
REMARK H PARENT 86 22 52 33 13 83
REMARK Flexibility Score: inf
ROOT
ATOM      1  C   UNL A   1      34.885  32.183  29.610  1.00  0.00     0.275 C 
ENDROOT
BRANCH   1   2
ATOM      2  O   UNL A   1      36.163  31.860  30.181  1.00  0.00    -0.458 OA
BRANCH   2   3
ATOM      3  C   UNL A   1      36.641  30.623  30.467  1.00  0.00     0.338 C 
ATOM      4  O   UNL A   1      36.130  29.990  31.389  1.00  0.00    -0.246 OA
BRANCH   3   5
ATOM      5  C   UNL A   1      37.909  30.098  29.862  1.00  0.00     0.060 A 
ATOM      6  C   UNL A   1      38.193  29.986  28.498  1.00  0.00     0.016 A 
ATOM      7  C   UNL A   1      38.922  29.730  30.769  1.00  0.00     0.016 A 
ATOM      8  C   UNL A   1      39.464  29.619  28.046  1.00  0.00     0.010 A 
ATOM      9  C   UNL A   1      40.205  29.384  30.323  1.00  0.00     0.010 A 
ATOM     10  C   UNL A   1      40.489  29.344  28.950  1.00  0.00    -0.014 A 
BRANCH  10  11
ATOM     11  C   UNL A   1      41.802  28.880  28.440  1.00  0.00     0.031 A 
ATOM     12  C   UNL A   1      42.919  29.879  28.391  1.00  0.00     0.074 A 
ATOM     13  C   UNL A   1      42.009  27.592  28.096  1.00  0.00     0.049 A 
ATOM     14  N   UNL A   1      44.160  29.714  28.022  1.00  0.00    -0.248 NA
ATOM     15  C   UNL A   1      42.590  31.253  28.809  1.00  0.00     0.031 C 
ATOM     16  C   UNL A   1      40.998  26.536  28.120  1.00  0.00     0.029 A 
ATOM     17  N   UNL A   1      43.143  26.942  27.671  1.00  0.00    -0.354 N 
ATOM     18  C   UNL A   1      44.753  30.960  28.159  1.00  0.00     0.074 A 
ATOM     19  C   UNL A   1      43.727  31.886  28.578  1.00  0.00     0.031 C 
ATOM     20  C   UNL A   1      41.554  25.371  27.744  1.00  0.00     0.029 A 
ATOM     21  C   UNL A   1      42.962  25.596  27.434  1.00  0.00     0.049 A 
ATOM     22  H   UNL A   1      44.007  27.398  27.546  1.00  0.00     0.167 HD
ATOM     23  C   UNL A   1      46.050  31.299  27.988  1.00  0.00     0.037 A 
ATOM     24  C   UNL A   1      43.840  24.659  27.019  1.00  0.00     0.037 A 
ATOM     25  C   UNL A   1      47.066  30.370  27.587  1.00  0.00     0.049 A 
ATOM     26  C   UNL A   1      45.272  25.073  26.790  1.00  0.00     0.074 A 
ATOM     27  C   UNL A   1      48.410  30.602  27.372  1.00  0.00     0.029 A 
ATOM     28  N   UNL A   1      46.841  29.022  27.341  1.00  0.00    -0.354 N 
ATOM     29  N   UNL A   1      45.824  26.253  26.956  1.00  0.00    -0.248 NA
ATOM     30  C   UNL A   1      46.203  24.035  26.326  1.00  0.00     0.031 C 
ATOM     31  C   UNL A   1      48.995  29.398  26.965  1.00  0.00     0.029 A 
ATOM     32  C   UNL A   1      48.022  28.409  26.967  1.00  0.00     0.049 A 
ATOM     33  H   UNL A   1      45.970  28.571  27.421  1.00  0.00     0.167 HD
ATOM     34  C   UNL A   1      47.170  26.093  26.647  1.00  0.00     0.074 A 
ATOM     35  C   UNL A   1      47.352  24.698  26.296  1.00  0.00     0.031 C 
ATOM     36  C   UNL A   1      48.168  27.011  26.648  1.00  0.00     0.037 A 
BRANCH  23  37
ATOM     37  C   UNL A   1      46.406  32.736  28.231  1.00  0.00     0.058 A 
ATOM     38  C   UNL A   1      46.793  33.190  29.503  1.00  0.00     0.135 A 
ATOM     39  C   UNL A   1      46.296  33.682  27.200  1.00  0.00     0.135 A 
ATOM     40  F   UNL A   1      46.877  32.329  30.531  1.00  0.00    -0.206 F 
ATOM     41  C   UNL A   1      47.020  34.537  29.755  1.00  0.00     0.059 A 
ATOM     42  C   UNL A   1      46.546  35.032  27.424  1.00  0.00     0.059 A 
ATOM     43  F   UNL A   1      45.915  33.301  25.971  1.00  0.00    -0.206 F 
ATOM     44  C   UNL A   1      46.887  35.452  28.710  1.00  0.00     0.060 A 
BRANCH  44  45
ATOM     45  S   UNL A   1      47.157  37.201  29.058  1.00  0.00     0.124 S 
ATOM     46  O   UNL A   1      47.679  37.148  30.421  1.00  0.00    -0.237 OA
ATOM     47  O   UNL A   1      48.120  37.578  28.028  1.00  0.00    -0.237 OA
ATOM     48  O   UNL A   1      45.828  37.786  28.916  1.00  0.00    -0.744 OA
ENDBRANCH  44  45
ENDBRANCH  23  37
BRANCH  24  49
ATOM     49  C   UNL A   1      43.414  23.243  26.804  1.00  0.00     0.058 A 
ATOM     50  C   UNL A   1      43.136  22.393  27.887  1.00  0.00     0.135 A 
ATOM     51  C   UNL A   1      43.316  22.697  25.514  1.00  0.00     0.135 A 
ATOM     52  F   UNL A   1      43.219  22.859  29.143  1.00  0.00    -0.206 F 
ATOM     53  C   UNL A   1      42.807  21.053  27.703  1.00  0.00     0.059 A 
ATOM     54  C   UNL A   1      42.965  21.365  25.304  1.00  0.00     0.059 A 
ATOM     55  F   UNL A   1      43.555  23.464  24.440  1.00  0.00    -0.206 F 
ATOM     56  C   UNL A   1      42.727  20.545  26.406  1.00  0.00     0.060 A 
BRANCH  56  57
ATOM     57  S   UNL A   1      42.279  18.809  26.175  1.00  0.00     0.124 S 
ATOM     58  O   UNL A   1      43.217  18.398  25.138  1.00  0.00    -0.237 OA
ATOM     59  O   UNL A   1      42.512  18.255  27.506  1.00  0.00    -0.237 OA
ATOM     60  O   UNL A   1      40.877  18.876  25.771  1.00  0.00    -0.744 OA
ENDBRANCH  56  57
ENDBRANCH  24  49
BRANCH  36  61
ATOM     61  C   UNL A   1      49.547  26.533  26.300  1.00  0.00     0.058 A 
ATOM     62  C   UNL A   1      50.073  26.683  25.009  1.00  0.00     0.135 A 
ATOM     63  C   UNL A   1      50.380  25.997  27.295  1.00  0.00     0.135 A 
ATOM     64  F   UNL A   1      49.313  27.187  24.023  1.00  0.00    -0.206 F 
ATOM     65  C   UNL A   1      51.378  26.306  24.711  1.00  0.00     0.059 A 
ATOM     66  C   UNL A   1      51.696  25.638  27.026  1.00  0.00     0.059 A 
ATOM     67  F   UNL A   1      49.924  25.844  28.550  1.00  0.00    -0.206 F 
ATOM     68  C   UNL A   1      52.182  25.790  25.729  1.00  0.00     0.060 A 
BRANCH  68  69
ATOM     69  S   UNL A   1      53.892  25.358  25.345  1.00  0.00     0.124 S 
ATOM     70  O   UNL A   1      54.614  26.045  26.411  1.00  0.00    -0.237 OA
ATOM     71  O   UNL A   1      53.873  23.901  25.428  1.00  0.00    -0.237 OA
ATOM     72  O   UNL A   1      54.085  25.900  24.004  1.00  0.00    -0.744 OA
ENDBRANCH  68  69
ENDBRANCH  36  61
ENDBRANCH  10  11
ENDBRANCH   3   5
ENDBRANCH   2   3
ENDBRANCH   1   2
BRANCH   1  73
ATOM     73  C   UNL A   1      34.864  31.957  28.096  1.00  0.00     0.274 C 
BRANCH  73  74
ATOM     74  O   UNL A   1      33.753  31.147  27.664  1.00  0.00    -0.462 OA
BRANCH  74  75
ATOM     75  C   UNL A   1      34.045  29.873  27.260  1.00  0.00     0.312 C 
ATOM     76  O   UNL A   1      34.799  29.108  27.847  1.00  0.00    -0.252 OA
BRANCH  75  77
ATOM     77  C   UNL A   1      33.293  29.522  25.973  1.00  0.00     0.123 C 
ATOM     78  C   UNL A   1      31.895  29.122  26.294  1.00  0.00    -0.015 C 
ATOM     79  C   UNL A   1      33.783  28.222  25.315  1.00  0.00     0.043 C 
ATOM     80  C   UNL A   1      31.742  27.800  26.363  1.00  0.00    -0.011 C 
ATOM     81  C   UNL A   1      33.013  27.100  26.044  1.00  0.00     0.093 C 
BRANCH  81  82
ATOM     82  N   UNL A   1      32.798  25.936  25.194  1.00  0.00    -0.204 NA
ATOM     83  H   UNL A   1      33.721  25.540  25.016  1.00  0.00     0.142 HD
BRANCH  82  84
ATOM     84  S   UNL A   1      31.818  24.644  25.653  1.00  0.00     0.244 S 
ATOM     85  O   UNL A   1      31.552  24.669  27.077  1.00  0.00    -0.207 OA
ATOM     86  O   UNL A   1      30.718  24.680  24.718  1.00  0.00    -0.207 OA
BRANCH  84  87
ATOM     87  C   UNL A   1      32.722  23.168  25.313  1.00  0.00     0.121 A 
ATOM     88  C   UNL A   1      34.022  23.255  24.793  1.00  0.00     0.028 A 
ATOM     89  C   UNL A   1      32.126  21.922  25.472  1.00  0.00     0.181 A 
ATOM     90  C   UNL A   1      34.734  22.088  24.507  1.00  0.00     0.044 A 
ATOM     91  C   UNL A   1      32.859  20.765  25.249  1.00  0.00     0.195 A 
ATOM     92  F   UNL A   1      30.835  21.797  25.801  1.00  0.00    -0.202 F 
ATOM     93  C   UNL A   1      34.157  20.849  24.769  1.00  0.00     0.161 A 
ATOM     94  F   UNL A   1      32.308  19.565  25.486  1.00  0.00    -0.200 F 
ATOM     95  F   UNL A   1      34.860  19.733  24.530  1.00  0.00    -0.204 F 
ENDBRANCH  84  87
ENDBRANCH  82  84
ENDBRANCH  81  82
ENDBRANCH  75  77
ENDBRANCH  74  75
ENDBRANCH  73  74
ENDBRANCH   1  73
TORSDOF 17
ENDMDL
