MODEL 1
REMARK VINA RESULT:     -11.0      0.000      0.000
REMARK SMILES CC(C)N(c1cc2c(cc1Cl)C=C(C(=O)OCCOC(=O)c1ccc(-c3c4nc(c(-c5c(F)cc(S(=O)(=O)[O-])cc5F)c5ccc([nH]5)c(-c5c(F)cc(S(=O)(=O)[O-])cc5F)c5nc(c(-c6c(F)cc(S(=O)(=O)[O-])cc6F)c6ccc3[nH]6)C=C5)C=C4)cc1)[C@@H](C(F)(F)F)O2)C(C)C
REMARK SMILES IDX 18 1 17 2 16 3 14 4 15 5 13 6 5 7 6 8 10 9 7 10 9 11 11 12
REMARK SMILES IDX 8 13 93 14 12 15 88 16 4 17 2 18 1 19 3 20 94 21 95 22 96 23
REMARK SMILES IDX 89 24 90 25 91 26 92 27 19 28 20 29 21 30 22 31 23 32 87 33
REMARK SMILES IDX 24 34 86 35 25 36 26 37 27 38 80 39 28 40 85 41 79 42 81 43
REMARK SMILES IDX 29 44 84 45 78 46 77 47 30 49 64 50 43 51 63 52 44 53 47 54
REMARK SMILES IDX 62 55 82 56 45 57 46 58 61 60 83 61 48 62 31 63 32 64 41 65
REMARK SMILES IDX 33 66 34 67 40 68 42 69 35 70 36 71 37 72 38 73 39 74 65 75
REMARK SMILES IDX 66 76 75 77 67 78 68 79 74 80 76 81 69 82 70 83 71 84 72 85
REMARK SMILES IDX 73 86 49 87 50 88 59 89 51 90 52 91 58 92 60 93 53 94 54 95
REMARK SMILES IDX 55 96 56 97 57 98
REMARK H PARENT 81 48 47 59
REMARK Flexibility Score: inf
ROOT
ATOM      1  C   UNL A   1      32.805  31.085  27.218  1.00  0.00     0.275 C 
ENDROOT
BRANCH   1   2
ATOM      2  C   UNL A   1      32.436  30.554  25.832  1.00  0.00     0.275 C 
BRANCH   2   3
ATOM      3  O   UNL A   1      31.493  29.461  25.911  1.00  0.00    -0.459 OA
BRANCH   3   4
ATOM      4  C   UNL A   1      31.112  28.943  24.720  1.00  0.00     0.338 C 
ATOM      5  O   UNL A   1      30.368  29.470  23.906  1.00  0.00    -0.246 OA
BRANCH   4   6
ATOM      6  C   UNL A   1      31.766  27.643  24.476  1.00  0.00     0.087 C 
ATOM      7  C   UNL A   1      33.948  23.127  25.147  1.00  0.00     0.060 A 
ATOM      8  C   UNL A   1      33.832  24.028  24.058  1.00  0.00     0.074 A 
ATOM      9  C   UNL A   1      33.286  23.481  26.345  1.00  0.00     0.065 A 
ATOM     10  C   UNL A   1      33.121  25.229  24.159  1.00  0.00     0.130 A 
ATOM     11  C   UNL A   1      32.543  24.656  26.432  1.00  0.00     0.034 A 
ATOM     12  Cl  UNL A   1      33.419  22.586  27.821  1.00  0.00    -0.082 Cl
ATOM     13  C   UNL A   1      32.481  25.533  25.350  1.00  0.00     0.019 A 
ATOM     14  O   UNL A   1      33.088  26.049  23.062  1.00  0.00    -0.475 OA
ATOM     15  C   UNL A   1      31.778  26.783  25.497  1.00  0.00     0.027 C 
ATOM     16  C   UNL A   1      32.505  27.386  23.195  1.00  0.00     0.316 C 
BRANCH   7  17
ATOM     17  N   UNL A   1      34.720  21.956  24.997  1.00  0.00    -0.365 N 
BRANCH  17  18
ATOM     18  C   UNL A   1      36.186  22.123  24.866  1.00  0.00     0.076 C 
ATOM     19  C   UNL A   1      36.605  22.524  23.453  1.00  0.00     0.030 C 
ATOM     20  C   UNL A   1      36.798  23.070  25.896  1.00  0.00     0.030 C 
ENDBRANCH  17  18
BRANCH  17  21
ATOM     21  C   UNL A   1      33.975  20.681  24.995  1.00  0.00     0.076 C 
ATOM     22  C   UNL A   1      32.767  20.696  24.063  1.00  0.00     0.030 C 
ATOM     23  C   UNL A   1      34.867  19.472  24.737  1.00  0.00     0.030 C 
ENDBRANCH  17  21
ENDBRANCH   7  17
BRANCH  16  24
ATOM     24  C   UNL A   1      33.610  28.438  22.991  1.00  0.00     0.430 C 
ATOM     25  F   UNL A   1      34.426  28.107  21.960  1.00  0.00    -0.167 F 
ATOM     26  F   UNL A   1      33.091  29.654  22.692  1.00  0.00    -0.167 F 
ATOM     27  F   UNL A   1      34.386  28.589  24.089  1.00  0.00    -0.167 F 
ENDBRANCH  16  24
ENDBRANCH   4   6
ENDBRANCH   3   4
ENDBRANCH   2   3
ENDBRANCH   1   2
BRANCH   1  28
ATOM     28  O   UNL A   1      34.194  30.844  27.503  1.00  0.00    -0.458 OA
BRANCH  28  29
ATOM     29  C   UNL A   1      34.515  29.563  27.798  1.00  0.00     0.338 C 
ATOM     30  O   UNL A   1      33.794  28.583  27.727  1.00  0.00    -0.246 OA
BRANCH  29  31
ATOM     31  C   UNL A   1      35.941  29.486  28.143  1.00  0.00     0.060 A 
ATOM     32  C   UNL A   1      36.371  29.112  29.411  1.00  0.00     0.016 A 
ATOM     33  C   UNL A   1      36.866  29.667  27.123  1.00  0.00     0.016 A 
ATOM     34  C   UNL A   1      37.743  28.947  29.642  1.00  0.00     0.010 A 
ATOM     35  C   UNL A   1      38.206  29.348  27.313  1.00  0.00     0.010 A 
ATOM     36  C   UNL A   1      38.680  29.029  28.589  1.00  0.00    -0.014 A 
BRANCH  36  37
ATOM     37  C   UNL A   1      40.142  28.825  28.816  1.00  0.00     0.031 A 
ATOM     38  C   UNL A   1      40.809  27.516  28.445  1.00  0.00     0.074 A 
ATOM     39  C   UNL A   1      40.879  29.801  29.388  1.00  0.00     0.049 A 
ATOM     40  N   UNL A   1      42.062  27.156  28.585  1.00  0.00    -0.248 NA
ATOM     41  C   UNL A   1      39.955  26.454  27.887  1.00  0.00     0.031 C 
ATOM     42  C   UNL A   1      40.355  31.075  29.890  1.00  0.00     0.029 A 
ATOM     43  N   UNL A   1      42.228  29.885  29.631  1.00  0.00    -0.354 N 
ATOM     44  C   UNL A   1      42.130  25.829  28.168  1.00  0.00     0.074 A 
ATOM     45  C   UNL A   1      40.782  25.422  27.844  1.00  0.00     0.031 C 
ATOM     46  C   UNL A   1      41.376  31.841  30.304  1.00  0.00     0.029 A 
ATOM     47  C   UNL A   1      42.623  31.101  30.140  1.00  0.00     0.049 A 
ATOM     48  H   UNL A   1      42.854  29.145  29.457  1.00  0.00     0.167 HD
ATOM     49  C   UNL A   1      43.215  25.032  28.016  1.00  0.00     0.037 A 
ATOM     50  C   UNL A   1      43.852  31.577  30.427  1.00  0.00     0.037 A 
ATOM     51  C   UNL A   1      44.566  25.462  28.259  1.00  0.00     0.049 A 
ATOM     52  C   UNL A   1      45.051  30.703  30.187  1.00  0.00     0.074 A 
ATOM     53  C   UNL A   1      45.743  24.765  28.044  1.00  0.00     0.029 A 
ATOM     54  N   UNL A   1      44.921  26.708  28.752  1.00  0.00    -0.354 N 
ATOM     55  N   UNL A   1      45.096  29.475  29.726  1.00  0.00    -0.248 NA
ATOM     56  C   UNL A   1      46.365  31.277  30.504  1.00  0.00     0.031 C 
ATOM     57  C   UNL A   1      46.809  25.582  28.435  1.00  0.00     0.029 A 
ATOM     58  C   UNL A   1      46.299  26.798  28.860  1.00  0.00     0.049 A 
ATOM     59  H   UNL A   1      44.288  27.423  28.991  1.00  0.00     0.167 HD
ATOM     60  C   UNL A   1      46.442  29.131  29.696  1.00  0.00     0.074 A 
ATOM     61  C   UNL A   1      47.180  30.289  30.155  1.00  0.00     0.031 C 
ATOM     62  C   UNL A   1      47.015  27.957  29.330  1.00  0.00     0.037 A 
BRANCH  49  63
ATOM     63  C   UNL A   1      42.990  23.627  27.519  1.00  0.00     0.058 A 
ATOM     64  C   UNL A   1      42.519  22.614  28.372  1.00  0.00     0.135 A 
ATOM     65  C   UNL A   1      43.215  23.293  26.173  1.00  0.00     0.135 A 
ATOM     66  F   UNL A   1      42.300  22.872  29.672  1.00  0.00    -0.206 F 
ATOM     67  C   UNL A   1      42.312  21.315  27.919  1.00  0.00     0.059 A 
ATOM     68  C   UNL A   1      42.985  22.006  25.691  1.00  0.00     0.059 A 
ATOM     69  F   UNL A   1      43.660  24.220  25.312  1.00  0.00    -0.206 F 
ATOM     70  C   UNL A   1      42.549  21.020  26.576  1.00  0.00     0.060 A 
BRANCH  70  71
ATOM     71  S   UNL A   1      42.262  19.331  26.005  1.00  0.00     0.124 S 
ATOM     72  O   UNL A   1      40.814  19.328  25.821  1.00  0.00    -0.237 OA
ATOM     73  O   UNL A   1      43.055  19.277  24.781  1.00  0.00    -0.237 OA
ATOM     74  O   UNL A   1      42.757  18.510  27.106  1.00  0.00    -0.744 OA
ENDBRANCH  70  71
ENDBRANCH  49  63
BRANCH  50  75
ATOM     75  C   UNL A   1      44.006  32.973  30.917  1.00  0.00     0.058 A 
ATOM     76  C   UNL A   1      44.129  34.039  30.014  1.00  0.00     0.135 A 
ATOM     77  C   UNL A   1      43.989  33.276  32.288  1.00  0.00     0.135 A 
ATOM     78  F   UNL A   1      44.158  33.798  28.694  1.00  0.00    -0.206 F 
ATOM     79  C   UNL A   1      44.230  35.356  30.449  1.00  0.00     0.059 A 
ATOM     80  C   UNL A   1      44.065  34.588  32.746  1.00  0.00     0.059 A 
ATOM     81  F   UNL A   1      43.858  32.293  33.192  1.00  0.00    -0.206 F 
ATOM     82  C   UNL A   1      44.189  35.621  31.818  1.00  0.00     0.060 A 
BRANCH  82  83
ATOM     83  S   UNL A   1      44.241  37.342  32.366  1.00  0.00     0.124 S 
ATOM     84  O   UNL A   1      43.851  38.050  31.151  1.00  0.00    -0.237 OA
ATOM     85  O   UNL A   1      43.264  37.348  33.449  1.00  0.00    -0.237 OA
ATOM     86  O   UNL A   1      45.629  37.521  32.782  1.00  0.00    -0.744 OA
ENDBRANCH  82  83
ENDBRANCH  50  75
BRANCH  62  87
ATOM     87  C   UNL A   1      48.511  27.863  29.421  1.00  0.00     0.058 A 
ATOM     88  C   UNL A   1      49.330  28.238  28.344  1.00  0.00     0.135 A 
ATOM     89  C   UNL A   1      49.134  27.448  30.607  1.00  0.00     0.135 A 
ATOM     90  F   UNL A   1      48.782  28.638  27.186  1.00  0.00    -0.206 F 
ATOM     91  C   UNL A   1      50.716  28.183  28.433  1.00  0.00     0.059 A 
ATOM     92  C   UNL A   1      50.519  27.409  30.728  1.00  0.00     0.059 A 
ATOM     93  F   UNL A   1      48.396  27.091  31.671  1.00  0.00    -0.206 F 
ATOM     94  C   UNL A   1      51.302  27.767  29.630  1.00  0.00     0.060 A 
BRANCH  94  95
ATOM     95  S   UNL A   1      53.103  27.726  29.739  1.00  0.00     0.124 S 
ATOM     96  O   UNL A   1      53.304  27.079  31.032  1.00  0.00    -0.237 OA
ATOM     97  O   UNL A   1      53.470  26.934  28.569  1.00  0.00    -0.237 OA
ATOM     98  O   UNL A   1      53.481  29.135  29.678  1.00  0.00    -0.744 OA
ENDBRANCH  94  95
ENDBRANCH  62  87
ENDBRANCH  36  37
ENDBRANCH  29  31
ENDBRANCH  28  29
ENDBRANCH   1  28
TORSDOF 18
ENDMDL
MODEL 2
REMARK VINA RESULT:     -11.0      3.320      7.777
REMARK SMILES CC(C)N(c1cc2c(cc1Cl)C=C(C(=O)OCCOC(=O)c1ccc(-c3c4nc(c(-c5c(F)cc(S(=O)(=O)[O-])cc5F)c5ccc([nH]5)c(-c5c(F)cc(S(=O)(=O)[O-])cc5F)c5nc(c(-c6c(F)cc(S(=O)(=O)[O-])cc6F)c6ccc3[nH]6)C=C5)C=C4)cc1)[C@@H](C(F)(F)F)O2)C(C)C
REMARK SMILES IDX 18 1 17 2 16 3 14 4 15 5 13 6 5 7 6 8 10 9 7 10 9 11 11 12
REMARK SMILES IDX 8 13 93 14 12 15 88 16 4 17 2 18 1 19 3 20 94 21 95 22 96 23
REMARK SMILES IDX 89 24 90 25 91 26 92 27 19 28 20 29 21 30 22 31 23 32 87 33
REMARK SMILES IDX 24 34 86 35 25 36 26 37 27 38 80 39 28 40 85 41 79 42 81 43
REMARK SMILES IDX 29 44 84 45 78 46 77 47 30 49 64 50 43 51 63 52 44 53 47 54
REMARK SMILES IDX 62 55 82 56 45 57 46 58 61 60 83 61 48 62 31 63 32 64 41 65
REMARK SMILES IDX 33 66 34 67 40 68 42 69 35 70 36 71 37 72 38 73 39 74 65 75
REMARK SMILES IDX 66 76 75 77 67 78 68 79 74 80 76 81 69 82 70 83 71 84 72 85
REMARK SMILES IDX 73 86 49 87 50 88 59 89 51 90 52 91 58 92 60 93 53 94 54 95
REMARK SMILES IDX 55 96 56 97 57 98
REMARK H PARENT 81 48 47 59
REMARK Flexibility Score: inf
ROOT
ATOM      1  C   UNL A   1      37.798  21.242  24.974  1.00  0.00     0.275 C 
ENDROOT
BRANCH   1   2
ATOM      2  C   UNL A   1      36.360  20.915  25.380  1.00  0.00     0.275 C 
BRANCH   2   3
ATOM      3  O   UNL A   1      35.436  21.113  24.286  1.00  0.00    -0.459 OA
BRANCH   3   4
ATOM      4  C   UNL A   1      34.130  20.951  24.599  1.00  0.00     0.338 C 
ATOM      5  O   UNL A   1      33.553  19.887  24.767  1.00  0.00    -0.246 OA
BRANCH   4   6
ATOM      6  C   UNL A   1      33.464  22.255  24.782  1.00  0.00     0.087 C 
ATOM      7  C   UNL A   1      32.275  27.163  24.458  1.00  0.00     0.060 A 
ATOM      8  C   UNL A   1      31.899  26.099  25.317  1.00  0.00     0.074 A 
ATOM      9  C   UNL A   1      33.146  26.847  23.390  1.00  0.00     0.065 A 
ATOM     10  C   UNL A   1      32.382  24.797  25.143  1.00  0.00     0.130 A 
ATOM     11  C   UNL A   1      33.592  25.542  23.192  1.00  0.00     0.034 A 
ATOM     12  Cl  UNL A   1      33.825  28.026  22.319  1.00  0.00    -0.082 Cl
ATOM     13  C   UNL A   1      33.227  24.530  24.078  1.00  0.00     0.019 A 
ATOM     14  O   UNL A   1      31.985  23.841  26.040  1.00  0.00    -0.475 OA
ATOM     15  C   UNL A   1      33.775  23.208  23.900  1.00  0.00     0.027 C 
ATOM     16  C   UNL A   1      32.611  22.517  25.989  1.00  0.00     0.316 C 
BRANCH   7  17
ATOM     17  N   UNL A   1      31.793  28.463  24.716  1.00  0.00    -0.365 N 
BRANCH  17  18
ATOM     18  C   UNL A   1      30.793  29.014  23.772  1.00  0.00     0.076 C 
ATOM     19  C   UNL A   1      29.695  28.008  23.430  1.00  0.00     0.030 C 
ATOM     20  C   UNL A   1      30.183  30.342  24.218  1.00  0.00     0.030 C 
ENDBRANCH  17  18
BRANCH  17  21
ATOM     21  C   UNL A   1      32.338  29.134  25.913  1.00  0.00     0.076 C 
ATOM     22  C   UNL A   1      31.632  28.723  27.201  1.00  0.00     0.030 C 
ATOM     23  C   UNL A   1      33.852  28.997  26.034  1.00  0.00     0.030 C 
ENDBRANCH  17  21
ENDBRANCH   7  17
BRANCH  16  24
ATOM     24  C   UNL A   1      33.420  22.295  27.279  1.00  0.00     0.430 C 
ATOM     25  F   UNL A   1      34.603  22.955  27.242  1.00  0.00    -0.167 F 
ATOM     26  F   UNL A   1      32.758  22.757  28.367  1.00  0.00    -0.167 F 
ATOM     27  F   UNL A   1      33.692  20.988  27.497  1.00  0.00    -0.167 F 
ENDBRANCH  16  24
ENDBRANCH   4   6
ENDBRANCH   3   4
ENDBRANCH   2   3
ENDBRANCH   1   2
BRANCH   1  28
ATOM     28  O   UNL A   1      38.315  22.328  25.762  1.00  0.00    -0.458 OA
BRANCH  28  29
ATOM     29  C   UNL A   1      39.402  22.036  26.515  1.00  0.00     0.338 C 
ATOM     30  O   UNL A   1      39.922  20.945  26.673  1.00  0.00    -0.246 OA
BRANCH  29  31
ATOM     31  C   UNL A   1      39.957  23.278  27.069  1.00  0.00     0.060 A 
ATOM     32  C   UNL A   1      40.963  23.269  28.028  1.00  0.00     0.016 A 
ATOM     33  C   UNL A   1      39.545  24.480  26.509  1.00  0.00     0.016 A 
ATOM     34  C   UNL A   1      41.529  24.486  28.431  1.00  0.00     0.010 A 
ATOM     35  C   UNL A   1      40.216  25.664  26.792  1.00  0.00     0.010 A 
ATOM     36  C   UNL A   1      41.189  25.700  27.795  1.00  0.00    -0.014 A 
BRANCH  36  37
ATOM     37  C   UNL A   1      41.807  27.000  28.194  1.00  0.00     0.031 A 
ATOM     38  C   UNL A   1      43.255  27.303  27.865  1.00  0.00     0.074 A 
ATOM     39  C   UNL A   1      41.084  27.907  28.884  1.00  0.00     0.049 A 
ATOM     40  N   UNL A   1      43.962  28.371  28.146  1.00  0.00    -0.248 NA
ATOM     41  C   UNL A   1      44.026  26.258  27.171  1.00  0.00     0.031 C 
ATOM     42  C   UNL A   1      39.711  27.713  29.360  1.00  0.00     0.029 A 
ATOM     43  N   UNL A   1      41.394  29.181  29.295  1.00  0.00    -0.354 N 
ATOM     44  C   UNL A   1      45.253  28.106  27.696  1.00  0.00     0.074 A 
ATOM     45  C   UNL A   1      45.254  26.751  27.196  1.00  0.00     0.031 C 
ATOM     46  C   UNL A   1      39.273  28.850  29.923  1.00  0.00     0.029 A 
ATOM     47  C   UNL A   1      40.343  29.841  29.889  1.00  0.00     0.049 A 
ATOM     48  H   UNL A   1      42.284  29.583  29.174  1.00  0.00     0.167 HD
ATOM     49  C   UNL A   1      46.331  28.925  27.653  1.00  0.00     0.037 A 
ATOM     50  C   UNL A   1      40.243  31.107  30.341  1.00  0.00     0.037 A 
ATOM     51  C   UNL A   1      46.311  30.301  28.075  1.00  0.00     0.049 A 
ATOM     52  C   UNL A   1      41.428  32.024  30.221  1.00  0.00     0.074 A 
ATOM     53  C   UNL A   1      47.319  31.244  27.984  1.00  0.00     0.029 A 
ATOM     54  N   UNL A   1      45.219  30.934  28.649  1.00  0.00    -0.354 N 
ATOM     55  N   UNL A   1      42.617  31.772  29.729  1.00  0.00    -0.248 NA
ATOM     56  C   UNL A   1      41.258  33.397  30.717  1.00  0.00     0.031 C 
ATOM     57  C   UNL A   1      46.845  32.442  28.531  1.00  0.00     0.029 A 
ATOM     58  C   UNL A   1      45.531  32.253  28.929  1.00  0.00     0.049 A 
ATOM     59  H   UNL A   1      44.351  30.509  28.832  1.00  0.00     0.167 HD
ATOM     60  C   UNL A   1      43.337  32.954  29.853  1.00  0.00     0.074 A 
ATOM     61  C   UNL A   1      42.441  33.930  30.439  1.00  0.00     0.031 C 
ATOM     62  C   UNL A   1      44.628  33.207  29.522  1.00  0.00     0.037 A 
BRANCH  49  63
ATOM     63  C   UNL A   1      47.613  28.371  27.086  1.00  0.00     0.058 A 
ATOM     64  C   UNL A   1      48.662  27.949  27.920  1.00  0.00     0.135 A 
ATOM     65  C   UNL A   1      47.785  28.227  25.699  1.00  0.00     0.135 A 
ATOM     66  F   UNL A   1      48.558  28.076  29.254  1.00  0.00    -0.206 F 
ATOM     67  C   UNL A   1      49.848  27.439  27.402  1.00  0.00     0.059 A 
ATOM     68  C   UNL A   1      48.952  27.690  25.159  1.00  0.00     0.059 A 
ATOM     69  F   UNL A   1      46.816  28.608  24.854  1.00  0.00    -0.206 F 
ATOM     70  C   UNL A   1      49.984  27.313  26.019  1.00  0.00     0.060 A 
BRANCH  70  71
ATOM     71  S   UNL A   1      51.526  26.637  25.367  1.00  0.00     0.124 S 
ATOM     72  O   UNL A   1      51.354  26.850  23.932  1.00  0.00    -0.237 OA
ATOM     73  O   UNL A   1      52.532  27.475  26.014  1.00  0.00    -0.237 OA
ATOM     74  O   UNL A   1      51.500  25.245  25.802  1.00  0.00    -0.744 OA
ENDBRANCH  70  71
ENDBRANCH  49  63
BRANCH  50  75
ATOM     75  C   UNL A   1      38.949  31.594  30.893  1.00  0.00     0.058 A 
ATOM     76  C   UNL A   1      38.690  31.532  32.269  1.00  0.00     0.135 A 
ATOM     77  C   UNL A   1      37.970  32.169  30.068  1.00  0.00     0.135 A 
ATOM     78  F   UNL A   1      39.593  30.984  33.097  1.00  0.00    -0.206 F 
ATOM     79  C   UNL A   1      37.506  32.022  32.812  1.00  0.00     0.059 A 
ATOM     80  C   UNL A   1      36.788  32.687  30.590  1.00  0.00     0.059 A 
ATOM     81  F   UNL A   1      38.177  32.266  28.746  1.00  0.00    -0.206 F 
ATOM     82  C   UNL A   1      36.565  32.605  31.964  1.00  0.00     0.060 A 
BRANCH  82  83
ATOM     83  S   UNL A   1      35.068  33.308  32.691  1.00  0.00     0.124 S 
ATOM     84  O   UNL A   1      35.247  32.988  34.104  1.00  0.00    -0.237 OA
ATOM     85  O   UNL A   1      35.189  34.719  32.336  1.00  0.00    -0.237 OA
ATOM     86  O   UNL A   1      33.994  32.589  32.013  1.00  0.00    -0.744 OA
ENDBRANCH  82  83
ENDBRANCH  50  75
BRANCH  62  87
ATOM     87  C   UNL A   1      45.151  34.588  29.793  1.00  0.00     0.058 A 
ATOM     88  C   UNL A   1      45.786  34.901  31.005  1.00  0.00     0.135 A 
ATOM     89  C   UNL A   1      45.065  35.593  28.818  1.00  0.00     0.135 A 
ATOM     90  F   UNL A   1      45.889  33.976  31.972  1.00  0.00    -0.206 F 
ATOM     91  C   UNL A   1      46.300  36.170  31.250  1.00  0.00     0.059 A 
ATOM     92  C   UNL A   1      45.594  36.862  29.030  1.00  0.00     0.059 A 
ATOM     93  F   UNL A   1      44.478  35.342  27.636  1.00  0.00    -0.206 F 
ATOM     94  C   UNL A   1      46.199  37.144  30.255  1.00  0.00     0.060 A 
BRANCH  94  95
ATOM     95  S   UNL A   1      46.893  38.779  30.576  1.00  0.00     0.124 S 
ATOM     96  O   UNL A   1      45.945  39.314  31.549  1.00  0.00    -0.237 OA
ATOM     97  O   UNL A   1      48.220  38.458  31.094  1.00  0.00    -0.237 OA
ATOM     98  O   UNL A   1      46.877  39.420  29.265  1.00  0.00    -0.744 OA
ENDBRANCH  94  95
ENDBRANCH  62  87
ENDBRANCH  36  37
ENDBRANCH  29  31
ENDBRANCH  28  29
ENDBRANCH   1  28
TORSDOF 18
ENDMDL
MODEL 3
REMARK VINA RESULT:     -10.9      2.242      8.355
REMARK SMILES CC(C)N(c1cc2c(cc1Cl)C=C(C(=O)OCCOC(=O)c1ccc(-c3c4nc(c(-c5c(F)cc(S(=O)(=O)[O-])cc5F)c5ccc([nH]5)c(-c5c(F)cc(S(=O)(=O)[O-])cc5F)c5nc(c(-c6c(F)cc(S(=O)(=O)[O-])cc6F)c6ccc3[nH]6)C=C5)C=C4)cc1)[C@@H](C(F)(F)F)O2)C(C)C
REMARK SMILES IDX 18 1 17 2 16 3 14 4 15 5 13 6 5 7 6 8 10 9 7 10 9 11 11 12
REMARK SMILES IDX 8 13 93 14 12 15 88 16 4 17 2 18 1 19 3 20 94 21 95 22 96 23
REMARK SMILES IDX 89 24 90 25 91 26 92 27 19 28 20 29 21 30 22 31 23 32 87 33
REMARK SMILES IDX 24 34 86 35 25 36 26 37 27 38 80 39 28 40 85 41 79 42 81 43
REMARK SMILES IDX 29 44 84 45 78 46 77 47 30 49 64 50 43 51 63 52 44 53 47 54
REMARK SMILES IDX 62 55 82 56 45 57 46 58 61 60 83 61 48 62 31 63 32 64 41 65
REMARK SMILES IDX 33 66 34 67 40 68 42 69 35 70 36 71 37 72 38 73 39 74 65 75
REMARK SMILES IDX 66 76 75 77 67 78 68 79 74 80 76 81 69 82 70 83 71 84 72 85
REMARK SMILES IDX 73 86 49 87 50 88 59 89 51 90 52 91 58 92 60 93 53 94 54 95
REMARK SMILES IDX 55 96 56 97 57 98
REMARK H PARENT 81 48 47 59
REMARK Flexibility Score: inf
ROOT
ATOM      1  C   UNL A   1      34.586  29.386  27.963  1.00  0.00     0.275 C 
ENDROOT
BRANCH   1   2
ATOM      2  C   UNL A   1      33.457  30.162  27.283  1.00  0.00     0.275 C 
BRANCH   2   3
ATOM      3  O   UNL A   1      32.254  29.367  27.170  1.00  0.00    -0.459 OA
BRANCH   3   4
ATOM      4  C   UNL A   1      31.777  29.221  25.912  1.00  0.00     0.338 C 
ATOM      5  O   UNL A   1      31.242  30.087  25.236  1.00  0.00    -0.246 OA
BRANCH   4   6
ATOM      6  C   UNL A   1      32.037  27.861  25.402  1.00  0.00     0.087 C 
ATOM      7  C   UNL A   1      33.214  22.947  25.119  1.00  0.00     0.060 A 
ATOM      8  C   UNL A   1      33.056  23.993  24.174  1.00  0.00     0.074 A 
ATOM      9  C   UNL A   1      32.953  23.263  26.473  1.00  0.00     0.065 A 
ATOM     10  C   UNL A   1      32.685  25.288  24.552  1.00  0.00     0.130 A 
ATOM     11  C   UNL A   1      32.543  24.542  26.844  1.00  0.00     0.034 A 
ATOM     12  Cl  UNL A   1      33.220  22.168  27.787  1.00  0.00    -0.082 Cl
ATOM     13  C   UNL A   1      32.432  25.551  25.889  1.00  0.00     0.019 A 
ATOM     14  O   UNL A   1      32.585  26.238  23.571  1.00  0.00    -0.475 OA
ATOM     15  C   UNL A   1      32.091  26.886  26.314  1.00  0.00     0.027 C 
ATOM     16  C   UNL A   1      32.374  27.636  23.957  1.00  0.00     0.316 C 
BRANCH   7  17
ATOM     17  N   UNL A   1      33.637  21.676  24.681  1.00  0.00    -0.365 N 
BRANCH  17  18
ATOM     18  C   UNL A   1      35.090  21.482  24.465  1.00  0.00     0.076 C 
ATOM     19  C   UNL A   1      35.696  22.563  23.570  1.00  0.00     0.030 C 
ATOM     20  C   UNL A   1      35.896  21.337  25.753  1.00  0.00     0.030 C 
ENDBRANCH  17  18
BRANCH  17  21
ATOM     21  C   UNL A   1      32.577  20.666  24.492  1.00  0.00     0.076 C 
ATOM     22  C   UNL A   1      32.155  20.508  23.035  1.00  0.00     0.030 C 
ATOM     23  C   UNL A   1      32.916  19.321  25.126  1.00  0.00     0.030 C 
ENDBRANCH  17  21
ENDBRANCH   7  17
BRANCH  16  24
ATOM     24  C   UNL A   1      33.612  28.458  23.558  1.00  0.00     0.430 C 
ATOM     25  F   UNL A   1      34.474  28.591  24.595  1.00  0.00    -0.167 F 
ATOM     26  F   UNL A   1      34.306  27.861  22.559  1.00  0.00    -0.167 F 
ATOM     27  F   UNL A   1      33.290  29.703  23.137  1.00  0.00    -0.167 F 
ENDBRANCH  16  24
ENDBRANCH   4   6
ENDBRANCH   3   4
ENDBRANCH   2   3
ENDBRANCH   1   2
BRANCH   1  28
ATOM     28  O   UNL A   1      35.627  30.279  28.396  1.00  0.00    -0.458 OA
BRANCH  28  29
ATOM     29  C   UNL A   1      36.276  29.913  29.526  1.00  0.00     0.338 C 
ATOM     30  O   UNL A   1      35.790  29.691  30.621  1.00  0.00    -0.246 OA
BRANCH  29  31
ATOM     31  C   UNL A   1      37.701  29.716  29.226  1.00  0.00     0.060 A 
ATOM     32  C   UNL A   1      38.616  29.357  30.209  1.00  0.00     0.016 A 
ATOM     33  C   UNL A   1      38.097  29.765  27.896  1.00  0.00     0.016 A 
ATOM     34  C   UNL A   1      39.937  29.073  29.836  1.00  0.00     0.010 A 
ATOM     35  C   UNL A   1      39.360  29.328  27.512  1.00  0.00     0.010 A 
ATOM     36  C   UNL A   1      40.322  29.021  28.480  1.00  0.00    -0.014 A 
BRANCH  36  37
ATOM     37  C   UNL A   1      41.719  28.688  28.068  1.00  0.00     0.031 A 
ATOM     38  C   UNL A   1      42.798  29.752  28.058  1.00  0.00     0.074 A 
ATOM     39  C   UNL A   1      42.024  27.436  27.668  1.00  0.00     0.049 A 
ATOM     40  N   UNL A   1      44.060  29.649  27.716  1.00  0.00    -0.248 NA
ATOM     41  C   UNL A   1      42.406  31.119  28.438  1.00  0.00     0.031 C 
ATOM     42  C   UNL A   1      41.068  26.333  27.528  1.00  0.00     0.029 A 
ATOM     43  N   UNL A   1      43.226  26.870  27.318  1.00  0.00    -0.354 N 
ATOM     44  C   UNL A   1      44.589  30.933  27.806  1.00  0.00     0.074 A 
ATOM     45  C   UNL A   1      43.498  31.813  28.158  1.00  0.00     0.031 C 
ATOM     46  C   UNL A   1      41.730  25.212  27.203  1.00  0.00     0.029 A 
ATOM     47  C   UNL A   1      43.149  25.519  27.067  1.00  0.00     0.049 A 
ATOM     48  H   UNL A   1      44.064  27.384  27.254  1.00  0.00     0.167 HD
ATOM     49  C   UNL A   1      45.871  31.345  27.662  1.00  0.00     0.037 A 
ATOM     50  C   UNL A   1      44.114  24.623  26.778  1.00  0.00     0.037 A 
ATOM     51  C   UNL A   1      46.972  30.459  27.392  1.00  0.00     0.049 A 
ATOM     52  C   UNL A   1      45.542  25.085  26.690  1.00  0.00     0.074 A 
ATOM     53  C   UNL A   1      48.322  30.759  27.322  1.00  0.00     0.029 A 
ATOM     54  N   UNL A   1      46.852  29.096  27.168  1.00  0.00    -0.354 N 
ATOM     55  N   UNL A   1      46.028  26.293  26.848  1.00  0.00    -0.248 NA
ATOM     56  C   UNL A   1      46.553  24.063  26.386  1.00  0.00     0.031 C 
ATOM     57  C   UNL A   1      49.015  29.579  27.027  1.00  0.00     0.029 A 
ATOM     58  C   UNL A   1      48.101  28.541  26.948  1.00  0.00     0.049 A 
ATOM     59  H   UNL A   1      46.004  28.596  27.164  1.00  0.00     0.167 HD
ATOM     60  C   UNL A   1      47.400  26.177  26.664  1.00  0.00     0.074 A 
ATOM     61  C   UNL A   1      47.671  24.777  26.414  1.00  0.00     0.031 C 
ATOM     62  C   UNL A   1      48.350  27.145  26.690  1.00  0.00     0.037 A 
BRANCH  49  63
ATOM     63  C   UNL A   1      46.163  32.813  27.839  1.00  0.00     0.058 A 
ATOM     64  C   UNL A   1      46.635  33.325  29.060  1.00  0.00     0.135 A 
ATOM     65  C   UNL A   1      46.002  33.714  26.774  1.00  0.00     0.135 A 
ATOM     66  F   UNL A   1      46.794  32.512  30.118  1.00  0.00    -0.206 F 
ATOM     67  C   UNL A   1      46.903  34.679  29.230  1.00  0.00     0.059 A 
ATOM     68  C   UNL A   1      46.294  35.069  26.912  1.00  0.00     0.059 A 
ATOM     69  F   UNL A   1      45.560  33.282  25.584  1.00  0.00    -0.206 F 
ATOM     70  C   UNL A   1      46.729  35.545  28.149  1.00  0.00     0.060 A 
BRANCH  70  71
ATOM     71  S   UNL A   1      47.095  37.297  28.386  1.00  0.00     0.124 S 
ATOM     72  O   UNL A   1      47.139  37.390  29.843  1.00  0.00    -0.237 OA
ATOM     73  O   UNL A   1      48.377  37.443  27.704  1.00  0.00    -0.237 OA
ATOM     74  O   UNL A   1      45.969  37.971  27.749  1.00  0.00    -0.744 OA
ENDBRANCH  70  71
ENDBRANCH  49  63
BRANCH  50  75
ATOM     75  C   UNL A   1      43.761  23.187  26.611  1.00  0.00     0.058 A 
ATOM     76  C   UNL A   1      43.386  22.410  27.717  1.00  0.00     0.135 A 
ATOM     77  C   UNL A   1      43.746  22.577  25.347  1.00  0.00     0.135 A 
ATOM     78  F   UNL A   1      43.392  22.946  28.946  1.00  0.00    -0.206 F 
ATOM     79  C   UNL A   1      43.009  21.078  27.577  1.00  0.00     0.059 A 
ATOM     80  C   UNL A   1      43.350  21.253  25.180  1.00  0.00     0.059 A 
ATOM     81  F   UNL A   1      44.081  23.283  24.256  1.00  0.00    -0.206 F 
ATOM     82  C   UNL A   1      42.987  20.510  26.303  1.00  0.00     0.060 A 
BRANCH  82  83
ATOM     83  S   UNL A   1      42.419  18.804  26.128  1.00  0.00     0.124 S 
ATOM     84  O   UNL A   1      42.656  18.276  27.468  1.00  0.00    -0.237 OA
ATOM     85  O   UNL A   1      41.021  18.984  25.751  1.00  0.00    -0.237 OA
ATOM     86  O   UNL A   1      43.280  18.269  25.078  1.00  0.00    -0.744 OA
ENDBRANCH  82  83
ENDBRANCH  50  75
BRANCH  62  87
ATOM     87  C   UNL A   1      49.769  26.725  26.433  1.00  0.00     0.058 A 
ATOM     88  C   UNL A   1      50.325  26.789  25.146  1.00  0.00     0.135 A 
ATOM     89  C   UNL A   1      50.596  26.305  27.486  1.00  0.00     0.135 A 
ATOM     90  F   UNL A   1      49.573  27.179  24.104  1.00  0.00    -0.206 F 
ATOM     91  C   UNL A   1      51.646  26.430  24.907  1.00  0.00     0.059 A 
ATOM     92  C   UNL A   1      51.928  25.966  27.276  1.00  0.00     0.059 A 
ATOM     93  F   UNL A   1      50.116  26.238  28.739  1.00  0.00    -0.206 F 
ATOM     94  C   UNL A   1      52.441  26.020  25.980  1.00  0.00     0.060 A 
BRANCH  94  95
ATOM     95  S   UNL A   1      54.162  25.583  25.659  1.00  0.00     0.124 S 
ATOM     96  O   UNL A   1      54.499  24.818  26.856  1.00  0.00    -0.237 OA
ATOM     97  O   UNL A   1      54.064  24.814  24.421  1.00  0.00    -0.237 OA
ATOM     98  O   UNL A   1      54.825  26.878  25.534  1.00  0.00    -0.744 OA
ENDBRANCH  94  95
ENDBRANCH  62  87
ENDBRANCH  36  37
ENDBRANCH  29  31
ENDBRANCH  28  29
ENDBRANCH   1  28
TORSDOF 18
ENDMDL
