MODEL 1
REMARK VINA RESULT:     -11.9      0.000      0.000
REMARK SMILES Cc1ccnc(C(=O)c2[nH]c3cc(F)ccc3c2CC(=O)OCCOC(=O)c2ccc(-c3c4nc(c(-c5c(F)cc(S(=O)(=O)[O-])cc5F)c5ccc([nH]5)c(-c5c(F)cc(S(=O)(=O)[O-])cc5F)c5nc(c(-c6c(F)cc(S(=O)(=O)[O-])cc6F)c6ccc3[nH]6)C=C5)C=C4)cc2)c1
REMARK SMILES IDX 23 1 22 2 20 3 21 4 19 5 18 6 9 7 10 8 11 9 17 11 12 12
REMARK SMILES IDX 16 13 13 14 15 15 14 16 7 17 8 18 6 19 1 20 2 21 3 22 94 23
REMARK SMILES IDX 4 24 5 25 24 26 25 27 26 28 27 29 28 30 29 31 93 32 30 33
REMARK SMILES IDX 92 34 31 35 32 36 33 37 86 38 34 39 91 40 85 41 87 42 35 43
REMARK SMILES IDX 90 44 84 45 83 46 36 48 70 49 49 50 69 51 50 52 53 53 68 54
REMARK SMILES IDX 88 55 51 56 52 57 67 59 89 60 54 61 37 62 38 63 47 64 39 65
REMARK SMILES IDX 40 66 46 67 48 68 41 69 42 70 43 71 44 72 45 73 71 74 72 75
REMARK SMILES IDX 81 76 73 77 74 78 80 79 82 80 75 81 76 82 77 83 78 84 79 85
REMARK SMILES IDX 55 86 56 87 65 88 57 89 58 90 64 91 66 92 59 93 60 94 61 95
REMARK SMILES IDX 62 96 63 97
REMARK H PARENT 10 10 87 47 53 58
REMARK Flexibility Score: inf
ROOT
ATOM      1  C   UNL A   1      32.070  27.151  26.847  1.00  0.00     0.274 C 
ENDROOT
BRANCH   1   2
ATOM      2  O   UNL A   1      30.738  27.158  26.285  1.00  0.00    -0.462 OA
BRANCH   2   3
ATOM      3  C   UNL A   1      30.286  25.972  25.809  1.00  0.00     0.310 C 
ATOM      4  O   UNL A   1      29.917  25.044  26.528  1.00  0.00    -0.252 OA
BRANCH   3   5
ATOM      5  C   UNL A   1      30.115  25.900  24.308  1.00  0.00     0.161 C 
BRANCH   5   6
ATOM      6  C   UNL A   1      30.443  27.087  23.458  1.00  0.00     0.000 A 
ATOM      7  C   UNL A   1      31.698  27.558  23.074  1.00  0.00     0.093 A 
ATOM      8  N   UNL A   1      31.498  28.721  22.369  1.00  0.00    -0.351 N 
ATOM      9  C   UNL A   1      30.181  29.090  22.391  1.00  0.00     0.049 A 
ATOM     10  H   UNL A   1      32.209  29.222  21.908  1.00  0.00     0.167 HD
ATOM     11  C   UNL A   1      29.479  28.056  23.006  1.00  0.00     0.004 A 
ATOM     12  C   UNL A   1      29.569  30.251  21.910  1.00  0.00     0.066 A 
ATOM     13  C   UNL A   1      28.074  28.170  23.108  1.00  0.00     0.013 A 
ATOM     14  C   UNL A   1      28.187  30.340  22.046  1.00  0.00     0.125 A 
ATOM     15  C   UNL A   1      27.441  29.320  22.619  1.00  0.00     0.040 A 
ATOM     16  F   UNL A   1      27.564  31.443  21.607  1.00  0.00    -0.207 F 
BRANCH   7  17
ATOM     17  C   UNL A   1      33.058  27.053  23.218  1.00  0.00     0.227 C 
ATOM     18  O   UNL A   1      33.971  27.835  23.478  1.00  0.00    -0.285 OA
BRANCH  17  19
ATOM     19  C   UNL A   1      33.301  25.563  23.341  1.00  0.00     0.113 A 
ATOM     20  C   UNL A   1      35.354  23.093  25.375  1.00  0.00     0.044 C 
ATOM     21  C   UNL A   1      34.461  23.697  24.331  1.00  0.00    -0.047 A 
ATOM     22  C   UNL A   1      34.096  22.934  23.221  1.00  0.00     0.023 A 
ATOM     23  C   UNL A   1      34.038  25.031  24.402  1.00  0.00     0.036 A 
ATOM     24  C   UNL A   1      33.339  23.531  22.229  1.00  0.00     0.112 A 
ATOM     25  N   UNL A   1      32.944  24.819  22.259  1.00  0.00    -0.253 NA
ENDBRANCH  17  19
ENDBRANCH   7  17
ENDBRANCH   5   6
ENDBRANCH   3   5
ENDBRANCH   2   3
ENDBRANCH   1   2
BRANCH   1  26
ATOM     26  C   UNL A   1      32.613  28.575  27.054  1.00  0.00     0.275 C 
BRANCH  26  27
ATOM     27  O   UNL A   1      34.041  28.613  27.271  1.00  0.00    -0.458 OA
BRANCH  27  28
ATOM     28  C   UNL A   1      34.481  29.812  27.698  1.00  0.00     0.338 C 
ATOM     29  O   UNL A   1      33.809  30.832  27.804  1.00  0.00    -0.246 OA
BRANCH  28  30
ATOM     30  C   UNL A   1      35.858  29.808  28.180  1.00  0.00     0.060 A 
ATOM     31  C   UNL A   1      36.857  30.021  27.230  1.00  0.00     0.016 A 
ATOM     32  C   UNL A   1      36.172  29.323  29.450  1.00  0.00     0.016 A 
ATOM     33  C   UNL A   1      38.166  29.664  27.515  1.00  0.00     0.010 A 
ATOM     34  C   UNL A   1      37.508  29.041  29.762  1.00  0.00     0.010 A 
ATOM     35  C   UNL A   1      38.508  29.180  28.786  1.00  0.00    -0.014 A 
BRANCH  35  36
ATOM     36  C   UNL A   1      39.935  28.886  29.059  1.00  0.00     0.031 A 
ATOM     37  C   UNL A   1      40.539  27.550  28.734  1.00  0.00     0.074 A 
ATOM     38  C   UNL A   1      40.708  29.891  29.516  1.00  0.00     0.049 A 
ATOM     39  N   UNL A   1      41.790  27.173  28.813  1.00  0.00    -0.248 NA
ATOM     40  C   UNL A   1      39.630  26.504  28.246  1.00  0.00     0.031 C 
ATOM     41  C   UNL A   1      40.228  31.237  29.842  1.00  0.00     0.029 A 
ATOM     42  N   UNL A   1      42.054  29.948  29.757  1.00  0.00    -0.354 N 
ATOM     43  C   UNL A   1      41.824  25.858  28.366  1.00  0.00     0.074 A 
ATOM     44  C   UNL A   1      40.460  25.488  28.046  1.00  0.00     0.031 C 
ATOM     45  C   UNL A   1      41.270  31.997  30.207  1.00  0.00     0.029 A 
ATOM     46  C   UNL A   1      42.477  31.181  30.191  1.00  0.00     0.049 A 
ATOM     47  H   UNL A   1      42.659  29.183  29.630  1.00  0.00     0.167 HD
ATOM     48  C   UNL A   1      42.895  25.040  28.230  1.00  0.00     0.037 A 
ATOM     49  C   UNL A   1      43.700  31.604  30.557  1.00  0.00     0.037 A 
ATOM     50  C   UNL A   1      44.243  25.401  28.591  1.00  0.00     0.049 A 
ATOM     51  C   UNL A   1      44.850  30.645  30.487  1.00  0.00     0.074 A 
ATOM     52  C   UNL A   1      45.394  24.634  28.516  1.00  0.00     0.029 A 
ATOM     53  N   UNL A   1      44.620  26.631  29.110  1.00  0.00    -0.354 N 
ATOM     54  N   UNL A   1      44.864  29.406  30.057  1.00  0.00    -0.248 NA
ATOM     55  C   UNL A   1      46.149  31.138  30.961  1.00  0.00     0.031 C 
ATOM     56  C   UNL A   1      46.459  25.389  29.024  1.00  0.00     0.029 A 
ATOM     57  C   UNL A   1      45.978  26.636  29.383  1.00  0.00     0.049 A 
ATOM     58  H   UNL A   1      44.012  27.390  29.262  1.00  0.00     0.167 HD
ATOM     59  C   UNL A   1      46.171  28.968  30.211  1.00  0.00     0.074 A 
ATOM     60  C   UNL A   1      46.926  30.084  30.748  1.00  0.00     0.031 C 
ATOM     61  C   UNL A   1      46.702  27.750  29.940  1.00  0.00     0.037 A 
BRANCH  48  62
ATOM     62  C   UNL A   1      42.658  23.663  27.677  1.00  0.00     0.058 A 
ATOM     63  C   UNL A   1      42.663  23.425  26.294  1.00  0.00     0.135 A 
ATOM     64  C   UNL A   1      42.487  22.564  28.533  1.00  0.00     0.135 A 
ATOM     65  F   UNL A   1      42.799  24.445  25.432  1.00  0.00    -0.206 F 
ATOM     66  C   UNL A   1      42.505  22.142  25.778  1.00  0.00     0.059 A 
ATOM     67  C   UNL A   1      42.339  21.271  28.039  1.00  0.00     0.059 A 
ATOM     68  F   UNL A   1      42.466  22.742  29.863  1.00  0.00    -0.206 F 
ATOM     69  C   UNL A   1      42.345  21.071  26.660  1.00  0.00     0.060 A 
BRANCH  69  70
ATOM     70  S   UNL A   1      42.155  19.412  25.972  1.00  0.00     0.124 S 
ATOM     71  O   UNL A   1      40.720  19.371  25.707  1.00  0.00    -0.237 OA
ATOM     72  O   UNL A   1      43.016  19.463  24.795  1.00  0.00    -0.237 OA
ATOM     73  O   UNL A   1      42.619  18.543  27.049  1.00  0.00    -0.744 OA
ENDBRANCH  69  70
ENDBRANCH  48  62
BRANCH  49  74
ATOM     74  C   UNL A   1      43.879  32.986  31.062  1.00  0.00     0.058 A 
ATOM     75  C   UNL A   1      44.125  34.054  30.189  1.00  0.00     0.135 A 
ATOM     76  C   UNL A   1      43.785  33.264  32.435  1.00  0.00     0.135 A 
ATOM     77  F   UNL A   1      44.225  33.832  28.870  1.00  0.00    -0.206 F 
ATOM     78  C   UNL A   1      44.287  35.352  30.661  1.00  0.00     0.059 A 
ATOM     79  C   UNL A   1      43.920  34.556  32.927  1.00  0.00     0.059 A 
ATOM     80  F   UNL A   1      43.533  32.275  33.306  1.00  0.00    -0.206 F 
ATOM     81  C   UNL A   1      44.184  35.592  32.033  1.00  0.00     0.060 A 
BRANCH  81  82
ATOM     82  S   UNL A   1      44.346  37.282  32.647  1.00  0.00     0.124 S 
ATOM     83  O   UNL A   1      43.190  37.383  33.529  1.00  0.00    -0.237 OA
ATOM     84  O   UNL A   1      45.650  37.256  33.303  1.00  0.00    -0.237 OA
ATOM     85  O   UNL A   1      44.286  38.082  31.427  1.00  0.00    -0.744 OA
ENDBRANCH  81  82
ENDBRANCH  49  74
BRANCH  61  86
ATOM     86  C   UNL A   1      48.163  27.581  30.230  1.00  0.00     0.058 A 
ATOM     87  C   UNL A   1      49.137  27.908  29.272  1.00  0.00     0.135 A 
ATOM     88  C   UNL A   1      48.595  27.067  31.462  1.00  0.00     0.135 A 
ATOM     89  F   UNL A   1      48.769  28.393  28.075  1.00  0.00    -0.206 F 
ATOM     90  C   UNL A   1      50.489  27.692  29.510  1.00  0.00     0.059 A 
ATOM     91  C   UNL A   1      49.944  26.863  31.729  1.00  0.00     0.059 A 
ATOM     92  F   UNL A   1      47.702  26.748  32.412  1.00  0.00    -0.206 F 
ATOM     93  C   UNL A   1      50.882  27.158  30.739  1.00  0.00     0.060 A 
BRANCH  93  94
ATOM     94  S   UNL A   1      52.636  26.861  31.043  1.00  0.00     0.124 S 
ATOM     95  O   UNL A   1      52.615  25.499  31.565  1.00  0.00    -0.237 OA
ATOM     96  O   UNL A   1      53.224  27.023  29.717  1.00  0.00    -0.237 OA
ATOM     97  O   UNL A   1      52.988  27.900  32.007  1.00  0.00    -0.744 OA
ENDBRANCH  93  94
ENDBRANCH  61  86
ENDBRANCH  35  36
ENDBRANCH  28  30
ENDBRANCH  27  28
ENDBRANCH  26  27
ENDBRANCH   1  26
TORSDOF 17
ENDMDL
MODEL 2
REMARK VINA RESULT:     -11.7      0.750      8.103
REMARK SMILES Cc1ccnc(C(=O)c2[nH]c3cc(F)ccc3c2CC(=O)OCCOC(=O)c2ccc(-c3c4nc(c(-c5c(F)cc(S(=O)(=O)[O-])cc5F)c5ccc([nH]5)c(-c5c(F)cc(S(=O)(=O)[O-])cc5F)c5nc(c(-c6c(F)cc(S(=O)(=O)[O-])cc6F)c6ccc3[nH]6)C=C5)C=C4)cc2)c1
REMARK SMILES IDX 23 1 22 2 20 3 21 4 19 5 18 6 9 7 10 8 11 9 17 11 12 12
REMARK SMILES IDX 16 13 13 14 15 15 14 16 7 17 8 18 6 19 1 20 2 21 3 22 94 23
REMARK SMILES IDX 4 24 5 25 24 26 25 27 26 28 27 29 28 30 29 31 93 32 30 33
REMARK SMILES IDX 92 34 31 35 32 36 33 37 86 38 34 39 91 40 85 41 87 42 35 43
REMARK SMILES IDX 90 44 84 45 83 46 36 48 70 49 49 50 69 51 50 52 53 53 68 54
REMARK SMILES IDX 88 55 51 56 52 57 67 59 89 60 54 61 37 62 38 63 47 64 39 65
REMARK SMILES IDX 40 66 46 67 48 68 41 69 42 70 43 71 44 72 45 73 71 74 72 75
REMARK SMILES IDX 81 76 73 77 74 78 80 79 82 80 75 81 76 82 77 83 78 84 79 85
REMARK SMILES IDX 55 86 56 87 65 88 57 89 58 90 64 91 66 92 59 93 60 94 61 95
REMARK SMILES IDX 62 96 63 97
REMARK H PARENT 10 10 87 47 53 58
REMARK Flexibility Score: inf
ROOT
ATOM      1  C   UNL A   1      31.981  27.198  26.857  1.00  0.00     0.274 C 
ENDROOT
BRANCH   1   2
ATOM      2  O   UNL A   1      30.813  27.153  26.006  1.00  0.00    -0.462 OA
BRANCH   2   3
ATOM      3  C   UNL A   1      30.497  25.940  25.489  1.00  0.00     0.310 C 
ATOM      4  O   UNL A   1      30.240  24.952  26.176  1.00  0.00    -0.252 OA
BRANCH   3   5
ATOM      5  C   UNL A   1      30.328  25.900  23.987  1.00  0.00     0.161 C 
BRANCH   5   6
ATOM      6  C   UNL A   1      30.511  27.146  23.179  1.00  0.00     0.000 A 
ATOM      7  C   UNL A   1      31.687  27.657  22.627  1.00  0.00     0.093 A 
ATOM      8  N   UNL A   1      31.373  28.862  22.046  1.00  0.00    -0.351 N 
ATOM      9  C   UNL A   1      30.077  29.214  22.310  1.00  0.00     0.049 A 
ATOM     10  H   UNL A   1      31.999  29.401  21.510  1.00  0.00     0.167 HD
ATOM     11  C   UNL A   1      29.487  28.133  22.959  1.00  0.00     0.004 A 
ATOM     12  C   UNL A   1      29.395  30.398  22.017  1.00  0.00     0.066 A 
ATOM     13  C   UNL A   1      28.117  28.224  23.297  1.00  0.00     0.013 A 
ATOM     14  C   UNL A   1      28.054  30.461  22.383  1.00  0.00     0.125 A 
ATOM     15  C   UNL A   1      27.412  29.397  22.999  1.00  0.00     0.040 A 
ATOM     16  F   UNL A   1      27.366  31.584  22.130  1.00  0.00    -0.207 F 
BRANCH   7  17
ATOM     17  C   UNL A   1      33.051  27.158  22.511  1.00  0.00     0.227 C 
ATOM     18  O   UNL A   1      33.966  27.945  22.269  1.00  0.00    -0.285 OA
BRANCH  17  19
ATOM     19  C   UNL A   1      33.385  25.754  22.971  1.00  0.00     0.113 A 
ATOM     20  C   UNL A   1      35.411  23.951  25.634  1.00  0.00     0.044 C 
ATOM     21  C   UNL A   1      34.577  24.244  24.422  1.00  0.00    -0.047 A 
ATOM     22  C   UNL A   1      34.366  23.237  23.479  1.00  0.00     0.023 A 
ATOM     23  C   UNL A   1      34.058  25.522  24.172  1.00  0.00     0.036 A 
ATOM     24  C   UNL A   1      33.662  23.545  22.329  1.00  0.00     0.112 A 
ATOM     25  N   UNL A   1      33.178  24.772  22.052  1.00  0.00    -0.253 NA
ENDBRANCH  17  19
ENDBRANCH   7  17
ENDBRANCH   5   6
ENDBRANCH   3   5
ENDBRANCH   2   3
ENDBRANCH   1   2
BRANCH   1  26
ATOM     26  C   UNL A   1      32.592  28.607  26.919  1.00  0.00     0.275 C 
BRANCH  26  27
ATOM     27  O   UNL A   1      33.952  28.616  27.407  1.00  0.00    -0.458 OA
BRANCH  27  28
ATOM     28  C   UNL A   1      34.414  29.854  27.667  1.00  0.00     0.338 C 
ATOM     29  O   UNL A   1      33.764  30.891  27.626  1.00  0.00    -0.246 OA
BRANCH  28  30
ATOM     30  C   UNL A   1      35.789  29.889  28.157  1.00  0.00     0.060 A 
ATOM     31  C   UNL A   1      36.787  30.120  27.210  1.00  0.00     0.016 A 
ATOM     32  C   UNL A   1      36.108  29.422  29.432  1.00  0.00     0.016 A 
ATOM     33  C   UNL A   1      38.103  29.800  27.504  1.00  0.00     0.010 A 
ATOM     34  C   UNL A   1      37.450  29.177  29.753  1.00  0.00     0.010 A 
ATOM     35  C   UNL A   1      38.451  29.334  28.780  1.00  0.00    -0.014 A 
BRANCH  35  36
ATOM     36  C   UNL A   1      39.884  29.080  29.063  1.00  0.00     0.031 A 
ATOM     37  C   UNL A   1      40.732  30.082  29.791  1.00  0.00     0.074 A 
ATOM     38  C   UNL A   1      40.384  27.872  28.737  1.00  0.00     0.049 A 
ATOM     39  N   UNL A   1      41.968  29.966  30.206  1.00  0.00    -0.248 NA
ATOM     40  C   UNL A   1      40.116  31.380  30.106  1.00  0.00     0.031 C 
ATOM     41  C   UNL A   1      39.640  26.813  28.049  1.00  0.00     0.029 A 
ATOM     42  N   UNL A   1      41.617  27.321  28.964  1.00  0.00    -0.354 N 
ATOM     43  C   UNL A   1      42.271  31.160  30.849  1.00  0.00     0.074 A 
ATOM     44  C   UNL A   1      41.099  32.005  30.741  1.00  0.00     0.031 C 
ATOM     45  C   UNL A   1      40.420  25.728  27.940  1.00  0.00     0.029 A 
ATOM     46  C   UNL A   1      41.730  26.032  28.501  1.00  0.00     0.049 A 
ATOM     47  H   UNL A   1      42.349  27.801  29.414  1.00  0.00     0.167 HD
ATOM     48  C   UNL A   1      43.420  31.513  31.475  1.00  0.00     0.037 A 
ATOM     49  C   UNL A   1      42.781  25.193  28.510  1.00  0.00     0.037 A 
ATOM     50  C   UNL A   1      44.597  30.683  31.541  1.00  0.00     0.049 A 
ATOM     51  C   UNL A   1      44.069  25.649  29.126  1.00  0.00     0.074 A 
ATOM     52  C   UNL A   1      45.819  30.961  32.130  1.00  0.00     0.029 A 
ATOM     53  N   UNL A   1      44.703  29.417  30.986  1.00  0.00    -0.354 N 
ATOM     54  N   UNL A   1      44.336  26.780  29.733  1.00  0.00    -0.248 NA
ATOM     55  C   UNL A   1      45.202  24.719  29.048  1.00  0.00     0.031 C 
ATOM     56  C   UNL A   1      46.675  29.877  31.898  1.00  0.00     0.029 A 
ATOM     57  C   UNL A   1      45.976  28.911  31.195  1.00  0.00     0.049 A 
ATOM     58  H   UNL A   1      43.980  28.945  30.512  1.00  0.00     0.167 HD
ATOM     59  C   UNL A   1      45.669  26.700  30.108  1.00  0.00     0.074 A 
ATOM     60  C   UNL A   1      46.147  25.399  29.684  1.00  0.00     0.031 C 
ATOM     61  C   UNL A   1      46.435  27.623  30.742  1.00  0.00     0.037 A 
BRANCH  48  62
ATOM     62  C   UNL A   1      43.469  32.862  32.134  1.00  0.00     0.058 A 
ATOM     63  C   UNL A   1      43.897  33.999  31.432  1.00  0.00     0.135 A 
ATOM     64  C   UNL A   1      43.028  33.034  33.455  1.00  0.00     0.135 A 
ATOM     65  F   UNL A   1      44.352  33.886  30.174  1.00  0.00    -0.206 F 
ATOM     66  C   UNL A   1      43.887  35.261  32.018  1.00  0.00     0.059 A 
ATOM     67  C   UNL A   1      42.997  34.288  34.058  1.00  0.00     0.059 A 
ATOM     68  F   UNL A   1      42.616  31.976  34.172  1.00  0.00    -0.206 F 
ATOM     69  C   UNL A   1      43.434  35.396  33.332  1.00  0.00     0.060 A 
BRANCH  69  70
ATOM     70  S   UNL A   1      43.415  37.043  34.072  1.00  0.00     0.124 S 
ATOM     71  O   UNL A   1      42.142  37.024  34.787  1.00  0.00    -0.237 OA
ATOM     72  O   UNL A   1      44.611  37.022  34.908  1.00  0.00    -0.237 OA
ATOM     73  O   UNL A   1      43.473  37.934  32.918  1.00  0.00    -0.744 OA
ENDBRANCH  69  70
ENDBRANCH  48  62
BRANCH  49  74
ATOM     74  C   UNL A   1      42.660  23.859  27.875  1.00  0.00     0.058 A 
ATOM     75  C   UNL A   1      42.766  23.702  26.487  1.00  0.00     0.135 A 
ATOM     76  C   UNL A   1      42.456  22.710  28.656  1.00  0.00     0.135 A 
ATOM     77  F   UNL A   1      42.959  24.773  25.703  1.00  0.00    -0.206 F 
ATOM     78  C   UNL A   1      42.659  22.450  25.889  1.00  0.00     0.059 A 
ATOM     79  C   UNL A   1      42.370  21.447  28.084  1.00  0.00     0.059 A 
ATOM     80  F   UNL A   1      42.366  22.810  29.991  1.00  0.00    -0.206 F 
ATOM     81  C   UNL A   1      42.459  21.329  26.698  1.00  0.00     0.060 A 
BRANCH  81  82
ATOM     82  S   UNL A   1      42.367  19.696  25.933  1.00  0.00     0.124 S 
ATOM     83  O   UNL A   1      43.356  19.817  24.870  1.00  0.00    -0.237 OA
ATOM     84  O   UNL A   1      42.721  18.809  27.037  1.00  0.00    -0.237 OA
ATOM     85  O   UNL A   1      40.975  19.615  25.499  1.00  0.00    -0.744 OA
ENDBRANCH  81  82
ENDBRANCH  49  74
BRANCH  61  86
ATOM     86  C   UNL A   1      47.861  27.240  31.000  1.00  0.00     0.058 A 
ATOM     87  C   UNL A   1      48.852  27.427  30.023  1.00  0.00     0.135 A 
ATOM     88  C   UNL A   1      48.239  26.660  32.221  1.00  0.00     0.135 A 
ATOM     89  F   UNL A   1      48.535  27.968  28.835  1.00  0.00    -0.206 F 
ATOM     90  C   UNL A   1      50.163  27.014  30.231  1.00  0.00     0.059 A 
ATOM     91  C   UNL A   1      49.548  26.259  32.458  1.00  0.00     0.059 A 
ATOM     92  F   UNL A   1      47.328  26.469  33.189  1.00  0.00    -0.206 F 
ATOM     93  C   UNL A   1      50.498  26.420  31.449  1.00  0.00     0.060 A 
BRANCH  93  94
ATOM     94  S   UNL A   1      52.196  25.868  31.715  1.00  0.00     0.124 S 
ATOM     95  O   UNL A   1      52.584  26.666  32.873  1.00  0.00    -0.237 OA
ATOM     96  O   UNL A   1      52.034  24.437  31.956  1.00  0.00    -0.237 OA
ATOM     97  O   UNL A   1      52.859  26.213  30.460  1.00  0.00    -0.744 OA
ENDBRANCH  93  94
ENDBRANCH  61  86
ENDBRANCH  35  36
ENDBRANCH  28  30
ENDBRANCH  27  28
ENDBRANCH  26  27
ENDBRANCH   1  26
TORSDOF 17
ENDMDL
MODEL 3
REMARK VINA RESULT:     -11.6      1.673      3.499
REMARK SMILES Cc1ccnc(C(=O)c2[nH]c3cc(F)ccc3c2CC(=O)OCCOC(=O)c2ccc(-c3c4nc(c(-c5c(F)cc(S(=O)(=O)[O-])cc5F)c5ccc([nH]5)c(-c5c(F)cc(S(=O)(=O)[O-])cc5F)c5nc(c(-c6c(F)cc(S(=O)(=O)[O-])cc6F)c6ccc3[nH]6)C=C5)C=C4)cc2)c1
REMARK SMILES IDX 23 1 22 2 20 3 21 4 19 5 18 6 9 7 10 8 11 9 17 11 12 12
REMARK SMILES IDX 16 13 13 14 15 15 14 16 7 17 8 18 6 19 1 20 2 21 3 22 94 23
REMARK SMILES IDX 4 24 5 25 24 26 25 27 26 28 27 29 28 30 29 31 93 32 30 33
REMARK SMILES IDX 92 34 31 35 32 36 33 37 86 38 34 39 91 40 85 41 87 42 35 43
REMARK SMILES IDX 90 44 84 45 83 46 36 48 70 49 49 50 69 51 50 52 53 53 68 54
REMARK SMILES IDX 88 55 51 56 52 57 67 59 89 60 54 61 37 62 38 63 47 64 39 65
REMARK SMILES IDX 40 66 46 67 48 68 41 69 42 70 43 71 44 72 45 73 71 74 72 75
REMARK SMILES IDX 81 76 73 77 74 78 80 79 82 80 75 81 76 82 77 83 78 84 79 85
REMARK SMILES IDX 55 86 56 87 65 88 57 89 58 90 64 91 66 92 59 93 60 94 61 95
REMARK SMILES IDX 62 96 63 97
REMARK H PARENT 10 10 87 47 53 58
REMARK Flexibility Score: inf
ROOT
ATOM      1  C   UNL A   1      31.955  27.548  26.540  1.00  0.00     0.274 C 
ENDROOT
BRANCH   1   2
ATOM      2  O   UNL A   1      32.923  26.738  25.835  1.00  0.00    -0.462 OA
BRANCH   2   3
ATOM      3  C   UNL A   1      32.798  25.396  25.981  1.00  0.00     0.310 C 
ATOM      4  O   UNL A   1      31.884  24.861  26.607  1.00  0.00    -0.252 OA
BRANCH   3   5
ATOM      5  C   UNL A   1      33.782  24.565  25.190  1.00  0.00     0.161 C 
BRANCH   5   6
ATOM      6  C   UNL A   1      33.332  23.830  23.967  1.00  0.00     0.000 A 
ATOM      7  C   UNL A   1      32.900  24.356  22.749  1.00  0.00     0.093 A 
ATOM      8  N   UNL A   1      32.510  23.297  21.965  1.00  0.00    -0.351 N 
ATOM      9  C   UNL A   1      32.550  22.123  22.666  1.00  0.00     0.049 A 
ATOM     10  H   UNL A   1      32.239  23.374  21.021  1.00  0.00     0.167 HD
ATOM     11  C   UNL A   1      33.123  22.407  23.903  1.00  0.00     0.004 A 
ATOM     12  C   UNL A   1      32.127  20.844  22.293  1.00  0.00     0.066 A 
ATOM     13  C   UNL A   1      33.327  21.339  24.806  1.00  0.00     0.013 A 
ATOM     14  C   UNL A   1      32.324  19.820  23.214  1.00  0.00     0.125 A 
ATOM     15  C   UNL A   1      32.924  20.047  24.445  1.00  0.00     0.040 A 
ATOM     16  F   UNL A   1      31.922  18.580  22.899  1.00  0.00    -0.207 F 
BRANCH   7  17
ATOM     17  C   UNL A   1      32.849  25.699  22.187  1.00  0.00     0.227 C 
ATOM     18  O   UNL A   1      33.430  25.936  21.128  1.00  0.00    -0.285 OA
BRANCH  17  19
ATOM     19  C   UNL A   1      31.863  26.711  22.732  1.00  0.00     0.113 A 
ATOM     20  C   UNL A   1      28.207  26.982  23.740  1.00  0.00     0.044 C 
ATOM     21  C   UNL A   1      29.628  27.321  23.397  1.00  0.00    -0.047 A 
ATOM     22  C   UNL A   1      29.992  28.660  23.243  1.00  0.00     0.023 A 
ATOM     23  C   UNL A   1      30.588  26.328  23.157  1.00  0.00     0.036 A 
ATOM     24  C   UNL A   1      31.285  28.952  22.849  1.00  0.00     0.112 A 
ATOM     25  N   UNL A   1      32.218  28.016  22.584  1.00  0.00    -0.253 NA
ENDBRANCH  17  19
ENDBRANCH   7  17
ENDBRANCH   5   6
ENDBRANCH   3   5
ENDBRANCH   2   3
ENDBRANCH   1   2
BRANCH   1  26
ATOM     26  C   UNL A   1      32.616  28.427  27.616  1.00  0.00     0.275 C 
BRANCH  26  27
ATOM     27  O   UNL A   1      34.033  28.614  27.404  1.00  0.00    -0.458 OA
BRANCH  27  28
ATOM     28  C   UNL A   1      34.465  29.839  27.763  1.00  0.00     0.338 C 
ATOM     29  O   UNL A   1      33.788  30.859  27.809  1.00  0.00    -0.246 OA
BRANCH  28  30
ATOM     30  C   UNL A   1      35.841  29.869  28.248  1.00  0.00     0.060 A 
ATOM     31  C   UNL A   1      36.840  30.051  27.293  1.00  0.00     0.016 A 
ATOM     32  C   UNL A   1      36.156  29.443  29.539  1.00  0.00     0.016 A 
ATOM     33  C   UNL A   1      38.152  29.721  27.595  1.00  0.00     0.010 A 
ATOM     34  C   UNL A   1      37.494  29.189  29.866  1.00  0.00     0.010 A 
ATOM     35  C   UNL A   1      38.495  29.295  28.887  1.00  0.00    -0.014 A 
BRANCH  35  36
ATOM     36  C   UNL A   1      39.924  29.028  29.176  1.00  0.00     0.031 A 
ATOM     37  C   UNL A   1      40.556  27.703  28.860  1.00  0.00     0.074 A 
ATOM     38  C   UNL A   1      40.674  30.048  29.639  1.00  0.00     0.049 A 
ATOM     39  N   UNL A   1      41.813  27.349  28.954  1.00  0.00    -0.248 NA
ATOM     40  C   UNL A   1      39.672  26.639  28.365  1.00  0.00     0.031 C 
ATOM     41  C   UNL A   1      40.166  31.385  29.956  1.00  0.00     0.029 A 
ATOM     42  N   UNL A   1      42.016  30.131  29.894  1.00  0.00    -0.354 N 
ATOM     43  C   UNL A   1      41.876  26.033  28.510  1.00  0.00     0.074 A 
ATOM     44  C   UNL A   1      40.523  25.638  28.177  1.00  0.00     0.031 C 
ATOM     45  C   UNL A   1      41.190  32.166  30.331  1.00  0.00     0.029 A 
ATOM     46  C   UNL A   1      42.411  31.372  30.330  1.00  0.00     0.049 A 
ATOM     47  H   UNL A   1      42.636  29.376  29.776  1.00  0.00     0.167 HD
ATOM     48  C   UNL A   1      42.963  25.235  28.388  1.00  0.00     0.037 A 
ATOM     49  C   UNL A   1      43.623  31.817  30.708  1.00  0.00     0.037 A 
ATOM     50  C   UNL A   1      44.300  25.622  28.763  1.00  0.00     0.049 A 
ATOM     51  C   UNL A   1      44.791  30.880  30.652  1.00  0.00     0.074 A 
ATOM     52  C   UNL A   1      45.465  24.876  28.701  1.00  0.00     0.029 A 
ATOM     53  N   UNL A   1      44.649  26.860  29.282  1.00  0.00    -0.354 N 
ATOM     54  N   UNL A   1      44.832  29.640  30.226  1.00  0.00    -0.248 NA
ATOM     55  C   UNL A   1      46.075  31.397  31.139  1.00  0.00     0.031 C 
ATOM     56  C   UNL A   1      46.511  25.651  29.219  1.00  0.00     0.029 A 
ATOM     57  C   UNL A   1      46.004  26.890  29.570  1.00  0.00     0.049 A 
ATOM     58  H   UNL A   1      44.025  27.608  29.426  1.00  0.00     0.167 HD
ATOM     59  C   UNL A   1      46.146  29.227  30.395  1.00  0.00     0.074 A 
ATOM     60  C   UNL A   1      46.873  30.358  30.937  1.00  0.00     0.031 C 
ATOM     61  C   UNL A   1      46.701  28.018  30.132  1.00  0.00     0.037 A 
BRANCH  48  62
ATOM     62  C   UNL A   1      42.757  23.853  27.835  1.00  0.00     0.058 A 
ATOM     63  C   UNL A   1      42.594  22.747  28.684  1.00  0.00     0.135 A 
ATOM     64  C   UNL A   1      42.658  23.640  26.451  1.00  0.00     0.135 A 
ATOM     65  F   UNL A   1      42.703  22.893  30.014  1.00  0.00    -0.206 F 
ATOM     66  C   UNL A   1      42.341  21.476  28.178  1.00  0.00     0.059 A 
ATOM     67  C   UNL A   1      42.393  22.379  25.924  1.00  0.00     0.059 A 
ATOM     68  F   UNL A   1      42.814  24.665  25.598  1.00  0.00    -0.206 F 
ATOM     69  C   UNL A   1      42.241  21.302  26.796  1.00  0.00     0.060 A 
BRANCH  69  70
ATOM     70  S   UNL A   1      41.899  19.647  26.159  1.00  0.00     0.124 S 
ATOM     71  O   UNL A   1      40.456  19.713  25.946  1.00  0.00    -0.237 OA
ATOM     72  O   UNL A   1      42.716  19.604  24.951  1.00  0.00    -0.237 OA
ATOM     73  O   UNL A   1      42.334  18.770  27.241  1.00  0.00    -0.744 OA
ENDBRANCH  69  70
ENDBRANCH  48  62
BRANCH  49  74
ATOM     74  C   UNL A   1      43.771  33.204  31.211  1.00  0.00     0.058 A 
ATOM     75  C   UNL A   1      43.903  34.287  30.333  1.00  0.00     0.135 A 
ATOM     76  C   UNL A   1      43.762  33.469  32.590  1.00  0.00     0.135 A 
ATOM     77  F   UNL A   1      43.919  34.079  29.008  1.00  0.00    -0.206 F 
ATOM     78  C   UNL A   1      44.036  35.589  30.804  1.00  0.00     0.059 A 
ATOM     79  C   UNL A   1      43.869  34.763  33.083  1.00  0.00     0.059 A 
ATOM     80  F   UNL A   1      43.621  32.464  33.468  1.00  0.00    -0.206 F 
ATOM     81  C   UNL A   1      44.019  35.816  32.182  1.00  0.00     0.060 A 
BRANCH  81  82
ATOM     82  S   UNL A   1      44.144  37.509  32.798  1.00  0.00     0.124 S 
ATOM     83  O   UNL A   1      45.427  37.472  33.488  1.00  0.00    -0.237 OA
ATOM     84  O   UNL A   1      44.101  38.296  31.570  1.00  0.00    -0.237 OA
ATOM     85  O   UNL A   1      42.967  37.635  33.652  1.00  0.00    -0.744 OA
ENDBRANCH  81  82
ENDBRANCH  49  74
BRANCH  61  86
ATOM     86  C   UNL A   1      48.162  27.877  30.438  1.00  0.00     0.058 A 
ATOM     87  C   UNL A   1      49.139  28.182  29.476  1.00  0.00     0.135 A 
ATOM     88  C   UNL A   1      48.591  27.410  31.689  1.00  0.00     0.135 A 
ATOM     89  F   UNL A   1      48.775  28.622  28.261  1.00  0.00    -0.206 F 
ATOM     90  C   UNL A   1      50.492  27.991  29.731  1.00  0.00     0.059 A 
ATOM     91  C   UNL A   1      49.939  27.231  31.973  1.00  0.00     0.059 A 
ATOM     92  F   UNL A   1      47.694  27.113  32.643  1.00  0.00    -0.206 F 
ATOM     93  C   UNL A   1      50.881  27.503  30.980  1.00  0.00     0.060 A 
BRANCH  93  94
ATOM     94  S   UNL A   1      52.637  27.238  31.307  1.00  0.00     0.124 S 
ATOM     95  O   UNL A   1      53.196  28.542  30.966  1.00  0.00    -0.237 OA
ATOM     96  O   UNL A   1      52.651  26.893  32.725  1.00  0.00    -0.237 OA
ATOM     97  O   UNL A   1      52.983  26.147  30.401  1.00  0.00    -0.744 OA
ENDBRANCH  93  94
ENDBRANCH  61  86
ENDBRANCH  35  36
ENDBRANCH  28  30
ENDBRANCH  27  28
ENDBRANCH  26  27
ENDBRANCH   1  26
TORSDOF 17
ENDMDL
