MODEL 1
REMARK VINA RESULT:     -11.8      0.000      0.000
REMARK SMILES C[C@H]1CC[C@@H]([C@H](C(=O)OCCOC(=O)c2ccc(-c3c4nc(c(-c5c(F)cc(S(=O)(=O)[O-])cc5F)c5ccc([nH]5)c(-c5c(F)cc(S(=O)(=O)[O-])cc5F)c5nc(c(-c6c(F)cc(S(=O)(=O)[O-])cc6F)c6ccc3[nH]6)C=C5)C=C4)cc2)[C@@H]2CCS(=O)(=O)C2)C[C@@H]1C
REMARK SMILES IDX 11 1 10 2 9 3 7 4 8 5 6 6 5 7 1 8 2 9 3 10 89 11 4 12 88 13
REMARK SMILES IDX 90 14 81 15 82 16 87 17 83 18 84 19 85 20 86 21 12 22 13 23
REMARK SMILES IDX 14 24 15 25 16 26 80 27 17 28 79 29 18 30 19 31 20 32 73 33
REMARK SMILES IDX 21 34 78 35 72 36 74 37 22 38 77 39 71 40 70 41 23 43 57 44
REMARK SMILES IDX 36 45 56 46 37 47 40 48 55 49 75 50 38 51 39 52 54 54 76 55
REMARK SMILES IDX 41 56 24 57 25 58 34 59 26 60 27 61 33 62 35 63 28 64 29 65
REMARK SMILES IDX 30 66 31 67 32 68 58 69 59 70 68 71 60 72 61 73 67 74 69 75
REMARK SMILES IDX 62 76 63 77 64 78 65 79 66 80 42 81 43 82 52 83 44 84 45 85
REMARK SMILES IDX 51 86 53 87 46 88 47 89 48 90 49 91 50 92
REMARK H PARENT 74 42 40 53
REMARK Flexibility Score: inf
ROOT
ATOM      1  C   UNL A   1      34.383  30.856  27.628  1.00  0.00     0.275 C 
ENDROOT
BRANCH   1   2
ATOM      2  C   UNL A   1      33.194  30.151  26.928  1.00  0.00     0.274 C 
BRANCH   2   3
ATOM      3  O   UNL A   1      33.547  29.042  26.029  1.00  0.00    -0.462 OA
BRANCH   3   4
ATOM      4  C   UNL A   1      33.015  27.816  26.297  1.00  0.00     0.309 C 
ATOM      5  O   UNL A   1      32.408  27.560  27.332  1.00  0.00    -0.252 OA
BRANCH   4   6
ATOM      6  C   UNL A   1      33.391  26.704  25.285  1.00  0.00     0.106 C 
BRANCH   6   7
ATOM      7  C   UNL A   1      33.919  25.271  25.767  1.00  0.00     0.004 C 
ATOM      8  C   UNL A   1      32.664  21.928  23.137  1.00  0.00     0.008 C 
ATOM      9  C   UNL A   1      33.297  22.641  24.338  1.00  0.00    -0.011 C 
ATOM     10  C   UNL A   1      34.431  23.562  23.862  1.00  0.00     0.004 C 
ATOM     11  C   UNL A   1      32.242  23.412  25.145  1.00  0.00    -0.011 C 
ATOM     12  C   UNL A   1      34.976  24.535  24.913  1.00  0.00     0.005 C 
ATOM     13  C   UNL A   1      32.950  24.189  26.266  1.00  0.00     0.008 C 
ATOM     14  C   UNL A   1      31.173  22.437  25.684  1.00  0.00     0.008 C 
ENDBRANCH   6   7
BRANCH   6  15
ATOM     15  C   UNL A   1      32.562  26.760  23.969  1.00  0.00     0.019 C 
ATOM     16  C   UNL A   1      33.208  27.569  22.817  1.00  0.00     0.021 C 
ATOM     17  C   UNL A   1      31.115  27.220  24.140  1.00  0.00     0.141 C 
ATOM     18  C   UNL A   1      32.570  28.943  22.732  1.00  0.00     0.137 C 
ATOM     19  S   UNL A   1      30.872  28.697  23.180  1.00  0.00     0.150 S 
ATOM     20  O   UNL A   1      30.447  29.778  24.041  1.00  0.00    -0.229 OA
ATOM     21  O   UNL A   1      30.137  28.341  21.980  1.00  0.00    -0.229 OA
ENDBRANCH   6  15
ENDBRANCH   4   6
ENDBRANCH   3   4
ENDBRANCH   2   3
ENDBRANCH   1   2
BRANCH   1  22
ATOM     22  O   UNL A   1      35.287  29.906  28.255  1.00  0.00    -0.458 OA
BRANCH  22  23
ATOM     23  C   UNL A   1      36.137  30.590  29.036  1.00  0.00     0.338 C 
ATOM     24  O   UNL A   1      35.738  31.368  29.884  1.00  0.00    -0.246 OA
BRANCH  23  25
ATOM     25  C   UNL A   1      37.586  30.424  28.930  1.00  0.00     0.060 A 
ATOM     26  C   UNL A   1      38.095  29.992  27.698  1.00  0.00     0.016 A 
ATOM     27  C   UNL A   1      38.267  30.119  30.115  1.00  0.00     0.016 A 
ATOM     28  C   UNL A   1      39.259  29.219  27.654  1.00  0.00     0.010 A 
ATOM     29  C   UNL A   1      39.469  29.411  30.068  1.00  0.00     0.010 A 
ATOM     30  C   UNL A   1      39.987  28.984  28.836  1.00  0.00    -0.014 A 
BRANCH  30  31
ATOM     31  C   UNL A   1      41.445  28.731  28.743  1.00  0.00     0.031 A 
ATOM     32  C   UNL A   1      42.494  29.799  28.808  1.00  0.00     0.074 A 
ATOM     33  C   UNL A   1      41.747  27.453  28.437  1.00  0.00     0.049 A 
ATOM     34  N   UNL A   1      43.770  29.697  28.537  1.00  0.00    -0.248 NA
ATOM     35  C   UNL A   1      42.073  31.150  29.206  1.00  0.00     0.031 C 
ATOM     36  C   UNL A   1      40.754  26.377  28.295  1.00  0.00     0.029 A 
ATOM     37  N   UNL A   1      42.931  26.836  28.159  1.00  0.00    -0.354 N 
ATOM     38  C   UNL A   1      44.309  30.970  28.700  1.00  0.00     0.074 A 
ATOM     39  C   UNL A   1      43.215  31.830  29.106  1.00  0.00     0.031 C 
ATOM     40  C   UNL A   1      41.365  25.237  27.977  1.00  0.00     0.029 A 
ATOM     41  C   UNL A   1      42.774  25.518  27.796  1.00  0.00     0.049 A 
ATOM     42  H   UNL A   1      43.806  27.284  28.212  1.00  0.00     0.167 HD
ATOM     43  C   UNL A   1      45.596  31.358  28.506  1.00  0.00     0.037 A 
ATOM     44  C   UNL A   1      43.651  24.631  27.306  1.00  0.00     0.037 A 
ATOM     45  C   UNL A   1      46.644  30.445  28.096  1.00  0.00     0.049 A 
ATOM     46  C   UNL A   1      45.056  25.084  27.127  1.00  0.00     0.074 A 
ATOM     47  C   UNL A   1      47.995  30.700  27.929  1.00  0.00     0.029 A 
ATOM     48  N   UNL A   1      46.455  29.104  27.777  1.00  0.00    -0.354 N 
ATOM     49  N   UNL A   1      45.553  26.282  27.320  1.00  0.00    -0.248 NA
ATOM     50  C   UNL A   1      46.015  24.079  26.673  1.00  0.00     0.031 C 
ATOM     51  C   UNL A   1      48.611  29.529  27.466  1.00  0.00     0.029 A 
ATOM     52  C   UNL A   1      47.656  28.527  27.391  1.00  0.00     0.049 A 
ATOM     53  H   UNL A   1      45.592  28.632  27.819  1.00  0.00     0.167 HD
ATOM     54  C   UNL A   1      46.894  26.183  27.001  1.00  0.00     0.074 A 
ATOM     55  C   UNL A   1      47.131  24.794  26.638  1.00  0.00     0.031 C 
ATOM     56  C   UNL A   1      47.843  27.151  27.000  1.00  0.00     0.037 A 
BRANCH  43  57
ATOM     57  C   UNL A   1      45.962  32.813  28.700  1.00  0.00     0.058 A 
ATOM     58  C   UNL A   1      45.820  33.763  27.677  1.00  0.00     0.135 A 
ATOM     59  C   UNL A   1      46.363  33.285  29.964  1.00  0.00     0.135 A 
ATOM     60  F   UNL A   1      45.440  33.381  26.447  1.00  0.00    -0.206 F 
ATOM     61  C   UNL A   1      46.074  35.119  27.892  1.00  0.00     0.059 A 
ATOM     62  C   UNL A   1      46.600  34.639  30.209  1.00  0.00     0.059 A 
ATOM     63  F   UNL A   1      46.511  32.430  30.988  1.00  0.00    -0.206 F 
ATOM     64  C   UNL A   1      46.462  35.548  29.163  1.00  0.00     0.060 A 
BRANCH  64  65
ATOM     65  S   UNL A   1      46.764  37.310  29.431  1.00  0.00     0.124 S 
ATOM     66  O   UNL A   1      45.600  37.909  28.784  1.00  0.00    -0.237 OA
ATOM     67  O   UNL A   1      46.795  37.405  30.887  1.00  0.00    -0.237 OA
ATOM     68  O   UNL A   1      48.040  37.545  28.765  1.00  0.00    -0.744 OA
ENDBRANCH  64  65
ENDBRANCH  43  57
BRANCH  44  69
ATOM     69  C   UNL A   1      43.172  23.269  26.972  1.00  0.00     0.058 A 
ATOM     70  C   UNL A   1      43.138  22.837  25.640  1.00  0.00     0.135 A 
ATOM     71  C   UNL A   1      42.917  22.323  27.979  1.00  0.00     0.135 A 
ATOM     72  F   UNL A   1      43.396  23.703  24.648  1.00  0.00    -0.206 F 
ATOM     73  C   UNL A   1      42.877  21.511  25.316  1.00  0.00     0.059 A 
ATOM     74  C   UNL A   1      42.683  20.985  27.681  1.00  0.00     0.059 A 
ATOM     75  F   UNL A   1      42.990  22.680  29.272  1.00  0.00    -0.206 F 
ATOM     76  C   UNL A   1      42.665  20.590  26.345  1.00  0.00     0.060 A 
BRANCH  76  77
ATOM     77  S   UNL A   1      42.438  18.851  25.915  1.00  0.00     0.124 S 
ATOM     78  O   UNL A   1      43.271  18.734  24.724  1.00  0.00    -0.237 OA
ATOM     79  O   UNL A   1      42.931  18.171  27.108  1.00  0.00    -0.237 OA
ATOM     80  O   UNL A   1      40.999  18.745  25.694  1.00  0.00    -0.744 OA
ENDBRANCH  76  77
ENDBRANCH  44  69
BRANCH  56  81
ATOM     81  C   UNL A   1      49.211  26.710  26.577  1.00  0.00     0.058 A 
ATOM     82  C   UNL A   1      49.650  26.875  25.254  1.00  0.00     0.135 A 
ATOM     83  C   UNL A   1      50.073  26.087  27.491  1.00  0.00     0.135 A 
ATOM     84  F   UNL A   1      48.849  27.446  24.341  1.00  0.00    -0.206 F 
ATOM     85  C   UNL A   1      50.888  26.400  24.842  1.00  0.00     0.059 A 
ATOM     86  C   UNL A   1      51.326  25.629  27.107  1.00  0.00     0.059 A 
ATOM     87  F   UNL A   1      49.693  25.908  28.766  1.00  0.00    -0.206 F 
ATOM     88  C   UNL A   1      51.717  25.774  25.775  1.00  0.00     0.060 A 
BRANCH  88  89
ATOM     89  S   UNL A   1      53.319  25.155  25.226  1.00  0.00     0.124 S 
ATOM     90  O   UNL A   1      53.369  25.653  23.854  1.00  0.00    -0.237 OA
ATOM     91  O   UNL A   1      54.238  25.789  26.165  1.00  0.00    -0.237 OA
ATOM     92  O   UNL A   1      53.189  23.708  25.366  1.00  0.00    -0.744 OA
ENDBRANCH  88  89
ENDBRANCH  56  81
ENDBRANCH  30  31
ENDBRANCH  23  25
ENDBRANCH  22  23
ENDBRANCH   1  22
TORSDOF 16
ENDMDL
MODEL 2
REMARK VINA RESULT:     -11.5      2.045      2.766
REMARK SMILES C[C@H]1CC[C@@H]([C@H](C(=O)OCCOC(=O)c2ccc(-c3c4nc(c(-c5c(F)cc(S(=O)(=O)[O-])cc5F)c5ccc([nH]5)c(-c5c(F)cc(S(=O)(=O)[O-])cc5F)c5nc(c(-c6c(F)cc(S(=O)(=O)[O-])cc6F)c6ccc3[nH]6)C=C5)C=C4)cc2)[C@@H]2CCS(=O)(=O)C2)C[C@@H]1C
REMARK SMILES IDX 11 1 10 2 9 3 7 4 8 5 6 6 5 7 1 8 2 9 3 10 89 11 4 12 88 13
REMARK SMILES IDX 90 14 81 15 82 16 87 17 83 18 84 19 85 20 86 21 12 22 13 23
REMARK SMILES IDX 14 24 15 25 16 26 80 27 17 28 79 29 18 30 19 31 20 32 73 33
REMARK SMILES IDX 21 34 78 35 72 36 74 37 22 38 77 39 71 40 70 41 23 43 57 44
REMARK SMILES IDX 36 45 56 46 37 47 40 48 55 49 75 50 38 51 39 52 54 54 76 55
REMARK SMILES IDX 41 56 24 57 25 58 34 59 26 60 27 61 33 62 35 63 28 64 29 65
REMARK SMILES IDX 30 66 31 67 32 68 58 69 59 70 68 71 60 72 61 73 67 74 69 75
REMARK SMILES IDX 62 76 63 77 64 78 65 79 66 80 42 81 43 82 52 83 44 84 45 85
REMARK SMILES IDX 51 86 53 87 46 88 47 89 48 90 49 91 50 92
REMARK H PARENT 74 42 40 53
REMARK Flexibility Score: inf
ROOT
ATOM      1  C   UNL A   1      32.376  29.506  27.223  1.00  0.00     0.275 C 
ENDROOT
BRANCH   1   2
ATOM      2  C   UNL A   1      31.481  28.242  27.234  1.00  0.00     0.274 C 
BRANCH   2   3
ATOM      3  O   UNL A   1      32.192  26.956  27.278  1.00  0.00    -0.462 OA
BRANCH   3   4
ATOM      4  C   UNL A   1      31.903  26.039  26.311  1.00  0.00     0.309 C 
ATOM      5  O   UNL A   1      31.055  25.162  26.451  1.00  0.00    -0.252 OA
BRANCH   4   6
ATOM      6  C   UNL A   1      32.853  26.057  25.087  1.00  0.00     0.106 C 
BRANCH   6   7
ATOM      7  C   UNL A   1      34.136  25.101  25.003  1.00  0.00     0.004 C 
ATOM      8  C   UNL A   1      33.136  20.795  24.654  1.00  0.00     0.008 C 
ATOM      9  C   UNL A   1      33.998  22.054  24.802  1.00  0.00    -0.011 C 
ATOM     10  C   UNL A   1      33.840  22.946  23.561  1.00  0.00     0.004 C 
ATOM     11  C   UNL A   1      33.656  22.813  26.093  1.00  0.00    -0.011 C 
ATOM     12  C   UNL A   1      34.430  24.356  23.682  1.00  0.00     0.005 C 
ATOM     13  C   UNL A   1      34.473  24.114  26.130  1.00  0.00     0.008 C 
ATOM     14  C   UNL A   1      33.919  21.913  27.320  1.00  0.00     0.008 C 
ENDBRANCH   6   7
BRANCH   6  15
ATOM     15  C   UNL A   1      32.136  26.416  23.754  1.00  0.00     0.019 C 
ATOM     16  C   UNL A   1      32.960  27.293  22.778  1.00  0.00     0.021 C 
ATOM     17  C   UNL A   1      30.748  27.034  23.915  1.00  0.00     0.141 C 
ATOM     18  C   UNL A   1      32.504  28.737  22.874  1.00  0.00     0.137 C 
ATOM     19  S   UNL A   1      30.760  28.656  23.186  1.00  0.00     0.150 S 
ATOM     20  O   UNL A   1      30.410  29.645  24.181  1.00  0.00    -0.229 OA
ATOM     21  O   UNL A   1      30.077  28.581  21.907  1.00  0.00    -0.229 OA
ENDBRANCH   6  15
ENDBRANCH   4   6
ENDBRANCH   3   4
ENDBRANCH   2   3
ENDBRANCH   1   2
BRANCH   1  22
ATOM     22  O   UNL A   1      33.783  29.178  27.379  1.00  0.00    -0.458 OA
BRANCH  22  23
ATOM     23  C   UNL A   1      34.405  30.246  27.904  1.00  0.00     0.338 C 
ATOM     24  O   UNL A   1      33.812  31.288  28.119  1.00  0.00    -0.246 OA
BRANCH  23  25
ATOM     25  C   UNL A   1      35.821  30.213  28.268  1.00  0.00     0.060 A 
ATOM     26  C   UNL A   1      36.750  30.093  27.225  1.00  0.00     0.016 A 
ATOM     27  C   UNL A   1      36.127  29.710  29.539  1.00  0.00     0.016 A 
ATOM     28  C   UNL A   1      37.963  29.435  27.442  1.00  0.00     0.010 A 
ATOM     29  C   UNL A   1      37.368  29.119  29.777  1.00  0.00     0.010 A 
ATOM     30  C   UNL A   1      38.305  29.005  28.738  1.00  0.00    -0.014 A 
BRANCH  30  31
ATOM     31  C   UNL A   1      39.737  28.884  29.102  1.00  0.00     0.031 A 
ATOM     32  C   UNL A   1      40.581  30.019  29.596  1.00  0.00     0.074 A 
ATOM     33  C   UNL A   1      40.265  27.681  28.801  1.00  0.00     0.049 A 
ATOM     34  N   UNL A   1      41.880  30.055  29.747  1.00  0.00    -0.248 NA
ATOM     35  C   UNL A   1      39.904  31.275  29.952  1.00  0.00     0.031 C 
ATOM     36  C   UNL A   1      39.498  26.552  28.251  1.00  0.00     0.029 A 
ATOM     37  N   UNL A   1      41.540  27.200  28.869  1.00  0.00    -0.354 N 
ATOM     38  C   UNL A   1      42.190  31.339  30.185  1.00  0.00     0.074 A 
ATOM     39  C   UNL A   1      40.932  32.053  30.287  1.00  0.00     0.031 C 
ATOM     40  C   UNL A   1      40.305  25.513  28.050  1.00  0.00     0.029 A 
ATOM     41  C   UNL A   1      41.657  25.927  28.362  1.00  0.00     0.049 A 
ATOM     42  H   UNL A   1      42.296  27.709  29.242  1.00  0.00     0.167 HD
ATOM     43  C   UNL A   1      43.419  31.851  30.453  1.00  0.00     0.037 A 
ATOM     44  C   UNL A   1      42.741  25.179  28.108  1.00  0.00     0.037 A 
ATOM     45  C   UNL A   1      44.642  31.083  30.328  1.00  0.00     0.049 A 
ATOM     46  C   UNL A   1      44.069  25.763  28.435  1.00  0.00     0.074 A 
ATOM     47  C   UNL A   1      45.938  31.464  30.631  1.00  0.00     0.029 A 
ATOM     48  N   UNL A   1      44.718  29.778  29.850  1.00  0.00    -0.354 N 
ATOM     49  N   UNL A   1      44.338  26.966  28.881  1.00  0.00    -0.248 NA
ATOM     50  C   UNL A   1      45.231  24.901  28.231  1.00  0.00     0.031 C 
ATOM     51  C   UNL A   1      46.798  30.412  30.293  1.00  0.00     0.029 A 
ATOM     52  C   UNL A   1      46.038  29.351  29.826  1.00  0.00     0.049 A 
ATOM     53  H   UNL A   1      43.946  29.236  29.569  1.00  0.00     0.167 HD
ATOM     54  C   UNL A   1      45.714  27.016  29.007  1.00  0.00     0.074 A 
ATOM     55  C   UNL A   1      46.211  25.704  28.622  1.00  0.00     0.031 C 
ATOM     56  C   UNL A   1      46.496  28.051  29.399  1.00  0.00     0.037 A 
BRANCH  43  57
ATOM     57  C   UNL A   1      43.535  33.297  30.882  1.00  0.00     0.058 A 
ATOM     58  C   UNL A   1      43.550  33.678  32.233  1.00  0.00     0.135 A 
ATOM     59  C   UNL A   1      43.741  34.310  29.926  1.00  0.00     0.135 A 
ATOM     60  F   UNL A   1      43.362  32.762  33.196  1.00  0.00    -0.206 F 
ATOM     61  C   UNL A   1      43.749  35.004  32.621  1.00  0.00     0.059 A 
ATOM     62  C   UNL A   1      43.963  35.639  30.292  1.00  0.00     0.059 A 
ATOM     63  F   UNL A   1      43.745  34.013  28.618  1.00  0.00    -0.206 F 
ATOM     64  C   UNL A   1      43.957  35.978  31.643  1.00  0.00     0.060 A 
BRANCH  64  65
ATOM     65  S   UNL A   1      44.236  37.687  32.162  1.00  0.00     0.124 S 
ATOM     66  O   UNL A   1      45.663  37.670  32.471  1.00  0.00    -0.237 OA
ATOM     67  O   UNL A   1      43.857  38.443  30.973  1.00  0.00    -0.237 OA
ATOM     68  O   UNL A   1      43.349  37.846  33.310  1.00  0.00    -0.744 OA
ENDBRANCH  64  65
ENDBRANCH  43  57
BRANCH  44  69
ATOM     69  C   UNL A   1      42.552  23.833  27.519  1.00  0.00     0.058 A 
ATOM     70  C   UNL A   1      42.709  23.633  26.142  1.00  0.00     0.135 A 
ATOM     71  C   UNL A   1      42.393  22.700  28.336  1.00  0.00     0.135 A 
ATOM     72  F   UNL A   1      42.883  24.686  25.329  1.00  0.00    -0.206 F 
ATOM     73  C   UNL A   1      42.726  22.356  25.594  1.00  0.00     0.059 A 
ATOM     74  C   UNL A   1      42.437  21.412  27.814  1.00  0.00     0.059 A 
ATOM     75  F   UNL A   1      42.291  22.840  29.668  1.00  0.00    -0.206 F 
ATOM     76  C   UNL A   1      42.603  21.252  26.440  1.00  0.00     0.060 A 
BRANCH  76  77
ATOM     77  S   UNL A   1      42.739  19.598  25.729  1.00  0.00     0.124 S 
ATOM     78  O   UNL A   1      41.350  19.312  25.388  1.00  0.00    -0.237 OA
ATOM     79  O   UNL A   1      43.640  19.818  24.602  1.00  0.00    -0.237 OA
ATOM     80  O   UNL A   1      43.298  18.807  26.821  1.00  0.00    -0.744 OA
ENDBRANCH  76  77
ENDBRANCH  44  69
BRANCH  56  81
ATOM     81  C   UNL A   1      47.969  27.777  29.406  1.00  0.00     0.058 A 
ATOM     82  C   UNL A   1      48.746  27.951  28.249  1.00  0.00     0.135 A 
ATOM     83  C   UNL A   1      48.599  27.304  30.565  1.00  0.00     0.135 A 
ATOM     84  F   UNL A   1      48.178  28.380  27.111  1.00  0.00    -0.206 F 
ATOM     85  C   UNL A   1      50.096  27.627  28.233  1.00  0.00     0.059 A 
ATOM     86  C   UNL A   1      49.955  27.000  30.579  1.00  0.00     0.059 A 
ATOM     87  F   UNL A   1      47.895  27.122  31.693  1.00  0.00    -0.206 F 
ATOM     88  C   UNL A   1      50.689  27.146  29.402  1.00  0.00     0.060 A 
BRANCH  88  89
ATOM     89  S   UNL A   1      52.442  26.723  29.365  1.00  0.00     0.124 S 
ATOM     90  O   UNL A   1      53.062  28.043  29.403  1.00  0.00    -0.237 OA
ATOM     91  O   UNL A   1      52.593  25.915  30.571  1.00  0.00    -0.237 OA
ATOM     92  O   UNL A   1      52.587  25.994  28.108  1.00  0.00    -0.744 OA
ENDBRANCH  88  89
ENDBRANCH  56  81
ENDBRANCH  30  31
ENDBRANCH  23  25
ENDBRANCH  22  23
ENDBRANCH   1  22
TORSDOF 16
ENDMDL
MODEL 3
REMARK VINA RESULT:     -11.3      6.602     11.896
REMARK SMILES C[C@H]1CC[C@@H]([C@H](C(=O)OCCOC(=O)c2ccc(-c3c4nc(c(-c5c(F)cc(S(=O)(=O)[O-])cc5F)c5ccc([nH]5)c(-c5c(F)cc(S(=O)(=O)[O-])cc5F)c5nc(c(-c6c(F)cc(S(=O)(=O)[O-])cc6F)c6ccc3[nH]6)C=C5)C=C4)cc2)[C@@H]2CCS(=O)(=O)C2)C[C@@H]1C
REMARK SMILES IDX 11 1 10 2 9 3 7 4 8 5 6 6 5 7 1 8 2 9 3 10 89 11 4 12 88 13
REMARK SMILES IDX 90 14 81 15 82 16 87 17 83 18 84 19 85 20 86 21 12 22 13 23
REMARK SMILES IDX 14 24 15 25 16 26 80 27 17 28 79 29 18 30 19 31 20 32 73 33
REMARK SMILES IDX 21 34 78 35 72 36 74 37 22 38 77 39 71 40 70 41 23 43 57 44
REMARK SMILES IDX 36 45 56 46 37 47 40 48 55 49 75 50 38 51 39 52 54 54 76 55
REMARK SMILES IDX 41 56 24 57 25 58 34 59 26 60 27 61 33 62 35 63 28 64 29 65
REMARK SMILES IDX 30 66 31 67 32 68 58 69 59 70 68 71 60 72 61 73 67 74 69 75
REMARK SMILES IDX 62 76 63 77 64 78 65 79 66 80 42 81 43 82 52 83 44 84 45 85
REMARK SMILES IDX 51 86 53 87 46 88 47 89 48 90 49 91 50 92
REMARK H PARENT 74 42 40 53
REMARK Flexibility Score: inf
ROOT
ATOM      1  C   UNL A   1      38.904  23.823  26.026  1.00  0.00     0.275 C 
ENDROOT
BRANCH   1   2
ATOM      2  C   UNL A   1      37.655  22.908  25.970  1.00  0.00     0.274 C 
BRANCH   2   3
ATOM      3  O   UNL A   1      36.375  23.553  26.300  1.00  0.00    -0.462 OA
BRANCH   3   4
ATOM      4  C   UNL A   1      35.570  23.928  25.266  1.00  0.00     0.309 C 
ATOM      5  O   UNL A   1      35.942  23.938  24.096  1.00  0.00    -0.252 OA
BRANCH   4   6
ATOM      6  C   UNL A   1      34.203  24.526  25.684  1.00  0.00     0.106 C 
BRANCH   6   7
ATOM      7  C   UNL A   1      33.791  26.028  25.309  1.00  0.00     0.004 C 
ATOM      8  C   UNL A   1      29.533  26.476  24.155  1.00  0.00     0.008 C 
ATOM      9  C   UNL A   1      30.995  26.867  24.402  1.00  0.00    -0.011 C 
ATOM     10  C   UNL A   1      31.337  26.700  25.891  1.00  0.00     0.004 C 
ATOM     11  C   UNL A   1      31.945  26.056  23.508  1.00  0.00    -0.011 C 
ATOM     12  C   UNL A   1      32.827  26.796  26.240  1.00  0.00     0.005 C 
ATOM     13  C   UNL A   1      33.393  26.413  23.877  1.00  0.00     0.008 C 
ATOM     14  C   UNL A   1      31.628  26.326  22.020  1.00  0.00     0.008 C 
ENDBRANCH   6   7
BRANCH   6  15
ATOM     15  C   UNL A   1      33.065  23.468  25.767  1.00  0.00     0.019 C 
ATOM     16  C   UNL A   1      32.965  22.714  27.117  1.00  0.00     0.021 C 
ATOM     17  C   UNL A   1      33.053  22.446  24.632  1.00  0.00     0.141 C 
ATOM     18  C   UNL A   1      33.600  21.343  26.989  1.00  0.00     0.137 C 
ATOM     19  S   UNL A   1      33.255  20.822  25.329  1.00  0.00     0.150 S 
ATOM     20  O   UNL A   1      34.433  20.192  24.775  1.00  0.00    -0.229 OA
ATOM     21  O   UNL A   1      31.961  20.163  25.324  1.00  0.00    -0.229 OA
ENDBRANCH   6  15
ENDBRANCH   4   6
ENDBRANCH   3   4
ENDBRANCH   2   3
ENDBRANCH   1   2
BRANCH   1  22
ATOM     22  O   UNL A   1      39.886  23.345  26.985  1.00  0.00    -0.458 OA
BRANCH  22  23
ATOM     23  C   UNL A   1      40.881  24.244  27.049  1.00  0.00     0.338 C 
ATOM     24  O   UNL A   1      41.721  24.328  26.170  1.00  0.00    -0.246 OA
BRANCH  23  25
ATOM     25  C   UNL A   1      41.001  25.186  28.160  1.00  0.00     0.060 A 
ATOM     26  C   UNL A   1      39.817  25.575  28.802  1.00  0.00     0.016 A 
ATOM     27  C   UNL A   1      42.096  26.057  28.124  1.00  0.00     0.016 A 
ATOM     28  C   UNL A   1      39.716  26.848  29.370  1.00  0.00     0.010 A 
ATOM     29  C   UNL A   1      42.023  27.300  28.754  1.00  0.00     0.010 A 
ATOM     30  C   UNL A   1      40.843  27.690  29.407  1.00  0.00    -0.014 A 
BRANCH  30  31
ATOM     31  C   UNL A   1      40.944  28.710  30.478  1.00  0.00     0.031 A 
ATOM     32  C   UNL A   1      41.848  28.599  31.668  1.00  0.00     0.074 A 
ATOM     33  C   UNL A   1      40.027  29.692  30.369  1.00  0.00     0.049 A 
ATOM     34  N   UNL A   1      41.858  29.337  32.748  1.00  0.00    -0.248 NA
ATOM     35  C   UNL A   1      42.853  27.526  31.668  1.00  0.00     0.031 C 
ATOM     36  C   UNL A   1      39.071  29.815  29.257  1.00  0.00     0.029 A 
ATOM     37  N   UNL A   1      39.711  30.741  31.181  1.00  0.00    -0.354 N 
ATOM     38  C   UNL A   1      42.844  28.810  33.576  1.00  0.00     0.074 A 
ATOM     39  C   UNL A   1      43.422  27.688  32.862  1.00  0.00     0.031 C 
ATOM     40  C   UNL A   1      38.293  30.878  29.446  1.00  0.00     0.029 A 
ATOM     41  C   UNL A   1      38.625  31.456  30.731  1.00  0.00     0.049 A 
ATOM     42  H   UNL A   1      40.206  30.964  32.002  1.00  0.00     0.167 HD
ATOM     43  C   UNL A   1      43.202  29.233  34.816  1.00  0.00     0.037 A 
ATOM     44  C   UNL A   1      37.918  32.437  31.310  1.00  0.00     0.037 A 
ATOM     45  C   UNL A   1      42.580  30.364  35.476  1.00  0.00     0.049 A 
ATOM     46  C   UNL A   1      38.351  32.890  32.658  1.00  0.00     0.074 A 
ATOM     47  C   UNL A   1      42.895  30.931  36.699  1.00  0.00     0.029 A 
ATOM     48  N   UNL A   1      41.508  31.093  34.969  1.00  0.00    -0.354 N 
ATOM     49  N   UNL A   1      39.308  32.402  33.409  1.00  0.00    -0.248 NA
ATOM     50  C   UNL A   1      37.622  34.018  33.236  1.00  0.00     0.031 C 
ATOM     51  C   UNL A   1      41.987  31.967  36.953  1.00  0.00     0.029 A 
ATOM     52  C   UNL A   1      41.135  32.084  35.866  1.00  0.00     0.049 A 
ATOM     53  H   UNL A   1      41.077  30.928  34.100  1.00  0.00     0.167 HD
ATOM     54  C   UNL A   1      39.297  33.160  34.566  1.00  0.00     0.074 A 
ATOM     55  C   UNL A   1      38.256  34.162  34.391  1.00  0.00     0.031 C 
ATOM     56  C   UNL A   1      40.069  33.037  35.672  1.00  0.00     0.037 A 
BRANCH  43  57
ATOM     57  C   UNL A   1      44.282  28.484  35.565  1.00  0.00     0.058 A 
ATOM     58  C   UNL A   1      45.640  28.824  35.457  1.00  0.00     0.135 A 
ATOM     59  C   UNL A   1      43.942  27.477  36.488  1.00  0.00     0.135 A 
ATOM     60  F   UNL A   1      46.032  29.776  34.596  1.00  0.00    -0.206 F 
ATOM     61  C   UNL A   1      46.619  28.187  36.221  1.00  0.00     0.059 A 
ATOM     62  C   UNL A   1      44.902  26.843  37.279  1.00  0.00     0.059 A 
ATOM     63  F   UNL A   1      42.662  27.110  36.645  1.00  0.00    -0.206 F 
ATOM     64  C   UNL A   1      46.241  27.198  37.131  1.00  0.00     0.060 A 
BRANCH  64  65
ATOM     65  S   UNL A   1      47.519  26.400  38.130  1.00  0.00     0.124 S 
ATOM     66  O   UNL A   1      46.823  25.203  38.593  1.00  0.00    -0.237 OA
ATOM     67  O   UNL A   1      48.583  26.175  37.157  1.00  0.00    -0.237 OA
ATOM     68  O   UNL A   1      47.816  27.389  39.161  1.00  0.00    -0.744 OA
ENDBRANCH  64  65
ENDBRANCH  43  57
BRANCH  44  69
ATOM     69  C   UNL A   1      36.758  33.001  30.580  1.00  0.00     0.058 A 
ATOM     70  C   UNL A   1      35.452  32.663  30.956  1.00  0.00     0.135 A 
ATOM     71  C   UNL A   1      36.927  34.020  29.626  1.00  0.00     0.135 A 
ATOM     72  F   UNL A   1      35.246  31.711  31.879  1.00  0.00    -0.206 F 
ATOM     73  C   UNL A   1      34.351  33.320  30.419  1.00  0.00     0.059 A 
ATOM     74  C   UNL A   1      35.843  34.711  29.097  1.00  0.00     0.059 A 
ATOM     75  F   UNL A   1      38.162  34.413  29.274  1.00  0.00    -0.206 F 
ATOM     76  C   UNL A   1      34.558  34.352  29.501  1.00  0.00     0.060 A 
BRANCH  76  77
ATOM     77  S   UNL A   1      33.127  35.271  28.896  1.00  0.00     0.124 S 
ATOM     78  O   UNL A   1      32.485  34.280  28.039  1.00  0.00    -0.237 OA
ATOM     79  O   UNL A   1      32.423  35.597  30.132  1.00  0.00    -0.237 OA
ATOM     80  O   UNL A   1      33.725  36.410  28.207  1.00  0.00    -0.744 OA
ENDBRANCH  76  77
ENDBRANCH  44  69
BRANCH  56  81
ATOM     81  C   UNL A   1      39.782  34.017  36.768  1.00  0.00     0.058 A 
ATOM     82  C   UNL A   1      40.305  35.320  36.733  1.00  0.00     0.135 A 
ATOM     83  C   UNL A   1      39.012  33.639  37.878  1.00  0.00     0.135 A 
ATOM     84  F   UNL A   1      41.066  35.716  35.700  1.00  0.00    -0.206 F 
ATOM     85  C   UNL A   1      40.103  36.205  37.783  1.00  0.00     0.059 A 
ATOM     86  C   UNL A   1      38.775  34.518  38.927  1.00  0.00     0.059 A 
ATOM     87  F   UNL A   1      38.495  32.403  37.954  1.00  0.00    -0.206 F 
ATOM     88  C   UNL A   1      39.341  35.793  38.878  1.00  0.00     0.060 A 
BRANCH  88  89
ATOM     89  S   UNL A   1      39.093  36.950  40.239  1.00  0.00     0.124 S 
ATOM     90  O   UNL A   1      38.577  38.121  39.535  1.00  0.00    -0.237 OA
ATOM     91  O   UNL A   1      38.135  36.242  41.081  1.00  0.00    -0.237 OA
ATOM     92  O   UNL A   1      40.430  37.096  40.807  1.00  0.00    -0.744 OA
ENDBRANCH  88  89
ENDBRANCH  56  81
ENDBRANCH  30  31
ENDBRANCH  23  25
ENDBRANCH  22  23
ENDBRANCH   1  22
TORSDOF 16
ENDMDL
