MODEL 1
REMARK VINA RESULT:     -10.7      0.000      0.000
REMARK SMILES CCCCCCNC(=O)Oc1cccc(-c2ccc(CC(=O)OCCOC(=O)c3ccc(-c4c5nc(c(-c6c(F)cc(S(=O)(=O)[O-])cc6F)c6ccc([nH]6)c(-c6c(F)cc(S(=O)(=O)[O-])cc6F)c6nc(c(-c7c(F)cc(S(=O)(=O)[O-])cc7F)c7ccc4[nH]7)C=C6)C=C5)cc3)cc2F)c1
REMARK SMILES IDX 20 1 19 2 16 3 17 4 96 5 18 6 95 7 97 8 15 9 11 10 12 11
REMARK SMILES IDX 98 12 13 13 14 14 10 15 8 16 7 17 9 19 6 20 5 21 4 22 3 23
REMARK SMILES IDX 2 24 1 25 21 26 22 27 23 28 24 29 25 30 26 31 27 32 28 33
REMARK SMILES IDX 29 34 30 35 94 36 31 37 93 38 32 39 33 40 34 41 87 42 35 43
REMARK SMILES IDX 92 44 86 45 88 46 36 47 91 48 85 49 84 50 37 52 71 53 50 54
REMARK SMILES IDX 70 55 51 56 54 57 69 58 89 59 52 60 53 61 68 63 90 64 55 65
REMARK SMILES IDX 38 66 39 67 48 68 40 69 41 70 47 71 49 72 42 73 43 74 44 75
REMARK SMILES IDX 45 76 46 77 72 78 73 79 82 80 74 81 75 82 81 83 83 84 76 85
REMARK SMILES IDX 77 86 78 87 79 88 80 89 56 90 57 91 66 92 58 93 59 94 65 95
REMARK SMILES IDX 67 96 60 97 61 98 62 99 63 100 64 101
REMARK H PARENT 7 18 88 51 54 62
REMARK Flexibility Score: inf
ROOT
ATOM      1  C   UNL A   1      35.300  31.056  28.077  1.00  0.00     0.158 C 
ENDROOT
BRANCH   1   2
ATOM      2  C   UNL A   1      34.305  30.218  27.310  1.00  0.00    -0.034 A 
ATOM      3  C   UNL A   1      32.414  28.548  26.014  1.00  0.00     0.018 A 
ATOM      4  C   UNL A   1      32.062  29.837  26.437  1.00  0.00     0.012 A 
ATOM      5  C   UNL A   1      33.732  28.127  26.234  1.00  0.00     0.131 A 
ATOM      6  C   UNL A   1      32.994  30.659  27.082  1.00  0.00     0.005 A 
ATOM      7  C   UNL A   1      34.668  28.943  26.865  1.00  0.00     0.044 A 
ATOM      8  F   UNL A   1      34.124  26.903  25.845  1.00  0.00    -0.206 F 
BRANCH   3   9
ATOM      9  C   UNL A   1      31.430  27.652  25.402  1.00  0.00    -0.012 A 
ATOM     10  C   UNL A   1      30.327  25.495  25.314  1.00  0.00     0.133 A 
ATOM     11  C   UNL A   1      29.605  25.881  24.189  1.00  0.00     0.047 A 
ATOM     12  C   UNL A   1      31.244  26.359  25.911  1.00  0.00     0.056 A 
ATOM     13  C   UNL A   1      29.773  27.168  23.680  1.00  0.00     0.004 A 
ATOM     14  C   UNL A   1      30.674  28.050  24.286  1.00  0.00     0.009 A 
BRANCH  10  15
ATOM     15  O   UNL A   1      30.196  24.168  25.750  1.00  0.00    -0.410 OA
BRANCH  15  16
ATOM     16  C   UNL A   1      31.299  23.602  26.375  1.00  0.00     0.412 C 
ATOM     17  N   UNL A   1      32.055  22.830  25.535  1.00  0.00    -0.321 N 
ATOM     18  H   UNL A   1      32.839  22.387  25.933  1.00  0.00     0.167 HD
ATOM     19  O   UNL A   1      31.614  23.737  27.550  1.00  0.00    -0.224 OA
BRANCH  17  20
ATOM     20  C   UNL A   1      31.826  22.594  24.125  1.00  0.00     0.119 C 
BRANCH  20  21
ATOM     21  C   UNL A   1      33.132  22.558  23.331  1.00  0.00     0.021 C 
BRANCH  21  22
ATOM     22  C   UNL A   1      33.159  23.456  22.088  1.00  0.00     0.002 C 
BRANCH  22  23
ATOM     23  C   UNL A   1      32.597  24.868  22.278  1.00  0.00    -0.000 C 
BRANCH  23  24
ATOM     24  C   UNL A   1      33.568  25.889  22.875  1.00  0.00    -0.003 C 
ATOM     25  C   UNL A   1      33.532  27.238  22.174  1.00  0.00     0.004 C 
ENDBRANCH  23  24
ENDBRANCH  22  23
ENDBRANCH  21  22
ENDBRANCH  20  21
ENDBRANCH  17  20
ENDBRANCH  15  16
ENDBRANCH  10  15
ENDBRANCH   3   9
ENDBRANCH   1   2
BRANCH   1  26
ATOM     26  C   UNL A   1      34.820  32.374  28.631  1.00  0.00     0.310 C 
ATOM     27  O   UNL A   1      34.724  33.373  27.924  1.00  0.00    -0.252 OA
BRANCH  26  28
ATOM     28  O   UNL A   1      34.460  32.321  29.940  1.00  0.00    -0.462 OA
BRANCH  28  29
ATOM     29  C   UNL A   1      35.196  33.187  30.824  1.00  0.00     0.274 C 
BRANCH  29  30
ATOM     30  C   UNL A   1      36.688  32.864  30.797  1.00  0.00     0.275 C 
BRANCH  30  31
ATOM     31  O   UNL A   1      37.004  31.880  31.797  1.00  0.00    -0.458 OA
BRANCH  31  32
ATOM     32  C   UNL A   1      37.135  30.612  31.348  1.00  0.00     0.338 C 
ATOM     33  O   UNL A   1      36.322  29.707  31.419  1.00  0.00    -0.246 OA
BRANCH  32  34
ATOM     34  C   UNL A   1      38.448  30.451  30.709  1.00  0.00     0.060 A 
ATOM     35  C   UNL A   1      38.538  30.376  29.318  1.00  0.00     0.016 A 
ATOM     36  C   UNL A   1      39.575  30.250  31.507  1.00  0.00     0.016 A 
ATOM     37  C   UNL A   1      39.753  30.052  28.716  1.00  0.00     0.010 A 
ATOM     38  C   UNL A   1      40.804  29.982  30.898  1.00  0.00     0.010 A 
ATOM     39  C   UNL A   1      40.898  29.856  29.501  1.00  0.00    -0.014 A 
BRANCH  39  40
ATOM     40  C   UNL A   1      42.193  29.496  28.871  1.00  0.00     0.031 A 
ATOM     41  C   UNL A   1      42.431  28.092  28.385  1.00  0.00     0.074 A 
ATOM     42  C   UNL A   1      43.163  30.424  28.755  1.00  0.00     0.049 A 
ATOM     43  N   UNL A   1      43.533  27.545  27.946  1.00  0.00    -0.248 NA
ATOM     44  C   UNL A   1      41.274  27.182  28.409  1.00  0.00     0.031 C 
ATOM     45  C   UNL A   1      43.043  31.827  29.158  1.00  0.00     0.029 A 
ATOM     46  N   UNL A   1      44.444  30.323  28.274  1.00  0.00    -0.354 N 
ATOM     47  C   UNL A   1      43.218  26.220  27.670  1.00  0.00     0.074 A 
ATOM     48  C   UNL A   1      41.819  26.042  28.003  1.00  0.00     0.031 C 
ATOM     49  C   UNL A   1      44.201  32.455  28.906  1.00  0.00     0.029 A 
ATOM     50  C   UNL A   1      45.162  31.490  28.378  1.00  0.00     0.049 A 
ATOM     51  H   UNL A   1      44.812  29.495  27.892  1.00  0.00     0.167 HD
ATOM     52  C   UNL A   1      44.020  25.242  27.183  1.00  0.00     0.037 A 
ATOM     53  C   UNL A   1      46.457  31.748  28.114  1.00  0.00     0.037 A 
ATOM     54  C   UNL A   1      45.403  25.434  26.828  1.00  0.00     0.049 A 
ATOM     55  C   UNL A   1      47.338  30.639  27.611  1.00  0.00     0.074 A 
ATOM     56  C   UNL A   1      46.293  24.513  26.305  1.00  0.00     0.029 A 
ATOM     57  N   UNL A   1      46.095  26.630  26.959  1.00  0.00    -0.354 N 
ATOM     58  N   UNL A   1      47.029  29.387  27.367  1.00  0.00    -0.248 NA
ATOM     59  C   UNL A   1      48.746  30.972  27.355  1.00  0.00     0.031 C 
ATOM     60  C   UNL A   1      47.535  25.143  26.151  1.00  0.00     0.029 A 
ATOM     61  C   UNL A   1      47.406  26.466  26.542  1.00  0.00     0.049 A 
ATOM     62  H   UNL A   1      45.712  27.470  27.299  1.00  0.00     0.167 HD
ATOM     63  C   UNL A   1      48.199  28.788  26.914  1.00  0.00     0.074 A 
ATOM     64  C   UNL A   1      49.218  29.818  26.905  1.00  0.00     0.031 C 
ATOM     65  C   UNL A   1      48.409  27.502  26.538  1.00  0.00     0.037 A 
BRANCH  52  66
ATOM     66  C   UNL A   1      43.429  23.869  27.031  1.00  0.00     0.058 A 
ATOM     67  C   UNL A   1      43.046  23.358  25.781  1.00  0.00     0.135 A 
ATOM     68  C   UNL A   1      43.270  23.038  28.153  1.00  0.00     0.135 A 
ATOM     69  F   UNL A   1      43.164  24.115  24.679  1.00  0.00    -0.206 F 
ATOM     70  C   UNL A   1      42.501  22.085  25.651  1.00  0.00     0.059 A 
ATOM     71  C   UNL A   1      42.747  21.753  28.043  1.00  0.00     0.059 A 
ATOM     72  F   UNL A   1      43.619  23.476  29.373  1.00  0.00    -0.206 F 
ATOM     73  C   UNL A   1      42.351  21.290  26.789  1.00  0.00     0.060 A 
BRANCH  73  74
ATOM     74  S   UNL A   1      41.639  19.641  26.610  1.00  0.00     0.124 S 
ATOM     75  O   UNL A   1      40.218  19.916  26.803  1.00  0.00    -0.237 OA
ATOM     76  O   UNL A   1      42.033  19.273  25.254  1.00  0.00    -0.237 OA
ATOM     77  O   UNL A   1      42.280  18.876  27.675  1.00  0.00    -0.744 OA
ENDBRANCH  73  74
ENDBRANCH  52  66
BRANCH  53  78
ATOM     78  C   UNL A   1      46.999  33.112  28.343  1.00  0.00     0.058 A 
ATOM     79  C   UNL A   1      47.555  33.469  29.580  1.00  0.00     0.135 A 
ATOM     80  C   UNL A   1      46.997  34.075  27.322  1.00  0.00     0.135 A 
ATOM     81  F   UNL A   1      47.569  32.585  30.588  1.00  0.00    -0.206 F 
ATOM     82  C   UNL A   1      48.085  34.735  29.799  1.00  0.00     0.059 A 
ATOM     83  C   UNL A   1      47.544  35.340  27.511  1.00  0.00     0.059 A 
ATOM     84  F   UNL A   1      46.487  33.777  26.117  1.00  0.00    -0.206 F 
ATOM     85  C   UNL A   1      48.079  35.664  28.756  1.00  0.00     0.060 A 
BRANCH  85  86
ATOM     86  S   UNL A   1      48.828  37.284  29.030  1.00  0.00     0.124 S 
ATOM     87  O   UNL A   1      49.253  37.642  27.683  1.00  0.00    -0.237 OA
ATOM     88  O   UNL A   1      47.712  38.052  29.573  1.00  0.00    -0.237 OA
ATOM     89  O   UNL A   1      49.901  37.001  29.979  1.00  0.00    -0.744 OA
ENDBRANCH  85  86
ENDBRANCH  53  78
BRANCH  65  90
ATOM     90  C   UNL A   1      49.786  27.143  26.059  1.00  0.00     0.058 A 
ATOM     91  C   UNL A   1      50.772  26.672  26.940  1.00  0.00     0.135 A 
ATOM     92  C   UNL A   1      50.111  27.231  24.696  1.00  0.00     0.135 A 
ATOM     93  F   UNL A   1      50.514  26.578  28.255  1.00  0.00    -0.206 F 
ATOM     94  C   UNL A   1      52.039  26.318  26.490  1.00  0.00     0.059 A 
ATOM     95  C   UNL A   1      51.365  26.862  24.220  1.00  0.00     0.059 A 
ATOM     96  F   UNL A   1      49.200  27.668  23.811  1.00  0.00    -0.206 F 
ATOM     97  C   UNL A   1      52.327  26.418  25.126  1.00  0.00     0.060 A 
BRANCH  97  98
ATOM     98  S   UNL A   1      53.964  25.926  24.546  1.00  0.00     0.124 S 
ATOM     99  O   UNL A   1      54.004  24.521  24.936  1.00  0.00    -0.237 OA
ATOM    100  O   UNL A   1      53.880  26.183  23.111  1.00  0.00    -0.237 OA
ATOM    101  O   UNL A   1      54.864  26.808  25.283  1.00  0.00    -0.744 OA
ENDBRANCH  97  98
ENDBRANCH  65  90
ENDBRANCH  39  40
ENDBRANCH  32  34
ENDBRANCH  31  32
ENDBRANCH  30  31
ENDBRANCH  29  30
ENDBRANCH  28  29
ENDBRANCH  26  28
ENDBRANCH   1  26
TORSDOF 23
ENDMDL
MODEL 2
REMARK VINA RESULT:     -10.5      6.221     12.036
REMARK SMILES CCCCCCNC(=O)Oc1cccc(-c2ccc(CC(=O)OCCOC(=O)c3ccc(-c4c5nc(c(-c6c(F)cc(S(=O)(=O)[O-])cc6F)c6ccc([nH]6)c(-c6c(F)cc(S(=O)(=O)[O-])cc6F)c6nc(c(-c7c(F)cc(S(=O)(=O)[O-])cc7F)c7ccc4[nH]7)C=C6)C=C5)cc3)cc2F)c1
REMARK SMILES IDX 20 1 19 2 16 3 17 4 96 5 18 6 95 7 97 8 15 9 11 10 12 11
REMARK SMILES IDX 98 12 13 13 14 14 10 15 8 16 7 17 9 19 6 20 5 21 4 22 3 23
REMARK SMILES IDX 2 24 1 25 21 26 22 27 23 28 24 29 25 30 26 31 27 32 28 33
REMARK SMILES IDX 29 34 30 35 94 36 31 37 93 38 32 39 33 40 34 41 87 42 35 43
REMARK SMILES IDX 92 44 86 45 88 46 36 47 91 48 85 49 84 50 37 52 71 53 50 54
REMARK SMILES IDX 70 55 51 56 54 57 69 58 89 59 52 60 53 61 68 63 90 64 55 65
REMARK SMILES IDX 38 66 39 67 48 68 40 69 41 70 47 71 49 72 42 73 43 74 44 75
REMARK SMILES IDX 45 76 46 77 72 78 73 79 82 80 74 81 75 82 81 83 83 84 76 85
REMARK SMILES IDX 77 86 78 87 79 88 80 89 56 90 57 91 66 92 58 93 59 94 65 95
REMARK SMILES IDX 67 96 60 97 61 98 62 99 63 100 64 101
REMARK H PARENT 7 18 88 51 54 62
REMARK Flexibility Score: inf
ROOT
ATOM      1  C   UNL A   1      39.808  22.781  26.897  1.00  0.00     0.158 C 
ENDROOT
BRANCH   1   2
ATOM      2  C   UNL A   1      38.497  22.774  26.149  1.00  0.00    -0.034 A 
ATOM      3  C   UNL A   1      35.965  22.667  24.876  1.00  0.00     0.018 A 
ATOM      4  C   UNL A   1      36.399  23.837  25.512  1.00  0.00     0.012 A 
ATOM      5  C   UNL A   1      36.832  21.567  24.873  1.00  0.00     0.131 A 
ATOM      6  C   UNL A   1      37.646  23.888  26.146  1.00  0.00     0.005 A 
ATOM      7  C   UNL A   1      38.079  21.613  25.492  1.00  0.00     0.044 A 
ATOM      8  F   UNL A   1      36.468  20.422  24.274  1.00  0.00    -0.206 F 
BRANCH   3   9
ATOM      9  C   UNL A   1      34.634  22.578  24.271  1.00  0.00    -0.012 A 
ATOM     10  C   UNL A   1      32.775  23.634  23.127  1.00  0.00     0.133 A 
ATOM     11  C   UNL A   1      32.040  22.453  23.177  1.00  0.00     0.047 A 
ATOM     12  C   UNL A   1      34.053  23.710  23.680  1.00  0.00     0.056 A 
ATOM     13  C   UNL A   1      32.612  21.319  23.751  1.00  0.00     0.004 A 
ATOM     14  C   UNL A   1      33.902  21.379  24.288  1.00  0.00     0.009 A 
BRANCH  10  15
ATOM     15  O   UNL A   1      32.141  24.776  22.617  1.00  0.00    -0.410 OA
BRANCH  15  16
ATOM     16  C   UNL A   1      32.908  25.617  21.822  1.00  0.00     0.412 C 
ATOM     17  N   UNL A   1      33.242  26.789  22.444  1.00  0.00    -0.321 N 
ATOM     18  H   UNL A   1      33.769  27.431  21.916  1.00  0.00     0.167 HD
ATOM     19  O   UNL A   1      33.277  25.393  20.676  1.00  0.00    -0.224 OA
BRANCH  17  20
ATOM     20  C   UNL A   1      32.903  27.187  23.794  1.00  0.00     0.119 C 
BRANCH  20  21
ATOM     21  C   UNL A   1      31.403  27.441  23.957  1.00  0.00     0.021 C 
BRANCH  21  22
ATOM     22  C   UNL A   1      30.733  26.653  25.089  1.00  0.00     0.002 C 
BRANCH  22  23
ATOM     23  C   UNL A   1      31.657  25.735  25.896  1.00  0.00    -0.000 C 
BRANCH  23  24
ATOM     24  C   UNL A   1      31.057  24.384  26.293  1.00  0.00    -0.003 C 
ATOM     25  C   UNL A   1      32.080  23.419  26.875  1.00  0.00     0.004 C 
ENDBRANCH  23  24
ENDBRANCH  22  23
ENDBRANCH  21  22
ENDBRANCH  20  21
ENDBRANCH  17  20
ENDBRANCH  15  16
ENDBRANCH  10  15
ENDBRANCH   3   9
ENDBRANCH   1   2
BRANCH   1  26
ATOM     26  C   UNL A   1      40.718  21.591  26.720  1.00  0.00     0.310 C 
ATOM     27  O   UNL A   1      40.584  20.573  27.392  1.00  0.00    -0.252 OA
BRANCH  26  28
ATOM     28  O   UNL A   1      41.633  21.743  25.726  1.00  0.00    -0.462 OA
BRANCH  28  29
ATOM     29  C   UNL A   1      42.920  22.243  26.136  1.00  0.00     0.274 C 
BRANCH  29  30
ATOM     30  C   UNL A   1      43.198  23.616  25.528  1.00  0.00     0.275 C 
BRANCH  30  31
ATOM     31  O   UNL A   1      42.887  24.654  26.473  1.00  0.00    -0.458 OA
BRANCH  31  32
ATOM     32  C   UNL A   1      42.027  25.602  26.037  1.00  0.00     0.338 C 
ATOM     33  O   UNL A   1      41.588  25.750  24.910  1.00  0.00    -0.246 OA
BRANCH  32  34
ATOM     34  C   UNL A   1      41.649  26.473  27.158  1.00  0.00     0.060 A 
ATOM     35  C   UNL A   1      42.355  27.657  27.384  1.00  0.00     0.016 A 
ATOM     36  C   UNL A   1      40.672  26.044  28.056  1.00  0.00     0.016 A 
ATOM     37  C   UNL A   1      42.115  28.398  28.540  1.00  0.00     0.010 A 
ATOM     38  C   UNL A   1      40.394  26.819  29.185  1.00  0.00     0.010 A 
ATOM     39  C   UNL A   1      41.130  27.988  29.450  1.00  0.00    -0.014 A 
BRANCH  39  40
ATOM     40  C   UNL A   1      40.878  28.762  30.691  1.00  0.00     0.031 A 
ATOM     41  C   UNL A   1      39.780  29.790  30.727  1.00  0.00     0.074 A 
ATOM     42  C   UNL A   1      41.648  28.558  31.776  1.00  0.00     0.049 A 
ATOM     43  N   UNL A   1      39.498  30.666  31.655  1.00  0.00    -0.248 NA
ATOM     44  C   UNL A   1      38.889  29.846  29.557  1.00  0.00     0.031 C 
ATOM     45  C   UNL A   1      42.723  27.568  31.876  1.00  0.00     0.029 A 
ATOM     46  N   UNL A   1      41.653  29.181  32.999  1.00  0.00    -0.354 N 
ATOM     47  C   UNL A   1      38.420  31.400  31.173  1.00  0.00     0.074 A 
ATOM     48  C   UNL A   1      38.106  30.871  29.861  1.00  0.00     0.031 C 
ATOM     49  C   UNL A   1      43.281  27.649  33.094  1.00  0.00     0.029 A 
ATOM     50  C   UNL A   1      42.644  28.732  33.839  1.00  0.00     0.049 A 
ATOM     51  H   UNL A   1      41.010  29.881  33.250  1.00  0.00     0.167 HD
ATOM     52  C   UNL A   1      37.755  32.417  31.770  1.00  0.00     0.037 A 
ATOM     53  C   UNL A   1      43.023  29.166  35.056  1.00  0.00     0.037 A 
ATOM     54  C   UNL A   1      38.057  32.918  33.087  1.00  0.00     0.049 A 
ATOM     55  C   UNL A   1      42.294  30.322  35.683  1.00  0.00     0.074 A 
ATOM     56  C   UNL A   1      37.425  33.930  33.789  1.00  0.00     0.029 A 
ATOM     57  N   UNL A   1      39.076  32.443  33.900  1.00  0.00    -0.354 N 
ATOM     58  N   UNL A   1      41.286  31.014  35.210  1.00  0.00    -0.248 NA
ATOM     59  C   UNL A   1      42.760  30.763  37.005  1.00  0.00     0.031 C 
ATOM     60  C   UNL A   1      38.085  34.090  35.014  1.00  0.00     0.029 A 
ATOM     61  C   UNL A   1      39.101  33.151  35.091  1.00  0.00     0.049 A 
ATOM     62  H   UNL A   1      39.690  31.710  33.667  1.00  0.00     0.167 HD
ATOM     63  C   UNL A   1      40.985  31.961  36.182  1.00  0.00     0.074 A 
ATOM     64  C   UNL A   1      41.912  31.745  37.275  1.00  0.00     0.031 C 
ATOM     65  C   UNL A   1      40.029  32.922  36.170  1.00  0.00     0.037 A 
BRANCH  52  66
ATOM     66  C   UNL A   1      36.651  33.077  30.992  1.00  0.00     0.058 A 
ATOM     67  C   UNL A   1      35.297  32.821  31.260  1.00  0.00     0.135 A 
ATOM     68  C   UNL A   1      36.953  34.003  29.980  1.00  0.00     0.135 A 
ATOM     69  F   UNL A   1      34.953  31.934  32.208  1.00  0.00    -0.206 F 
ATOM     70  C   UNL A   1      34.282  33.437  30.535  1.00  0.00     0.059 A 
ATOM     71  C   UNL A   1      35.954  34.648  29.257  1.00  0.00     0.059 A 
ATOM     72  F   UNL A   1      38.231  34.286  29.682  1.00  0.00    -0.206 F 
ATOM     73  C   UNL A   1      34.621  34.347  29.532  1.00  0.00     0.060 A 
BRANCH  73  74
ATOM     74  S   UNL A   1      33.296  35.139  28.594  1.00  0.00     0.124 S 
ATOM     75  O   UNL A   1      34.056  35.967  27.661  1.00  0.00    -0.237 OA
ATOM     76  O   UNL A   1      32.602  33.998  28.005  1.00  0.00    -0.237 OA
ATOM     77  O   UNL A   1      32.546  35.866  29.613  1.00  0.00    -0.744 OA
ENDBRANCH  73  74
ENDBRANCH  52  66
BRANCH  53  78
ATOM     78  C   UNL A   1      44.163  28.513  35.749  1.00  0.00     0.058 A 
ATOM     79  C   UNL A   1      43.953  27.446  36.636  1.00  0.00     0.135 A 
ATOM     80  C   UNL A   1      45.486  28.923  35.518  1.00  0.00     0.135 A 
ATOM     81  F   UNL A   1      42.706  27.027  36.895  1.00  0.00    -0.206 F 
ATOM     82  C   UNL A   1      45.014  26.812  37.273  1.00  0.00     0.059 A 
ATOM     83  C   UNL A   1      46.564  28.289  36.126  1.00  0.00     0.059 A 
ATOM     84  F   UNL A   1      45.738  29.931  34.669  1.00  0.00    -0.206 F 
ATOM     85  C   UNL A   1      46.317  27.238  37.008  1.00  0.00     0.060 A 
BRANCH  85  86
ATOM     86  S   UNL A   1      47.692  26.368  37.791  1.00  0.00     0.124 S 
ATOM     87  O   UNL A   1      47.407  24.984  37.430  1.00  0.00    -0.237 OA
ATOM     88  O   UNL A   1      48.851  26.972  37.142  1.00  0.00    -0.237 OA
ATOM     89  O   UNL A   1      47.535  26.697  39.205  1.00  0.00    -0.744 OA
ENDBRANCH  85  86
ENDBRANCH  53  78
BRANCH  65  90
ATOM     90  C   UNL A   1      39.917  33.795  37.387  1.00  0.00     0.058 A 
ATOM     91  C   UNL A   1      39.034  33.487  38.434  1.00  0.00     0.135 A 
ATOM     92  C   UNL A   1      40.732  34.929  37.527  1.00  0.00     0.135 A 
ATOM     93  F   UNL A   1      38.226  32.418  38.345  1.00  0.00    -0.206 F 
ATOM     94  C   UNL A   1      38.950  34.284  39.571  1.00  0.00     0.059 A 
ATOM     95  C   UNL A   1      40.681  35.728  38.665  1.00  0.00     0.059 A 
ATOM     96  F   UNL A   1      41.600  35.261  36.557  1.00  0.00    -0.206 F 
ATOM     97  C   UNL A   1      39.778  35.405  39.676  1.00  0.00     0.060 A 
BRANCH  97  98
ATOM     98  S   UNL A   1      39.685  36.416  41.169  1.00  0.00     0.124 S 
ATOM     99  O   UNL A   1      40.982  37.084  41.152  1.00  0.00    -0.237 OA
ATOM    100  O   UNL A   1      38.531  37.269  40.900  1.00  0.00    -0.237 OA
ATOM    101  O   UNL A   1      39.497  35.435  42.233  1.00  0.00    -0.744 OA
ENDBRANCH  97  98
ENDBRANCH  65  90
ENDBRANCH  39  40
ENDBRANCH  32  34
ENDBRANCH  31  32
ENDBRANCH  30  31
ENDBRANCH  29  30
ENDBRANCH  28  29
ENDBRANCH  26  28
ENDBRANCH   1  26
TORSDOF 23
ENDMDL
MODEL 3
REMARK VINA RESULT:     -10.4      1.415      8.275
REMARK SMILES CCCCCCNC(=O)Oc1cccc(-c2ccc(CC(=O)OCCOC(=O)c3ccc(-c4c5nc(c(-c6c(F)cc(S(=O)(=O)[O-])cc6F)c6ccc([nH]6)c(-c6c(F)cc(S(=O)(=O)[O-])cc6F)c6nc(c(-c7c(F)cc(S(=O)(=O)[O-])cc7F)c7ccc4[nH]7)C=C6)C=C5)cc3)cc2F)c1
REMARK SMILES IDX 20 1 19 2 16 3 17 4 96 5 18 6 95 7 97 8 15 9 11 10 12 11
REMARK SMILES IDX 98 12 13 13 14 14 10 15 8 16 7 17 9 19 6 20 5 21 4 22 3 23
REMARK SMILES IDX 2 24 1 25 21 26 22 27 23 28 24 29 25 30 26 31 27 32 28 33
REMARK SMILES IDX 29 34 30 35 94 36 31 37 93 38 32 39 33 40 34 41 87 42 35 43
REMARK SMILES IDX 92 44 86 45 88 46 36 47 91 48 85 49 84 50 37 52 71 53 50 54
REMARK SMILES IDX 70 55 51 56 54 57 69 58 89 59 52 60 53 61 68 63 90 64 55 65
REMARK SMILES IDX 38 66 39 67 48 68 40 69 41 70 47 71 49 72 42 73 43 74 44 75
REMARK SMILES IDX 45 76 46 77 72 78 73 79 82 80 74 81 75 82 81 83 83 84 76 85
REMARK SMILES IDX 77 86 78 87 79 88 80 89 56 90 57 91 66 92 58 93 59 94 65 95
REMARK SMILES IDX 67 96 60 97 61 98 62 99 63 100 64 101
REMARK H PARENT 7 18 88 51 54 62
REMARK Flexibility Score: inf
ROOT
ATOM      1  C   UNL A   1      33.851  34.842  28.363  1.00  0.00     0.158 C 
ENDROOT
BRANCH   1   2
ATOM      2  C   UNL A   1      33.596  33.428  27.902  1.00  0.00    -0.034 A 
ATOM      3  C   UNL A   1      33.085  30.727  27.203  1.00  0.00     0.018 A 
ATOM      4  C   UNL A   1      32.129  31.722  26.965  1.00  0.00     0.012 A 
ATOM      5  C   UNL A   1      34.303  31.117  27.775  1.00  0.00     0.131 A 
ATOM      6  C   UNL A   1      32.378  33.055  27.315  1.00  0.00     0.005 A 
ATOM      7  C   UNL A   1      34.563  32.442  28.117  1.00  0.00     0.044 A 
ATOM      8  F   UNL A   1      35.257  30.205  28.021  1.00  0.00    -0.206 F 
BRANCH   3   9
ATOM      9  C   UNL A   1      32.810  29.320  26.906  1.00  0.00    -0.012 A 
ATOM     10  C   UNL A   1      33.380  27.271  25.740  1.00  0.00     0.133 A 
ATOM     11  C   UNL A   1      32.253  26.636  26.252  1.00  0.00     0.047 A 
ATOM     12  C   UNL A   1      33.655  28.604  26.045  1.00  0.00     0.056 A 
ATOM     13  C   UNL A   1      31.412  27.333  27.118  1.00  0.00     0.004 A 
ATOM     14  C   UNL A   1      31.692  28.664  27.448  1.00  0.00     0.009 A 
BRANCH  10  15
ATOM     15  O   UNL A   1      34.158  26.568  24.809  1.00  0.00    -0.410 OA
BRANCH  15  16
ATOM     16  C   UNL A   1      33.475  25.814  23.864  1.00  0.00     0.412 C 
ATOM     17  N   UNL A   1      33.235  26.496  22.702  1.00  0.00    -0.321 N 
ATOM     18  H   UNL A   1      32.735  26.013  22.006  1.00  0.00     0.167 HD
ATOM     19  O   UNL A   1      33.096  24.658  23.998  1.00  0.00    -0.224 OA
BRANCH  17  20
ATOM     20  C   UNL A   1      33.638  27.850  22.387  1.00  0.00     0.119 C 
BRANCH  20  21
ATOM     21  C   UNL A   1      32.520  28.858  22.659  1.00  0.00     0.021 C 
BRANCH  21  22
ATOM     22  C   UNL A   1      31.118  28.250  22.792  1.00  0.00     0.002 C 
BRANCH  22  23
ATOM     23  C   UNL A   1      30.067  29.147  23.455  1.00  0.00    -0.000 C 
BRANCH  23  24
ATOM     24  C   UNL A   1      28.721  29.228  22.731  1.00  0.00    -0.003 C 
ATOM     25  C   UNL A   1      27.873  30.413  23.167  1.00  0.00     0.004 C 
ENDBRANCH  23  24
ENDBRANCH  22  23
ENDBRANCH  21  22
ENDBRANCH  20  21
ENDBRANCH  17  20
ENDBRANCH  15  16
ENDBRANCH  10  15
ENDBRANCH   3   9
ENDBRANCH   1   2
BRANCH   1  26
ATOM     26  C   UNL A   1      33.441  35.202  29.770  1.00  0.00     0.310 C 
ATOM     27  O   UNL A   1      32.912  36.278  30.031  1.00  0.00    -0.252 OA
BRANCH  26  28
ATOM     28  O   UNL A   1      33.660  34.211  30.675  1.00  0.00    -0.462 OA
BRANCH  28  29
ATOM     29  C   UNL A   1      34.917  34.274  31.374  1.00  0.00     0.274 C 
BRANCH  29  30
ATOM     30  C   UNL A   1      35.384  32.882  31.794  1.00  0.00     0.275 C 
BRANCH  30  31
ATOM     31  O   UNL A   1      36.395  32.401  30.891  1.00  0.00    -0.458 OA
BRANCH  31  32
ATOM     32  C   UNL A   1      36.618  31.068  30.923  1.00  0.00     0.338 C 
ATOM     33  O   UNL A   1      35.829  30.185  31.213  1.00  0.00    -0.246 OA
BRANCH  32  34
ATOM     34  C   UNL A   1      38.006  30.794  30.525  1.00  0.00     0.060 A 
ATOM     35  C   UNL A   1      38.354  30.806  29.173  1.00  0.00     0.016 A 
ATOM     36  C   UNL A   1      38.929  30.401  31.494  1.00  0.00     0.016 A 
ATOM     37  C   UNL A   1      39.621  30.380  28.778  1.00  0.00     0.010 A 
ATOM     38  C   UNL A   1      40.217  30.029  31.100  1.00  0.00     0.010 A 
ATOM     39  C   UNL A   1      40.565  29.991  29.738  1.00  0.00    -0.014 A 
BRANCH  39  40
ATOM     40  C   UNL A   1      41.912  29.522  29.327  1.00  0.00     0.031 A 
ATOM     41  C   UNL A   1      43.070  30.482  29.305  1.00  0.00     0.074 A 
ATOM     42  C   UNL A   1      42.090  28.241  28.951  1.00  0.00     0.049 A 
ATOM     43  N   UNL A   1      44.280  30.309  28.841  1.00  0.00    -0.248 NA
ATOM     44  C   UNL A   1      42.829  31.819  29.873  1.00  0.00     0.031 C 
ATOM     45  C   UNL A   1      41.054  27.206  28.959  1.00  0.00     0.029 A 
ATOM     46  N   UNL A   1      43.204  27.594  28.479  1.00  0.00    -0.354 N 
ATOM     47  C   UNL A   1      44.937  31.519  29.028  1.00  0.00     0.074 A 
ATOM     48  C   UNL A   1      43.986  32.424  29.640  1.00  0.00     0.031 C 
ATOM     49  C   UNL A   1      41.582  26.055  28.515  1.00  0.00     0.029 A 
ATOM     50  C   UNL A   1      42.974  26.283  28.138  1.00  0.00     0.049 A 
ATOM     51  H   UNL A   1      44.083  28.027  28.393  1.00  0.00     0.167 HD
ATOM     52  C   UNL A   1      46.216  31.843  28.720  1.00  0.00     0.037 A 
ATOM     53  C   UNL A   1      43.780  25.375  27.554  1.00  0.00     0.037 A 
ATOM     54  C   UNL A   1      47.164  30.928  28.137  1.00  0.00     0.049 A 
ATOM     55  C   UNL A   1      45.183  25.770  27.186  1.00  0.00     0.074 A 
ATOM     56  C   UNL A   1      48.489  31.154  27.809  1.00  0.00     0.029 A 
ATOM     57  N   UNL A   1      46.887  29.611  27.797  1.00  0.00    -0.354 N 
ATOM     58  N   UNL A   1      45.787  26.921  27.357  1.00  0.00    -0.248 NA
ATOM     59  C   UNL A   1      46.012  24.745  26.537  1.00  0.00     0.031 C 
ATOM     60  C   UNL A   1      49.005  29.984  27.239  1.00  0.00     0.029 A 
ATOM     61  C   UNL A   1      48.012  29.018  27.248  1.00  0.00     0.049 A 
ATOM     62  H   UNL A   1      46.020  29.165  27.927  1.00  0.00     0.167 HD
ATOM     63  C   UNL A   1      47.072  26.756  26.852  1.00  0.00     0.074 A 
ATOM     64  C   UNL A   1      47.161  25.388  26.380  1.00  0.00     0.031 C 
ATOM     65  C   UNL A   1      48.085  27.654  26.785  1.00  0.00     0.037 A 
BRANCH  52  66
ATOM     66  C   UNL A   1      46.657  33.256  28.981  1.00  0.00     0.058 A 
ATOM     67  C   UNL A   1      47.247  33.638  30.196  1.00  0.00     0.135 A 
ATOM     68  C   UNL A   1      46.513  34.238  27.987  1.00  0.00     0.135 A 
ATOM     69  F   UNL A   1      47.396  32.743  31.185  1.00  0.00    -0.206 F 
ATOM     70  C   UNL A   1      47.652  34.949  30.427  1.00  0.00     0.059 A 
ATOM     71  C   UNL A   1      46.931  35.550  28.188  1.00  0.00     0.059 A 
ATOM     72  F   UNL A   1      45.955  33.928  26.806  1.00  0.00    -0.206 F 
ATOM     73  C   UNL A   1      47.487  35.900  29.418  1.00  0.00     0.060 A 
BRANCH  73  74
ATOM     74  S   UNL A   1      48.013  37.598  29.730  1.00  0.00     0.124 S 
ATOM     75  O   UNL A   1      48.039  38.148  28.378  1.00  0.00    -0.237 OA
ATOM     76  O   UNL A   1      46.953  38.103  30.597  1.00  0.00    -0.237 OA
ATOM     77  O   UNL A   1      49.316  37.439  30.368  1.00  0.00    -0.744 OA
ENDBRANCH  73  74
ENDBRANCH  52  66
BRANCH  53  78
ATOM     78  C   UNL A   1      43.267  24.012  27.265  1.00  0.00     0.058 A 
ATOM     79  C   UNL A   1      43.302  23.005  28.240  1.00  0.00     0.135 A 
ATOM     80  C   UNL A   1      42.704  23.697  26.017  1.00  0.00     0.135 A 
ATOM     81  F   UNL A   1      43.839  23.258  29.443  1.00  0.00    -0.206 F 
ATOM     82  C   UNL A   1      42.804  21.732  27.988  1.00  0.00     0.059 A 
ATOM     83  C   UNL A   1      42.179  22.437  25.750  1.00  0.00     0.059 A 
ATOM     84  F   UNL A   1      42.636  24.631  25.055  1.00  0.00    -0.206 F 
ATOM     85  C   UNL A   1      42.240  21.458  26.741  1.00  0.00     0.060 A 
BRANCH  85  86
ATOM     86  S   UNL A   1      41.538  19.821  26.445  1.00  0.00     0.124 S 
ATOM     87  O   UNL A   1      41.808  19.152  27.712  1.00  0.00    -0.237 OA
ATOM     88  O   UNL A   1      40.138  20.130  26.171  1.00  0.00    -0.237 OA
ATOM     89  O   UNL A   1      42.298  19.334  25.298  1.00  0.00    -0.744 OA
ENDBRANCH  85  86
ENDBRANCH  53  78
BRANCH  65  90
ATOM     90  C   UNL A   1      49.387  27.179  26.207  1.00  0.00     0.058 A 
ATOM     91  C   UNL A   1      50.378  26.591  27.009  1.00  0.00     0.135 A 
ATOM     92  C   UNL A   1      49.630  27.275  24.828  1.00  0.00     0.135 A 
ATOM     93  F   UNL A   1      50.197  26.485  28.336  1.00  0.00    -0.206 F 
ATOM     94  C   UNL A   1      51.572  26.131  26.467  1.00  0.00     0.059 A 
ATOM     95  C   UNL A   1      50.809  26.801  24.260  1.00  0.00     0.059 A 
ATOM     96  F   UNL A   1      48.711  27.821  24.016  1.00  0.00    -0.206 F 
ATOM     97  C   UNL A   1      51.780  26.241  25.090  1.00  0.00     0.060 A 
BRANCH  97  98
ATOM     98  S   UNL A   1      53.320  25.613  24.390  1.00  0.00     0.124 S 
ATOM     99  O   UNL A   1      54.303  26.508  24.993  1.00  0.00    -0.237 OA
ATOM    100  O   UNL A   1      53.344  24.233  24.867  1.00  0.00    -0.237 OA
ATOM    101  O   UNL A   1      53.128  25.769  22.951  1.00  0.00    -0.744 OA
ENDBRANCH  97  98
ENDBRANCH  65  90
ENDBRANCH  39  40
ENDBRANCH  32  34
ENDBRANCH  31  32
ENDBRANCH  30  31
ENDBRANCH  29  30
ENDBRANCH  28  29
ENDBRANCH  26  28
ENDBRANCH   1  26
TORSDOF 23
ENDMDL
