MODEL 1
REMARK VINA RESULT:     -11.8      0.000      0.000
REMARK SMILES CCc1ncc(C[N@H+]2CCC[C@@H](c3cccc(C(=O)OCCOC(=O)c4ccc(-c5c6nc(c(-c7c(F)cc(S(=O)(=O)[O-])cc7F)c7ccc([nH]7)c(-c7c(F)cc(S(=O)(=O)[O-])cc7F)c7nc(c(-c8c(F)cc(S(=O)(=O)[O-])cc8F)c8ccc5[nH]8)C=C7)C=C6)cc4)c3)C2)cn1
REMARK SMILES IDX 21 1 20 2 18 3 19 4 17 5 13 6 14 7 92 8 15 9 16 10 12 11
REMARK SMILES IDX 8 12 9 13 93 14 10 16 11 17 7 18 6 19 3 20 4 21 95 22 5 23
REMARK SMILES IDX 94 24 2 25 1 26 22 27 23 28 24 29 25 30 26 31 27 32 91 33
REMARK SMILES IDX 28 34 90 35 29 36 30 37 31 38 84 39 32 40 89 41 83 42 85 43
REMARK SMILES IDX 33 44 88 45 82 46 81 47 34 49 68 50 47 51 67 52 48 53 51 54
REMARK SMILES IDX 66 55 86 56 49 57 50 58 65 60 87 61 52 62 35 63 36 64 45 65
REMARK SMILES IDX 37 66 38 67 44 68 46 69 39 70 40 71 41 72 42 73 43 74 69 75
REMARK SMILES IDX 70 76 79 77 71 78 72 79 78 80 80 81 73 82 74 83 75 84 76 85
REMARK SMILES IDX 77 86 53 87 54 88 63 89 55 90 56 91 62 92 64 93 57 94 58 95
REMARK SMILES IDX 59 96 60 97 61 98
REMARK H PARENT 8 15 85 48 51 59
REMARK Flexibility Score: inf
ROOT
ATOM      1  C   UNL A   1      31.804  30.059  26.837  1.00  0.00     0.275 C 
ENDROOT
BRANCH   1   2
ATOM      2  O   UNL A   1      31.535  28.811  26.169  1.00  0.00    -0.458 OA
BRANCH   2   3
ATOM      3  C   UNL A   1      31.309  28.890  24.832  1.00  0.00     0.338 C 
ATOM      4  O   UNL A   1      30.619  29.710  24.259  1.00  0.00    -0.246 OA
BRANCH   3   5
ATOM      5  C   UNL A   1      32.135  27.883  24.118  1.00  0.00     0.060 A 
ATOM      6  C   UNL A   1      33.464  25.854  24.058  1.00  0.00    -0.038 A 
ATOM      7  C   UNL A   1      33.746  26.103  22.702  1.00  0.00     0.004 A 
ATOM      8  C   UNL A   1      32.693  26.782  24.775  1.00  0.00     0.020 A 
ATOM      9  C   UNL A   1      33.173  27.184  22.042  1.00  0.00     0.001 A 
ATOM     10  C   UNL A   1      32.329  28.041  22.739  1.00  0.00     0.016 A 
BRANCH   6  11
ATOM     11  C   UNL A   1      33.816  24.516  24.691  1.00  0.00     0.074 C 
ATOM     12  N   UNL A   1      33.280  22.060  24.404  1.00  0.00    -0.331 N 
ATOM     13  C   UNL A   1      34.712  21.759  24.304  1.00  0.00     0.262 C 
ATOM     14  C   UNL A   1      32.991  23.430  23.963  1.00  0.00     0.270 C 
ATOM     15  H   UNL A   1      33.043  21.990  25.394  1.00  0.00     0.348 HD
ATOM     16  C   UNL A   1      35.546  22.751  25.121  1.00  0.00     0.062 C 
ATOM     17  C   UNL A   1      35.312  24.188  24.657  1.00  0.00     0.020 C 
BRANCH  12  18
ATOM     18  C   UNL A   1      32.421  21.071  23.721  1.00  0.00     0.302 C 
BRANCH  18  19
ATOM     19  C   UNL A   1      32.582  19.633  24.128  1.00  0.00     0.043 A 
ATOM     20  C   UNL A   1      33.026  17.055  24.880  1.00  0.00     0.127 A 
ATOM     21  N   UNL A   1      32.837  17.968  25.851  1.00  0.00    -0.241 NA
ATOM     22  N   UNL A   1      32.974  17.324  23.562  1.00  0.00    -0.241 NA
ATOM     23  C   UNL A   1      32.616  19.236  25.448  1.00  0.00     0.124 A 
ATOM     24  C   UNL A   1      32.748  18.607  23.219  1.00  0.00     0.124 A 
BRANCH  20  25
ATOM     25  C   UNL A   1      33.390  15.656  25.290  1.00  0.00     0.074 C 
ATOM     26  C   UNL A   1      32.162  14.884  25.747  1.00  0.00     0.012 C 
ENDBRANCH  20  25
ENDBRANCH  18  19
ENDBRANCH  12  18
ENDBRANCH   6  11
ENDBRANCH   3   5
ENDBRANCH   2   3
ENDBRANCH   1   2
BRANCH   1  27
ATOM     27  C   UNL A   1      33.290  30.402  26.744  1.00  0.00     0.275 C 
BRANCH  27  28
ATOM     28  O   UNL A   1      34.003  29.788  27.833  1.00  0.00    -0.458 OA
BRANCH  28  29
ATOM     29  C   UNL A   1      34.798  30.608  28.557  1.00  0.00     0.338 C 
ATOM     30  O   UNL A   1      34.476  31.619  29.158  1.00  0.00    -0.246 OA
BRANCH  29  31
ATOM     31  C   UNL A   1      36.168  30.073  28.559  1.00  0.00     0.060 A 
ATOM     32  C   UNL A   1      36.715  29.643  29.764  1.00  0.00     0.016 A 
ATOM     33  C   UNL A   1      36.948  30.099  27.408  1.00  0.00     0.016 A 
ATOM     34  C   UNL A   1      38.065  29.315  29.852  1.00  0.00     0.010 A 
ATOM     35  C   UNL A   1      38.281  29.675  27.475  1.00  0.00     0.010 A 
ATOM     36  C   UNL A   1      38.866  29.308  28.704  1.00  0.00    -0.014 A 
BRANCH  36  37
ATOM     37  C   UNL A   1      40.312  28.951  28.782  1.00  0.00     0.031 A 
ATOM     38  C   UNL A   1      41.323  30.002  29.166  1.00  0.00     0.074 A 
ATOM     39  C   UNL A   1      40.731  27.699  28.507  1.00  0.00     0.049 A 
ATOM     40  N   UNL A   1      42.627  29.971  29.069  1.00  0.00    -0.248 NA
ATOM     41  C   UNL A   1      40.793  31.258  29.720  1.00  0.00     0.031 C 
ATOM     42  C   UNL A   1      39.864  26.564  28.180  1.00  0.00     0.029 A 
ATOM     43  N   UNL A   1      41.998  27.168  28.450  1.00  0.00    -0.354 N 
ATOM     44  C   UNL A   1      43.069  31.222  29.485  1.00  0.00     0.074 A 
ATOM     45  C   UNL A   1      41.894  31.987  29.842  1.00  0.00     0.031 C 
ATOM     46  C   UNL A   1      40.618  25.473  27.981  1.00  0.00     0.029 A 
ATOM     47  C   UNL A   1      42.025  25.846  28.069  1.00  0.00     0.049 A 
ATOM     48  H   UNL A   1      42.808  27.685  28.661  1.00  0.00     0.167 HD
ATOM     49  C   UNL A   1      44.339  31.689  29.558  1.00  0.00     0.037 A 
ATOM     50  C   UNL A   1      43.060  25.036  27.769  1.00  0.00     0.037 A 
ATOM     51  C   UNL A   1      45.507  30.900  29.258  1.00  0.00     0.049 A 
ATOM     52  C   UNL A   1      44.459  25.583  27.819  1.00  0.00     0.074 A 
ATOM     53  C   UNL A   1      46.837  31.275  29.314  1.00  0.00     0.029 A 
ATOM     54  N   UNL A   1      45.483  29.570  28.861  1.00  0.00    -0.354 N 
ATOM     55  N   UNL A   1      44.859  26.786  28.152  1.00  0.00    -0.248 NA
ATOM     56  C   UNL A   1      45.545  24.673  27.430  1.00  0.00     0.031 C 
ATOM     57  C   UNL A   1      47.617  30.183  28.918  1.00  0.00     0.029 A 
ATOM     58  C   UNL A   1      46.775  29.115  28.657  1.00  0.00     0.049 A 
ATOM     59  H   UNL A   1      44.668  29.031  28.741  1.00  0.00     0.167 HD
ATOM     60  C   UNL A   1      46.244  26.774  28.028  1.00  0.00     0.074 A 
ATOM     61  C   UNL A   1      46.614  25.441  27.600  1.00  0.00     0.031 C 
ATOM     62  C   UNL A   1      47.127  27.779  28.246  1.00  0.00     0.037 A 
BRANCH  49  63
ATOM     63  C   UNL A   1      44.537  33.130  29.941  1.00  0.00     0.058 A 
ATOM     64  C   UNL A   1      44.785  33.524  31.265  1.00  0.00     0.135 A 
ATOM     65  C   UNL A   1      44.513  34.131  28.955  1.00  0.00     0.135 A 
ATOM     66  F   UNL A   1      44.803  32.612  32.250  1.00  0.00    -0.206 F 
ATOM     67  C   UNL A   1      44.976  34.861  31.602  1.00  0.00     0.059 A 
ATOM     68  C   UNL A   1      44.728  35.471  29.265  1.00  0.00     0.059 A 
ATOM     69  F   UNL A   1      44.282  33.809  27.672  1.00  0.00    -0.206 F 
ATOM     70  C   UNL A   1      44.943  35.828  30.595  1.00  0.00     0.060 A 
BRANCH  70  71
ATOM     71  S   UNL A   1      45.191  37.559  31.044  1.00  0.00     0.124 S 
ATOM     72  O   UNL A   1      46.445  37.859  30.359  1.00  0.00    -0.237 OA
ATOM     73  O   UNL A   1      44.001  38.200  30.495  1.00  0.00    -0.237 OA
ATOM     74  O   UNL A   1      45.266  37.525  32.501  1.00  0.00    -0.744 OA
ENDBRANCH  70  71
ENDBRANCH  49  63
BRANCH  50  75
ATOM     75  C   UNL A   1      42.802  23.634  27.340  1.00  0.00     0.058 A 
ATOM     76  C   UNL A   1      42.763  23.287  25.983  1.00  0.00     0.135 A 
ATOM     77  C   UNL A   1      42.617  22.609  28.282  1.00  0.00     0.135 A 
ATOM     78  F   UNL A   1      42.920  24.234  25.045  1.00  0.00    -0.206 F 
ATOM     79  C   UNL A   1      42.547  21.976  25.572  1.00  0.00     0.059 A 
ATOM     80  C   UNL A   1      42.428  21.285  27.896  1.00  0.00     0.059 A 
ATOM     81  F   UNL A   1      42.656  22.886  29.595  1.00  0.00    -0.206 F 
ATOM     82  C   UNL A   1      42.386  20.980  26.538  1.00  0.00     0.060 A 
BRANCH  82  83
ATOM     83  S   UNL A   1      42.171  19.270  25.998  1.00  0.00     0.124 S 
ATOM     84  O   UNL A   1      42.655  18.533  27.159  1.00  0.00    -0.237 OA
ATOM     85  O   UNL A   1      40.734  19.202  25.752  1.00  0.00    -0.237 OA
ATOM     86  O   UNL A   1      43.007  19.188  24.803  1.00  0.00    -0.744 OA
ENDBRANCH  82  83
ENDBRANCH  50  75
BRANCH  62  87
ATOM     87  C   UNL A   1      48.586  27.472  28.068  1.00  0.00     0.058 A 
ATOM     88  C   UNL A   1      49.367  26.972  29.122  1.00  0.00     0.135 A 
ATOM     89  C   UNL A   1      49.189  27.605  26.807  1.00  0.00     0.135 A 
ATOM     90  F   UNL A   1      48.838  26.836  30.348  1.00  0.00    -0.206 F 
ATOM     91  C   UNL A   1      50.698  26.620  28.931  1.00  0.00     0.059 A 
ATOM     92  C   UNL A   1      50.513  27.238  26.589  1.00  0.00     0.059 A 
ATOM     93  F   UNL A   1      48.481  28.073  25.767  1.00  0.00    -0.206 F 
ATOM     94  C   UNL A   1      51.261  26.750  27.660  1.00  0.00     0.060 A 
BRANCH  94  95
ATOM     95  S   UNL A   1      52.972  26.229  27.412  1.00  0.00     0.124 S 
ATOM     96  O   UNL A   1      53.548  27.405  26.768  1.00  0.00    -0.237 OA
ATOM     97  O   UNL A   1      53.422  25.969  28.776  1.00  0.00    -0.237 OA
ATOM     98  O   UNL A   1      52.846  25.047  26.563  1.00  0.00    -0.744 OA
ENDBRANCH  94  95
ENDBRANCH  62  87
ENDBRANCH  36  37
ENDBRANCH  29  31
ENDBRANCH  28  29
ENDBRANCH  27  28
ENDBRANCH   1  27
TORSDOF 18
ENDMDL
MODEL 2
REMARK VINA RESULT:     -11.8      2.044      2.961
REMARK SMILES CCc1ncc(C[N@H+]2CCC[C@@H](c3cccc(C(=O)OCCOC(=O)c4ccc(-c5c6nc(c(-c7c(F)cc(S(=O)(=O)[O-])cc7F)c7ccc([nH]7)c(-c7c(F)cc(S(=O)(=O)[O-])cc7F)c7nc(c(-c8c(F)cc(S(=O)(=O)[O-])cc8F)c8ccc5[nH]8)C=C7)C=C6)cc4)c3)C2)cn1
REMARK SMILES IDX 21 1 20 2 18 3 19 4 17 5 13 6 14 7 92 8 15 9 16 10 12 11
REMARK SMILES IDX 8 12 9 13 93 14 10 16 11 17 7 18 6 19 3 20 4 21 95 22 5 23
REMARK SMILES IDX 94 24 2 25 1 26 22 27 23 28 24 29 25 30 26 31 27 32 91 33
REMARK SMILES IDX 28 34 90 35 29 36 30 37 31 38 84 39 32 40 89 41 83 42 85 43
REMARK SMILES IDX 33 44 88 45 82 46 81 47 34 49 68 50 47 51 67 52 48 53 51 54
REMARK SMILES IDX 66 55 86 56 49 57 50 58 65 60 87 61 52 62 35 63 36 64 45 65
REMARK SMILES IDX 37 66 38 67 44 68 46 69 39 70 40 71 41 72 42 73 43 74 69 75
REMARK SMILES IDX 70 76 79 77 71 78 72 79 78 80 80 81 73 82 74 83 75 84 76 85
REMARK SMILES IDX 77 86 53 87 54 88 63 89 55 90 56 91 62 92 64 93 57 94 58 95
REMARK SMILES IDX 59 96 60 97 61 98
REMARK H PARENT 8 15 85 48 51 59
REMARK Flexibility Score: inf
ROOT
ATOM      1  C   UNL A   1      33.648  29.359  26.853  1.00  0.00     0.275 C 
ENDROOT
BRANCH   1   2
ATOM      2  O   UNL A   1      33.154  29.835  25.586  1.00  0.00    -0.458 OA
BRANCH   2   3
ATOM      3  C   UNL A   1      31.837  30.167  25.549  1.00  0.00     0.338 C 
ATOM      4  O   UNL A   1      31.325  31.161  26.025  1.00  0.00    -0.246 OA
BRANCH   3   5
ATOM      5  C   UNL A   1      31.090  29.185  24.722  1.00  0.00     0.060 A 
ATOM      6  C   UNL A   1      30.467  26.917  24.129  1.00  0.00    -0.038 A 
ATOM      7  C   UNL A   1      29.716  27.426  23.053  1.00  0.00     0.004 A 
ATOM      8  C   UNL A   1      31.195  27.807  24.933  1.00  0.00     0.020 A 
ATOM      9  C   UNL A   1      29.592  28.797  22.857  1.00  0.00     0.001 A 
ATOM     10  C   UNL A   1      30.237  29.672  23.722  1.00  0.00     0.016 A 
BRANCH   6  11
ATOM     11  C   UNL A   1      30.343  25.457  24.540  1.00  0.00     0.074 C 
ATOM     12  N   UNL A   1      31.588  23.273  24.253  1.00  0.00    -0.331 N 
ATOM     13  C   UNL A   1      31.625  23.103  25.709  1.00  0.00     0.262 C 
ATOM     14  C   UNL A   1      31.516  24.693  23.884  1.00  0.00     0.270 C 
ATOM     15  H   UNL A   1      30.732  22.820  23.935  1.00  0.00     0.348 HD
ATOM     16  C   UNL A   1      30.403  23.747  26.374  1.00  0.00     0.062 C 
ATOM     17  C   UNL A   1      30.321  25.239  26.056  1.00  0.00     0.020 C 
BRANCH  12  18
ATOM     18  C   UNL A   1      32.688  22.579  23.551  1.00  0.00     0.302 C 
BRANCH  18  19
ATOM     19  C   UNL A   1      34.037  22.600  24.212  1.00  0.00     0.043 A 
ATOM     20  C   UNL A   1      36.545  22.626  25.270  1.00  0.00     0.127 A 
ATOM     21  N   UNL A   1      36.018  23.801  24.877  1.00  0.00    -0.241 NA
ATOM     22  N   UNL A   1      35.902  21.445  25.210  1.00  0.00    -0.241 NA
ATOM     23  C   UNL A   1      34.773  23.756  24.360  1.00  0.00     0.124 A 
ATOM     24  C   UNL A   1      34.661  21.463  24.687  1.00  0.00     0.124 A 
BRANCH  20  25
ATOM     25  C   UNL A   1      37.972  22.618  25.742  1.00  0.00     0.074 C 
ATOM     26  C   UNL A   1      38.370  23.976  26.299  1.00  0.00     0.012 C 
ENDBRANCH  20  25
ENDBRANCH  18  19
ENDBRANCH  12  18
ENDBRANCH   6  11
ENDBRANCH   3   5
ENDBRANCH   2   3
ENDBRANCH   1   2
BRANCH   1  27
ATOM     27  C   UNL A   1      34.450  30.452  27.557  1.00  0.00     0.275 C 
BRANCH  27  28
ATOM     28  O   UNL A   1      35.231  29.877  28.620  1.00  0.00    -0.458 OA
BRANCH  28  29
ATOM     29  C   UNL A   1      36.180  30.678  29.156  1.00  0.00     0.338 C 
ATOM     30  O   UNL A   1      36.021  31.737  29.738  1.00  0.00    -0.246 OA
BRANCH  29  31
ATOM     31  C   UNL A   1      37.499  30.051  28.971  1.00  0.00     0.060 A 
ATOM     32  C   UNL A   1      38.255  29.743  30.098  1.00  0.00     0.016 A 
ATOM     33  C   UNL A   1      38.036  29.874  27.701  1.00  0.00     0.016 A 
ATOM     34  C   UNL A   1      39.580  29.335  29.972  1.00  0.00     0.010 A 
ATOM     35  C   UNL A   1      39.336  29.370  27.571  1.00  0.00     0.010 A 
ATOM     36  C   UNL A   1      40.136  29.123  28.704  1.00  0.00    -0.014 A 
BRANCH  36  37
ATOM     37  C   UNL A   1      41.551  28.678  28.554  1.00  0.00     0.031 A 
ATOM     38  C   UNL A   1      42.670  29.678  28.704  1.00  0.00     0.074 A 
ATOM     39  C   UNL A   1      41.846  27.391  28.280  1.00  0.00     0.049 A 
ATOM     40  N   UNL A   1      43.934  29.560  28.387  1.00  0.00    -0.248 NA
ATOM     41  C   UNL A   1      42.315  30.989  29.271  1.00  0.00     0.031 C 
ATOM     42  C   UNL A   1      40.874  26.302  28.167  1.00  0.00     0.029 A 
ATOM     43  N   UNL A   1      43.053  26.779  28.036  1.00  0.00    -0.354 N 
ATOM     44  C   UNL A   1      44.510  30.797  28.655  1.00  0.00     0.074 A 
ATOM     45  C   UNL A   1      43.459  31.651  29.164  1.00  0.00     0.031 C 
ATOM     46  C   UNL A   1      41.521  25.157  27.902  1.00  0.00     0.029 A 
ATOM     47  C   UNL A   1      42.940  25.442  27.729  1.00  0.00     0.049 A 
ATOM     48  H   UNL A   1      43.915  27.252  28.079  1.00  0.00     0.167 HD
ATOM     49  C   UNL A   1      45.798  31.184  28.485  1.00  0.00     0.037 A 
ATOM     50  C   UNL A   1      43.861  24.555  27.301  1.00  0.00     0.037 A 
ATOM     51  C   UNL A   1      46.850  30.310  28.033  1.00  0.00     0.049 A 
ATOM     52  C   UNL A   1      45.276  25.013  27.082  1.00  0.00     0.074 A 
ATOM     53  C   UNL A   1      48.189  30.601  27.842  1.00  0.00     0.029 A 
ATOM     54  N   UNL A   1      46.684  28.969  27.718  1.00  0.00    -0.354 N 
ATOM     55  N   UNL A   1      45.793  26.202  27.277  1.00  0.00    -0.248 NA
ATOM     56  C   UNL A   1      46.226  24.020  26.564  1.00  0.00     0.031 C 
ATOM     57  C   UNL A   1      48.827  29.446  27.379  1.00  0.00     0.029 A 
ATOM     58  C   UNL A   1      47.894  28.423  27.323  1.00  0.00     0.049 A 
ATOM     59  H   UNL A   1      45.832  28.478  27.768  1.00  0.00     0.167 HD
ATOM     60  C   UNL A   1      47.133  26.096  26.920  1.00  0.00     0.074 A 
ATOM     61  C   UNL A   1      47.349  24.725  26.508  1.00  0.00     0.031 C 
ATOM     62  C   UNL A   1      48.095  27.051  26.931  1.00  0.00     0.037 A 
BRANCH  49  63
ATOM     63  C   UNL A   1      46.139  32.625  28.751  1.00  0.00     0.058 A 
ATOM     64  C   UNL A   1      46.100  33.600  27.741  1.00  0.00     0.135 A 
ATOM     65  C   UNL A   1      46.475  33.042  30.049  1.00  0.00     0.135 A 
ATOM     66  F   UNL A   1      45.801  33.255  26.480  1.00  0.00    -0.206 F 
ATOM     67  C   UNL A   1      46.409  34.931  28.005  1.00  0.00     0.059 A 
ATOM     68  C   UNL A   1      46.762  34.373  30.342  1.00  0.00     0.059 A 
ATOM     69  F   UNL A   1      46.525  32.151  31.053  1.00  0.00    -0.206 F 
ATOM     70  C   UNL A   1      46.742  35.307  29.308  1.00  0.00     0.060 A 
BRANCH  70  71
ATOM     71  S   UNL A   1      47.141  37.037  29.637  1.00  0.00     0.124 S 
ATOM     72  O   UNL A   1      46.904  37.644  28.330  1.00  0.00    -0.237 OA
ATOM     73  O   UNL A   1      46.183  37.388  30.681  1.00  0.00    -0.237 OA
ATOM     74  O   UNL A   1      48.536  36.990  30.063  1.00  0.00    -0.744 OA
ENDBRANCH  70  71
ENDBRANCH  49  63
BRANCH  50  75
ATOM     75  C   UNL A   1      43.455  23.155  26.999  1.00  0.00     0.058 A 
ATOM     76  C   UNL A   1      43.379  22.693  25.678  1.00  0.00     0.135 A 
ATOM     77  C   UNL A   1      43.163  22.246  28.028  1.00  0.00     0.135 A 
ATOM     78  F   UNL A   1      43.635  23.528  24.659  1.00  0.00    -0.206 F 
ATOM     79  C   UNL A   1      43.025  21.379  25.385  1.00  0.00     0.059 A 
ATOM     80  C   UNL A   1      42.834  20.920  27.761  1.00  0.00     0.059 A 
ATOM     81  F   UNL A   1      43.230  22.635  29.310  1.00  0.00    -0.206 F 
ATOM     82  C   UNL A   1      42.759  20.499  26.436  1.00  0.00     0.060 A 
BRANCH  82  83
ATOM     83  S   UNL A   1      42.363  18.779  26.051  1.00  0.00     0.124 S 
ATOM     84  O   UNL A   1      43.309  18.493  24.978  1.00  0.00    -0.237 OA
ATOM     85  O   UNL A   1      42.619  18.111  27.323  1.00  0.00    -0.237 OA
ATOM     86  O   UNL A   1      40.959  18.839  25.656  1.00  0.00    -0.744 OA
ENDBRANCH  82  83
ENDBRANCH  50  75
BRANCH  62  87
ATOM     87  C   UNL A   1      49.482  26.643  26.523  1.00  0.00     0.058 A 
ATOM     88  C   UNL A   1      50.350  25.997  27.416  1.00  0.00     0.135 A 
ATOM     89  C   UNL A   1      49.917  26.833  25.202  1.00  0.00     0.135 A 
ATOM     90  F   UNL A   1      49.985  25.802  28.693  1.00  0.00    -0.206 F 
ATOM     91  C   UNL A   1      51.606  25.556  27.011  1.00  0.00     0.059 A 
ATOM     92  C   UNL A   1      51.159  26.380  24.770  1.00  0.00     0.059 A 
ATOM     93  F   UNL A   1      49.118  27.441  24.310  1.00  0.00    -0.206 F 
ATOM     94  C   UNL A   1      51.999  25.746  25.685  1.00  0.00     0.060 A 
BRANCH  94  95
ATOM     95  S   UNL A   1      53.605  25.112  25.157  1.00  0.00     0.124 S 
ATOM     96  O   UNL A   1      53.707  25.654  23.807  1.00  0.00    -0.237 OA
ATOM     97  O   UNL A   1      54.511  25.693  26.144  1.00  0.00    -0.237 OA
ATOM     98  O   UNL A   1      53.441  23.663  25.242  1.00  0.00    -0.744 OA
ENDBRANCH  94  95
ENDBRANCH  62  87
ENDBRANCH  36  37
ENDBRANCH  29  31
ENDBRANCH  28  29
ENDBRANCH  27  28
ENDBRANCH   1  27
TORSDOF 18
ENDMDL
MODEL 3
REMARK VINA RESULT:     -11.8      1.681      2.321
REMARK SMILES CCc1ncc(C[N@H+]2CCC[C@@H](c3cccc(C(=O)OCCOC(=O)c4ccc(-c5c6nc(c(-c7c(F)cc(S(=O)(=O)[O-])cc7F)c7ccc([nH]7)c(-c7c(F)cc(S(=O)(=O)[O-])cc7F)c7nc(c(-c8c(F)cc(S(=O)(=O)[O-])cc8F)c8ccc5[nH]8)C=C7)C=C6)cc4)c3)C2)cn1
REMARK SMILES IDX 21 1 20 2 18 3 19 4 17 5 13 6 14 7 92 8 15 9 16 10 12 11
REMARK SMILES IDX 8 12 9 13 93 14 10 16 11 17 7 18 6 19 3 20 4 21 95 22 5 23
REMARK SMILES IDX 94 24 2 25 1 26 22 27 23 28 24 29 25 30 26 31 27 32 91 33
REMARK SMILES IDX 28 34 90 35 29 36 30 37 31 38 84 39 32 40 89 41 83 42 85 43
REMARK SMILES IDX 33 44 88 45 82 46 81 47 34 49 68 50 47 51 67 52 48 53 51 54
REMARK SMILES IDX 66 55 86 56 49 57 50 58 65 60 87 61 52 62 35 63 36 64 45 65
REMARK SMILES IDX 37 66 38 67 44 68 46 69 39 70 40 71 41 72 42 73 43 74 69 75
REMARK SMILES IDX 70 76 79 77 71 78 72 79 78 80 80 81 73 82 74 83 75 84 76 85
REMARK SMILES IDX 77 86 53 87 54 88 63 89 55 90 56 91 62 92 64 93 57 94 58 95
REMARK SMILES IDX 59 96 60 97 61 98
REMARK H PARENT 8 15 85 48 51 59
REMARK Flexibility Score: inf
ROOT
ATOM      1  C   UNL A   1      33.806  30.032  26.508  1.00  0.00     0.275 C 
ENDROOT
BRANCH   1   2
ATOM      2  O   UNL A   1      32.435  29.631  26.698  1.00  0.00    -0.458 OA
BRANCH   2   3
ATOM      3  C   UNL A   1      31.550  30.087  25.773  1.00  0.00     0.338 C 
ATOM      4  O   UNL A   1      31.152  31.228  25.650  1.00  0.00    -0.246 OA
BRANCH   3   5
ATOM      5  C   UNL A   1      31.207  29.000  24.821  1.00  0.00     0.060 A 
ATOM      6  C   UNL A   1      30.983  26.657  24.234  1.00  0.00    -0.038 A 
ATOM      7  C   UNL A   1      30.625  27.039  22.928  1.00  0.00     0.004 A 
ATOM      8  C   UNL A   1      31.323  27.650  25.165  1.00  0.00     0.020 A 
ATOM      9  C   UNL A   1      30.487  28.381  22.592  1.00  0.00     0.001 A 
ATOM     10  C   UNL A   1      30.728  29.355  23.553  1.00  0.00     0.016 A 
BRANCH   6  11
ATOM     11  C   UNL A   1      30.821  25.215  24.693  1.00  0.00     0.074 C 
ATOM     12  N   UNL A   1      32.203  23.108  24.915  1.00  0.00    -0.331 N 
ATOM     13  C   UNL A   1      31.834  23.015  26.332  1.00  0.00     0.262 C 
ATOM     14  C   UNL A   1      32.167  24.498  24.445  1.00  0.00     0.270 C 
ATOM     15  H   UNL A   1      31.494  22.582  24.402  1.00  0.00     0.348 HD
ATOM     16  C   UNL A   1      30.445  23.610  26.583  1.00  0.00     0.062 C 
ATOM     17  C   UNL A   1      30.382  25.075  26.155  1.00  0.00     0.020 C 
BRANCH  12  18
ATOM     18  C   UNL A   1      33.488  22.453  24.596  1.00  0.00     0.302 C 
BRANCH  18  19
ATOM     19  C   UNL A   1      33.480  20.954  24.488  1.00  0.00     0.043 A 
ATOM     20  C   UNL A   1      33.414  18.234  24.436  1.00  0.00     0.127 A 
ATOM     21  N   UNL A   1      32.283  18.895  24.122  1.00  0.00    -0.241 NA
ATOM     22  N   UNL A   1      34.584  18.827  24.737  1.00  0.00    -0.241 NA
ATOM     23  C   UNL A   1      32.348  20.241  24.154  1.00  0.00     0.124 A 
ATOM     24  C   UNL A   1      34.588  20.174  24.750  1.00  0.00     0.124 A 
BRANCH  20  25
ATOM     25  C   UNL A   1      33.350  16.735  24.526  1.00  0.00     0.074 C 
ATOM     26  C   UNL A   1      34.674  16.159  25.004  1.00  0.00     0.012 C 
ENDBRANCH  20  25
ENDBRANCH  18  19
ENDBRANCH  12  18
ENDBRANCH   6  11
ENDBRANCH   3   5
ENDBRANCH   2   3
ENDBRANCH   1   2
BRANCH   1  27
ATOM     27  C   UNL A   1      34.321  30.769  27.743  1.00  0.00     0.275 C 
BRANCH  27  28
ATOM     28  O   UNL A   1      35.315  29.971  28.410  1.00  0.00    -0.458 OA
BRANCH  28  29
ATOM     29  C   UNL A   1      36.249  30.654  29.111  1.00  0.00     0.338 C 
ATOM     30  O   UNL A   1      36.078  31.614  29.841  1.00  0.00    -0.246 OA
BRANCH  29  31
ATOM     31  C   UNL A   1      37.564  30.028  28.899  1.00  0.00     0.060 A 
ATOM     32  C   UNL A   1      38.356  29.749  30.007  1.00  0.00     0.016 A 
ATOM     33  C   UNL A   1      38.060  29.822  27.616  1.00  0.00     0.016 A 
ATOM     34  C   UNL A   1      39.679  29.342  29.848  1.00  0.00     0.010 A 
ATOM     35  C   UNL A   1      39.357  29.320  27.456  1.00  0.00     0.010 A 
ATOM     36  C   UNL A   1      40.194  29.102  28.569  1.00  0.00    -0.014 A 
BRANCH  36  37
ATOM     37  C   UNL A   1      41.606  28.659  28.384  1.00  0.00     0.031 A 
ATOM     38  C   UNL A   1      42.725  29.666  28.473  1.00  0.00     0.074 A 
ATOM     39  C   UNL A   1      41.897  27.367  28.131  1.00  0.00     0.049 A 
ATOM     40  N   UNL A   1      43.978  29.545  28.119  1.00  0.00    -0.248 NA
ATOM     41  C   UNL A   1      42.383  30.989  29.020  1.00  0.00     0.031 C 
ATOM     42  C   UNL A   1      40.927  26.271  28.075  1.00  0.00     0.029 A 
ATOM     43  N   UNL A   1      43.098  26.753  27.863  1.00  0.00    -0.354 N 
ATOM     44  C   UNL A   1      44.557  30.790  28.338  1.00  0.00     0.074 A 
ATOM     45  C   UNL A   1      43.520  31.652  28.860  1.00  0.00     0.031 C 
ATOM     46  C   UNL A   1      41.569  25.123  27.816  1.00  0.00     0.029 A 
ATOM     47  C   UNL A   1      42.981  25.409  27.591  1.00  0.00     0.049 A 
ATOM     48  H   UNL A   1      43.959  27.229  27.866  1.00  0.00     0.167 HD
ATOM     49  C   UNL A   1      45.837  31.177  28.117  1.00  0.00     0.037 A 
ATOM     50  C   UNL A   1      43.891  24.515  27.155  1.00  0.00     0.037 A 
ATOM     51  C   UNL A   1      46.878  30.296  27.652  1.00  0.00     0.049 A 
ATOM     52  C   UNL A   1      45.296  24.973  26.879  1.00  0.00     0.074 A 
ATOM     53  C   UNL A   1      48.209  30.587  27.411  1.00  0.00     0.029 A 
ATOM     54  N   UNL A   1      46.708  28.947  27.375  1.00  0.00    -0.354 N 
ATOM     55  N   UNL A   1      45.815  26.168  27.029  1.00  0.00    -0.248 NA
ATOM     56  C   UNL A   1      46.233  23.970  26.355  1.00  0.00     0.031 C 
ATOM     57  C   UNL A   1      48.836  29.423  26.955  1.00  0.00     0.029 A 
ATOM     58  C   UNL A   1      47.907  28.396  26.953  1.00  0.00     0.049 A 
ATOM     59  H   UNL A   1      45.860  28.454  27.464  1.00  0.00     0.167 HD
ATOM     60  C   UNL A   1      47.143  26.058  26.632  1.00  0.00     0.074 A 
ATOM     61  C   UNL A   1      47.351  24.677  26.245  1.00  0.00     0.031 C 
ATOM     62  C   UNL A   1      48.101  27.015  26.588  1.00  0.00     0.037 A 
BRANCH  49  63
ATOM     63  C   UNL A   1      46.181  32.625  28.337  1.00  0.00     0.058 A 
ATOM     64  C   UNL A   1      46.645  33.104  29.573  1.00  0.00     0.135 A 
ATOM     65  C   UNL A   1      46.076  33.543  27.278  1.00  0.00     0.135 A 
ATOM     66  F   UNL A   1      46.749  32.275  30.623  1.00  0.00    -0.206 F 
ATOM     67  C   UNL A   1      46.968  34.445  29.757  1.00  0.00     0.059 A 
ATOM     68  C   UNL A   1      46.419  34.883  27.433  1.00  0.00     0.059 A 
ATOM     69  F   UNL A   1      45.639  33.138  26.075  1.00  0.00    -0.206 F 
ATOM     70  C   UNL A   1      46.849  35.328  28.681  1.00  0.00     0.060 A 
BRANCH  70  71
ATOM     71  S   UNL A   1      47.270  37.065  28.934  1.00  0.00     0.124 S 
ATOM     72  O   UNL A   1      48.262  37.279  27.884  1.00  0.00    -0.237 OA
ATOM     73  O   UNL A   1      45.987  37.732  28.737  1.00  0.00    -0.237 OA
ATOM     74  O   UNL A   1      47.786  37.096  30.299  1.00  0.00    -0.744 OA
ENDBRANCH  70  71
ENDBRANCH  49  63
BRANCH  50  75
ATOM     75  C   UNL A   1      43.482  23.107  26.899  1.00  0.00     0.058 A 
ATOM     76  C   UNL A   1      43.379  22.608  25.593  1.00  0.00     0.135 A 
ATOM     77  C   UNL A   1      43.212  22.225  27.958  1.00  0.00     0.135 A 
ATOM     78  F   UNL A   1      43.613  23.416  24.547  1.00  0.00    -0.206 F 
ATOM     79  C   UNL A   1      43.021  21.287  25.344  1.00  0.00     0.059 A 
ATOM     80  C   UNL A   1      42.881  20.892  27.735  1.00  0.00     0.059 A 
ATOM     81  F   UNL A   1      43.306  22.650  29.228  1.00  0.00    -0.206 F 
ATOM     82  C   UNL A   1      42.779  20.435  26.424  1.00  0.00     0.060 A 
BRANCH  82  83
ATOM     83  S   UNL A   1      42.378  18.705  26.094  1.00  0.00     0.124 S 
ATOM     84  O   UNL A   1      42.646  18.090  27.389  1.00  0.00    -0.237 OA
ATOM     85  O   UNL A   1      40.975  18.782  25.701  1.00  0.00    -0.237 OA
ATOM     86  O   UNL A   1      43.301  18.346  25.021  1.00  0.00    -0.744 OA
ENDBRANCH  82  83
ENDBRANCH  50  75
BRANCH  62  87
ATOM     87  C   UNL A   1      49.476  26.603  26.146  1.00  0.00     0.058 A 
ATOM     88  C   UNL A   1      49.905  26.778  24.822  1.00  0.00     0.135 A 
ATOM     89  C   UNL A   1      50.398  26.100  27.077  1.00  0.00     0.135 A 
ATOM     90  F   UNL A   1      49.057  27.247  23.892  1.00  0.00    -0.206 F 
ATOM     91  C   UNL A   1      51.204  26.463  24.435  1.00  0.00     0.059 A 
ATOM     92  C   UNL A   1      51.707  25.798  26.717  1.00  0.00     0.059 A 
ATOM     93  F   UNL A   1      50.035  25.921  28.357  1.00  0.00    -0.206 F 
ATOM     94  C   UNL A   1      52.099  25.980  25.392  1.00  0.00     0.060 A 
BRANCH  94  95
ATOM     95  S   UNL A   1      53.799  25.635  24.891  1.00  0.00     0.124 S 
ATOM     96  O   UNL A   1      53.835  26.214  23.552  1.00  0.00    -0.237 OA
ATOM     97  O   UNL A   1      54.575  26.340  25.907  1.00  0.00    -0.237 OA
ATOM     98  O   UNL A   1      53.881  24.178  24.947  1.00  0.00    -0.744 OA
ENDBRANCH  94  95
ENDBRANCH  62  87
ENDBRANCH  36  37
ENDBRANCH  29  31
ENDBRANCH  28  29
ENDBRANCH  27  28
ENDBRANCH   1  27
TORSDOF 18
ENDMDL
