MODEL 1
REMARK VINA RESULT:     -10.6      0.000      0.000
REMARK SMILES Cc1cc2c(c(C)c1Cl)C=C(C(=O)OCCOC(=O)c1ccc(-c3c4nc(c(-c5c(F)cc(S(=O)(=O)[O-])cc5F)c5ccc([nH]5)c(-c5c(F)cc(S(=O)(=O)[O-])cc5F)c5nc(c(-c6c(F)cc(S(=O)(=O)[O-])cc6F)c6ccc3[nH]6)C=C5)C=C4)cc1)[C@@H](C(F)(F)F)O2
REMARK SMILES IDX 16 1 15 2 14 3 12 4 13 5 11 6 1 7 2 8 3 9 8 10 4 11 6 12
REMARK SMILES IDX 9 13 5 14 91 15 7 16 10 17 86 18 87 19 88 20 89 21 90 22
REMARK SMILES IDX 17 23 18 24 19 25 20 26 21 27 85 28 22 29 84 30 23 31 24 32
REMARK SMILES IDX 25 33 78 34 26 35 83 36 77 37 79 38 27 39 82 40 76 41 75 42
REMARK SMILES IDX 28 44 62 45 41 46 61 47 42 48 45 49 60 50 80 51 43 52 44 53
REMARK SMILES IDX 59 55 81 56 46 57 29 58 30 59 39 60 31 61 32 62 38 63 40 64
REMARK SMILES IDX 33 65 34 66 35 67 36 68 37 69 63 70 64 71 73 72 65 73 66 74
REMARK SMILES IDX 72 75 74 76 67 77 68 78 69 79 70 80 71 81 47 82 48 83 57 84
REMARK SMILES IDX 49 85 50 86 56 87 58 88 51 89 52 90 53 91 54 92 55 93
REMARK H PARENT 79 43 45 54
REMARK Flexibility Score: inf
ROOT
ATOM      1  C   UNL A   1      33.241  33.717  27.906  1.00  0.00     0.275 C 
ENDROOT
BRANCH   1   2
ATOM      2  C   UNL A   1      33.379  34.469  29.230  1.00  0.00     0.275 C 
BRANCH   2   3
ATOM      3  O   UNL A   1      34.741  34.442  29.711  1.00  0.00    -0.459 OA
BRANCH   3   4
ATOM      4  C   UNL A   1      34.971  33.617  30.759  1.00  0.00     0.338 C 
ATOM      5  O   UNL A   1      34.352  32.601  31.035  1.00  0.00    -0.246 OA
BRANCH   4   6
ATOM      6  C   UNL A   1      36.106  34.105  31.566  1.00  0.00     0.087 C 
ATOM      7  C   UNL A   1      41.769  35.211  34.541  1.00  0.00     0.046 C 
ATOM      8  C   UNL A   1      40.648  34.941  33.575  1.00  0.00    -0.028 A 
ATOM      9  C   UNL A   1      39.325  35.081  34.013  1.00  0.00     0.052 A 
ATOM     10  C   UNL A   1      40.892  34.522  32.252  1.00  0.00     0.047 A 
ATOM     11  C   UNL A   1      38.257  34.796  33.165  1.00  0.00     0.128 A 
ATOM     12  C   UNL A   1      39.823  34.245  31.372  1.00  0.00    -0.021 A 
ATOM     13  Cl  UNL A   1      42.541  34.334  31.735  1.00  0.00    -0.084 Cl
ATOM     14  C   UNL A   1      38.492  34.373  31.854  1.00  0.00     0.022 A 
ATOM     15  O   UNL A   1      37.014  34.977  33.709  1.00  0.00    -0.475 OA
ATOM     16  C   UNL A   1      40.072  33.824  29.941  1.00  0.00     0.047 C 
ATOM     17  C   UNL A   1      37.331  34.043  31.033  1.00  0.00     0.027 C 
ATOM     18  C   UNL A   1      35.847  34.507  32.984  1.00  0.00     0.316 C 
BRANCH  18  19
ATOM     19  C   UNL A   1      35.189  33.369  33.781  1.00  0.00     0.430 C 
ATOM     20  F   UNL A   1      35.656  32.159  33.389  1.00  0.00    -0.167 F 
ATOM     21  F   UNL A   1      35.456  33.469  35.107  1.00  0.00    -0.167 F 
ATOM     22  F   UNL A   1      33.845  33.350  33.640  1.00  0.00    -0.167 F 
ENDBRANCH  18  19
ENDBRANCH   4   6
ENDBRANCH   3   4
ENDBRANCH   2   3
ENDBRANCH   1   2
BRANCH   1  23
ATOM     23  O   UNL A   1      34.456  33.008  27.607  1.00  0.00    -0.458 OA
BRANCH  23  24
ATOM     24  C   UNL A   1      34.360  31.659  27.647  1.00  0.00     0.338 C 
ATOM     25  O   UNL A   1      33.398  30.979  27.336  1.00  0.00    -0.246 OA
BRANCH  24  26
ATOM     26  C   UNL A   1      35.647  31.071  28.052  1.00  0.00     0.060 A 
ATOM     27  C   UNL A   1      35.645  29.814  28.638  1.00  0.00     0.016 A 
ATOM     28  C   UNL A   1      36.811  31.835  28.050  1.00  0.00     0.016 A 
ATOM     29  C   UNL A   1      36.747  29.392  29.374  1.00  0.00     0.010 A 
ATOM     30  C   UNL A   1      37.968  31.335  28.665  1.00  0.00     0.010 A 
ATOM     31  C   UNL A   1      37.937  30.134  29.396  1.00  0.00    -0.014 A 
BRANCH  31  32
ATOM     32  C   UNL A   1      39.103  29.678  30.222  1.00  0.00     0.031 A 
ATOM     33  C   UNL A   1      40.139  28.742  29.637  1.00  0.00     0.074 A 
ATOM     34  C   UNL A   1      39.275  30.130  31.485  1.00  0.00     0.049 A 
ATOM     35  N   UNL A   1      41.091  28.078  30.244  1.00  0.00    -0.248 NA
ATOM     36  C   UNL A   1      40.093  28.509  28.183  1.00  0.00     0.031 C 
ATOM     37  C   UNL A   1      38.403  31.082  32.177  1.00  0.00     0.029 A 
ATOM     38  N   UNL A   1      40.257  29.864  32.412  1.00  0.00    -0.354 N 
ATOM     39  C   UNL A   1      41.705  27.301  29.265  1.00  0.00     0.074 A 
ATOM     40  C   UNL A   1      41.017  27.571  28.022  1.00  0.00     0.031 C 
ATOM     41  C   UNL A   1      38.926  31.380  33.373  1.00  0.00     0.029 A 
ATOM     42  C   UNL A   1      40.091  30.536  33.602  1.00  0.00     0.049 A 
ATOM     43  H   UNL A   1      41.008  29.251  32.241  1.00  0.00     0.167 HD
ATOM     44  C   UNL A   1      42.746  26.442  29.392  1.00  0.00     0.037 A 
ATOM     45  C   UNL A   1      40.750  30.448  34.775  1.00  0.00     0.037 A 
ATOM     46  C   UNL A   1      43.479  26.239  30.617  1.00  0.00     0.049 A 
ATOM     47  C   UNL A   1      41.866  29.452  34.908  1.00  0.00     0.074 A 
ATOM     48  C   UNL A   1      44.555  25.397  30.845  1.00  0.00     0.029 A 
ATOM     49  N   UNL A   1      43.233  26.901  31.811  1.00  0.00    -0.354 N 
ATOM     50  N   UNL A   1      42.369  28.655  33.997  1.00  0.00    -0.248 NA
ATOM     51  C   UNL A   1      42.482  29.317  36.235  1.00  0.00     0.031 C 
ATOM     52  C   UNL A   1      44.930  25.517  32.186  1.00  0.00     0.029 A 
ATOM     53  C   UNL A   1      44.123  26.472  32.782  1.00  0.00     0.049 A 
ATOM     54  H   UNL A   1      42.529  27.575  31.948  1.00  0.00     0.167 HD
ATOM     55  C   UNL A   1      43.365  27.928  34.639  1.00  0.00     0.074 A 
ATOM     56  C   UNL A   1      43.409  28.398  36.008  1.00  0.00     0.031 C 
ATOM     57  C   UNL A   1      44.161  26.952  34.140  1.00  0.00     0.037 A 
BRANCH  44  58
ATOM     58  C   UNL A   1      43.159  25.631  28.191  1.00  0.00     0.058 A 
ATOM     59  C   UNL A   1      44.129  26.078  27.282  1.00  0.00     0.135 A 
ATOM     60  C   UNL A   1      42.633  24.340  28.000  1.00  0.00     0.135 A 
ATOM     61  F   UNL A   1      44.653  27.307  27.403  1.00  0.00    -0.206 F 
ATOM     62  C   UNL A   1      44.555  25.280  26.221  1.00  0.00     0.059 A 
ATOM     63  C   UNL A   1      43.065  23.516  26.965  1.00  0.00     0.059 A 
ATOM     64  F   UNL A   1      41.702  23.859  28.840  1.00  0.00    -0.206 F 
ATOM     65  C   UNL A   1      44.023  23.998  26.076  1.00  0.00     0.060 A 
BRANCH  65  66
ATOM     66  S   UNL A   1      44.615  22.966  24.717  1.00  0.00     0.124 S 
ATOM     67  O   UNL A   1      45.656  23.812  24.140  1.00  0.00    -0.237 OA
ATOM     68  O   UNL A   1      45.084  21.773  25.414  1.00  0.00    -0.237 OA
ATOM     69  O   UNL A   1      43.429  22.779  23.886  1.00  0.00    -0.744 OA
ENDBRANCH  65  66
ENDBRANCH  44  58
BRANCH  45  70
ATOM     70  C   UNL A   1      40.321  31.281  35.934  1.00  0.00     0.058 A 
ATOM     71  C   UNL A   1      41.150  32.288  36.448  1.00  0.00     0.135 A 
ATOM     72  C   UNL A   1      39.063  31.103  36.534  1.00  0.00     0.135 A 
ATOM     73  F   UNL A   1      42.368  32.487  35.923  1.00  0.00    -0.206 F 
ATOM     74  C   UNL A   1      40.749  33.088  37.513  1.00  0.00     0.059 A 
ATOM     75  C   UNL A   1      38.625  31.914  37.575  1.00  0.00     0.059 A 
ATOM     76  F   UNL A   1      38.226  30.158  36.078  1.00  0.00    -0.206 F 
ATOM     77  C   UNL A   1      39.479  32.899  38.065  1.00  0.00     0.060 A 
BRANCH  77  78
ATOM     78  S   UNL A   1      38.945  33.983  39.408  1.00  0.00     0.124 S 
ATOM     79  O   UNL A   1      38.934  35.283  38.748  1.00  0.00    -0.237 OA
ATOM     80  O   UNL A   1      37.639  33.427  39.747  1.00  0.00    -0.237 OA
ATOM     81  O   UNL A   1      39.980  33.796  40.420  1.00  0.00    -0.744 OA
ENDBRANCH  77  78
ENDBRANCH  45  70
BRANCH  57  82
ATOM     82  C   UNL A   1      45.170  26.338  35.070  1.00  0.00     0.058 A 
ATOM     83  C   UNL A   1      44.878  25.180  35.808  1.00  0.00     0.135 A 
ATOM     84  C   UNL A   1      46.462  26.876  35.174  1.00  0.00     0.135 A 
ATOM     85  F   UNL A   1      43.654  24.633  35.749  1.00  0.00    -0.206 F 
ATOM     86  C   UNL A   1      45.829  24.587  36.629  1.00  0.00     0.059 A 
ATOM     87  C   UNL A   1      47.438  26.283  35.969  1.00  0.00     0.059 A 
ATOM     88  F   UNL A   1      46.795  27.978  34.482  1.00  0.00    -0.206 F 
ATOM     89  C   UNL A   1      47.109  25.141  36.700  1.00  0.00     0.060 A 
BRANCH  89  90
ATOM     90  S   UNL A   1      48.342  24.332  37.739  1.00  0.00     0.124 S 
ATOM     91  O   UNL A   1      48.561  25.338  38.774  1.00  0.00    -0.237 OA
ATOM     92  O   UNL A   1      47.644  23.124  38.166  1.00  0.00    -0.237 OA
ATOM     93  O   UNL A   1      49.464  24.114  36.830  1.00  0.00    -0.744 OA
ENDBRANCH  89  90
ENDBRANCH  57  82
ENDBRANCH  31  32
ENDBRANCH  24  26
ENDBRANCH  23  24
ENDBRANCH   1  23
TORSDOF 15
ENDMDL
MODEL 2
REMARK VINA RESULT:     -10.5      4.804     12.668
REMARK SMILES Cc1cc2c(c(C)c1Cl)C=C(C(=O)OCCOC(=O)c1ccc(-c3c4nc(c(-c5c(F)cc(S(=O)(=O)[O-])cc5F)c5ccc([nH]5)c(-c5c(F)cc(S(=O)(=O)[O-])cc5F)c5nc(c(-c6c(F)cc(S(=O)(=O)[O-])cc6F)c6ccc3[nH]6)C=C5)C=C4)cc1)[C@@H](C(F)(F)F)O2
REMARK SMILES IDX 16 1 15 2 14 3 12 4 13 5 11 6 1 7 2 8 3 9 8 10 4 11 6 12
REMARK SMILES IDX 9 13 5 14 91 15 7 16 10 17 86 18 87 19 88 20 89 21 90 22
REMARK SMILES IDX 17 23 18 24 19 25 20 26 21 27 85 28 22 29 84 30 23 31 24 32
REMARK SMILES IDX 25 33 78 34 26 35 83 36 77 37 79 38 27 39 82 40 76 41 75 42
REMARK SMILES IDX 28 44 62 45 41 46 61 47 42 48 45 49 60 50 80 51 43 52 44 53
REMARK SMILES IDX 59 55 81 56 46 57 29 58 30 59 39 60 31 61 32 62 38 63 40 64
REMARK SMILES IDX 33 65 34 66 35 67 36 68 37 69 63 70 64 71 73 72 65 73 66 74
REMARK SMILES IDX 72 75 74 76 67 77 68 78 69 79 70 80 71 81 47 82 48 83 57 84
REMARK SMILES IDX 49 85 50 86 56 87 58 88 51 89 52 90 53 91 54 92 55 93
REMARK H PARENT 79 43 45 54
REMARK Flexibility Score: inf
ROOT
ATOM      1  C   UNL A   1      40.884  20.432  26.223  1.00  0.00     0.275 C 
ENDROOT
BRANCH   1   2
ATOM      2  C   UNL A   1      42.253  20.272  26.884  1.00  0.00     0.275 C 
BRANCH   2   3
ATOM      3  O   UNL A   1      43.313  20.733  26.017  1.00  0.00    -0.459 OA
BRANCH   3   4
ATOM      4  C   UNL A   1      43.347  22.069  25.800  1.00  0.00     0.338 C 
ATOM      5  O   UNL A   1      42.539  22.723  25.160  1.00  0.00    -0.246 OA
BRANCH   4   6
ATOM      6  C   UNL A   1      44.524  22.672  26.454  1.00  0.00     0.087 C 
ATOM      7  C   UNL A   1      48.802  26.270  29.756  1.00  0.00     0.046 C 
ATOM      8  C   UNL A   1      47.630  25.458  29.274  1.00  0.00    -0.028 A 
ATOM      9  C   UNL A   1      47.748  24.740  28.077  1.00  0.00     0.052 A 
ATOM     10  C   UNL A   1      46.411  25.425  29.978  1.00  0.00     0.047 A 
ATOM     11  C   UNL A   1      46.672  24.013  27.571  1.00  0.00     0.128 A 
ATOM     12  C   UNL A   1      45.315  24.679  29.491  1.00  0.00    -0.021 A 
ATOM     13  Cl  UNL A   1      46.280  26.340  31.450  1.00  0.00    -0.084 Cl
ATOM     14  C   UNL A   1      45.457  23.981  28.261  1.00  0.00     0.022 A 
ATOM     15  O   UNL A   1      46.914  23.350  26.398  1.00  0.00    -0.475 OA
ATOM     16  C   UNL A   1      44.010  24.611  30.253  1.00  0.00     0.047 C 
ATOM     17  C   UNL A   1      44.355  23.242  27.652  1.00  0.00     0.027 C 
ATOM     18  C   UNL A   1      45.805  22.744  25.684  1.00  0.00     0.316 C 
BRANCH  18  19
ATOM     19  C   UNL A   1      45.616  23.472  24.343  1.00  0.00     0.430 C 
ATOM     20  F   UNL A   1      46.802  23.894  23.840  1.00  0.00    -0.167 F 
ATOM     21  F   UNL A   1      45.073  22.657  23.406  1.00  0.00    -0.167 F 
ATOM     22  F   UNL A   1      44.813  24.554  24.452  1.00  0.00    -0.167 F 
ENDBRANCH  18  19
ENDBRANCH   4   6
ENDBRANCH   3   4
ENDBRANCH   2   3
ENDBRANCH   1   2
BRANCH   1  23
ATOM     23  O   UNL A   1      39.995  21.160  27.088  1.00  0.00    -0.458 OA
BRANCH  23  24
ATOM     24  C   UNL A   1      39.309  22.164  26.495  1.00  0.00     0.338 C 
ATOM     25  O   UNL A   1      38.446  22.063  25.641  1.00  0.00    -0.246 OA
BRANCH  24  26
ATOM     26  C   UNL A   1      39.685  23.456  27.091  1.00  0.00     0.060 A 
ATOM     27  C   UNL A   1      39.262  24.620  26.467  1.00  0.00     0.016 A 
ATOM     28  C   UNL A   1      40.617  23.520  28.124  1.00  0.00     0.016 A 
ATOM     29  C   UNL A   1      39.896  25.826  26.751  1.00  0.00     0.010 A 
ATOM     30  C   UNL A   1      41.139  24.763  28.509  1.00  0.00     0.010 A 
ATOM     31  C   UNL A   1      40.838  25.930  27.783  1.00  0.00    -0.014 A 
BRANCH  31  32
ATOM     32  C   UNL A   1      41.533  27.232  28.052  1.00  0.00     0.031 A 
ATOM     33  C   UNL A   1      40.843  28.322  28.844  1.00  0.00     0.074 A 
ATOM     34  C   UNL A   1      42.802  27.438  27.633  1.00  0.00     0.049 A 
ATOM     35  N   UNL A   1      41.188  29.576  29.001  1.00  0.00    -0.248 NA
ATOM     36  C   UNL A   1      39.595  27.963  29.539  1.00  0.00     0.031 C 
ATOM     37  C   UNL A   1      43.631  26.468  26.911  1.00  0.00     0.029 A 
ATOM     38  N   UNL A   1      43.632  28.527  27.770  1.00  0.00    -0.354 N 
ATOM     39  C   UNL A   1      40.171  30.166  29.746  1.00  0.00     0.074 A 
ATOM     40  C   UNL A   1      39.191  29.136  30.009  1.00  0.00     0.031 C 
ATOM     41  C   UNL A   1      44.861  26.969  26.742  1.00  0.00     0.029 A 
ATOM     42  C   UNL A   1      44.877  28.349  27.210  1.00  0.00     0.049 A 
ATOM     43  H   UNL A   1      43.361  29.357  28.225  1.00  0.00     0.167 HD
ATOM     44  C   UNL A   1      40.065  31.449  30.172  1.00  0.00     0.037 A 
ATOM     45  C   UNL A   1      45.902  29.204  27.026  1.00  0.00     0.037 A 
ATOM     46  C   UNL A   1      41.084  32.450  29.976  1.00  0.00     0.049 A 
ATOM     47  C   UNL A   1      45.743  30.634  27.458  1.00  0.00     0.074 A 
ATOM     48  C   UNL A   1      41.075  33.776  30.377  1.00  0.00     0.029 A 
ATOM     49  N   UNL A   1      42.303  32.233  29.349  1.00  0.00    -0.354 N 
ATOM     50  N   UNL A   1      44.733  31.197  28.075  1.00  0.00    -0.248 NA
ATOM     51  C   UNL A   1      46.845  31.552  27.140  1.00  0.00     0.031 C 
ATOM     52  C   UNL A   1      42.267  34.371  29.955  1.00  0.00     0.029 A 
ATOM     53  C   UNL A   1      43.043  33.404  29.337  1.00  0.00     0.049 A 
ATOM     54  H   UNL A   1      42.597  31.375  28.969  1.00  0.00     0.167 HD
ATOM     55  C   UNL A   1      45.081  32.535  28.225  1.00  0.00     0.074 A 
ATOM     56  C   UNL A   1      46.403  32.690  27.656  1.00  0.00     0.031 C 
ATOM     57  C   UNL A   1      44.362  33.544  28.773  1.00  0.00     0.037 A 
BRANCH  44  58
ATOM     58  C   UNL A   1      38.802  31.871  30.877  1.00  0.00     0.058 A 
ATOM     59  C   UNL A   1      38.651  31.772  32.267  1.00  0.00     0.135 A 
ATOM     60  C   UNL A   1      37.756  32.466  30.149  1.00  0.00     0.135 A 
ATOM     61  F   UNL A   1      39.608  31.197  33.012  1.00  0.00    -0.206 F 
ATOM     62  C   UNL A   1      37.507  32.240  32.911  1.00  0.00     0.059 A 
ATOM     63  C   UNL A   1      36.617  32.966  30.774  1.00  0.00     0.059 A 
ATOM     64  F   UNL A   1      37.845  32.587  28.814  1.00  0.00    -0.206 F 
ATOM     65  C   UNL A   1      36.499  32.842  32.156  1.00  0.00     0.060 A 
BRANCH  65  66
ATOM     66  S   UNL A   1      35.039  33.474  33.012  1.00  0.00     0.124 S 
ATOM     67  O   UNL A   1      35.047  34.877  32.605  1.00  0.00    -0.237 OA
ATOM     68  O   UNL A   1      33.970  32.657  32.448  1.00  0.00    -0.237 OA
ATOM     69  O   UNL A   1      35.336  33.231  34.421  1.00  0.00    -0.744 OA
ENDBRANCH  65  66
ENDBRANCH  44  58
BRANCH  45  70
ATOM     70  C   UNL A   1      47.142  28.744  26.340  1.00  0.00     0.058 A 
ATOM     71  C   UNL A   1      48.362  28.657  27.026  1.00  0.00     0.135 A 
ATOM     72  C   UNL A   1      47.127  28.355  24.989  1.00  0.00     0.135 A 
ATOM     73  F   UNL A   1      48.435  29.033  28.312  1.00  0.00    -0.206 F 
ATOM     74  C   UNL A   1      49.519  28.204  26.402  1.00  0.00     0.059 A 
ATOM     75  C   UNL A   1      48.262  27.864  24.353  1.00  0.00     0.059 A 
ATOM     76  F   UNL A   1      45.986  28.411  24.285  1.00  0.00    -0.206 F 
ATOM     77  C   UNL A   1      49.457  27.801  25.066  1.00  0.00     0.060 A 
BRANCH  77  78
ATOM     78  S   UNL A   1      50.952  27.158  24.282  1.00  0.00     0.124 S 
ATOM     79  O   UNL A   1      51.274  26.029  25.147  1.00  0.00    -0.237 OA
ATOM     80  O   UNL A   1      50.475  26.822  22.944  1.00  0.00    -0.237 OA
ATOM     81  O   UNL A   1      51.876  28.286  24.345  1.00  0.00    -0.744 OA
ENDBRANCH  77  78
ENDBRANCH  45  70
BRANCH  57  82
ATOM     82  C   UNL A   1      44.997  34.906  28.811  1.00  0.00     0.058 A 
ATOM     83  C   UNL A   1      44.801  35.835  27.777  1.00  0.00     0.135 A 
ATOM     84  C   UNL A   1      45.755  35.308  29.921  1.00  0.00     0.135 A 
ATOM     85  F   UNL A   1      44.092  35.496  26.689  1.00  0.00    -0.206 F 
ATOM     86  C   UNL A   1      45.349  37.111  27.837  1.00  0.00     0.059 A 
ATOM     87  C   UNL A   1      46.290  36.589  30.015  1.00  0.00     0.059 A 
ATOM     88  F   UNL A   1      45.965  34.460  30.941  1.00  0.00    -0.206 F 
ATOM     89  C   UNL A   1      46.087  37.482  28.963  1.00  0.00     0.060 A 
BRANCH  89  90
ATOM     90  S   UNL A   1      46.755  39.156  29.041  1.00  0.00     0.124 S 
ATOM     91  O   UNL A   1      46.323  39.706  27.760  1.00  0.00    -0.237 OA
ATOM     92  O   UNL A   1      46.091  39.700  30.222  1.00  0.00    -0.237 OA
ATOM     93  O   UNL A   1      48.194  38.944  29.179  1.00  0.00    -0.744 OA
ENDBRANCH  89  90
ENDBRANCH  57  82
ENDBRANCH  31  32
ENDBRANCH  24  26
ENDBRANCH  23  24
ENDBRANCH   1  23
TORSDOF 15
ENDMDL
MODEL 3
REMARK VINA RESULT:     -10.4      5.823     11.175
REMARK SMILES Cc1cc2c(c(C)c1Cl)C=C(C(=O)OCCOC(=O)c1ccc(-c3c4nc(c(-c5c(F)cc(S(=O)(=O)[O-])cc5F)c5ccc([nH]5)c(-c5c(F)cc(S(=O)(=O)[O-])cc5F)c5nc(c(-c6c(F)cc(S(=O)(=O)[O-])cc6F)c6ccc3[nH]6)C=C5)C=C4)cc1)[C@@H](C(F)(F)F)O2
REMARK SMILES IDX 16 1 15 2 14 3 12 4 13 5 11 6 1 7 2 8 3 9 8 10 4 11 6 12
REMARK SMILES IDX 9 13 5 14 91 15 7 16 10 17 86 18 87 19 88 20 89 21 90 22
REMARK SMILES IDX 17 23 18 24 19 25 20 26 21 27 85 28 22 29 84 30 23 31 24 32
REMARK SMILES IDX 25 33 78 34 26 35 83 36 77 37 79 38 27 39 82 40 76 41 75 42
REMARK SMILES IDX 28 44 62 45 41 46 61 47 42 48 45 49 60 50 80 51 43 52 44 53
REMARK SMILES IDX 59 55 81 56 46 57 29 58 30 59 39 60 31 61 32 62 38 63 40 64
REMARK SMILES IDX 33 65 34 66 35 67 36 68 37 69 63 70 64 71 73 72 65 73 66 74
REMARK SMILES IDX 72 75 74 76 67 77 68 78 69 79 70 80 71 81 47 82 48 83 57 84
REMARK SMILES IDX 49 85 50 86 56 87 58 88 51 89 52 90 53 91 54 92 55 93
REMARK H PARENT 79 43 45 54
REMARK Flexibility Score: inf
ROOT
ATOM      1  C   UNL A   1      32.267  28.403  27.594  1.00  0.00     0.275 C 
ENDROOT
BRANCH   1   2
ATOM      2  C   UNL A   1      31.816  27.717  26.304  1.00  0.00     0.275 C 
BRANCH   2   3
ATOM      3  O   UNL A   1      32.143  26.309  26.316  1.00  0.00    -0.459 OA
BRANCH   3   4
ATOM      4  C   UNL A   1      33.011  25.905  25.359  1.00  0.00     0.338 C 
ATOM      5  O   UNL A   1      33.674  26.624  24.628  1.00  0.00    -0.246 OA
BRANCH   4   6
ATOM      6  C   UNL A   1      33.067  24.432  25.296  1.00  0.00     0.087 C 
ATOM      7  C   UNL A   1      34.497  18.169  24.359  1.00  0.00     0.046 C 
ATOM      8  C   UNL A   1      34.482  19.637  24.688  1.00  0.00    -0.028 A 
ATOM      9  C   UNL A   1      33.261  20.322  24.684  1.00  0.00     0.052 A 
ATOM     10  C   UNL A   1      35.666  20.346  24.971  1.00  0.00     0.047 A 
ATOM     11  C   UNL A   1      33.207  21.691  24.939  1.00  0.00     0.128 A 
ATOM     12  C   UNL A   1      35.631  21.730  25.250  1.00  0.00    -0.021 A 
ATOM     13  Cl  UNL A   1      37.173  19.481  24.951  1.00  0.00    -0.084 Cl
ATOM     14  C   UNL A   1      34.379  22.402  25.214  1.00  0.00     0.022 A 
ATOM     15  O   UNL A   1      31.955  22.243  24.911  1.00  0.00    -0.475 OA
ATOM     16  C   UNL A   1      36.891  22.497  25.585  1.00  0.00     0.047 C 
ATOM     17  C   UNL A   1      34.261  23.842  25.422  1.00  0.00     0.027 C 
ATOM     18  C   UNL A   1      31.816  23.688  24.951  1.00  0.00     0.316 C 
BRANCH  18  19
ATOM     19  C   UNL A   1      31.223  24.170  23.617  1.00  0.00     0.430 C 
ATOM     20  F   UNL A   1      32.193  24.381  22.694  1.00  0.00    -0.167 F 
ATOM     21  F   UNL A   1      30.383  23.249  23.083  1.00  0.00    -0.167 F 
ATOM     22  F   UNL A   1      30.529  25.323  23.747  1.00  0.00    -0.167 F 
ENDBRANCH  18  19
ENDBRANCH   4   6
ENDBRANCH   3   4
ENDBRANCH   2   3
ENDBRANCH   1   2
BRANCH   1  23
ATOM     23  O   UNL A   1      33.696  28.561  27.601  1.00  0.00    -0.458 OA
BRANCH  23  24
ATOM     24  C   UNL A   1      34.134  29.840  27.592  1.00  0.00     0.338 C 
ATOM     25  O   UNL A   1      33.487  30.840  27.331  1.00  0.00    -0.246 OA
BRANCH  24  26
ATOM     26  C   UNL A   1      35.535  29.900  28.037  1.00  0.00     0.060 A 
ATOM     27  C   UNL A   1      36.508  30.258  27.115  1.00  0.00     0.016 A 
ATOM     28  C   UNL A   1      35.909  29.404  29.284  1.00  0.00     0.016 A 
ATOM     29  C   UNL A   1      37.843  29.957  27.366  1.00  0.00     0.010 A 
ATOM     30  C   UNL A   1      37.269  29.247  29.587  1.00  0.00     0.010 A 
ATOM     31  C   UNL A   1      38.257  29.458  28.608  1.00  0.00    -0.014 A 
BRANCH  31  32
ATOM     32  C   UNL A   1      39.697  29.110  28.848  1.00  0.00     0.031 A 
ATOM     33  C   UNL A   1      40.639  30.123  29.464  1.00  0.00     0.074 A 
ATOM     34  C   UNL A   1      40.167  27.875  28.564  1.00  0.00     0.049 A 
ATOM     35  N   UNL A   1      41.945  30.089  29.556  1.00  0.00    -0.248 NA
ATOM     36  C   UNL A   1      40.039  31.340  30.037  1.00  0.00     0.031 C 
ATOM     37  C   UNL A   1      39.378  26.764  28.024  1.00  0.00     0.029 A 
ATOM     38  N   UNL A   1      41.424  27.333  28.707  1.00  0.00    -0.354 N 
ATOM     39  C   UNL A   1      42.324  31.300  30.128  1.00  0.00     0.074 A 
ATOM     40  C   UNL A   1      41.111  32.053  30.360  1.00  0.00     0.031 C 
ATOM     41  C   UNL A   1      40.139  25.665  27.959  1.00  0.00     0.029 A 
ATOM     42  C   UNL A   1      41.508  26.017  28.310  1.00  0.00     0.049 A 
ATOM     43  H   UNL A   1      42.192  27.839  29.058  1.00  0.00     0.167 HD
ATOM     44  C   UNL A   1      43.568  31.743  30.433  1.00  0.00     0.037 A 
ATOM     45  C   UNL A   1      42.565  25.192  28.177  1.00  0.00     0.037 A 
ATOM     46  C   UNL A   1      44.766  30.955  30.275  1.00  0.00     0.049 A 
ATOM     47  C   UNL A   1      43.941  25.720  28.470  1.00  0.00     0.074 A 
ATOM     48  C   UNL A   1      46.073  31.311  30.562  1.00  0.00     0.029 A 
ATOM     49  N   UNL A   1      44.803  29.647  29.813  1.00  0.00    -0.354 N 
ATOM     50  N   UNL A   1      44.288  26.902  28.918  1.00  0.00    -0.248 NA
ATOM     51  C   UNL A   1      45.069  24.818  28.207  1.00  0.00     0.031 C 
ATOM     52  C   UNL A   1      46.903  30.236  30.234  1.00  0.00     0.029 A 
ATOM     53  C   UNL A   1      46.110  29.191  29.791  1.00  0.00     0.049 A 
ATOM     54  H   UNL A   1      44.016  29.122  29.541  1.00  0.00     0.167 HD
ATOM     55  C   UNL A   1      45.676  26.883  28.997  1.00  0.00     0.074 A 
ATOM     56  C   UNL A   1      46.101  25.565  28.574  1.00  0.00     0.031 C 
ATOM     57  C   UNL A   1      46.520  27.873  29.374  1.00  0.00     0.037 A 
BRANCH  44  58
ATOM     58  C   UNL A   1      43.725  33.150  30.950  1.00  0.00     0.058 A 
ATOM     59  C   UNL A   1      43.782  33.442  32.320  1.00  0.00     0.135 A 
ATOM     60  C   UNL A   1      43.908  34.214  30.049  1.00  0.00     0.135 A 
ATOM     61  F   UNL A   1      43.597  32.470  33.228  1.00  0.00    -0.206 F 
ATOM     62  C   UNL A   1      44.006  34.739  32.780  1.00  0.00     0.059 A 
ATOM     63  C   UNL A   1      44.160  35.512  30.485  1.00  0.00     0.059 A 
ATOM     64  F   UNL A   1      43.862  33.993  28.725  1.00  0.00    -0.206 F 
ATOM     65  C   UNL A   1      44.202  35.765  31.854  1.00  0.00     0.060 A 
BRANCH  65  66
ATOM     66  S   UNL A   1      44.526  37.432  32.468  1.00  0.00     0.124 S 
ATOM     67  O   UNL A   1      45.914  37.316  32.908  1.00  0.00    -0.237 OA
ATOM     68  O   UNL A   1      44.306  38.249  31.280  1.00  0.00    -0.237 OA
ATOM     69  O   UNL A   1      43.544  37.602  33.535  1.00  0.00    -0.744 OA
ENDBRANCH  65  66
ENDBRANCH  44  58
BRANCH  45  70
ATOM     70  C   UNL A   1      42.367  23.802  27.679  1.00  0.00     0.058 A 
ATOM     71  C   UNL A   1      42.209  23.538  26.311  1.00  0.00     0.135 A 
ATOM     72  C   UNL A   1      42.358  22.706  28.559  1.00  0.00     0.135 A 
ATOM     73  F   UNL A   1      42.192  24.550  25.431  1.00  0.00    -0.206 F 
ATOM     74  C   UNL A   1      42.050  22.241  25.833  1.00  0.00     0.059 A 
ATOM     75  C   UNL A   1      42.237  21.398  28.103  1.00  0.00     0.059 A 
ATOM     76  F   UNL A   1      42.511  22.900  29.878  1.00  0.00    -0.206 F 
ATOM     77  C   UNL A   1      42.074  21.176  26.737  1.00  0.00     0.060 A 
BRANCH  77  78
ATOM     78  S   UNL A   1      41.927  19.492  26.100  1.00  0.00     0.124 S 
ATOM     79  O   UNL A   1      42.819  19.535  24.948  1.00  0.00    -0.237 OA
ATOM     80  O   UNL A   1      42.385  18.695  27.234  1.00  0.00    -0.237 OA
ATOM     81  O   UNL A   1      40.504  19.373  25.794  1.00  0.00    -0.744 OA
ENDBRANCH  77  78
ENDBRANCH  45  70
BRANCH  57  82
ATOM     82  C   UNL A   1      47.992  27.567  29.374  1.00  0.00     0.058 A 
ATOM     83  C   UNL A   1      48.799  27.847  28.259  1.00  0.00     0.135 A 
ATOM     84  C   UNL A   1      48.612  27.048  30.521  1.00  0.00     0.135 A 
ATOM     85  F   UNL A   1      48.252  28.335  27.135  1.00  0.00    -0.206 F 
ATOM     86  C   UNL A   1      50.167  27.608  28.279  1.00  0.00     0.059 A 
ATOM     87  C   UNL A   1      49.985  26.827  30.572  1.00  0.00     0.059 A 
ATOM     88  F   UNL A   1      47.886  26.771  31.616  1.00  0.00    -0.206 F 
ATOM     89  C   UNL A   1      50.753  27.104  29.442  1.00  0.00     0.060 A 
BRANCH  89  90
ATOM     90  S   UNL A   1      52.539  26.840  29.462  1.00  0.00     0.124 S 
ATOM     91  O   UNL A   1      53.038  28.209  29.542  1.00  0.00    -0.237 OA
ATOM     92  O   UNL A   1      52.719  26.029  30.661  1.00  0.00    -0.237 OA
ATOM     93  O   UNL A   1      52.796  26.151  28.200  1.00  0.00    -0.744 OA
ENDBRANCH  89  90
ENDBRANCH  57  82
ENDBRANCH  31  32
ENDBRANCH  24  26
ENDBRANCH  23  24
ENDBRANCH   1  23
TORSDOF 15
ENDMDL
