MODEL 1
REMARK VINA RESULT:     -11.7      0.000      0.000
REMARK SMILES CSc1nc(O)nc(C)c1C(=O)N1C[C@@H](O)C[C@@H]1C(=O)OCCOC(=O)c1ccc(-c2c3nc(c(-c4c(F)cc(S(=O)(=O)[O-])cc4F)c4ccc([nH]4)c(-c4c(F)cc(S(=O)(=O)[O-])cc4F)c4nc(c(-c5c(F)cc(S(=O)(=O)[O-])cc5F)c5ccc2[nH]5)C=C4)C=C3)cc1
REMARK SMILES IDX 22 1 21 2 19 3 20 4 18 5 13 6 14 7 15 8 17 9 11 10 12 11
REMARK SMILES IDX 10 12 3 13 4 14 5 15 8 16 7 17 9 18 2 19 1 20 6 21 16 23
REMARK SMILES IDX 23 25 24 26 25 27 26 28 27 29 28 30 92 31 29 32 91 33 30 34
REMARK SMILES IDX 31 35 32 36 85 37 33 38 90 39 84 40 86 41 34 42 89 43 83 44
REMARK SMILES IDX 82 45 35 47 69 48 48 49 68 50 49 51 52 52 67 53 87 54 50 55
REMARK SMILES IDX 51 56 66 58 88 59 53 60 36 61 37 62 46 63 38 64 39 65 45 66
REMARK SMILES IDX 47 67 40 68 41 69 42 70 43 71 44 72 70 73 71 74 80 75 72 76
REMARK SMILES IDX 73 77 79 78 81 79 74 80 75 81 76 82 77 83 78 84 54 85 55 86
REMARK SMILES IDX 64 87 56 88 57 89 63 90 65 91 58 92 59 93 60 94 61 95 62 96
REMARK H PARENT 6 22 16 24 86 46 52 57
REMARK Flexibility Score: inf
ROOT
ATOM      1  C   UNL A   1      37.358  22.316  24.877  1.00  0.00     0.274 C 
ENDROOT
BRANCH   1   2
ATOM      2  O   UNL A   1      36.010  22.832  25.014  1.00  0.00    -0.461 OA
BRANCH   2   3
ATOM      3  C   UNL A   1      35.261  22.830  23.875  1.00  0.00     0.329 C 
ATOM      4  O   UNL A   1      35.598  23.420  22.854  1.00  0.00    -0.250 OA
BRANCH   3   5
ATOM      5  C   UNL A   1      33.942  22.039  24.022  1.00  0.00     0.198 C 
ATOM      6  N   UNL A   1      32.786  22.684  24.705  1.00  0.00    -0.322 N 
ATOM      7  C   UNL A   1      32.172  21.691  25.589  1.00  0.00     0.152 C 
ATOM      8  C   UNL A   1      33.352  20.869  26.089  1.00  0.00     0.136 C 
ATOM      9  C   UNL A   1      34.223  20.752  24.842  1.00  0.00     0.071 C 
BRANCH   6  10
ATOM     10  C   UNL A   1      31.975  23.584  23.996  1.00  0.00     0.259 C 
ATOM     11  O   UNL A   1      30.779  23.298  23.922  1.00  0.00    -0.269 OA
BRANCH  10  12
ATOM     12  C   UNL A   1      32.510  24.857  23.330  1.00  0.00     0.093 A 
ATOM     13  C   UNL A   1      32.824  26.060  23.975  1.00  0.00     0.116 A 
ATOM     14  N   UNL A   1      33.211  27.189  23.329  1.00  0.00    -0.188 NA
ATOM     15  C   UNL A   1      33.511  27.082  22.059  1.00  0.00     0.315 A 
ATOM     16  C   UNL A   1      32.876  24.885  21.968  1.00  0.00     0.058 A 
ATOM     17  N   UNL A   1      33.402  25.986  21.338  1.00  0.00    -0.200 NA
ATOM     18  C   UNL A   1      32.877  23.733  21.011  1.00  0.00     0.068 C 
BRANCH  13  19
ATOM     19  S   UNL A   1      32.709  26.320  25.737  1.00  0.00    -0.109 SA
ATOM     20  C   UNL A   1      33.709  28.276  27.071  1.00  0.00     0.092 C 
ENDBRANCH  13  19
BRANCH  15  21
ATOM     21  O   UNL A   1      34.168  28.121  21.486  1.00  0.00    -0.479 OA
ATOM     22  H   UNL A   1      33.719  28.688  20.889  1.00  0.00     0.297 HD
ENDBRANCH  15  21
ENDBRANCH  10  12
ENDBRANCH   6  10
BRANCH   8  23
ATOM     23  O   UNL A   1      33.009  19.592  26.600  1.00  0.00    -0.391 OA
ATOM     24  H   UNL A   1      33.168  19.573  27.556  1.00  0.00     0.211 HD
ENDBRANCH   8  23
ENDBRANCH   3   5
ENDBRANCH   2   3
ENDBRANCH   1   2
BRANCH   1  25
ATOM     25  C   UNL A   1      38.209  22.649  26.099  1.00  0.00     0.275 C 
BRANCH  25  26
ATOM     26  O   UNL A   1      39.197  23.624  25.727  1.00  0.00    -0.458 OA
BRANCH  26  27
ATOM     27  C   UNL A   1      40.160  23.743  26.656  1.00  0.00     0.338 C 
ATOM     28  O   UNL A   1      40.958  22.883  26.994  1.00  0.00    -0.246 OA
BRANCH  27  29
ATOM     29  C   UNL A   1      40.156  25.053  27.295  1.00  0.00     0.060 A 
ATOM     30  C   UNL A   1      41.468  26.277  27.121  1.00  0.00     0.016 A 
ATOM     31  C   UNL A   1      38.970  25.188  28.646  1.00  0.00     0.016 A 
ATOM     32  C   UNL A   1      41.637  27.604  28.352  1.00  0.00     0.010 A 
ATOM     33  C   UNL A   1      39.133  26.495  29.862  1.00  0.00     0.010 A 
ATOM     34  C   UNL A   1      40.471  27.699  29.731  1.00  0.00    -0.014 A 
BRANCH  34  35
ATOM     35  C   UNL A   1      40.544  28.750  30.756  1.00  0.00     0.031 A 
ATOM     36  C   UNL A   1      41.436  28.611  31.961  1.00  0.00     0.074 A 
ATOM     37  C   UNL A   1      39.655  29.745  30.621  1.00  0.00     0.049 A 
ATOM     38  N   UNL A   1      41.476  29.330  33.054  1.00  0.00    -0.248 NA
ATOM     39  C   UNL A   1      42.407  27.510  31.961  1.00  0.00     0.031 C 
ATOM     40  C   UNL A   1      38.736  29.912  29.491  1.00  0.00     0.029 A 
ATOM     41  N   UNL A   1      39.336  30.774  31.456  1.00  0.00    -0.354 N 
ATOM     42  C   UNL A   1      42.459  28.753  33.861  1.00  0.00     0.074 A 
ATOM     43  C   UNL A   1      42.949  27.592  33.165  1.00  0.00     0.031 C 
ATOM     44  C   UNL A   1      37.951  30.968  29.705  1.00  0.00     0.029 A 
ATOM     45  C   UNL A   1      38.276  31.519  31.007  1.00  0.00     0.049 A 
ATOM     46  H   UNL A   1      39.817  30.964  32.294  1.00  0.00     0.167 HD
ATOM     47  C   UNL A   1      42.919  29.182  35.062  1.00  0.00     0.037 A 
ATOM     48  C   UNL A   1      37.614  32.527  31.594  1.00  0.00     0.037 A 
ATOM     49  C   UNL A   1      42.390  30.360  35.699  1.00  0.00     0.049 A 
ATOM     50  C   UNL A   1      38.120  32.984  32.920  1.00  0.00     0.074 A 
ATOM     51  C   UNL A   1      42.774  30.958  36.883  1.00  0.00     0.029 A 
ATOM     52  N   UNL A   1      41.342  31.119  35.184  1.00  0.00    -0.354 N 
ATOM     53  N   UNL A   1      39.084  32.466  33.647  1.00  0.00    -0.248 NA
ATOM     54  C   UNL A   1      37.485  34.167  33.495  1.00  0.00     0.031 C 
ATOM     55  C   UNL A   1      41.921  32.043  37.111  1.00  0.00     0.029 A 
ATOM     56  C   UNL A   1      41.045  32.163  36.039  1.00  0.00     0.049 A 
ATOM     57  H   UNL A   1      40.879  30.939  34.334  1.00  0.00     0.167 HD
ATOM     58  C   UNL A   1      39.191  33.274  34.765  1.00  0.00     0.074 A 
ATOM     59  C   UNL A   1      38.199  34.325  34.602  1.00  0.00     0.031 C 
ATOM     60  C   UNL A   1      40.025  33.164  35.830  1.00  0.00     0.037 A 
BRANCH  47  61
ATOM     61  C   UNL A   1      44.017  28.393  35.744  1.00  0.00     0.058 A 
ATOM     62  C   UNL A   1      43.738  27.368  36.667  1.00  0.00     0.135 A 
ATOM     63  C   UNL A   1      45.371  28.639  35.459  1.00  0.00     0.135 A 
ATOM     64  F   UNL A   1      42.468  27.076  36.992  1.00  0.00    -0.206 F 
ATOM     65  C   UNL A   1      44.751  26.655  37.308  1.00  0.00     0.059 A 
ATOM     66  C   UNL A   1      46.402  27.915  36.063  1.00  0.00     0.059 A 
ATOM     67  F   UNL A   1      45.714  29.597  34.583  1.00  0.00    -0.206 F 
ATOM     68  C   UNL A   1      46.082  26.936  37.000  1.00  0.00     0.060 A 
BRANCH  68  69
ATOM     69  S   UNL A   1      47.380  26.007  37.848  1.00  0.00     0.124 S 
ATOM     70  O   UNL A   1      47.319  24.719  37.163  1.00  0.00    -0.237 OA
ATOM     71  O   UNL A   1      48.566  26.811  37.577  1.00  0.00    -0.237 OA
ATOM     72  O   UNL A   1      46.940  25.993  39.240  1.00  0.00    -0.744 OA
ENDBRANCH  68  69
ENDBRANCH  47  61
BRANCH  48  73
ATOM     73  C   UNL A   1      36.508  33.170  30.844  1.00  0.00     0.058 A 
ATOM     74  C   UNL A   1      35.201  33.114  31.342  1.00  0.00     0.135 A 
ATOM     75  C   UNL A   1      36.762  34.028  29.757  1.00  0.00     0.135 A 
ATOM     76  F   UNL A   1      34.919  32.334  32.398  1.00  0.00    -0.206 F 
ATOM     77  C   UNL A   1      34.183  33.890  30.800  1.00  0.00     0.059 A 
ATOM     78  C   UNL A   1      35.765  34.832  29.214  1.00  0.00     0.059 A 
ATOM     79  F   UNL A   1      38.011  34.161  29.283  1.00  0.00    -0.206 F 
ATOM     80  C   UNL A   1      34.478  34.757  29.745  1.00  0.00     0.060 A 
BRANCH  80  81
ATOM     81  S   UNL A   1      33.162  35.824  29.121  1.00  0.00     0.124 S 
ATOM     82  O   UNL A   1      32.523  36.257  30.357  1.00  0.00    -0.237 OA
ATOM     83  O   UNL A   1      33.916  36.845  28.400  1.00  0.00    -0.237 OA
ATOM     84  O   UNL A   1      32.370  34.930  28.282  1.00  0.00    -0.744 OA
ENDBRANCH  80  81
ENDBRANCH  48  73
BRANCH  60  85
ATOM     85  C   UNL A   1      39.873  34.204  36.895  1.00  0.00     0.058 A 
ATOM     86  C   UNL A   1      40.422  35.485  36.739  1.00  0.00     0.135 A 
ATOM     87  C   UNL A   1      39.123  33.935  38.051  1.00  0.00     0.135 A 
ATOM     88  F   UNL A   1      41.156  35.780  35.653  1.00  0.00    -0.206 F 
ATOM     89  C   UNL A   1      40.253  36.462  37.708  1.00  0.00     0.059 A 
ATOM     90  C   UNL A   1      38.910  34.909  39.014  1.00  0.00     0.059 A 
ATOM     91  F   UNL A   1      38.572  32.724  38.235  1.00  0.00    -0.206 F 
ATOM     92  C   UNL A   1      39.487  36.166  38.838  1.00  0.00     0.060 A 
BRANCH  92  93
ATOM     93  S   UNL A   1      39.248  37.462  40.066  1.00  0.00     0.124 S 
ATOM     94  O   UNL A   1      38.649  36.715  41.167  1.00  0.00    -0.237 OA
ATOM     95  O   UNL A   1      40.613  37.932  40.285  1.00  0.00    -0.237 OA
ATOM     96  O   UNL A   1      38.363  38.409  39.394  1.00  0.00    -0.744 OA
ENDBRANCH  92  93
ENDBRANCH  60  85
ENDBRANCH  34  35
ENDBRANCH  27  29
ENDBRANCH  26  27
ENDBRANCH  25  26
ENDBRANCH   1  25
TORSDOF 19
ENDMDL
MODEL 2
REMARK VINA RESULT:     -11.6      0.915      2.840
REMARK SMILES CSc1nc(O)nc(C)c1C(=O)N1C[C@@H](O)C[C@@H]1C(=O)OCCOC(=O)c1ccc(-c2c3nc(c(-c4c(F)cc(S(=O)(=O)[O-])cc4F)c4ccc([nH]4)c(-c4c(F)cc(S(=O)(=O)[O-])cc4F)c4nc(c(-c5c(F)cc(S(=O)(=O)[O-])cc5F)c5ccc2[nH]5)C=C4)C=C3)cc1
REMARK SMILES IDX 22 1 21 2 19 3 20 4 18 5 13 6 14 7 15 8 17 9 11 10 12 11
REMARK SMILES IDX 10 12 3 13 4 14 5 15 8 16 7 17 9 18 2 19 1 20 6 21 16 23
REMARK SMILES IDX 23 25 24 26 25 27 26 28 27 29 28 30 92 31 29 32 91 33 30 34
REMARK SMILES IDX 31 35 32 36 85 37 33 38 90 39 84 40 86 41 34 42 89 43 83 44
REMARK SMILES IDX 82 45 35 47 69 48 48 49 68 50 49 51 52 52 67 53 87 54 50 55
REMARK SMILES IDX 51 56 66 58 88 59 53 60 36 61 37 62 46 63 38 64 39 65 45 66
REMARK SMILES IDX 47 67 40 68 41 69 42 70 43 71 44 72 70 73 71 74 80 75 72 76
REMARK SMILES IDX 73 77 79 78 81 79 74 80 75 81 76 82 77 83 78 84 54 85 55 86
REMARK SMILES IDX 64 87 56 88 57 89 63 90 65 91 58 92 59 93 60 94 61 95 62 96
REMARK H PARENT 6 22 16 24 86 46 52 57
REMARK Flexibility Score: inf
ROOT
ATOM      1  C   UNL A   1      36.876  23.334  24.762  1.00  0.00     0.274 C 
ENDROOT
BRANCH   1   2
ATOM      2  O   UNL A   1      35.619  24.054  24.821  1.00  0.00    -0.461 OA
BRANCH   2   3
ATOM      3  C   UNL A   1      34.866  24.017  23.684  1.00  0.00     0.329 C 
ATOM      4  O   UNL A   1      35.169  23.342  22.706  1.00  0.00    -0.250 OA
BRANCH   3   5
ATOM      5  C   UNL A   1      33.625  24.934  23.754  1.00  0.00     0.198 C 
ATOM      6  N   UNL A   1      32.425  24.587  22.942  1.00  0.00    -0.322 N 
ATOM      7  C   UNL A   1      31.912  25.821  22.343  1.00  0.00     0.152 C 
ATOM      8  C   UNL A   1      33.168  26.634  22.054  1.00  0.00     0.136 C 
ATOM      9  C   UNL A   1      34.030  26.356  23.282  1.00  0.00     0.071 C 
BRANCH   6  10
ATOM     10  C   UNL A   1      31.528  23.613  23.410  1.00  0.00     0.259 C 
ATOM     11  O   UNL A   1      30.338  23.802  23.155  1.00  0.00    -0.269 OA
BRANCH  10  12
ATOM     12  C   UNL A   1      31.965  22.376  24.203  1.00  0.00     0.093 A 
ATOM     13  C   UNL A   1      32.070  22.279  25.595  1.00  0.00     0.116 A 
ATOM     14  N   UNL A   1      32.548  21.188  26.247  1.00  0.00    -0.188 NA
ATOM     15  C   UNL A   1      32.717  20.096  25.545  1.00  0.00     0.315 A 
ATOM     16  C   UNL A   1      32.181  21.130  23.576  1.00  0.00     0.058 A 
ATOM     17  N   UNL A   1      32.529  19.985  24.247  1.00  0.00    -0.200 NA
ATOM     18  C   UNL A   1      31.964  20.799  22.131  1.00  0.00     0.068 C 
BRANCH  13  19
ATOM     19  S   UNL A   1      31.650  23.589  26.732  1.00  0.00    -0.109 SA
ATOM     20  C   UNL A   1      30.975  25.995  26.127  1.00  0.00     0.092 C 
ENDBRANCH  13  19
BRANCH  15  21
ATOM     21  O   UNL A   1      32.910  18.942  26.231  1.00  0.00    -0.479 OA
ATOM     22  H   UNL A   1      33.505  18.920  26.955  1.00  0.00     0.297 HD
ENDBRANCH  15  21
ENDBRANCH  10  12
ENDBRANCH   6  10
BRANCH   8  23
ATOM     23  O   UNL A   1      32.946  28.024  21.885  1.00  0.00    -0.391 OA
ATOM     24  H   UNL A   1      32.142  28.283  22.361  1.00  0.00     0.211 HD
ENDBRANCH   8  23
ENDBRANCH   3   5
ENDBRANCH   2   3
ENDBRANCH   1   2
BRANCH   1  25
ATOM     25  C   UNL A   1      37.708  23.561  26.022  1.00  0.00     0.275 C 
BRANCH  25  26
ATOM     26  O   UNL A   1      39.087  23.713  25.648  1.00  0.00    -0.458 OA
BRANCH  26  27
ATOM     27  C   UNL A   1      39.894  23.774  26.721  1.00  0.00     0.338 C 
ATOM     28  O   UNL A   1      40.567  22.864  27.179  1.00  0.00    -0.246 OA
BRANCH  27  29
ATOM     29  C   UNL A   1      39.875  25.085  27.356  1.00  0.00     0.060 A 
ATOM     30  C   UNL A   1      41.133  26.354  27.113  1.00  0.00     0.016 A 
ATOM     31  C   UNL A   1      38.755  25.184  28.764  1.00  0.00     0.016 A 
ATOM     32  C   UNL A   1      41.315  27.691  28.331  1.00  0.00     0.010 A 
ATOM     33  C   UNL A   1      38.932  26.500  29.968  1.00  0.00     0.010 A 
ATOM     34  C   UNL A   1      40.218  27.750  29.767  1.00  0.00    -0.014 A 
BRANCH  34  35
ATOM     35  C   UNL A   1      40.305  28.807  30.784  1.00  0.00     0.031 A 
ATOM     36  C   UNL A   1      41.185  28.660  31.997  1.00  0.00     0.074 A 
ATOM     37  C   UNL A   1      39.438  29.819  30.634  1.00  0.00     0.049 A 
ATOM     38  N   UNL A   1      41.232  29.386  33.084  1.00  0.00    -0.248 NA
ATOM     39  C   UNL A   1      42.133  27.539  32.012  1.00  0.00     0.031 C 
ATOM     40  C   UNL A   1      38.531  29.996  29.497  1.00  0.00     0.029 A 
ATOM     41  N   UNL A   1      39.134  30.862  31.459  1.00  0.00    -0.354 N 
ATOM     42  C   UNL A   1      42.196  28.796  33.903  1.00  0.00     0.074 A 
ATOM     43  C   UNL A   1      42.668  27.619  33.220  1.00  0.00     0.031 C 
ATOM     44  C   UNL A   1      37.766  31.071  29.697  1.00  0.00     0.029 A 
ATOM     45  C   UNL A   1      38.092  31.624  30.997  1.00  0.00     0.049 A 
ATOM     46  H   UNL A   1      39.612  31.048  32.300  1.00  0.00     0.167 HD
ATOM     47  C   UNL A   1      42.656  29.224  35.104  1.00  0.00     0.037 A 
ATOM     48  C   UNL A   1      37.448  32.651  31.571  1.00  0.00     0.037 A 
ATOM     49  C   UNL A   1      42.147  30.418  35.729  1.00  0.00     0.049 A 
ATOM     50  C   UNL A   1      37.953  33.107  32.897  1.00  0.00     0.074 A 
ATOM     51  C   UNL A   1      42.534  31.016  36.911  1.00  0.00     0.029 A 
ATOM     52  N   UNL A   1      41.118  31.194  35.200  1.00  0.00    -0.354 N 
ATOM     53  N   UNL A   1      38.901  32.575  33.635  1.00  0.00    -0.248 NA
ATOM     54  C   UNL A   1      37.339  34.308  33.458  1.00  0.00     0.031 C 
ATOM     55  C   UNL A   1      41.703  32.121  37.124  1.00  0.00     0.029 A 
ATOM     56  C   UNL A   1      40.837  32.250  36.045  1.00  0.00     0.049 A 
ATOM     57  H   UNL A   1      40.659  31.017  34.348  1.00  0.00     0.167 HD
ATOM     58  C   UNL A   1      39.016  33.389  34.749  1.00  0.00     0.074 A 
ATOM     59  C   UNL A   1      38.047  34.460  34.570  1.00  0.00     0.031 C 
ATOM     60  C   UNL A   1      39.839  33.271  35.821  1.00  0.00     0.037 A 
BRANCH  47  61
ATOM     61  C   UNL A   1      43.732  28.418  35.801  1.00  0.00     0.058 A 
ATOM     62  C   UNL A   1      45.102  28.661  35.593  1.00  0.00     0.135 A 
ATOM     63  C   UNL A   1      43.400  27.401  36.714  1.00  0.00     0.135 A 
ATOM     64  F   UNL A   1      45.498  29.615  34.735  1.00  0.00    -0.206 F 
ATOM     65  C   UNL A   1      46.092  27.905  36.222  1.00  0.00     0.059 A 
ATOM     66  C   UNL A   1      44.372  26.653  37.381  1.00  0.00     0.059 A 
ATOM     67  F   UNL A   1      42.113  27.116  36.968  1.00  0.00    -0.206 F 
ATOM     68  C   UNL A   1      45.717  26.902  37.115  1.00  0.00     0.060 A 
BRANCH  68  69
ATOM     69  S   UNL A   1      47.014  25.927  37.913  1.00  0.00     0.124 S 
ATOM     70  O   UNL A   1      46.792  24.606  37.332  1.00  0.00    -0.237 OA
ATOM     71  O   UNL A   1      48.227  26.612  37.481  1.00  0.00    -0.237 OA
ATOM     72  O   UNL A   1      46.706  26.042  39.335  1.00  0.00    -0.744 OA
ENDBRANCH  68  69
ENDBRANCH  47  61
BRANCH  48  73
ATOM     73  C   UNL A   1      36.361  33.310  30.808  1.00  0.00     0.058 A 
ATOM     74  C   UNL A   1      35.041  33.247  31.273  1.00  0.00     0.135 A 
ATOM     75  C   UNL A   1      36.642  34.190  29.745  1.00  0.00     0.135 A 
ATOM     76  F   UNL A   1      34.734  32.446  32.305  1.00  0.00    -0.206 F 
ATOM     77  C   UNL A   1      34.038  34.035  30.722  1.00  0.00     0.059 A 
ATOM     78  C   UNL A   1      35.659  35.006  29.195  1.00  0.00     0.059 A 
ATOM     79  F   UNL A   1      37.902  34.331  29.304  1.00  0.00    -0.206 F 
ATOM     80  C   UNL A   1      34.360  34.923  29.693  1.00  0.00     0.060 A 
BRANCH  80  81
ATOM     81  S   UNL A   1      33.060  36.005  29.059  1.00  0.00     0.124 S 
ATOM     82  O   UNL A   1      33.835  36.993  28.319  1.00  0.00    -0.237 OA
ATOM     83  O   UNL A   1      32.265  35.083  28.254  1.00  0.00    -0.237 OA
ATOM     84  O   UNL A   1      32.406  36.494  30.269  1.00  0.00    -0.744 OA
ENDBRANCH  80  81
ENDBRANCH  48  73
BRANCH  60  85
ATOM     85  C   UNL A   1      39.701  34.322  36.877  1.00  0.00     0.058 A 
ATOM     86  C   UNL A   1      38.954  34.085  38.039  1.00  0.00     0.135 A 
ATOM     87  C   UNL A   1      40.368  35.549  36.750  1.00  0.00     0.135 A 
ATOM     88  F   UNL A   1      38.291  32.927  38.195  1.00  0.00    -0.206 F 
ATOM     89  C   UNL A   1      38.853  35.043  39.036  1.00  0.00     0.059 A 
ATOM     90  C   UNL A   1      40.312  36.507  37.751  1.00  0.00     0.059 A 
ATOM     91  F   UNL A   1      41.102  35.813  35.657  1.00  0.00    -0.206 F 
ATOM     92  C   UNL A   1      39.543  36.248  38.886  1.00  0.00     0.060 A 
BRANCH  92  93
ATOM     93  S   UNL A   1      39.429  37.464  40.210  1.00  0.00     0.124 S 
ATOM     94  O   UNL A   1      40.826  37.848  40.376  1.00  0.00    -0.237 OA
ATOM     95  O   UNL A   1      38.557  38.476  39.621  1.00  0.00    -0.237 OA
ATOM     96  O   UNL A   1      38.848  36.709  41.317  1.00  0.00    -0.744 OA
ENDBRANCH  92  93
ENDBRANCH  60  85
ENDBRANCH  34  35
ENDBRANCH  27  29
ENDBRANCH  26  27
ENDBRANCH  25  26
ENDBRANCH   1  25
TORSDOF 19
ENDMDL
MODEL 3
REMARK VINA RESULT:     -11.6      5.455     10.742
REMARK SMILES CSc1nc(O)nc(C)c1C(=O)N1C[C@@H](O)C[C@@H]1C(=O)OCCOC(=O)c1ccc(-c2c3nc(c(-c4c(F)cc(S(=O)(=O)[O-])cc4F)c4ccc([nH]4)c(-c4c(F)cc(S(=O)(=O)[O-])cc4F)c4nc(c(-c5c(F)cc(S(=O)(=O)[O-])cc5F)c5ccc2[nH]5)C=C4)C=C3)cc1
REMARK SMILES IDX 22 1 21 2 19 3 20 4 18 5 13 6 14 7 15 8 17 9 11 10 12 11
REMARK SMILES IDX 10 12 3 13 4 14 5 15 8 16 7 17 9 18 2 19 1 20 6 21 16 23
REMARK SMILES IDX 23 25 24 26 25 27 26 28 27 29 28 30 92 31 29 32 91 33 30 34
REMARK SMILES IDX 31 35 32 36 85 37 33 38 90 39 84 40 86 41 34 42 89 43 83 44
REMARK SMILES IDX 82 45 35 47 69 48 48 49 68 50 49 51 52 52 67 53 87 54 50 55
REMARK SMILES IDX 51 56 66 58 88 59 53 60 36 61 37 62 46 63 38 64 39 65 45 66
REMARK SMILES IDX 47 67 40 68 41 69 42 70 43 71 44 72 70 73 71 74 80 75 72 76
REMARK SMILES IDX 73 77 79 78 81 79 74 80 75 81 76 82 77 83 78 84 54 85 55 86
REMARK SMILES IDX 64 87 56 88 57 89 63 90 65 91 58 92 59 93 60 94 61 95 62 96
REMARK H PARENT 6 22 16 24 86 46 52 57
REMARK Flexibility Score: inf
ROOT
ATOM      1  C   UNL A   1      33.309  28.390  25.558  1.00  0.00     0.274 C 
ENDROOT
BRANCH   1   2
ATOM      2  O   UNL A   1      33.176  27.324  26.530  1.00  0.00    -0.461 OA
BRANCH   2   3
ATOM      3  C   UNL A   1      32.050  26.563  26.419  1.00  0.00     0.329 C 
ATOM      4  O   UNL A   1      30.957  26.922  26.843  1.00  0.00    -0.250 OA
BRANCH   3   5
ATOM      5  C   UNL A   1      32.309  25.201  25.735  1.00  0.00     0.198 C 
ATOM      6  N   UNL A   1      31.164  24.474  25.119  1.00  0.00    -0.322 N 
ATOM      7  C   UNL A   1      31.290  23.057  25.464  1.00  0.00     0.152 C 
ATOM      8  C   UNL A   1      31.879  23.075  26.869  1.00  0.00     0.136 C 
ATOM      9  C   UNL A   1      32.887  24.219  26.787  1.00  0.00     0.071 C 
BRANCH   6  10
ATOM     10  C   UNL A   1      30.713  24.844  23.841  1.00  0.00     0.259 C 
ATOM     11  O   UNL A   1      30.279  23.935  23.133  1.00  0.00    -0.269 OA
BRANCH  10  12
ATOM     12  C   UNL A   1      30.750  26.285  23.319  1.00  0.00     0.093 A 
ATOM     13  C   UNL A   1      31.803  26.886  22.620  1.00  0.00     0.116 A 
ATOM     14  N   UNL A   1      31.824  28.193  22.255  1.00  0.00    -0.188 NA
ATOM     15  C   UNL A   1      30.710  28.870  22.378  1.00  0.00     0.315 A 
ATOM     16  C   UNL A   1      29.619  27.128  23.384  1.00  0.00     0.058 A 
ATOM     17  N   UNL A   1      29.589  28.408  22.891  1.00  0.00    -0.200 NA
ATOM     18  C   UNL A   1      28.252  26.764  23.875  1.00  0.00     0.068 C 
BRANCH  13  19
ATOM     19  S   UNL A   1      33.307  26.050  22.147  1.00  0.00    -0.109 SA
ATOM     20  C   UNL A   1      33.987  23.645  22.751  1.00  0.00     0.092 C 
ENDBRANCH  13  19
BRANCH  15  21
ATOM     21  O   UNL A   1      30.642  30.073  21.755  1.00  0.00    -0.479 OA
ATOM     22  H   UNL A   1      31.295  30.724  21.921  1.00  0.00     0.297 HD
ENDBRANCH  15  21
ENDBRANCH  10  12
ENDBRANCH   6  10
BRANCH   8  23
ATOM     23  O   UNL A   1      32.503  21.865  27.264  1.00  0.00    -0.391 OA
ATOM     24  H   UNL A   1      32.261  21.160  26.645  1.00  0.00     0.211 HD
ENDBRANCH   8  23
ENDBRANCH   3   5
ENDBRANCH   2   3
ENDBRANCH   1   2
BRANCH   1  25
ATOM     25  C   UNL A   1      32.931  29.742  26.157  1.00  0.00     0.275 C 
BRANCH  25  26
ATOM     26  O   UNL A   1      33.127  29.692  27.579  1.00  0.00    -0.458 OA
BRANCH  26  27
ATOM     27  C   UNL A   1      34.071  30.557  27.987  1.00  0.00     0.338 C 
ATOM     28  O   UNL A   1      33.965  31.771  28.063  1.00  0.00    -0.246 OA
BRANCH  27  29
ATOM     29  C   UNL A   1      35.325  29.893  28.321  1.00  0.00     0.060 A 
ATOM     30  C   UNL A   1      35.904  29.592  30.002  1.00  0.00     0.016 A 
ATOM     31  C   UNL A   1      36.481  29.807  26.941  1.00  0.00     0.016 A 
ATOM     32  C   UNL A   1      37.667  29.276  30.308  1.00  0.00     0.010 A 
ATOM     33  C   UNL A   1      38.221  29.496  27.238  1.00  0.00     0.010 A 
ATOM     34  C   UNL A   1      38.825  29.242  28.920  1.00  0.00    -0.014 A 
BRANCH  34  35
ATOM     35  C   UNL A   1      40.261  28.983  29.095  1.00  0.00     0.031 A 
ATOM     36  C   UNL A   1      41.219  30.085  29.466  1.00  0.00     0.074 A 
ATOM     37  C   UNL A   1      40.668  27.753  28.749  1.00  0.00     0.049 A 
ATOM     38  N   UNL A   1      42.527  30.086  29.463  1.00  0.00    -0.248 NA
ATOM     39  C   UNL A   1      40.643  31.370  29.882  1.00  0.00     0.031 C 
ATOM     40  C   UNL A   1      39.788  26.653  28.344  1.00  0.00     0.029 A 
ATOM     41  N   UNL A   1      41.921  27.229  28.630  1.00  0.00    -0.354 N 
ATOM     42  C   UNL A   1      42.914  31.368  29.858  1.00  0.00     0.074 A 
ATOM     43  C   UNL A   1      41.710  32.137  30.034  1.00  0.00     0.031 C 
ATOM     44  C   UNL A   1      40.524  25.591  28.010  1.00  0.00     0.029 A 
ATOM     45  C   UNL A   1      41.923  25.953  28.128  1.00  0.00     0.049 A 
ATOM     46  H   UNL A   1      42.740  27.717  28.878  1.00  0.00     0.167 HD
ATOM     47  C   UNL A   1      44.166  31.839  30.076  1.00  0.00     0.037 A 
ATOM     48  C   UNL A   1      42.947  25.162  27.774  1.00  0.00     0.037 A 
ATOM     49  C   UNL A   1      45.330  31.011  29.889  1.00  0.00     0.049 A 
ATOM     50  C   UNL A   1      44.320  25.693  28.007  1.00  0.00     0.074 A 
ATOM     51  C   UNL A   1      46.659  31.312  30.112  1.00  0.00     0.029 A 
ATOM     52  N   UNL A   1      45.285  29.699  29.423  1.00  0.00    -0.354 N 
ATOM     53  N   UNL A   1      44.672  26.886  28.432  1.00  0.00    -0.248 NA
ATOM     54  C   UNL A   1      45.431  24.781  27.748  1.00  0.00     0.031 C 
ATOM     55  C   UNL A   1      47.420  30.203  29.727  1.00  0.00     0.029 A 
ATOM     56  C   UNL A   1      46.564  29.186  29.322  1.00  0.00     0.049 A 
ATOM     57  H   UNL A   1      44.462  29.208  29.198  1.00  0.00     0.167 HD
ATOM     58  C   UNL A   1      46.054  26.866  28.514  1.00  0.00     0.074 A 
ATOM     59  C   UNL A   1      46.465  25.531  28.109  1.00  0.00     0.031 C 
ATOM     60  C   UNL A   1      46.908  27.852  28.887  1.00  0.00     0.037 A 
BRANCH  47  61
ATOM     61  C   UNL A   1      44.336  33.275  30.524  1.00  0.00     0.058 A 
ATOM     62  C   UNL A   1      44.458  34.336  29.607  1.00  0.00     0.135 A 
ATOM     63  C   UNL A   1      44.352  33.611  31.890  1.00  0.00     0.135 A 
ATOM     64  F   UNL A   1      44.453  34.093  28.287  1.00  0.00    -0.206 F 
ATOM     65  C   UNL A   1      44.633  35.656  30.023  1.00  0.00     0.059 A 
ATOM     66  C   UNL A   1      44.492  34.930  32.329  1.00  0.00     0.059 A 
ATOM     67  F   UNL A   1      44.234  32.653  32.822  1.00  0.00    -0.206 F 
ATOM     68  C   UNL A   1      44.649  35.944  31.387  1.00  0.00     0.060 A 
BRANCH  68  69
ATOM     69  S   UNL A   1      44.885  37.660  31.905  1.00  0.00     0.124 S 
ATOM     70  O   UNL A   1      46.336  37.726  32.058  1.00  0.00    -0.237 OA
ATOM     71  O   UNL A   1      44.335  38.403  30.777  1.00  0.00    -0.237 OA
ATOM     72  O   UNL A   1      44.123  37.754  33.145  1.00  0.00    -0.744 OA
ENDBRANCH  68  69
ENDBRANCH  47  61
BRANCH  48  73
ATOM     73  C   UNL A   1      42.640  23.798  27.281  1.00  0.00     0.058 A 
ATOM     74  C   UNL A   1      42.785  23.497  25.921  1.00  0.00     0.135 A 
ATOM     75  C   UNL A   1      42.419  22.730  28.171  1.00  0.00     0.135 A 
ATOM     76  F   UNL A   1      43.029  24.480  25.040  1.00  0.00    -0.206 F 
ATOM     77  C   UNL A   1      42.733  22.188  25.457  1.00  0.00     0.059 A 
ATOM     78  C   UNL A   1      42.388  21.410  27.733  1.00  0.00     0.059 A 
ATOM     79  F   UNL A   1      42.334  22.961  29.491  1.00  0.00    -0.206 F 
ATOM     80  C   UNL A   1      42.548  21.150  26.373  1.00  0.00     0.060 A 
BRANCH  80  81
ATOM     81  S   UNL A   1      42.579  19.452  25.759  1.00  0.00     0.124 S 
ATOM     82  O   UNL A   1      43.523  19.556  24.652  1.00  0.00    -0.237 OA
ATOM     83  O   UNL A   1      43.046  18.715  26.928  1.00  0.00    -0.237 OA
ATOM     84  O   UNL A   1      41.191  19.202  25.382  1.00  0.00    -0.744 OA
ENDBRANCH  80  81
ENDBRANCH  48  73
BRANCH  60  85
ATOM     85  C   UNL A   1      48.364  27.510  28.850  1.00  0.00     0.058 A 
ATOM     86  C   UNL A   1      49.160  27.853  27.747  1.00  0.00     0.135 A 
ATOM     87  C   UNL A   1      48.977  26.889  29.948  1.00  0.00     0.135 A 
ATOM     88  F   UNL A   1      48.610  28.439  26.670  1.00  0.00    -0.206 F 
ATOM     89  C   UNL A   1      50.517  27.570  27.725  1.00  0.00     0.059 A 
ATOM     90  C   UNL A   1      50.340  26.630  29.963  1.00  0.00     0.059 A 
ATOM     91  F   UNL A   1      48.253  26.552  31.028  1.00  0.00    -0.206 F 
ATOM     92  C   UNL A   1      51.098  26.966  28.842  1.00  0.00     0.060 A 
BRANCH  92  93
ATOM     93  S   UNL A   1      52.870  26.641  28.807  1.00  0.00     0.124 S 
ATOM     94  O   UNL A   1      52.990  25.799  27.622  1.00  0.00    -0.237 OA
ATOM     95  O   UNL A   1      53.426  27.986  28.690  1.00  0.00    -0.237 OA
ATOM     96  O   UNL A   1      53.119  25.972  30.081  1.00  0.00    -0.744 OA
ENDBRANCH  92  93
ENDBRANCH  60  85
ENDBRANCH  34  35
ENDBRANCH  27  29
ENDBRANCH  26  27
ENDBRANCH  25  26
ENDBRANCH   1  25
TORSDOF 19
ENDMDL
