MODEL 1
REMARK VINA RESULT:     -10.0      0.000      0.000
REMARK SMILES CC(C)C[C@@H](C(=O)OCCOC(=O)c1ccc(-c2c3nc(c(-c4c(F)cc(S(=O)(=O)[O-])cc4F)c4ccc([nH]4)c(-c4c(F)cc(S(=O)(=O)[O-])cc4F)c4nc(c(-c5c(F)cc(S(=O)(=O)[O-])cc5F)c5ccc2[nH]5)C=C4)C=C3)cc1)[C@@H]1CCC[C@@H](C)C1
REMARK SMILES IDX 10 1 9 2 8 3 6 4 7 5 5 6 4 7 2 8 1 9 3 10 80 11 81 12 86 13
REMARK SMILES IDX 82 14 84 15 83 16 85 17 11 18 12 19 13 20 14 21 15 22 79 23
REMARK SMILES IDX 16 24 78 25 17 26 18 27 19 28 72 29 20 30 77 31 71 32 73 33
REMARK SMILES IDX 21 34 76 35 70 36 69 37 22 39 56 40 35 41 55 42 36 43 39 44
REMARK SMILES IDX 54 45 74 46 37 47 38 48 53 50 75 51 40 52 23 53 24 54 33 55
REMARK SMILES IDX 25 56 26 57 32 58 34 59 27 60 28 61 29 62 30 63 31 64 57 65
REMARK SMILES IDX 58 66 67 67 59 68 60 69 66 70 68 71 61 72 62 73 63 74 64 75
REMARK SMILES IDX 65 76 41 77 42 78 51 79 43 80 44 81 50 82 52 83 45 84 46 85
REMARK SMILES IDX 47 86 48 87 49 88
REMARK H PARENT 73 38 39 49
REMARK Flexibility Score: inf
ROOT
ATOM      1  C   UNL A   1      32.595  28.852  26.866  1.00  0.00     0.275 C 
ENDROOT
BRANCH   1   2
ATOM      2  C   UNL A   1      32.834  28.543  25.386  1.00  0.00     0.274 C 
BRANCH   2   3
ATOM      3  O   UNL A   1      33.815  27.503  25.207  1.00  0.00    -0.462 OA
BRANCH   3   4
ATOM      4  C   UNL A   1      33.725  26.752  24.084  1.00  0.00     0.309 C 
ATOM      5  O   UNL A   1      33.742  27.214  22.948  1.00  0.00    -0.252 OA
BRANCH   4   6
ATOM      6  C   UNL A   1      33.503  25.265  24.355  1.00  0.00     0.102 C 
BRANCH   6   7
ATOM      7  C   UNL A   1      33.423  24.979  25.876  1.00  0.00     0.018 C 
BRANCH   7   8
ATOM      8  C   UNL A   1      32.073  24.649  26.545  1.00  0.00    -0.017 C 
ATOM      9  C   UNL A   1      30.869  24.823  25.619  1.00  0.00     0.007 C 
ATOM     10  C   UNL A   1      32.101  23.192  27.032  1.00  0.00     0.007 C 
ENDBRANCH   7   8
ENDBRANCH   6   7
BRANCH   6  11
ATOM     11  C   UNL A   1      34.106  24.209  23.353  1.00  0.00     0.003 C 
ATOM     12  C   UNL A   1      33.074  23.379  22.562  1.00  0.00     0.004 C 
ATOM     13  C   UNL A   1      35.202  23.246  23.832  1.00  0.00     0.007 C 
ATOM     14  C   UNL A   1      32.542  22.152  23.304  1.00  0.00     0.001 C 
ATOM     15  C   UNL A   1      34.655  22.176  24.767  1.00  0.00    -0.014 C 
ATOM     16  C   UNL A   1      33.616  21.329  24.022  1.00  0.00     0.003 C 
ATOM     17  C   UNL A   1      35.783  21.313  25.336  1.00  0.00     0.007 C 
ENDBRANCH   6  11
ENDBRANCH   4   6
ENDBRANCH   3   4
ENDBRANCH   2   3
ENDBRANCH   1   2
BRANCH   1  18
ATOM     18  O   UNL A   1      33.828  28.827  27.604  1.00  0.00    -0.458 OA
BRANCH  18  19
ATOM     19  C   UNL A   1      34.396  30.032  27.830  1.00  0.00     0.338 C 
ATOM     20  O   UNL A   1      33.841  31.123  27.851  1.00  0.00    -0.246 OA
BRANCH  19  21
ATOM     21  C   UNL A   1      35.800  29.846  28.207  1.00  0.00     0.060 A 
ATOM     22  C   UNL A   1      36.775  30.032  27.222  1.00  0.00     0.016 A 
ATOM     23  C   UNL A   1      36.151  29.445  29.497  1.00  0.00     0.016 A 
ATOM     24  C   UNL A   1      38.115  29.822  27.522  1.00  0.00     0.010 A 
ATOM     25  C   UNL A   1      37.496  29.221  29.794  1.00  0.00     0.010 A 
ATOM     26  C   UNL A   1      38.479  29.398  28.804  1.00  0.00    -0.014 A 
BRANCH  26  27
ATOM     27  C   UNL A   1      39.888  29.062  29.095  1.00  0.00     0.031 A 
ATOM     28  C   UNL A   1      40.778  30.113  29.687  1.00  0.00     0.074 A 
ATOM     29  C   UNL A   1      40.353  27.831  28.819  1.00  0.00     0.049 A 
ATOM     30  N   UNL A   1      42.066  30.081  29.900  1.00  0.00    -0.248 NA
ATOM     31  C   UNL A   1      40.130  31.373  30.087  1.00  0.00     0.031 C 
ATOM     32  C   UNL A   1      39.553  26.729  28.284  1.00  0.00     0.029 A 
ATOM     33  N   UNL A   1      41.614  27.308  28.936  1.00  0.00    -0.354 N 
ATOM     34  C   UNL A   1      42.390  31.321  30.436  1.00  0.00     0.074 A 
ATOM     35  C   UNL A   1      41.163  32.086  30.511  1.00  0.00     0.031 C 
ATOM     36  C   UNL A   1      40.349  25.663  28.099  1.00  0.00     0.029 A 
ATOM     37  C   UNL A   1      41.717  26.022  28.463  1.00  0.00     0.049 A 
ATOM     38  H   UNL A   1      42.372  27.805  29.321  1.00  0.00     0.167 HD
ATOM     39  C   UNL A   1      43.604  31.775  30.825  1.00  0.00     0.037 A 
ATOM     40  C   UNL A   1      42.803  25.241  28.309  1.00  0.00     0.037 A 
ATOM     41  C   UNL A   1      44.810  30.993  30.750  1.00  0.00     0.049 A 
ATOM     42  C   UNL A   1      44.148  25.779  28.717  1.00  0.00     0.074 A 
ATOM     43  C   UNL A   1      46.094  31.350  31.121  1.00  0.00     0.029 A 
ATOM     44  N   UNL A   1      44.878  29.692  30.269  1.00  0.00    -0.354 N 
ATOM     45  N   UNL A   1      44.447  26.957  29.212  1.00  0.00    -0.248 NA
ATOM     46  C   UNL A   1      45.302  24.886  28.546  1.00  0.00     0.031 C 
ATOM     47  C   UNL A   1      46.944  30.275  30.835  1.00  0.00     0.029 A 
ATOM     48  C   UNL A   1      46.183  29.236  30.321  1.00  0.00     0.049 A 
ATOM     49  H   UNL A   1      44.110  29.172  29.939  1.00  0.00     0.167 HD
ATOM     50  C   UNL A   1      45.821  26.944  29.424  1.00  0.00     0.074 A 
ATOM     51  C   UNL A   1      46.291  25.635  29.016  1.00  0.00     0.031 C 
ATOM     52  C   UNL A   1      46.621  27.925  29.910  1.00  0.00     0.037 A 
BRANCH  39  53
ATOM     53  C   UNL A   1      43.689  33.187  31.329  1.00  0.00     0.058 A 
ATOM     54  C   UNL A   1      43.641  33.487  32.699  1.00  0.00     0.135 A 
ATOM     55  C   UNL A   1      43.842  34.254  30.429  1.00  0.00     0.135 A 
ATOM     56  F   UNL A   1      43.474  32.507  33.602  1.00  0.00    -0.206 F 
ATOM     57  C   UNL A   1      43.721  34.799  33.159  1.00  0.00     0.059 A 
ATOM     58  C   UNL A   1      43.945  35.571  30.867  1.00  0.00     0.059 A 
ATOM     59  F   UNL A   1      43.886  34.021  29.109  1.00  0.00    -0.206 F 
ATOM     60  C   UNL A   1      43.871  35.834  32.234  1.00  0.00     0.060 A 
BRANCH  60  61
ATOM     61  S   UNL A   1      43.978  37.531  32.842  1.00  0.00     0.124 S 
ATOM     62  O   UNL A   1      43.801  38.293  31.610  1.00  0.00    -0.237 OA
ATOM     63  O   UNL A   1      42.871  37.596  33.791  1.00  0.00    -0.237 OA
ATOM     64  O   UNL A   1      45.310  37.597  33.435  1.00  0.00    -0.744 OA
ENDBRANCH  60  61
ENDBRANCH  39  53
BRANCH  40  65
ATOM     65  C   UNL A   1      42.659  23.884  27.720  1.00  0.00     0.058 A 
ATOM     66  C   UNL A   1      42.709  23.687  26.334  1.00  0.00     0.135 A 
ATOM     67  C   UNL A   1      42.500  22.754  28.537  1.00  0.00     0.135 A 
ATOM     68  F   UNL A   1      42.850  24.738  25.511  1.00  0.00    -0.206 F 
ATOM     69  C   UNL A   1      42.603  22.416  25.774  1.00  0.00     0.059 A 
ATOM     70  C   UNL A   1      42.415  21.472  28.004  1.00  0.00     0.059 A 
ATOM     71  F   UNL A   1      42.457  22.889  29.872  1.00  0.00    -0.206 F 
ATOM     72  C   UNL A   1      42.460  21.314  26.619  1.00  0.00     0.060 A 
BRANCH  72  73
ATOM     73  S   UNL A   1      42.391  19.662  25.890  1.00  0.00     0.124 S 
ATOM     74  O   UNL A   1      40.992  19.579  25.486  1.00  0.00    -0.237 OA
ATOM     75  O   UNL A   1      43.364  19.761  24.807  1.00  0.00    -0.237 OA
ATOM     76  O   UNL A   1      42.783  18.792  26.995  1.00  0.00    -0.744 OA
ENDBRANCH  72  73
ENDBRANCH  40  65
BRANCH  52  77
ATOM     77  C   UNL A   1      48.082  27.608  30.051  1.00  0.00     0.058 A 
ATOM     78  C   UNL A   1      48.587  26.960  31.187  1.00  0.00     0.135 A 
ATOM     79  C   UNL A   1      48.976  27.909  29.010  1.00  0.00     0.135 A 
ATOM     80  F   UNL A   1      47.772  26.658  32.210  1.00  0.00    -0.206 F 
ATOM     81  C   UNL A   1      49.935  26.636  31.297  1.00  0.00     0.059 A 
ATOM     82  C   UNL A   1      50.323  27.574  29.089  1.00  0.00     0.059 A 
ATOM     83  F   UNL A   1      48.538  28.520  27.898  1.00  0.00    -0.206 F 
ATOM     84  C   UNL A   1      50.795  26.948  30.242  1.00  0.00     0.060 A 
BRANCH  84  85
ATOM     85  S   UNL A   1      52.537  26.491  30.378  1.00  0.00     0.124 S 
ATOM     86  O   UNL A   1      53.124  27.729  30.882  1.00  0.00    -0.237 OA
ATOM     87  O   UNL A   1      52.499  25.378  31.321  1.00  0.00    -0.237 OA
ATOM     88  O   UNL A   1      52.900  26.133  29.011  1.00  0.00    -0.744 OA
ENDBRANCH  84  85
ENDBRANCH  52  77
ENDBRANCH  26  27
ENDBRANCH  19  21
ENDBRANCH  18  19
ENDBRANCH   1  18
TORSDOF 17
ENDMDL
MODEL 2
REMARK VINA RESULT:     -10.0      2.576      3.465
REMARK SMILES CC(C)C[C@@H](C(=O)OCCOC(=O)c1ccc(-c2c3nc(c(-c4c(F)cc(S(=O)(=O)[O-])cc4F)c4ccc([nH]4)c(-c4c(F)cc(S(=O)(=O)[O-])cc4F)c4nc(c(-c5c(F)cc(S(=O)(=O)[O-])cc5F)c5ccc2[nH]5)C=C4)C=C3)cc1)[C@@H]1CCC[C@@H](C)C1
REMARK SMILES IDX 10 1 9 2 8 3 6 4 7 5 5 6 4 7 2 8 1 9 3 10 80 11 81 12 86 13
REMARK SMILES IDX 82 14 84 15 83 16 85 17 11 18 12 19 13 20 14 21 15 22 79 23
REMARK SMILES IDX 16 24 78 25 17 26 18 27 19 28 72 29 20 30 77 31 71 32 73 33
REMARK SMILES IDX 21 34 76 35 70 36 69 37 22 39 56 40 35 41 55 42 36 43 39 44
REMARK SMILES IDX 54 45 74 46 37 47 38 48 53 50 75 51 40 52 23 53 24 54 33 55
REMARK SMILES IDX 25 56 26 57 32 58 34 59 27 60 28 61 29 62 30 63 31 64 57 65
REMARK SMILES IDX 58 66 67 67 59 68 60 69 66 70 68 71 61 72 62 73 63 74 64 75
REMARK SMILES IDX 65 76 41 77 42 78 51 79 43 80 44 81 50 82 52 83 45 84 46 85
REMARK SMILES IDX 47 86 48 87 49 88
REMARK H PARENT 73 38 39 49
REMARK Flexibility Score: inf
ROOT
ATOM      1  C   UNL A   1      34.739  30.543  27.582  1.00  0.00     0.275 C 
ENDROOT
BRANCH   1   2
ATOM      2  C   UNL A   1      33.400  29.865  27.281  1.00  0.00     0.274 C 
BRANCH   2   3
ATOM      3  O   UNL A   1      33.546  28.442  27.111  1.00  0.00    -0.462 OA
BRANCH   3   4
ATOM      4  C   UNL A   1      32.412  27.713  26.976  1.00  0.00     0.309 C 
ATOM      5  O   UNL A   1      31.415  27.863  27.674  1.00  0.00    -0.252 OA
BRANCH   4   6
ATOM      6  C   UNL A   1      32.513  26.607  25.927  1.00  0.00     0.102 C 
BRANCH   6   7
ATOM      7  C   UNL A   1      31.965  25.264  26.474  1.00  0.00     0.018 C 
BRANCH   7   8
ATOM      8  C   UNL A   1      30.623  24.698  25.968  1.00  0.00    -0.017 C 
ATOM      9  C   UNL A   1      29.931  25.586  24.934  1.00  0.00     0.007 C 
ATOM     10  C   UNL A   1      30.871  23.320  25.335  1.00  0.00     0.007 C 
ENDBRANCH   7   8
ENDBRANCH   6   7
BRANCH   6  11
ATOM     11  C   UNL A   1      33.697  26.647  24.888  1.00  0.00     0.003 C 
ATOM     12  C   UNL A   1      33.659  27.815  23.882  1.00  0.00     0.004 C 
ATOM     13  C   UNL A   1      34.066  25.377  24.107  1.00  0.00     0.007 C 
ATOM     14  C   UNL A   1      32.784  27.566  22.652  1.00  0.00     0.001 C 
ATOM     15  C   UNL A   1      33.030  25.037  23.045  1.00  0.00    -0.014 C 
ATOM     16  C   UNL A   1      32.953  26.178  22.023  1.00  0.00     0.003 C 
ATOM     17  C   UNL A   1      33.347  23.700  22.373  1.00  0.00     0.007 C 
ENDBRANCH   6  11
ENDBRANCH   4   6
ENDBRANCH   3   4
ENDBRANCH   2   3
ENDBRANCH   1   2
BRANCH   1  18
ATOM     18  O   UNL A   1      35.569  29.705  28.402  1.00  0.00    -0.458 OA
BRANCH  18  19
ATOM     19  C   UNL A   1      36.279  30.344  29.356  1.00  0.00     0.338 C 
ATOM     20  O   UNL A   1      35.844  30.977  30.309  1.00  0.00    -0.246 OA
BRANCH  19  21
ATOM     21  C   UNL A   1      37.705  30.050  29.182  1.00  0.00     0.060 A 
ATOM     22  C   UNL A   1      38.174  29.822  27.884  1.00  0.00     0.016 A 
ATOM     23  C   UNL A   1      38.559  29.949  30.281  1.00  0.00     0.016 A 
ATOM     24  C   UNL A   1      39.508  29.495  27.675  1.00  0.00     0.010 A 
ATOM     25  C   UNL A   1      39.895  29.606  30.071  1.00  0.00     0.010 A 
ATOM     26  C   UNL A   1      40.369  29.367  28.770  1.00  0.00    -0.014 A 
BRANCH  26  27
ATOM     27  C   UNL A   1      41.757  28.907  28.562  1.00  0.00     0.031 A 
ATOM     28  C   UNL A   1      42.871  29.908  28.622  1.00  0.00     0.074 A 
ATOM     29  C   UNL A   1      42.002  27.608  28.317  1.00  0.00     0.049 A 
ATOM     30  N   UNL A   1      44.138  29.752  28.345  1.00  0.00    -0.248 NA
ATOM     31  C   UNL A   1      42.508  31.270  29.046  1.00  0.00     0.031 C 
ATOM     32  C   UNL A   1      40.989  26.552  28.284  1.00  0.00     0.029 A 
ATOM     33  N   UNL A   1      43.175  26.960  28.033  1.00  0.00    -0.354 N 
ATOM     34  C   UNL A   1      44.721  30.999  28.536  1.00  0.00     0.074 A 
ATOM     35  C   UNL A   1      43.668  31.903  28.947  1.00  0.00     0.031 C 
ATOM     36  C   UNL A   1      41.584  25.388  27.974  1.00  0.00     0.029 A 
ATOM     37  C   UNL A   1      43.007  25.626  27.749  1.00  0.00     0.049 A 
ATOM     38  H   UNL A   1      44.053  27.407  28.033  1.00  0.00     0.167 HD
ATOM     39  C   UNL A   1      46.018  31.351  28.375  1.00  0.00     0.037 A 
ATOM     40  C   UNL A   1      43.899  24.714  27.319  1.00  0.00     0.037 A 
ATOM     41  C   UNL A   1      47.051  30.433  27.974  1.00  0.00     0.049 A 
ATOM     42  C   UNL A   1      45.329  25.135  27.116  1.00  0.00     0.074 A 
ATOM     43  C   UNL A   1      48.399  30.679  27.786  1.00  0.00     0.029 A 
ATOM     44  N   UNL A   1      46.846  29.087  27.697  1.00  0.00    -0.354 N 
ATOM     45  N   UNL A   1      45.869  26.319  27.287  1.00  0.00    -0.248 NA
ATOM     46  C   UNL A   1      46.269  24.103  26.661  1.00  0.00     0.031 C 
ATOM     47  C   UNL A   1      49.004  29.489  27.365  1.00  0.00     0.029 A 
ATOM     48  C   UNL A   1      48.040  28.493  27.328  1.00  0.00     0.049 A 
ATOM     49  H   UNL A   1      45.979  28.625  27.755  1.00  0.00     0.167 HD
ATOM     50  C   UNL A   1      47.216  26.173  26.974  1.00  0.00     0.074 A 
ATOM     51  C   UNL A   1      47.409  24.781  26.617  1.00  0.00     0.031 C 
ATOM     52  C   UNL A   1      48.203  27.103  26.980  1.00  0.00     0.037 A 
BRANCH  39  53
ATOM     53  C   UNL A   1      46.379  32.791  28.601  1.00  0.00     0.058 A 
ATOM     54  C   UNL A   1      46.803  33.260  29.853  1.00  0.00     0.135 A 
ATOM     55  C   UNL A   1      46.322  33.711  27.541  1.00  0.00     0.135 A 
ATOM     56  F   UNL A   1      46.855  32.428  30.906  1.00  0.00    -0.206 F 
ATOM     57  C   UNL A   1      47.137  34.597  30.054  1.00  0.00     0.059 A 
ATOM     58  C   UNL A   1      46.672  35.047  27.713  1.00  0.00     0.059 A 
ATOM     59  F   UNL A   1      45.917  33.314  26.325  1.00  0.00    -0.206 F 
ATOM     60  C   UNL A   1      47.066  35.483  28.977  1.00  0.00     0.060 A 
BRANCH  60  61
ATOM     61  S   UNL A   1      47.506  37.213  29.248  1.00  0.00     0.124 S 
ATOM     62  O   UNL A   1      46.304  37.896  28.779  1.00  0.00    -0.237 OA
ATOM     63  O   UNL A   1      47.738  37.257  30.688  1.00  0.00    -0.237 OA
ATOM     64  O   UNL A   1      48.694  37.396  28.421  1.00  0.00    -0.744 OA
ENDBRANCH  60  61
ENDBRANCH  39  53
BRANCH  40  65
ATOM     65  C   UNL A   1      43.454  23.325  27.031  1.00  0.00     0.058 A 
ATOM     66  C   UNL A   1      43.328  22.864  25.713  1.00  0.00     0.135 A 
ATOM     67  C   UNL A   1      43.176  22.424  28.070  1.00  0.00     0.135 A 
ATOM     68  F   UNL A   1      43.574  23.691  24.686  1.00  0.00    -0.206 F 
ATOM     69  C   UNL A   1      42.939  21.556  25.434  1.00  0.00     0.059 A 
ATOM     70  C   UNL A   1      42.808  21.106  27.817  1.00  0.00     0.059 A 
ATOM     71  F   UNL A   1      43.292  22.815  29.349  1.00  0.00    -0.206 F 
ATOM     72  C   UNL A   1      42.685  20.684  26.494  1.00  0.00     0.060 A 
BRANCH  72  73
ATOM     73  S   UNL A   1      42.246  18.970  26.124  1.00  0.00     0.124 S 
ATOM     74  O   UNL A   1      42.504  18.319  27.403  1.00  0.00    -0.237 OA
ATOM     75  O   UNL A   1      40.843  19.087  25.738  1.00  0.00    -0.237 OA
ATOM     76  O   UNL A   1      43.158  18.618  25.040  1.00  0.00    -0.744 OA
ENDBRANCH  72  73
ENDBRANCH  40  65
BRANCH  52  77
ATOM     77  C   UNL A   1      49.582  26.639  26.613  1.00  0.00     0.058 A 
ATOM     78  C   UNL A   1      50.041  26.676  25.288  1.00  0.00     0.135 A 
ATOM     79  C   UNL A   1      50.472  26.204  27.609  1.00  0.00     0.135 A 
ATOM     80  F   UNL A   1      49.224  27.080  24.302  1.00  0.00    -0.206 F 
ATOM     81  C   UNL A   1      51.333  26.279  24.958  1.00  0.00     0.059 A 
ATOM     82  C   UNL A   1      51.774  25.824  27.304  1.00  0.00     0.059 A 
ATOM     83  F   UNL A   1      50.082  26.160  28.893  1.00  0.00    -0.206 F 
ATOM     84  C   UNL A   1      52.191  25.854  25.973  1.00  0.00     0.060 A 
BRANCH  84  85
ATOM     85  S   UNL A   1      53.877  25.375  25.540  1.00  0.00     0.124 S 
ATOM     86  O   UNL A   1      54.345  24.789  26.792  1.00  0.00    -0.237 OA
ATOM     87  O   UNL A   1      53.666  24.437  24.441  1.00  0.00    -0.237 OA
ATOM     88  O   UNL A   1      54.503  26.639  25.165  1.00  0.00    -0.744 OA
ENDBRANCH  84  85
ENDBRANCH  52  77
ENDBRANCH  26  27
ENDBRANCH  19  21
ENDBRANCH  18  19
ENDBRANCH   1  18
TORSDOF 17
ENDMDL
MODEL 3
REMARK VINA RESULT:      -9.9      5.166      9.901
REMARK SMILES CC(C)C[C@@H](C(=O)OCCOC(=O)c1ccc(-c2c3nc(c(-c4c(F)cc(S(=O)(=O)[O-])cc4F)c4ccc([nH]4)c(-c4c(F)cc(S(=O)(=O)[O-])cc4F)c4nc(c(-c5c(F)cc(S(=O)(=O)[O-])cc5F)c5ccc2[nH]5)C=C4)C=C3)cc1)[C@@H]1CCC[C@@H](C)C1
REMARK SMILES IDX 10 1 9 2 8 3 6 4 7 5 5 6 4 7 2 8 1 9 3 10 80 11 81 12 86 13
REMARK SMILES IDX 82 14 84 15 83 16 85 17 11 18 12 19 13 20 14 21 15 22 79 23
REMARK SMILES IDX 16 24 78 25 17 26 18 27 19 28 72 29 20 30 77 31 71 32 73 33
REMARK SMILES IDX 21 34 76 35 70 36 69 37 22 39 56 40 35 41 55 42 36 43 39 44
REMARK SMILES IDX 54 45 74 46 37 47 38 48 53 50 75 51 40 52 23 53 24 54 33 55
REMARK SMILES IDX 25 56 26 57 32 58 34 59 27 60 28 61 29 62 30 63 31 64 57 65
REMARK SMILES IDX 58 66 67 67 59 68 60 69 66 70 68 71 61 72 62 73 63 74 64 75
REMARK SMILES IDX 65 76 41 77 42 78 51 79 43 80 44 81 50 82 52 83 45 84 46 85
REMARK SMILES IDX 47 86 48 87 49 88
REMARK H PARENT 73 38 39 49
REMARK Flexibility Score: inf
ROOT
ATOM      1  C   UNL A   1      40.293  22.799  26.931  1.00  0.00     0.275 C 
ENDROOT
BRANCH   1   2
ATOM      2  C   UNL A   1      39.428  21.792  26.168  1.00  0.00     0.274 C 
BRANCH   2   3
ATOM      3  O   UNL A   1      38.126  22.328  25.861  1.00  0.00    -0.462 OA
BRANCH   3   4
ATOM      4  C   UNL A   1      37.216  21.479  25.327  1.00  0.00     0.309 C 
ATOM      5  O   UNL A   1      37.509  20.445  24.737  1.00  0.00    -0.252 OA
BRANCH   4   6
ATOM      6  C   UNL A   1      35.774  21.973  25.440  1.00  0.00     0.102 C 
BRANCH   6   7
ATOM      7  C   UNL A   1      35.725  23.489  25.758  1.00  0.00     0.018 C 
BRANCH   7   8
ATOM      8  C   UNL A   1      35.267  24.503  24.690  1.00  0.00    -0.017 C 
ATOM      9  C   UNL A   1      34.685  23.853  23.434  1.00  0.00     0.007 C 
ATOM     10  C   UNL A   1      34.197  25.421  25.300  1.00  0.00     0.007 C 
ENDBRANCH   7   8
ENDBRANCH   6   7
BRANCH   6  11
ATOM     11  C   UNL A   1      34.671  20.986  25.977  1.00  0.00     0.003 C 
ATOM     12  C   UNL A   1      34.048  20.048  24.923  1.00  0.00     0.004 C 
ATOM     13  C   UNL A   1      33.526  21.527  26.847  1.00  0.00     0.007 C 
ATOM     14  C   UNL A   1      32.899  20.664  24.123  1.00  0.00     0.001 C 
ATOM     15  C   UNL A   1      32.527  22.342  26.036  1.00  0.00    -0.014 C 
ATOM     16  C   UNL A   1      31.887  21.447  24.967  1.00  0.00     0.003 C 
ATOM     17  C   UNL A   1      31.473  22.980  26.941  1.00  0.00     0.007 C 
ENDBRANCH   6  11
ENDBRANCH   4   6
ENDBRANCH   3   4
ENDBRANCH   2   3
ENDBRANCH   1   2
BRANCH   1  18
ATOM     18  O   UNL A   1      39.880  24.147  26.655  1.00  0.00    -0.458 OA
BRANCH  18  19
ATOM     19  C   UNL A   1      40.866  25.069  26.650  1.00  0.00     0.338 C 
ATOM     20  O   UNL A   1      41.750  25.208  25.814  1.00  0.00    -0.246 OA
BRANCH  19  21
ATOM     21  C   UNL A   1      40.652  26.019  27.746  1.00  0.00     0.060 A 
ATOM     22  C   UNL A   1      41.580  27.052  27.910  1.00  0.00     0.016 A 
ATOM     23  C   UNL A   1      39.583  25.868  28.630  1.00  0.00     0.016 A 
ATOM     24  C   UNL A   1      41.443  27.949  28.962  1.00  0.00     0.010 A 
ATOM     25  C   UNL A   1      39.454  26.760  29.695  1.00  0.00     0.010 A 
ATOM     26  C   UNL A   1      40.390  27.795  29.870  1.00  0.00    -0.014 A 
BRANCH  26  27
ATOM     27  C   UNL A   1      40.307  28.674  31.054  1.00  0.00     0.031 A 
ATOM     28  C   UNL A   1      39.319  29.802  31.054  1.00  0.00     0.074 A 
ATOM     29  C   UNL A   1      41.116  28.458  32.106  1.00  0.00     0.049 A 
ATOM     30  N   UNL A   1      39.166  30.766  31.921  1.00  0.00    -0.248 NA
ATOM     31  C   UNL A   1      38.382  29.854  29.919  1.00  0.00     0.031 C 
ATOM     32  C   UNL A   1      42.076  27.359  32.218  1.00  0.00     0.029 A 
ATOM     33  N   UNL A   1      41.269  29.161  33.272  1.00  0.00    -0.354 N 
ATOM     34  C   UNL A   1      38.133  31.554  31.429  1.00  0.00     0.074 A 
ATOM     35  C   UNL A   1      37.701  30.960  30.182  1.00  0.00     0.031 C 
ATOM     36  C   UNL A   1      42.737  27.476  33.382  1.00  0.00     0.029 A 
ATOM     37  C   UNL A   1      42.273  28.675  34.074  1.00  0.00     0.049 A 
ATOM     38  H   UNL A   1      40.714  29.939  33.510  1.00  0.00     0.167 HD
ATOM     39  C   UNL A   1      37.603  32.675  31.971  1.00  0.00     0.037 A 
ATOM     40  C   UNL A   1      42.781  29.169  35.219  1.00  0.00     0.037 A 
ATOM     41  C   UNL A   1      38.043  33.245  33.217  1.00  0.00     0.049 A 
ATOM     42  C   UNL A   1      42.198  30.435  35.787  1.00  0.00     0.074 A 
ATOM     43  C   UNL A   1      37.573  34.374  33.864  1.00  0.00     0.029 A 
ATOM     44  N   UNL A   1      39.060  32.725  34.007  1.00  0.00    -0.354 N 
ATOM     45  N   UNL A   1      41.230  31.181  35.308  1.00  0.00    -0.248 NA
ATOM     46  C   UNL A   1      42.774  30.927  37.045  1.00  0.00     0.031 C 
ATOM     47  C   UNL A   1      38.328  34.554  35.029  1.00  0.00     0.029 A 
ATOM     48  C   UNL A   1      39.242  33.516  35.127  1.00  0.00     0.049 A 
ATOM     49  H   UNL A   1      39.576  31.912  33.799  1.00  0.00     0.167 HD
ATOM     50  C   UNL A   1      41.070  32.224  36.212  1.00  0.00     0.074 A 
ATOM     51  C   UNL A   1      42.033  32.004  37.274  1.00  0.00     0.031 C 
ATOM     52  C   UNL A   1      40.207  33.270  36.169  1.00  0.00     0.037 A 
BRANCH  39  53
ATOM     53  C   UNL A   1      36.517  33.372  31.202  1.00  0.00     0.058 A 
ATOM     54  C   UNL A   1      36.783  34.072  30.015  1.00  0.00     0.135 A 
ATOM     55  C   UNL A   1      35.186  33.320  31.648  1.00  0.00     0.135 A 
ATOM     56  F   UNL A   1      38.041  34.171  29.556  1.00  0.00    -0.206 F 
ATOM     57  C   UNL A   1      35.771  34.715  29.308  1.00  0.00     0.059 A 
ATOM     58  C   UNL A   1      34.155  33.937  30.946  1.00  0.00     0.059 A 
ATOM     59  F   UNL A   1      34.879  32.669  32.781  1.00  0.00    -0.206 F 
ATOM     60  C   UNL A   1      34.461  34.643  29.783  1.00  0.00     0.060 A 
BRANCH  60  61
ATOM     61  S   UNL A   1      33.155  35.476  28.854  1.00  0.00     0.124 S 
ATOM     62  O   UNL A   1      33.928  36.405  28.036  1.00  0.00    -0.237 OA
ATOM     63  O   UNL A   1      32.526  34.372  28.136  1.00  0.00    -0.237 OA
ATOM     64  O   UNL A   1      32.335  36.089  29.894  1.00  0.00    -0.744 OA
ENDBRANCH  60  61
ENDBRANCH  39  53
BRANCH  40  65
ATOM     65  C   UNL A   1      43.917  28.476  35.882  1.00  0.00     0.058 A 
ATOM     66  C   UNL A   1      43.697  27.436  36.795  1.00  0.00     0.135 A 
ATOM     67  C   UNL A   1      45.245  28.820  35.588  1.00  0.00     0.135 A 
ATOM     68  F   UNL A   1      42.444  27.076  37.115  1.00  0.00    -0.206 F 
ATOM     69  C   UNL A   1      44.755  26.761  37.399  1.00  0.00     0.059 A 
ATOM     70  C   UNL A   1      46.319  28.146  36.161  1.00  0.00     0.059 A 
ATOM     71  F   UNL A   1      45.508  29.802  34.712  1.00  0.00    -0.206 F 
ATOM     72  C   UNL A   1      46.063  27.122  37.072  1.00  0.00     0.060 A 
BRANCH  72  73
ATOM     73  S   UNL A   1      47.431  26.198  37.808  1.00  0.00     0.124 S 
ATOM     74  O   UNL A   1      48.434  27.243  37.974  1.00  0.00    -0.237 OA
ATOM     75  O   UNL A   1      46.832  25.686  39.037  1.00  0.00    -0.237 OA
ATOM     76  O   UNL A   1      47.732  25.186  36.800  1.00  0.00    -0.744 OA
ENDBRANCH  72  73
ENDBRANCH  40  65
BRANCH  52  77
ATOM     77  C   UNL A   1      40.250  34.239  37.315  1.00  0.00     0.058 A 
ATOM     78  C   UNL A   1      41.134  35.328  37.322  1.00  0.00     0.135 A 
ATOM     79  C   UNL A   1      39.358  34.105  38.391  1.00  0.00     0.135 A 
ATOM     80  F   UNL A   1      42.009  35.495  36.318  1.00  0.00    -0.206 F 
ATOM     81  C   UNL A   1      41.145  36.244  38.369  1.00  0.00     0.059 A 
ATOM     82  C   UNL A   1      39.337  35.021  39.436  1.00  0.00     0.059 A 
ATOM     83  F   UNL A   1      38.486  33.084  38.424  1.00  0.00    -0.206 F 
ATOM     84  C   UNL A   1      40.243  36.082  39.421  1.00  0.00     0.060 A 
BRANCH  84  85
ATOM     85  S   UNL A   1      40.240  37.296  40.758  1.00  0.00     0.124 S 
ATOM     86  O   UNL A   1      40.058  38.541  40.020  1.00  0.00    -0.237 OA
ATOM     87  O   UNL A   1      39.105  36.868  41.571  1.00  0.00    -0.237 OA
ATOM     88  O   UNL A   1      41.549  37.118  41.379  1.00  0.00    -0.744 OA
ENDBRANCH  84  85
ENDBRANCH  52  77
ENDBRANCH  26  27
ENDBRANCH  19  21
ENDBRANCH  18  19
ENDBRANCH   1  18
TORSDOF 17
ENDMDL
