MODEL 1
REMARK VINA RESULT:     -10.8      0.000      0.000
REMARK SMILES CCCn1cc(S(=O)(=O)N[C@H]2C=C[C@@H](C(=O)OCCOC(=O)c3ccc(-c4c5nc(c(-c6c(F)cc(S(=O)(=O)[O-])cc6F)c6ccc([nH]6)c(-c6c(F)cc(S(=O)(=O)[O-])cc6F)c6nc(c(-c7c(F)cc(S(=O)(=O)[O-])cc7F)c7ccc4[nH]7)C=C6)C=C5)cc3)C2)nc1C
REMARK SMILES IDX 18 1 17 2 15 3 16 4 14 5 11 6 12 7 89 8 13 9 10 10 7 12 8 13
REMARK SMILES IDX 9 14 6 15 4 16 5 17 91 18 90 19 92 20 3 21 2 22 1 23 19 24
REMARK SMILES IDX 20 25 21 26 22 27 23 28 24 29 88 30 25 31 87 32 26 33 27 34
REMARK SMILES IDX 28 35 81 36 29 37 86 38 80 39 82 40 30 41 85 42 79 43 78 44
REMARK SMILES IDX 31 46 65 47 44 48 64 49 45 50 48 51 63 52 83 53 46 54 47 55
REMARK SMILES IDX 62 57 84 58 49 59 32 60 33 61 42 62 34 63 35 64 41 65 43 66
REMARK SMILES IDX 36 67 37 68 38 69 39 70 40 71 66 72 67 73 76 74 68 75 69 76
REMARK SMILES IDX 75 77 77 78 70 79 71 80 72 81 73 82 74 83 50 84 51 85 60 86
REMARK SMILES IDX 52 87 53 88 59 89 61 90 54 91 55 92 56 93 57 94 58 95
REMARK H PARENT 10 11 82 45 48 56
REMARK Flexibility Score: inf
ROOT
ATOM      1  C   UNL A   1      34.080  34.939  28.341  1.00  0.00     0.274 C 
ENDROOT
BRANCH   1   2
ATOM      2  O   UNL A   1      32.876  35.393  28.985  1.00  0.00    -0.462 OA
BRANCH   2   3
ATOM      3  C   UNL A   1      33.026  36.443  29.836  1.00  0.00     0.312 C 
ATOM      4  O   UNL A   1      33.311  37.584  29.484  1.00  0.00    -0.252 OA
BRANCH   3   5
ATOM      5  C   UNL A   1      32.851  36.068  31.303  1.00  0.00     0.123 C 
ATOM      6  C   UNL A   1      34.213  35.579  33.291  1.00  0.00     0.093 C 
ATOM      7  C   UNL A   1      33.862  37.022  33.193  1.00  0.00    -0.011 C 
ATOM      8  C   UNL A   1      33.810  35.036  31.911  1.00  0.00     0.043 C 
ATOM      9  C   UNL A   1      33.090  37.286  32.135  1.00  0.00    -0.015 C 
BRANCH   6  10
ATOM     10  N   UNL A   1      35.640  35.335  33.497  1.00  0.00    -0.203 NA
ATOM     11  H   UNL A   1      36.089  35.433  32.586  1.00  0.00     0.142 HD
BRANCH  10  12
ATOM     12  S   UNL A   1      36.162  33.868  34.142  1.00  0.00     0.260 S 
ATOM     13  O   UNL A   1      35.645  32.819  33.304  1.00  0.00    -0.205 OA
ATOM     14  O   UNL A   1      35.853  33.914  35.563  1.00  0.00    -0.205 OA
BRANCH  12  15
ATOM     15  C   UNL A   1      37.900  33.728  34.067  1.00  0.00     0.188 A 
ATOM     16  N   UNL A   1      40.007  33.916  33.487  1.00  0.00    -0.334 N 
ATOM     17  C   UNL A   1      38.760  34.453  33.266  1.00  0.00     0.129 A 
ATOM     18  C   UNL A   1      39.868  32.916  34.428  1.00  0.00     0.107 A 
ATOM     19  N   UNL A   1      38.609  32.795  34.797  1.00  0.00    -0.221 NA
ATOM     20  C   UNL A   1      40.962  32.067  34.960  1.00  0.00     0.088 C 
BRANCH  16  21
ATOM     21  C   UNL A   1      41.185  34.236  32.699  1.00  0.00     0.123 C 
BRANCH  21  22
ATOM     22  C   UNL A   1      41.404  33.388  31.444  1.00  0.00     0.018 C 
ATOM     23  C   UNL A   1      40.814  33.984  30.175  1.00  0.00     0.006 C 
ENDBRANCH  21  22
ENDBRANCH  16  21
ENDBRANCH  12  15
ENDBRANCH  10  12
ENDBRANCH   6  10
ENDBRANCH   3   5
ENDBRANCH   2   3
ENDBRANCH   1   2
BRANCH   1  24
ATOM     24  C   UNL A   1      34.006  33.449  28.038  1.00  0.00     0.275 C 
BRANCH  24  25
ATOM     25  O   UNL A   1      35.024  32.714  28.719  1.00  0.00    -0.458 OA
BRANCH  25  26
ATOM     26  C   UNL A   1      35.172  31.440  28.299  1.00  0.00     0.338 C 
ATOM     27  O   UNL A   1      34.368  30.777  27.659  1.00  0.00    -0.246 OA
BRANCH  26  28
ATOM     28  C   UNL A   1      36.352  30.841  28.912  1.00  0.00     0.060 A 
ATOM     29  C   UNL A   1      37.390  31.701  29.290  1.00  0.00     0.016 A 
ATOM     30  C   UNL A   1      36.528  29.456  28.817  1.00  0.00     0.016 A 
ATOM     31  C   UNL A   1      38.658  31.178  29.422  1.00  0.00     0.010 A 
ATOM     32  C   UNL A   1      37.796  28.942  28.927  1.00  0.00     0.010 A 
ATOM     33  C   UNL A   1      38.854  29.817  29.165  1.00  0.00    -0.014 A 
BRANCH  33  34
ATOM     34  C   UNL A   1      40.184  29.266  29.314  1.00  0.00     0.031 A 
ATOM     35  C   UNL A   1      40.546  29.090  30.738  1.00  0.00     0.074 A 
ATOM     36  C   UNL A   1      40.909  28.825  28.268  1.00  0.00     0.049 A 
ATOM     37  N   UNL A   1      41.407  29.766  31.422  1.00  0.00    -0.248 NA
ATOM     38  C   UNL A   1      39.699  28.203  31.557  1.00  0.00     0.031 C 
ATOM     39  C   UNL A   1      40.479  28.711  26.869  1.00  0.00     0.029 A 
ATOM     40  N   UNL A   1      42.160  28.287  28.246  1.00  0.00    -0.354 N 
ATOM     41  C   UNL A   1      41.402  29.182  32.684  1.00  0.00     0.074 A 
ATOM     42  C   UNL A   1      40.185  28.426  32.778  1.00  0.00     0.031 C 
ATOM     43  C   UNL A   1      41.362  27.943  26.189  1.00  0.00     0.029 A 
ATOM     44  C   UNL A   1      42.486  27.640  27.059  1.00  0.00     0.049 A 
ATOM     45  H   UNL A   1      42.782  28.351  29.007  1.00  0.00     0.167 HD
ATOM     46  C   UNL A   1      42.556  29.084  33.398  1.00  0.00     0.037 A 
ATOM     47  C   UNL A   1      43.593  26.891  26.825  1.00  0.00     0.037 A 
ATOM     48  C   UNL A   1      43.567  29.951  32.846  1.00  0.00     0.049 A 
ATOM     49  C   UNL A   1      44.614  27.305  27.818  1.00  0.00     0.074 A 
ATOM     50  C   UNL A   1      43.827  31.304  32.837  1.00  0.00     0.029 A 
ATOM     51  N   UNL A   1      44.282  29.387  31.821  1.00  0.00    -0.354 N 
ATOM     52  N   UNL A   1      45.155  28.492  27.834  1.00  0.00    -0.248 NA
ATOM     53  C   UNL A   1      44.790  26.522  29.038  1.00  0.00     0.031 C 
ATOM     54  C   UNL A   1      44.592  31.555  31.659  1.00  0.00     0.029 A 
ATOM     55  C   UNL A   1      44.811  30.346  31.001  1.00  0.00     0.049 A 
ATOM     56  H   UNL A   1      44.400  28.418  31.692  1.00  0.00     0.167 HD
ATOM     57  C   UNL A   1      45.356  28.759  29.174  1.00  0.00     0.074 A 
ATOM     58  C   UNL A   1      45.284  27.468  29.843  1.00  0.00     0.031 C 
ATOM     59  C   UNL A   1      45.235  30.028  29.655  1.00  0.00     0.037 A 
BRANCH  46  60
ATOM     60  C   UNL A   1      42.936  27.884  34.242  1.00  0.00     0.058 A 
ATOM     61  C   UNL A   1      43.124  28.056  35.630  1.00  0.00     0.135 A 
ATOM     62  C   UNL A   1      43.406  26.658  33.718  1.00  0.00     0.135 A 
ATOM     63  F   UNL A   1      42.731  29.189  36.236  1.00  0.00    -0.206 F 
ATOM     64  C   UNL A   1      43.780  27.110  36.420  1.00  0.00     0.059 A 
ATOM     65  C   UNL A   1      44.012  25.680  34.497  1.00  0.00     0.059 A 
ATOM     66  F   UNL A   1      43.397  26.380  32.409  1.00  0.00    -0.206 F 
ATOM     67  C   UNL A   1      44.230  25.929  35.839  1.00  0.00     0.060 A 
BRANCH  67  68
ATOM     68  S   UNL A   1      45.144  24.736  36.831  1.00  0.00     0.124 S 
ATOM     69  O   UNL A   1      46.413  25.428  37.023  1.00  0.00    -0.237 OA
ATOM     70  O   UNL A   1      44.295  24.613  38.012  1.00  0.00    -0.237 OA
ATOM     71  O   UNL A   1      45.191  23.554  35.975  1.00  0.00    -0.744 OA
ENDBRANCH  67  68
ENDBRANCH  46  60
BRANCH  47  72
ATOM     72  C   UNL A   1      43.776  25.689  25.973  1.00  0.00     0.058 A 
ATOM     73  C   UNL A   1      44.980  25.466  25.280  1.00  0.00     0.135 A 
ATOM     74  C   UNL A   1      42.903  24.588  26.077  1.00  0.00     0.135 A 
ATOM     75  F   UNL A   1      45.872  26.458  25.140  1.00  0.00    -0.206 F 
ATOM     76  C   UNL A   1      45.333  24.207  24.782  1.00  0.00     0.059 A 
ATOM     77  C   UNL A   1      43.232  23.325  25.585  1.00  0.00     0.059 A 
ATOM     78  F   UNL A   1      41.748  24.691  26.752  1.00  0.00    -0.206 F 
ATOM     79  C   UNL A   1      44.463  23.134  24.966  1.00  0.00     0.060 A 
BRANCH  79  80
ATOM     80  S   UNL A   1      45.008  21.469  24.510  1.00  0.00     0.124 S 
ATOM     81  O   UNL A   1      44.586  21.384  23.117  1.00  0.00    -0.237 OA
ATOM     82  O   UNL A   1      46.447  21.543  24.737  1.00  0.00    -0.237 OA
ATOM     83  O   UNL A   1      44.278  20.609  25.439  1.00  0.00    -0.744 OA
ENDBRANCH  79  80
ENDBRANCH  47  72
BRANCH  59  84
ATOM     84  C   UNL A   1      45.415  31.153  28.681  1.00  0.00     0.058 A 
ATOM     85  C   UNL A   1      46.648  31.573  28.155  1.00  0.00     0.135 A 
ATOM     86  C   UNL A   1      44.259  31.782  28.200  1.00  0.00     0.135 A 
ATOM     87  F   UNL A   1      47.792  30.971  28.512  1.00  0.00    -0.206 F 
ATOM     88  C   UNL A   1      46.727  32.594  27.206  1.00  0.00     0.059 A 
ATOM     89  C   UNL A   1      44.311  32.780  27.234  1.00  0.00     0.059 A 
ATOM     90  F   UNL A   1      43.051  31.390  28.636  1.00  0.00    -0.206 F 
ATOM     91  C   UNL A   1      45.550  33.190  26.749  1.00  0.00     0.060 A 
BRANCH  91  92
ATOM     92  S   UNL A   1      45.640  34.448  25.458  1.00  0.00     0.124 S 
ATOM     93  O   UNL A   1      44.840  33.855  24.393  1.00  0.00    -0.237 OA
ATOM     94  O   UNL A   1      45.059  35.617  26.113  1.00  0.00    -0.237 OA
ATOM     95  O   UNL A   1      47.071  34.550  25.182  1.00  0.00    -0.744 OA
ENDBRANCH  91  92
ENDBRANCH  59  84
ENDBRANCH  33  34
ENDBRANCH  26  28
ENDBRANCH  25  26
ENDBRANCH  24  25
ENDBRANCH   1  24
TORSDOF 19
ENDMDL
MODEL 2
REMARK VINA RESULT:     -10.7      4.801     11.661
REMARK SMILES CCCn1cc(S(=O)(=O)N[C@H]2C=C[C@@H](C(=O)OCCOC(=O)c3ccc(-c4c5nc(c(-c6c(F)cc(S(=O)(=O)[O-])cc6F)c6ccc([nH]6)c(-c6c(F)cc(S(=O)(=O)[O-])cc6F)c6nc(c(-c7c(F)cc(S(=O)(=O)[O-])cc7F)c7ccc4[nH]7)C=C6)C=C5)cc3)C2)nc1C
REMARK SMILES IDX 18 1 17 2 15 3 16 4 14 5 11 6 12 7 89 8 13 9 10 10 7 12 8 13
REMARK SMILES IDX 9 14 6 15 4 16 5 17 91 18 90 19 92 20 3 21 2 22 1 23 19 24
REMARK SMILES IDX 20 25 21 26 22 27 23 28 24 29 88 30 25 31 87 32 26 33 27 34
REMARK SMILES IDX 28 35 81 36 29 37 86 38 80 39 82 40 30 41 85 42 79 43 78 44
REMARK SMILES IDX 31 46 65 47 44 48 64 49 45 50 48 51 63 52 83 53 46 54 47 55
REMARK SMILES IDX 62 57 84 58 49 59 32 60 33 61 42 62 34 63 35 64 41 65 43 66
REMARK SMILES IDX 36 67 37 68 38 69 39 70 40 71 66 72 67 73 76 74 68 75 69 76
REMARK SMILES IDX 75 77 77 78 70 79 71 80 72 81 73 82 74 83 50 84 51 85 60 86
REMARK SMILES IDX 52 87 53 88 59 89 61 90 54 91 55 92 56 93 57 94 58 95
REMARK H PARENT 10 11 82 45 48 56
REMARK Flexibility Score: inf
ROOT
ATOM      1  C   UNL A   1      37.683  21.896  25.031  1.00  0.00     0.274 C 
ENDROOT
BRANCH   1   2
ATOM      2  O   UNL A   1      36.534  21.042  25.168  1.00  0.00    -0.462 OA
BRANCH   2   3
ATOM      3  C   UNL A   1      35.327  21.662  25.063  1.00  0.00     0.312 C 
ATOM      4  O   UNL A   1      34.268  21.081  24.841  1.00  0.00    -0.252 OA
BRANCH   3   5
ATOM      5  C   UNL A   1      35.406  23.177  25.203  1.00  0.00     0.123 C 
ATOM      6  C   UNL A   1      34.185  25.194  24.503  1.00  0.00     0.093 C 
ATOM      7  C   UNL A   1      33.718  24.685  25.822  1.00  0.00    -0.011 C 
ATOM      8  C   UNL A   1      35.059  24.042  23.983  1.00  0.00     0.043 C 
ATOM      9  C   UNL A   1      34.406  23.612  26.224  1.00  0.00    -0.015 C 
BRANCH   6  10
ATOM     10  N   UNL A   1      33.102  25.433  23.551  1.00  0.00    -0.203 NA
ATOM     11  H   UNL A   1      33.142  24.679  22.865  1.00  0.00     0.142 HD
BRANCH  10  12
ATOM     12  S   UNL A   1      33.042  26.877  22.684  1.00  0.00     0.260 S 
ATOM     13  O   UNL A   1      33.249  26.559  21.297  1.00  0.00    -0.205 OA
ATOM     14  O   UNL A   1      33.921  27.807  23.379  1.00  0.00    -0.205 OA
BRANCH  12  15
ATOM     15  C   UNL A   1      31.459  27.605  22.777  1.00  0.00     0.188 A 
ATOM     16  N   UNL A   1      29.796  29.034  22.855  1.00  0.00    -0.334 N 
ATOM     17  C   UNL A   1      31.138  28.931  22.568  1.00  0.00     0.129 A 
ATOM     18  C   UNL A   1      29.346  27.774  23.192  1.00  0.00     0.107 A 
ATOM     19  N   UNL A   1      30.330  26.898  23.141  1.00  0.00    -0.221 NA
ATOM     20  C   UNL A   1      27.958  27.423  23.578  1.00  0.00     0.088 C 
BRANCH  16  21
ATOM     21  C   UNL A   1      29.079  30.292  22.967  1.00  0.00     0.123 C 
BRANCH  21  22
ATOM     22  C   UNL A   1      28.025  30.563  21.892  1.00  0.00     0.018 C 
ATOM     23  C   UNL A   1      28.263  31.832  21.088  1.00  0.00     0.006 C 
ENDBRANCH  21  22
ENDBRANCH  16  21
ENDBRANCH  12  15
ENDBRANCH  10  12
ENDBRANCH   6  10
ENDBRANCH   3   5
ENDBRANCH   2   3
ENDBRANCH   1   2
BRANCH   1  24
ATOM     24  C   UNL A   1      38.826  21.416  25.915  1.00  0.00     0.275 C 
BRANCH  24  25
ATOM     25  O   UNL A   1      39.362  22.472  26.714  1.00  0.00    -0.458 OA
BRANCH  25  26
ATOM     26  C   UNL A   1      40.688  22.674  26.559  1.00  0.00     0.338 C 
ATOM     27  O   UNL A   1      41.547  21.823  26.380  1.00  0.00    -0.246 OA
BRANCH  26  28
ATOM     28  C   UNL A   1      41.025  24.059  26.869  1.00  0.00     0.060 A 
ATOM     29  C   UNL A   1      42.113  24.283  27.721  1.00  0.00     0.016 A 
ATOM     30  C   UNL A   1      40.094  25.060  26.568  1.00  0.00     0.016 A 
ATOM     31  C   UNL A   1      42.178  25.481  28.399  1.00  0.00     0.010 A 
ATOM     32  C   UNL A   1      40.149  26.243  27.262  1.00  0.00     0.010 A 
ATOM     33  C   UNL A   1      41.152  26.415  28.214  1.00  0.00    -0.014 A 
BRANCH  33  34
ATOM     34  C   UNL A   1      41.226  27.676  28.918  1.00  0.00     0.031 A 
ATOM     35  C   UNL A   1      42.353  28.506  28.437  1.00  0.00     0.074 A 
ATOM     36  C   UNL A   1      40.274  28.084  29.781  1.00  0.00     0.049 A 
ATOM     37  N   UNL A   1      43.447  28.786  29.060  1.00  0.00    -0.248 NA
ATOM     38  C   UNL A   1      42.362  28.891  27.013  1.00  0.00     0.031 C 
ATOM     39  C   UNL A   1      38.995  27.427  30.073  1.00  0.00     0.029 A 
ATOM     40  N   UNL A   1      40.201  29.230  30.512  1.00  0.00    -0.354 N 
ATOM     41  C   UNL A   1      44.147  29.626  28.199  1.00  0.00     0.074 A 
ATOM     42  C   UNL A   1      43.569  29.444  26.897  1.00  0.00     0.031 C 
ATOM     43  C   UNL A   1      38.190  28.288  30.738  1.00  0.00     0.029 A 
ATOM     44  C   UNL A   1      38.944  29.490  31.048  1.00  0.00     0.049 A 
ATOM     45  H   UNL A   1      40.974  29.825  30.650  1.00  0.00     0.167 HD
ATOM     46  C   UNL A   1      44.894  30.648  28.696  1.00  0.00     0.037 A 
ATOM     47  C   UNL A   1      38.556  30.627  31.680  1.00  0.00     0.037 A 
ATOM     48  C   UNL A   1      45.122  30.469  30.108  1.00  0.00     0.049 A 
ATOM     49  C   UNL A   1      39.786  31.297  32.163  1.00  0.00     0.074 A 
ATOM     50  C   UNL A   1      45.913  29.664  30.898  1.00  0.00     0.029 A 
ATOM     51  N   UNL A   1      44.118  30.965  30.899  1.00  0.00    -0.354 N 
ATOM     52  N   UNL A   1      40.560  30.792  33.084  1.00  0.00    -0.248 NA
ATOM     53  C   UNL A   1      40.377  32.374  31.373  1.00  0.00     0.031 C 
ATOM     54  C   UNL A   1      45.245  29.559  32.154  1.00  0.00     0.029 A 
ATOM     55  C   UNL A   1      44.086  30.331  32.112  1.00  0.00     0.049 A 
ATOM     56  H   UNL A   1      43.501  31.683  30.630  1.00  0.00     0.167 HD
ATOM     57  C   UNL A   1      41.833  31.178  32.712  1.00  0.00     0.074 A 
ATOM     58  C   UNL A   1      41.647  32.279  31.776  1.00  0.00     0.031 C 
ATOM     59  C   UNL A   1      42.901  30.364  32.941  1.00  0.00     0.037 A 
BRANCH  46  60
ATOM     60  C   UNL A   1      44.988  32.021  28.060  1.00  0.00     0.058 A 
ATOM     61  C   UNL A   1      46.219  32.436  27.510  1.00  0.00     0.135 A 
ATOM     62  C   UNL A   1      44.027  33.044  28.228  1.00  0.00     0.135 A 
ATOM     63  F   UNL A   1      47.213  31.553  27.318  1.00  0.00    -0.206 F 
ATOM     64  C   UNL A   1      46.492  33.772  27.207  1.00  0.00     0.059 A 
ATOM     65  C   UNL A   1      44.259  34.369  27.882  1.00  0.00     0.059 A 
ATOM     66  F   UNL A   1      42.850  32.839  28.829  1.00  0.00    -0.206 F 
ATOM     67  C   UNL A   1      45.506  34.733  27.407  1.00  0.00     0.060 A 
BRANCH  67  68
ATOM     68  S   UNL A   1      45.871  36.467  27.093  1.00  0.00     0.124 S 
ATOM     69  O   UNL A   1      46.674  36.381  25.878  1.00  0.00    -0.237 OA
ATOM     70  O   UNL A   1      44.535  37.034  26.941  1.00  0.00    -0.237 OA
ATOM     71  O   UNL A   1      46.588  36.882  28.295  1.00  0.00    -0.744 OA
ENDBRANCH  67  68
ENDBRANCH  46  60
BRANCH  47  72
ATOM     72  C   UNL A   1      37.235  31.306  31.704  1.00  0.00     0.058 A 
ATOM     73  C   UNL A   1      36.607  31.627  32.922  1.00  0.00     0.135 A 
ATOM     74  C   UNL A   1      36.722  31.934  30.553  1.00  0.00     0.135 A 
ATOM     75  F   UNL A   1      37.037  31.080  34.068  1.00  0.00    -0.206 F 
ATOM     76  C   UNL A   1      35.578  32.571  33.004  1.00  0.00     0.059 A 
ATOM     77  C   UNL A   1      35.694  32.876  30.610  1.00  0.00     0.059 A 
ATOM     78  F   UNL A   1      37.279  31.721  29.350  1.00  0.00    -0.206 F 
ATOM     79  C   UNL A   1      35.148  33.213  31.844  1.00  0.00     0.060 A 
BRANCH  79  80
ATOM     80  S   UNL A   1      33.967  34.579  31.977  1.00  0.00     0.124 S 
ATOM     81  O   UNL A   1      34.827  35.683  32.385  1.00  0.00    -0.237 OA
ATOM     82  O   UNL A   1      33.431  34.655  30.622  1.00  0.00    -0.237 OA
ATOM     83  O   UNL A   1      33.024  34.113  32.991  1.00  0.00    -0.744 OA
ENDBRANCH  79  80
ENDBRANCH  47  72
BRANCH  59  84
ATOM     84  C   UNL A   1      42.769  29.346  34.033  1.00  0.00     0.058 A 
ATOM     85  C   UNL A   1      42.897  29.617  35.406  1.00  0.00     0.135 A 
ATOM     86  C   UNL A   1      42.413  28.043  33.662  1.00  0.00     0.135 A 
ATOM     87  F   UNL A   1      43.164  30.855  35.843  1.00  0.00    -0.206 F 
ATOM     88  C   UNL A   1      42.702  28.623  36.367  1.00  0.00     0.059 A 
ATOM     89  C   UNL A   1      42.185  27.045  34.602  1.00  0.00     0.059 A 
ATOM     90  F   UNL A   1      42.234  27.740  32.365  1.00  0.00    -0.206 F 
ATOM     91  C   UNL A   1      42.342  27.339  35.953  1.00  0.00     0.060 A 
BRANCH  91  92
ATOM     92  S   UNL A   1      42.003  26.073  37.195  1.00  0.00     0.124 S 
ATOM     93  O   UNL A   1      40.610  26.340  37.534  1.00  0.00    -0.237 OA
ATOM     94  O   UNL A   1      42.253  24.835  36.463  1.00  0.00    -0.237 OA
ATOM     95  O   UNL A   1      42.970  26.365  38.251  1.00  0.00    -0.744 OA
ENDBRANCH  91  92
ENDBRANCH  59  84
ENDBRANCH  33  34
ENDBRANCH  26  28
ENDBRANCH  25  26
ENDBRANCH  24  25
ENDBRANCH   1  24
TORSDOF 19
ENDMDL
MODEL 3
REMARK VINA RESULT:     -10.7      4.293     11.275
REMARK SMILES CCCn1cc(S(=O)(=O)N[C@H]2C=C[C@@H](C(=O)OCCOC(=O)c3ccc(-c4c5nc(c(-c6c(F)cc(S(=O)(=O)[O-])cc6F)c6ccc([nH]6)c(-c6c(F)cc(S(=O)(=O)[O-])cc6F)c6nc(c(-c7c(F)cc(S(=O)(=O)[O-])cc7F)c7ccc4[nH]7)C=C6)C=C5)cc3)C2)nc1C
REMARK SMILES IDX 18 1 17 2 15 3 16 4 14 5 11 6 12 7 89 8 13 9 10 10 7 12 8 13
REMARK SMILES IDX 9 14 6 15 4 16 5 17 91 18 90 19 92 20 3 21 2 22 1 23 19 24
REMARK SMILES IDX 20 25 21 26 22 27 23 28 24 29 88 30 25 31 87 32 26 33 27 34
REMARK SMILES IDX 28 35 81 36 29 37 86 38 80 39 82 40 30 41 85 42 79 43 78 44
REMARK SMILES IDX 31 46 65 47 44 48 64 49 45 50 48 51 63 52 83 53 46 54 47 55
REMARK SMILES IDX 62 57 84 58 49 59 32 60 33 61 42 62 34 63 35 64 41 65 43 66
REMARK SMILES IDX 36 67 37 68 38 69 39 70 40 71 66 72 67 73 76 74 68 75 69 76
REMARK SMILES IDX 75 77 77 78 70 79 71 80 72 81 73 82 74 83 50 84 51 85 60 86
REMARK SMILES IDX 52 87 53 88 59 89 61 90 54 91 55 92 56 93 57 94 58 95
REMARK H PARENT 10 11 82 45 48 56
REMARK Flexibility Score: inf
ROOT
ATOM      1  C   UNL A   1      37.586  20.385  24.607  1.00  0.00     0.274 C 
ENDROOT
BRANCH   1   2
ATOM      2  O   UNL A   1      36.414  20.437  25.439  1.00  0.00    -0.462 OA
BRANCH   2   3
ATOM      3  C   UNL A   1      35.347  21.095  24.909  1.00  0.00     0.312 C 
ATOM      4  O   UNL A   1      34.221  20.617  24.808  1.00  0.00    -0.252 OA
BRANCH   3   5
ATOM      5  C   UNL A   1      35.684  22.491  24.400  1.00  0.00     0.123 C 
ATOM      6  C   UNL A   1      34.552  24.573  23.741  1.00  0.00     0.093 C 
ATOM      7  C   UNL A   1      34.917  24.564  25.185  1.00  0.00    -0.011 C 
ATOM      8  C   UNL A   1      34.783  23.112  23.323  1.00  0.00     0.043 C 
ATOM      9  C   UNL A   1      35.567  23.451  25.538  1.00  0.00    -0.015 C 
BRANCH   6  10
ATOM     10  N   UNL A   1      33.155  24.921  23.492  1.00  0.00    -0.203 NA
ATOM     11  H   UNL A   1      32.747  24.146  22.970  1.00  0.00     0.142 HD
BRANCH  10  12
ATOM     12  S   UNL A   1      32.773  26.330  22.648  1.00  0.00     0.260 S 
ATOM     13  O   UNL A   1      31.419  26.200  22.180  1.00  0.00    -0.205 OA
ATOM     14  O   UNL A   1      33.870  26.558  21.717  1.00  0.00    -0.205 OA
BRANCH  12  15
ATOM     15  C   UNL A   1      32.785  27.721  23.702  1.00  0.00     0.188 A 
ATOM     16  N   UNL A   1      33.325  29.217  25.213  1.00  0.00    -0.334 N 
ATOM     17  C   UNL A   1      33.827  28.154  24.497  1.00  0.00     0.129 A 
ATOM     18  C   UNL A   1      32.021  29.410  24.808  1.00  0.00     0.107 A 
ATOM     19  N   UNL A   1      31.680  28.526  23.892  1.00  0.00    -0.221 NA
ATOM     20  C   UNL A   1      31.097  30.450  25.324  1.00  0.00     0.088 C 
BRANCH  16  21
ATOM     21  C   UNL A   1      34.014  29.851  26.323  1.00  0.00     0.123 C 
BRANCH  21  22
ATOM     22  C   UNL A   1      35.002  28.970  27.091  1.00  0.00     0.018 C 
ATOM     23  C   UNL A   1      35.580  29.620  28.339  1.00  0.00     0.006 C 
ENDBRANCH  21  22
ENDBRANCH  16  21
ENDBRANCH  12  15
ENDBRANCH  10  12
ENDBRANCH   6  10
ENDBRANCH   3   5
ENDBRANCH   2   3
ENDBRANCH   1   2
BRANCH   1  24
ATOM     24  C   UNL A   1      38.853  20.488  25.445  1.00  0.00     0.275 C 
BRANCH  24  25
ATOM     25  O   UNL A   1      38.957  21.753  26.102  1.00  0.00    -0.458 OA
BRANCH  25  26
ATOM     26  C   UNL A   1      40.223  22.175  26.307  1.00  0.00     0.338 C 
ATOM     27  O   UNL A   1      41.251  21.636  25.924  1.00  0.00    -0.246 OA
BRANCH  26  28
ATOM     28  C   UNL A   1      40.238  23.270  27.271  1.00  0.00     0.060 A 
ATOM     29  C   UNL A   1      39.257  24.260  27.139  1.00  0.00     0.016 A 
ATOM     30  C   UNL A   1      41.376  23.449  28.066  1.00  0.00     0.016 A 
ATOM     31  C   UNL A   1      39.501  25.500  27.688  1.00  0.00     0.010 A 
ATOM     32  C   UNL A   1      41.626  24.691  28.591  1.00  0.00     0.010 A 
ATOM     33  C   UNL A   1      40.717  25.718  28.343  1.00  0.00    -0.014 A 
BRANCH  33  34
ATOM     34  C   UNL A   1      40.968  27.017  28.929  1.00  0.00     0.031 A 
ATOM     35  C   UNL A   1      42.150  27.671  28.324  1.00  0.00     0.074 A 
ATOM     36  C   UNL A   1      40.116  27.601  29.795  1.00  0.00     0.049 A 
ATOM     37  N   UNL A   1      43.301  27.876  28.869  1.00  0.00    -0.248 NA
ATOM     38  C   UNL A   1      42.122  27.932  26.873  1.00  0.00     0.031 C 
ATOM     39  C   UNL A   1      38.790  27.120  30.202  1.00  0.00     0.029 A 
ATOM     40  N   UNL A   1      40.209  28.805  30.423  1.00  0.00    -0.354 N 
ATOM     41  C   UNL A   1      44.039  28.556  27.905  1.00  0.00     0.074 A 
ATOM     42  C   UNL A   1      43.374  28.334  26.652  1.00  0.00     0.031 C 
ATOM     43  C   UNL A   1      38.123  28.119  30.825  1.00  0.00     0.029 A 
ATOM     44  C   UNL A   1      39.020  29.250  30.991  1.00  0.00     0.049 A 
ATOM     45  H   UNL A   1      41.049  29.317  30.472  1.00  0.00     0.167 HD
ATOM     46  C   UNL A   1      44.920  29.524  28.274  1.00  0.00     0.037 A 
ATOM     47  C   UNL A   1      38.793  30.472  31.537  1.00  0.00     0.037 A 
ATOM     48  C   UNL A   1      45.205  29.439  29.684  1.00  0.00     0.049 A 
ATOM     49  C   UNL A   1      40.115  31.036  31.901  1.00  0.00     0.074 A 
ATOM     50  C   UNL A   1      45.947  28.618  30.505  1.00  0.00     0.029 A 
ATOM     51  N   UNL A   1      44.307  30.109  30.473  1.00  0.00    -0.354 N 
ATOM     52  N   UNL A   1      40.879  30.524  32.826  1.00  0.00    -0.248 NA
ATOM     53  C   UNL A   1      40.775  31.969  30.993  1.00  0.00     0.031 C 
ATOM     54  C   UNL A   1      45.342  28.694  31.796  1.00  0.00     0.029 A 
ATOM     55  C   UNL A   1      44.273  29.587  31.738  1.00  0.00     0.049 A 
ATOM     56  H   UNL A   1      43.758  30.868  30.170  1.00  0.00     0.167 HD
ATOM     57  C   UNL A   1      42.164  30.731  32.364  1.00  0.00     0.074 A 
ATOM     58  C   UNL A   1      42.048  31.764  31.343  1.00  0.00     0.031 C 
ATOM     59  C   UNL A   1      43.147  29.823  32.615  1.00  0.00     0.037 A 
BRANCH  46  60
ATOM     60  C   UNL A   1      45.128  30.820  27.515  1.00  0.00     0.058 A 
ATOM     61  C   UNL A   1      46.411  31.118  27.009  1.00  0.00     0.135 A 
ATOM     62  C   UNL A   1      44.216  31.900  27.518  1.00  0.00     0.135 A 
ATOM     63  F   UNL A   1      47.365  30.173  26.970  1.00  0.00    -0.206 F 
ATOM     64  C   UNL A   1      46.775  32.401  26.596  1.00  0.00     0.059 A 
ATOM     65  C   UNL A   1      44.541  33.171  27.061  1.00  0.00     0.059 A 
ATOM     66  F   UNL A   1      42.995  31.814  28.057  1.00  0.00    -0.206 F 
ATOM     67  C   UNL A   1      45.833  33.424  26.637  1.00  0.00     0.060 A 
BRANCH  67  68
ATOM     68  S   UNL A   1      46.311  35.098  26.179  1.00  0.00     0.124 S 
ATOM     69  O   UNL A   1      47.406  35.353  27.108  1.00  0.00    -0.237 OA
ATOM     70  O   UNL A   1      46.682  34.933  24.777  1.00  0.00    -0.237 OA
ATOM     71  O   UNL A   1      45.093  35.870  26.412  1.00  0.00    -0.744 OA
ENDBRANCH  67  68
ENDBRANCH  46  60
BRANCH  47  72
ATOM     72  C   UNL A   1      37.559  31.296  31.562  1.00  0.00     0.058 A 
ATOM     73  C   UNL A   1      36.811  31.448  32.744  1.00  0.00     0.135 A 
ATOM     74  C   UNL A   1      37.270  32.200  30.521  1.00  0.00     0.135 A 
ATOM     75  F   UNL A   1      37.026  30.634  33.788  1.00  0.00    -0.206 F 
ATOM     76  C   UNL A   1      35.882  32.481  32.912  1.00  0.00     0.059 A 
ATOM     77  C   UNL A   1      36.347  33.236  30.665  1.00  0.00     0.059 A 
ATOM     78  F   UNL A   1      37.956  32.160  29.368  1.00  0.00    -0.206 F 
ATOM     79  C   UNL A   1      35.679  33.389  31.876  1.00  0.00     0.060 A 
BRANCH  79  80
ATOM     80  S   UNL A   1      34.638  34.842  32.166  1.00  0.00     0.124 S 
ATOM     81  O   UNL A   1      34.342  35.279  30.807  1.00  0.00    -0.237 OA
ATOM     82  O   UNL A   1      33.519  34.274  32.911  1.00  0.00    -0.237 OA
ATOM     83  O   UNL A   1      35.506  35.731  32.934  1.00  0.00    -0.744 OA
ENDBRANCH  79  80
ENDBRANCH  47  72
BRANCH  59  84
ATOM     84  C   UNL A   1      42.966  28.921  33.798  1.00  0.00     0.058 A 
ATOM     85  C   UNL A   1      43.294  29.255  35.123  1.00  0.00     0.135 A 
ATOM     86  C   UNL A   1      42.351  27.682  33.577  1.00  0.00     0.135 A 
ATOM     87  F   UNL A   1      43.819  30.452  35.423  1.00  0.00    -0.206 F 
ATOM     88  C   UNL A   1      43.040  28.380  36.180  1.00  0.00     0.059 A 
ATOM     89  C   UNL A   1      42.062  26.807  34.617  1.00  0.00     0.059 A 
ATOM     90  F   UNL A   1      41.977  27.331  32.336  1.00  0.00    -0.206 F 
ATOM     91  C   UNL A   1      42.419  27.157  35.916  1.00  0.00     0.060 A 
BRANCH  91  92
ATOM     92  S   UNL A   1      42.009  26.060  37.290  1.00  0.00     0.124 S 
ATOM     93  O   UNL A   1      40.593  26.340  37.496  1.00  0.00    -0.237 OA
ATOM     94  O   UNL A   1      42.324  24.741  36.747  1.00  0.00    -0.237 OA
ATOM     95  O   UNL A   1      42.897  26.509  38.360  1.00  0.00    -0.744 OA
ENDBRANCH  91  92
ENDBRANCH  59  84
ENDBRANCH  33  34
ENDBRANCH  26  28
ENDBRANCH  25  26
ENDBRANCH  24  25
ENDBRANCH   1  24
TORSDOF 19
ENDMDL
