MODEL 1
REMARK VINA RESULT:     -11.5      0.000      0.000
REMARK SMILES CCc1ccc(-c2cc(Cl)cc3c2O[C@H](C(F)(F)F)C(C(=O)OCCOC(=O)c2ccc(-c4c5nc(c(-c6c(F)cc(S(=O)(=O)[O-])cc6F)c6ccc([nH]6)c(-c6c(F)cc(S(=O)(=O)[O-])cc6F)c6nc(c(-c7c(F)cc(S(=O)(=O)[O-])cc7F)c7ccc4[nH]7)C=C6)C=C5)cc2)=C3)cc1
REMARK SMILES IDX 25 1 24 2 23 3 21 4 22 5 20 6 7 7 8 8 13 9 9 10 12 11 14 12
REMARK SMILES IDX 10 13 11 14 95 15 15 16 6 17 3 18 4 19 97 20 5 21 96 22 2 23
REMARK SMILES IDX 1 24 16 25 17 26 18 27 19 28 26 29 27 30 28 31 29 32 30 33
REMARK SMILES IDX 94 34 31 35 93 36 32 37 33 38 34 39 87 40 35 41 92 42 86 43
REMARK SMILES IDX 88 44 36 45 91 46 85 47 84 48 37 50 71 51 50 52 70 53 51 54
REMARK SMILES IDX 54 55 69 56 89 57 52 58 53 59 68 61 90 62 55 63 38 64 39 65
REMARK SMILES IDX 48 66 40 67 41 68 47 69 49 70 42 71 43 72 44 73 45 74 46 75
REMARK SMILES IDX 72 76 73 77 82 78 74 79 75 80 81 81 83 82 76 83 77 84 78 85
REMARK SMILES IDX 79 86 80 87 56 88 57 89 66 90 58 91 59 92 65 93 67 94 60 95
REMARK SMILES IDX 61 96 62 97 63 98 64 99
REMARK H PARENT 88 49 54 60
REMARK Flexibility Score: inf
ROOT
ATOM      1  C   UNL A   1      36.479  32.709  33.514  1.00  0.00     0.275 C 
ENDROOT
BRANCH   1   2
ATOM      2  C   UNL A   1      36.987  33.637  32.410  1.00  0.00     0.275 C 
BRANCH   2   3
ATOM      3  O   UNL A   1      36.008  33.854  31.368  1.00  0.00    -0.459 OA
BRANCH   3   4
ATOM      4  C   UNL A   1      36.570  33.874  30.132  1.00  0.00     0.338 C 
ATOM      5  O   UNL A   1      37.776  33.877  29.918  1.00  0.00    -0.246 OA
BRANCH   4   6
ATOM      6  C   UNL A   1      35.581  33.754  29.037  1.00  0.00     0.087 C 
ATOM      7  C   UNL A   1      34.071  30.204  27.637  1.00  0.00     0.026 A 
ATOM      8  C   UNL A   1      35.109  29.260  27.838  1.00  0.00     0.033 A 
ATOM      9  C   UNL A   1      34.428  31.531  27.876  1.00  0.00     0.135 A 
ATOM     10  C   UNL A   1      36.436  29.609  28.102  1.00  0.00     0.042 A 
ATOM     11  C   UNL A   1      35.803  31.872  27.899  1.00  0.00     0.019 A 
ATOM     12  O   UNL A   1      33.540  32.547  28.184  1.00  0.00    -0.475 OA
ATOM     13  Cl  UNL A   1      37.651  28.450  28.449  1.00  0.00    -0.084 Cl
ATOM     14  C   UNL A   1      36.804  30.928  28.044  1.00  0.00     0.032 A 
ATOM     15  C   UNL A   1      36.167  33.301  27.918  1.00  0.00     0.027 C 
ATOM     16  C   UNL A   1      34.102  33.467  29.233  1.00  0.00     0.316 C 
BRANCH   7  17
ATOM     17  C   UNL A   1      32.865  29.644  26.962  1.00  0.00    -0.015 A 
ATOM     18  C   UNL A   1      31.428  27.988  25.104  1.00  0.00    -0.048 A 
ATOM     19  C   UNL A   1      31.490  27.665  26.464  1.00  0.00     0.004 A 
ATOM     20  C   UNL A   1      31.971  29.216  24.710  1.00  0.00     0.004 A 
ATOM     21  C   UNL A   1      32.176  28.498  27.384  1.00  0.00     0.009 A 
ATOM     22  C   UNL A   1      32.669  30.024  25.618  1.00  0.00     0.009 A 
BRANCH  18  23
ATOM     23  C   UNL A   1      30.825  27.105  24.031  1.00  0.00     0.032 C 
ATOM     24  C   UNL A   1      31.376  27.210  22.616  1.00  0.00     0.009 C 
ENDBRANCH  18  23
ENDBRANCH   7  17
BRANCH  16  25
ATOM     25  C   UNL A   1      33.393  34.825  29.195  1.00  0.00     0.430 C 
ATOM     26  F   UNL A   1      32.455  34.879  28.219  1.00  0.00    -0.167 F 
ATOM     27  F   UNL A   1      32.788  35.123  30.364  1.00  0.00    -0.167 F 
ATOM     28  F   UNL A   1      34.277  35.826  28.944  1.00  0.00    -0.167 F 
ENDBRANCH  16  25
ENDBRANCH   4   6
ENDBRANCH   3   4
ENDBRANCH   2   3
ENDBRANCH   1   2
BRANCH   1  29
ATOM     29  O   UNL A   1      37.275  31.511  33.596  1.00  0.00    -0.458 OA
BRANCH  29  30
ATOM     30  C   UNL A   1      37.096  30.665  32.553  1.00  0.00     0.338 C 
ATOM     31  O   UNL A   1      36.015  30.363  32.061  1.00  0.00    -0.246 OA
BRANCH  30  32
ATOM     32  C   UNL A   1      38.386  30.210  31.975  1.00  0.00     0.060 A 
ATOM     33  C   UNL A   1      38.784  30.843  30.800  1.00  0.00     0.016 A 
ATOM     34  C   UNL A   1      39.189  29.191  32.503  1.00  0.00     0.016 A 
ATOM     35  C   UNL A   1      39.973  30.470  30.178  1.00  0.00     0.010 A 
ATOM     36  C   UNL A   1      40.402  28.824  31.866  1.00  0.00     0.010 A 
ATOM     37  C   UNL A   1      40.818  29.473  30.698  1.00  0.00    -0.014 A 
BRANCH  37  38
ATOM     38  C   UNL A   1      42.028  29.122  29.877  1.00  0.00     0.031 A 
ATOM     39  C   UNL A   1      43.269  29.944  30.089  1.00  0.00     0.074 A 
ATOM     40  C   UNL A   1      42.127  28.005  29.121  1.00  0.00     0.049 A 
ATOM     41  N   UNL A   1      44.507  29.678  29.768  1.00  0.00    -0.248 NA
ATOM     42  C   UNL A   1      43.082  31.232  30.778  1.00  0.00     0.031 C 
ATOM     43  C   UNL A   1      41.033  27.103  28.820  1.00  0.00     0.029 A 
ATOM     44  N   UNL A   1      43.214  27.381  28.542  1.00  0.00    -0.354 N 
ATOM     45  C   UNL A   1      45.248  30.757  30.223  1.00  0.00     0.074 A 
ATOM     46  C   UNL A   1      44.327  31.667  30.870  1.00  0.00     0.031 C 
ATOM     47  C   UNL A   1      41.510  25.958  28.305  1.00  0.00     0.029 A 
ATOM     48  C   UNL A   1      42.946  26.098  28.091  1.00  0.00     0.049 A 
ATOM     49  H   UNL A   1      44.098  27.806  28.458  1.00  0.00     0.167 HD
ATOM     50  C   UNL A   1      46.571  30.997  30.076  1.00  0.00     0.037 A 
ATOM     51  C   UNL A   1      43.752  25.149  27.561  1.00  0.00     0.037 A 
ATOM     52  C   UNL A   1      47.474  30.161  29.336  1.00  0.00     0.049 A 
ATOM     53  C   UNL A   1      45.196  25.501  27.293  1.00  0.00     0.074 A 
ATOM     54  C   UNL A   1      48.819  30.366  29.086  1.00  0.00     0.029 A 
ATOM     55  N   UNL A   1      47.120  28.989  28.685  1.00  0.00    -0.354 N 
ATOM     56  N   UNL A   1      45.858  26.581  27.633  1.00  0.00    -0.248 NA
ATOM     57  C   UNL A   1      45.994  24.526  26.535  1.00  0.00     0.031 C 
ATOM     58  C   UNL A   1      49.266  29.347  28.237  1.00  0.00     0.029 A 
ATOM     59  C   UNL A   1      48.223  28.459  28.032  1.00  0.00     0.049 A 
ATOM     60  H   UNL A   1      46.220  28.591  28.688  1.00  0.00     0.167 HD
ATOM     61  C   UNL A   1      47.158  26.394  27.173  1.00  0.00     0.074 A 
ATOM     62  C   UNL A   1      47.186  25.106  26.514  1.00  0.00     0.031 C 
ATOM     63  C   UNL A   1      48.236  27.205  27.319  1.00  0.00     0.037 A 
BRANCH  50  64
ATOM     64  C   UNL A   1      47.075  32.292  30.638  1.00  0.00     0.058 A 
ATOM     65  C   UNL A   1      47.082  33.477  29.885  1.00  0.00     0.135 A 
ATOM     66  C   UNL A   1      47.610  32.327  31.934  1.00  0.00     0.135 A 
ATOM     67  F   UNL A   1      46.616  33.483  28.626  1.00  0.00    -0.206 F 
ATOM     68  C   UNL A   1      47.634  34.649  30.391  1.00  0.00     0.059 A 
ATOM     69  C   UNL A   1      48.145  33.492  32.468  1.00  0.00     0.059 A 
ATOM     70  F   UNL A   1      47.642  31.213  32.682  1.00  0.00    -0.206 F 
ATOM     71  C   UNL A   1      48.170  34.642  31.681  1.00  0.00     0.060 A 
BRANCH  71  72
ATOM     72  S   UNL A   1      48.923  36.155  32.313  1.00  0.00     0.124 S 
ATOM     73  O   UNL A   1      49.259  36.850  31.073  1.00  0.00    -0.237 OA
ATOM     74  O   UNL A   1      47.836  36.740  33.093  1.00  0.00    -0.237 OA
ATOM     75  O   UNL A   1      50.060  35.671  33.089  1.00  0.00    -0.744 OA
ENDBRANCH  71  72
ENDBRANCH  50  64
BRANCH  51  76
ATOM     76  C   UNL A   1      43.249  23.775  27.227  1.00  0.00     0.058 A 
ATOM     77  C   UNL A   1      43.120  22.787  28.222  1.00  0.00     0.135 A 
ATOM     78  C   UNL A   1      42.936  23.392  25.913  1.00  0.00     0.135 A 
ATOM     79  F   UNL A   1      43.446  23.063  29.493  1.00  0.00    -0.206 F 
ATOM     80  C   UNL A   1      42.711  21.487  27.932  1.00  0.00     0.059 A 
ATOM     81  C   UNL A   1      42.491  22.107  25.601  1.00  0.00     0.059 A 
ATOM     82  F   UNL A   1      43.054  24.273  24.908  1.00  0.00    -0.206 F 
ATOM     83  C   UNL A   1      42.394  21.157  26.617  1.00  0.00     0.060 A 
BRANCH  83  84
ATOM     84  S   UNL A   1      41.837  19.477  26.253  1.00  0.00     0.124 S 
ATOM     85  O   UNL A   1      42.557  19.188  25.019  1.00  0.00    -0.237 OA
ATOM     86  O   UNL A   1      42.278  18.744  27.436  1.00  0.00    -0.237 OA
ATOM     87  O   UNL A   1      40.391  19.626  26.120  1.00  0.00    -0.744 OA
ENDBRANCH  83  84
ENDBRANCH  51  76
BRANCH  63  88
ATOM     88  C   UNL A   1      49.551  26.718  26.772  1.00  0.00     0.058 A 
ATOM     89  C   UNL A   1      50.416  25.897  27.513  1.00  0.00     0.135 A 
ATOM     90  C   UNL A   1      49.935  27.056  25.463  1.00  0.00     0.135 A 
ATOM     91  F   UNL A   1      50.105  25.548  28.771  1.00  0.00    -0.206 F 
ATOM     92  C   UNL A   1      51.626  25.452  26.987  1.00  0.00     0.059 A 
ATOM     93  C   UNL A   1      51.122  26.596  24.905  1.00  0.00     0.059 A 
ATOM     94  F   UNL A   1      49.144  27.835  24.706  1.00  0.00    -0.206 F 
ATOM     95  C   UNL A   1      51.970  25.807  25.681  1.00  0.00     0.060 A 
BRANCH  95  96
ATOM     96  S   UNL A   1      53.528  25.207  24.994  1.00  0.00     0.124 S 
ATOM     97  O   UNL A   1      53.386  25.563  23.587  1.00  0.00    -0.237 OA
ATOM     98  O   UNL A   1      54.519  25.971  25.746  1.00  0.00    -0.237 OA
ATOM     99  O   UNL A   1      53.498  23.777  25.288  1.00  0.00    -0.744 OA
ENDBRANCH  95  96
ENDBRANCH  63  88
ENDBRANCH  37  38
ENDBRANCH  30  32
ENDBRANCH  29  30
ENDBRANCH   1  29
TORSDOF 17
ENDMDL
MODEL 2
REMARK VINA RESULT:     -11.4      5.268     12.356
REMARK SMILES CCc1ccc(-c2cc(Cl)cc3c2O[C@H](C(F)(F)F)C(C(=O)OCCOC(=O)c2ccc(-c4c5nc(c(-c6c(F)cc(S(=O)(=O)[O-])cc6F)c6ccc([nH]6)c(-c6c(F)cc(S(=O)(=O)[O-])cc6F)c6nc(c(-c7c(F)cc(S(=O)(=O)[O-])cc7F)c7ccc4[nH]7)C=C6)C=C5)cc2)=C3)cc1
REMARK SMILES IDX 25 1 24 2 23 3 21 4 22 5 20 6 7 7 8 8 13 9 9 10 12 11 14 12
REMARK SMILES IDX 10 13 11 14 95 15 15 16 6 17 3 18 4 19 97 20 5 21 96 22 2 23
REMARK SMILES IDX 1 24 16 25 17 26 18 27 19 28 26 29 27 30 28 31 29 32 30 33
REMARK SMILES IDX 94 34 31 35 93 36 32 37 33 38 34 39 87 40 35 41 92 42 86 43
REMARK SMILES IDX 88 44 36 45 91 46 85 47 84 48 37 50 71 51 50 52 70 53 51 54
REMARK SMILES IDX 54 55 69 56 89 57 52 58 53 59 68 61 90 62 55 63 38 64 39 65
REMARK SMILES IDX 48 66 40 67 41 68 47 69 49 70 42 71 43 72 44 73 45 74 46 75
REMARK SMILES IDX 72 76 73 77 82 78 74 79 75 80 81 81 83 82 76 83 77 84 78 85
REMARK SMILES IDX 79 86 80 87 56 88 57 89 66 90 58 91 59 92 65 93 67 94 60 95
REMARK SMILES IDX 61 96 62 97 63 98 64 99
REMARK H PARENT 88 49 54 60
REMARK Flexibility Score: inf
ROOT
ATOM      1  C   UNL A   1      44.733  24.620  25.001  1.00  0.00     0.275 C 
ENDROOT
BRANCH   1   2
ATOM      2  C   UNL A   1      43.547  23.703  25.306  1.00  0.00     0.275 C 
BRANCH   2   3
ATOM      3  O   UNL A   1      43.943  22.477  25.963  1.00  0.00    -0.459 OA
BRANCH   3   4
ATOM      4  C   UNL A   1      43.448  22.387  27.224  1.00  0.00     0.338 C 
ATOM      5  O   UNL A   1      43.930  22.950  28.200  1.00  0.00    -0.246 OA
BRANCH   4   6
ATOM      6  C   UNL A   1      42.171  21.645  27.300  1.00  0.00     0.087 C 
ATOM      7  C   UNL A   1      38.535  23.131  26.108  1.00  0.00     0.026 A 
ATOM      8  C   UNL A   1      38.622  24.529  26.325  1.00  0.00     0.033 A 
ATOM      9  C   UNL A   1      39.602  22.389  26.616  1.00  0.00     0.135 A 
ATOM     10  C   UNL A   1      39.603  25.133  27.114  1.00  0.00     0.042 A 
ATOM     11  C   UNL A   1      40.433  22.979  27.599  1.00  0.00     0.019 A 
ATOM     12  O   UNL A   1      39.977  21.134  26.169  1.00  0.00    -0.475 OA
ATOM     13  Cl  UNL A   1      39.753  26.834  27.273  1.00  0.00    -0.084 Cl
ATOM     14  C   UNL A   1      40.465  24.343  27.831  1.00  0.00     0.032 A 
ATOM     15  C   UNL A   1      41.406  22.119  28.297  1.00  0.00     0.027 C 
ATOM     16  C   UNL A   1      41.474  20.996  26.116  1.00  0.00     0.316 C 
BRANCH   7  17
ATOM     17  C   UNL A   1      37.205  22.677  25.608  1.00  0.00    -0.015 A 
ATOM     18  C   UNL A   1      34.817  21.080  25.582  1.00  0.00    -0.048 A 
ATOM     19  C   UNL A   1      34.801  22.398  26.050  1.00  0.00     0.004 A 
ATOM     20  C   UNL A   1      36.002  20.618  25.000  1.00  0.00     0.004 A 
ATOM     21  C   UNL A   1      35.974  23.194  26.036  1.00  0.00     0.009 A 
ATOM     22  C   UNL A   1      37.166  21.399  25.011  1.00  0.00     0.009 A 
BRANCH  18  23
ATOM     23  C   UNL A   1      33.649  20.117  25.667  1.00  0.00     0.032 C 
ATOM     24  C   UNL A   1      32.615  20.137  24.551  1.00  0.00     0.009 C 
ENDBRANCH  18  23
ENDBRANCH   7  17
BRANCH  16  25
ATOM     25  C   UNL A   1      41.880  19.518  26.137  1.00  0.00     0.430 C 
ATOM     26  F   UNL A   1      42.263  19.116  27.372  1.00  0.00    -0.167 F 
ATOM     27  F   UNL A   1      40.884  18.705  25.729  1.00  0.00    -0.167 F 
ATOM     28  F   UNL A   1      42.933  19.294  25.308  1.00  0.00    -0.167 F 
ENDBRANCH  16  25
ENDBRANCH   4   6
ENDBRANCH   3   4
ENDBRANCH   2   3
ENDBRANCH   1   2
BRANCH   1  29
ATOM     29  O   UNL A   1      44.992  25.519  26.096  1.00  0.00    -0.458 OA
BRANCH  29  30
ATOM     30  C   UNL A   1      44.428  26.742  25.941  1.00  0.00     0.338 C 
ATOM     31  O   UNL A   1      44.380  27.374  24.893  1.00  0.00    -0.246 OA
BRANCH  30  32
ATOM     32  C   UNL A   1      43.756  27.208  27.180  1.00  0.00     0.060 A 
ATOM     33  C   UNL A   1      43.666  28.587  27.345  1.00  0.00     0.016 A 
ATOM     34  C   UNL A   1      43.248  26.370  28.183  1.00  0.00     0.016 A 
ATOM     35  C   UNL A   1      43.065  29.114  28.485  1.00  0.00     0.010 A 
ATOM     36  C   UNL A   1      42.631  26.917  29.337  1.00  0.00     0.010 A 
ATOM     37  C   UNL A   1      42.518  28.303  29.495  1.00  0.00    -0.014 A 
BRANCH  37  38
ATOM     38  C   UNL A   1      41.972  29.011  30.704  1.00  0.00     0.031 A 
ATOM     39  C   UNL A   1      42.914  29.244  31.852  1.00  0.00     0.074 A 
ATOM     40  C   UNL A   1      40.764  29.619  30.739  1.00  0.00     0.049 A 
ATOM     41  N   UNL A   1      42.814  30.077  32.853  1.00  0.00    -0.248 NA
ATOM     42  C   UNL A   1      44.145  28.437  31.852  1.00  0.00     0.031 C 
ATOM     43  C   UNL A   1      39.742  29.503  29.717  1.00  0.00     0.029 A 
ATOM     44  N   UNL A   1      40.220  30.531  31.622  1.00  0.00    -0.354 N 
ATOM     45  C   UNL A   1      43.971  29.904  33.596  1.00  0.00     0.074 A 
ATOM     46  C   UNL A   1      44.773  28.910  32.915  1.00  0.00     0.031 C 
ATOM     47  C   UNL A   1      38.800  30.442  29.902  1.00  0.00     0.029 A 
ATOM     48  C   UNL A   1      39.066  31.139  31.155  1.00  0.00     0.049 A 
ATOM     49  H   UNL A   1      40.616  30.732  32.501  1.00  0.00     0.167 HD
ATOM     50  C   UNL A   1      44.319  30.483  34.768  1.00  0.00     0.037 A 
ATOM     51  C   UNL A   1      38.304  32.131  31.673  1.00  0.00     0.037 A 
ATOM     52  C   UNL A   1      43.482  31.381  35.514  1.00  0.00     0.049 A 
ATOM     53  C   UNL A   1      38.651  32.663  33.043  1.00  0.00     0.074 A 
ATOM     54  C   UNL A   1      43.735  31.964  36.742  1.00  0.00     0.029 A 
ATOM     55  N   UNL A   1      42.214  31.790  35.130  1.00  0.00    -0.354 N 
ATOM     56  N   UNL A   1      39.700  32.402  33.787  1.00  0.00    -0.248 NA
ATOM     57  C   UNL A   1      37.695  33.591  33.664  1.00  0.00     0.031 C 
ATOM     58  C   UNL A   1      42.596  32.681  37.128  1.00  0.00     0.029 A 
ATOM     59  C   UNL A   1      41.670  32.619  36.099  1.00  0.00     0.049 A 
ATOM     60  H   UNL A   1      41.766  31.532  34.292  1.00  0.00     0.167 HD
ATOM     61  C   UNL A   1      39.552  33.168  34.939  1.00  0.00     0.074 A 
ATOM     62  C   UNL A   1      38.304  33.889  34.803  1.00  0.00     0.031 C 
ATOM     63  C   UNL A   1      40.396  33.287  35.994  1.00  0.00     0.037 A 
BRANCH  50  64
ATOM     64  C   UNL A   1      45.625  30.046  35.360  1.00  0.00     0.058 A 
ATOM     65  C   UNL A   1      45.720  28.941  36.220  1.00  0.00     0.135 A 
ATOM     66  C   UNL A   1      46.787  30.787  35.101  1.00  0.00     0.135 A 
ATOM     67  F   UNL A   1      44.626  28.226  36.527  1.00  0.00    -0.206 F 
ATOM     68  C   UNL A   1      46.923  28.604  36.830  1.00  0.00     0.059 A 
ATOM     69  C   UNL A   1      48.005  30.454  35.681  1.00  0.00     0.059 A 
ATOM     70  F   UNL A   1      46.739  31.864  34.302  1.00  0.00    -0.206 F 
ATOM     71  C   UNL A   1      48.058  29.373  36.559  1.00  0.00     0.060 A 
BRANCH  71  72
ATOM     72  S   UNL A   1      49.604  28.953  37.388  1.00  0.00     0.124 S 
ATOM     73  O   UNL A   1      49.578  27.495  37.327  1.00  0.00    -0.237 OA
ATOM     74  O   UNL A   1      50.598  29.606  36.540  1.00  0.00    -0.237 OA
ATOM     75  O   UNL A   1      49.444  29.529  38.719  1.00  0.00    -0.744 OA
ENDBRANCH  71  72
ENDBRANCH  50  64
BRANCH  51  76
ATOM     76  C   UNL A   1      37.130  32.702  30.931  1.00  0.00     0.058 A 
ATOM     77  C   UNL A   1      37.304  33.712  29.965  1.00  0.00     0.135 A 
ATOM     78  C   UNL A   1      35.812  32.303  31.197  1.00  0.00     0.135 A 
ATOM     79  F   UNL A   1      38.529  34.180  29.690  1.00  0.00    -0.206 F 
ATOM     80  C   UNL A   1      36.228  34.301  29.303  1.00  0.00     0.059 A 
ATOM     81  C   UNL A   1      34.720  32.852  30.523  1.00  0.00     0.059 A 
ATOM     82  F   UNL A   1      35.566  31.360  32.120  1.00  0.00    -0.206 F 
ATOM     83  C   UNL A   1      34.938  33.860  29.586  1.00  0.00     0.060 A 
BRANCH  83  84
ATOM     84  S   UNL A   1      33.551  34.609  28.702  1.00  0.00     0.124 S 
ATOM     85  O   UNL A   1      34.192  35.752  28.063  1.00  0.00    -0.237 OA
ATOM     86  O   UNL A   1      33.136  33.530  27.811  1.00  0.00    -0.237 OA
ATOM     87  O   UNL A   1      32.608  34.928  29.770  1.00  0.00    -0.744 OA
ENDBRANCH  83  84
ENDBRANCH  51  76
BRANCH  63  88
ATOM     88  C   UNL A   1      40.013  34.250  37.087  1.00  0.00     0.058 A 
ATOM     89  C   UNL A   1      39.325  33.842  38.241  1.00  0.00     0.135 A 
ATOM     90  C   UNL A   1      40.377  35.604  36.988  1.00  0.00     0.135 A 
ATOM     91  F   UNL A   1      38.946  32.563  38.386  1.00  0.00    -0.206 F 
ATOM     92  C   UNL A   1      38.986  34.748  39.243  1.00  0.00     0.059 A 
ATOM     93  C   UNL A   1      40.078  36.518  37.992  1.00  0.00     0.059 A 
ATOM     94  F   UNL A   1      41.041  36.048  35.908  1.00  0.00    -0.206 F 
ATOM     95  C   UNL A   1      39.368  36.084  39.109  1.00  0.00     0.060 A 
BRANCH  95  96
ATOM     96  S   UNL A   1      38.948  37.248  40.424  1.00  0.00     0.124 S 
ATOM     97  O   UNL A   1      38.198  38.262  39.691  1.00  0.00    -0.237 OA
ATOM     98  O   UNL A   1      38.169  36.421  41.340  1.00  0.00    -0.237 OA
ATOM     99  O   UNL A   1      40.251  37.672  40.929  1.00  0.00    -0.744 OA
ENDBRANCH  95  96
ENDBRANCH  63  88
ENDBRANCH  37  38
ENDBRANCH  30  32
ENDBRANCH  29  30
ENDBRANCH   1  29
TORSDOF 17
ENDMDL
MODEL 3
REMARK VINA RESULT:     -11.4      4.750     12.797
REMARK SMILES CCc1ccc(-c2cc(Cl)cc3c2O[C@H](C(F)(F)F)C(C(=O)OCCOC(=O)c2ccc(-c4c5nc(c(-c6c(F)cc(S(=O)(=O)[O-])cc6F)c6ccc([nH]6)c(-c6c(F)cc(S(=O)(=O)[O-])cc6F)c6nc(c(-c7c(F)cc(S(=O)(=O)[O-])cc7F)c7ccc4[nH]7)C=C6)C=C5)cc2)=C3)cc1
REMARK SMILES IDX 25 1 24 2 23 3 21 4 22 5 20 6 7 7 8 8 13 9 9 10 12 11 14 12
REMARK SMILES IDX 10 13 11 14 95 15 15 16 6 17 3 18 4 19 97 20 5 21 96 22 2 23
REMARK SMILES IDX 1 24 16 25 17 26 18 27 19 28 26 29 27 30 28 31 29 32 30 33
REMARK SMILES IDX 94 34 31 35 93 36 32 37 33 38 34 39 87 40 35 41 92 42 86 43
REMARK SMILES IDX 88 44 36 45 91 46 85 47 84 48 37 50 71 51 50 52 70 53 51 54
REMARK SMILES IDX 54 55 69 56 89 57 52 58 53 59 68 61 90 62 55 63 38 64 39 65
REMARK SMILES IDX 48 66 40 67 41 68 47 69 49 70 42 71 43 72 44 73 45 74 46 75
REMARK SMILES IDX 72 76 73 77 82 78 74 79 75 80 81 81 83 82 76 83 77 84 78 85
REMARK SMILES IDX 79 86 80 87 56 88 57 89 66 90 58 91 59 92 65 93 67 94 60 95
REMARK SMILES IDX 61 96 62 97 63 98 64 99
REMARK H PARENT 88 49 54 60
REMARK Flexibility Score: inf
ROOT
ATOM      1  C   UNL A   1      39.205  21.368  25.780  1.00  0.00     0.275 C 
ENDROOT
BRANCH   1   2
ATOM      2  C   UNL A   1      40.322  20.387  26.141  1.00  0.00     0.275 C 
BRANCH   2   3
ATOM      3  O   UNL A   1      41.364  20.995  26.938  1.00  0.00    -0.459 OA
BRANCH   3   4
ATOM      4  C   UNL A   1      42.596  20.814  26.398  1.00  0.00     0.338 C 
ATOM      5  O   UNL A   1      43.078  19.722  26.121  1.00  0.00    -0.246 OA
BRANCH   4   6
ATOM      6  C   UNL A   1      43.270  22.080  26.039  1.00  0.00     0.087 C 
ATOM      7  C   UNL A   1      45.736  24.200  28.543  1.00  0.00     0.026 A 
ATOM      8  C   UNL A   1      45.249  23.936  29.847  1.00  0.00     0.033 A 
ATOM      9  C   UNL A   1      44.934  23.724  27.507  1.00  0.00     0.135 A 
ATOM     10  C   UNL A   1      43.994  23.383  30.110  1.00  0.00     0.042 A 
ATOM     11  C   UNL A   1      43.584  23.398  27.787  1.00  0.00     0.019 A 
ATOM     12  O   UNL A   1      45.374  23.455  26.222  1.00  0.00    -0.475 OA
ATOM     13  Cl  UNL A   1      43.470  22.972  31.690  1.00  0.00    -0.084 Cl
ATOM     14  C   UNL A   1      43.116  23.194  29.073  1.00  0.00     0.032 A 
ATOM     15  C   UNL A   1      42.684  23.120  26.653  1.00  0.00     0.027 C 
ATOM     16  C   UNL A   1      44.740  22.206  25.675  1.00  0.00     0.316 C 
BRANCH   7  17
ATOM     17  C   UNL A   1      46.879  25.158  28.506  1.00  0.00    -0.015 A 
ATOM     18  C   UNL A   1      49.363  26.315  29.370  1.00  0.00    -0.048 A 
ATOM     19  C   UNL A   1      49.301  25.500  28.235  1.00  0.00     0.004 A 
ATOM     20  C   UNL A   1      48.154  26.658  29.983  1.00  0.00     0.004 A 
ATOM     21  C   UNL A   1      48.069  24.953  27.794  1.00  0.00     0.009 A 
ATOM     22  C   UNL A   1      46.942  26.095  29.559  1.00  0.00     0.009 A 
BRANCH  18  23
ATOM     23  C   UNL A   1      50.643  26.845  29.985  1.00  0.00     0.032 C 
ATOM     24  C   UNL A   1      51.390  25.959  30.971  1.00  0.00     0.009 C 
ENDBRANCH  18  23
ENDBRANCH   7  17
BRANCH  16  25
ATOM     25  C   UNL A   1      44.805  22.195  24.144  1.00  0.00     0.430 C 
ATOM     26  F   UNL A   1      45.879  22.878  23.678  1.00  0.00    -0.167 F 
ATOM     27  F   UNL A   1      44.862  20.945  23.639  1.00  0.00    -0.167 F 
ATOM     28  F   UNL A   1      43.704  22.785  23.608  1.00  0.00    -0.167 F 
ENDBRANCH  16  25
ENDBRANCH   4   6
ENDBRANCH   3   4
ENDBRANCH   2   3
ENDBRANCH   1   2
BRANCH   1  29
ATOM     29  O   UNL A   1      39.109  22.429  26.750  1.00  0.00    -0.458 OA
BRANCH  29  30
ATOM     30  C   UNL A   1      38.710  23.613  26.225  1.00  0.00     0.338 C 
ATOM     31  O   UNL A   1      37.860  23.753  25.354  1.00  0.00    -0.246 OA
BRANCH  30  32
ATOM     32  C   UNL A   1      39.344  24.769  26.909  1.00  0.00     0.060 A 
ATOM     33  C   UNL A   1      39.079  24.893  28.270  1.00  0.00     0.016 A 
ATOM     34  C   UNL A   1      40.143  25.735  26.281  1.00  0.00     0.016 A 
ATOM     35  C   UNL A   1      39.620  25.956  28.989  1.00  0.00     0.010 A 
ATOM     36  C   UNL A   1      40.694  26.809  27.024  1.00  0.00     0.010 A 
ATOM     37  C   UNL A   1      40.450  26.924  28.398  1.00  0.00    -0.014 A 
BRANCH  37  38
ATOM     38  C   UNL A   1      40.896  28.057  29.281  1.00  0.00     0.031 A 
ATOM     39  C   UNL A   1      39.925  29.184  29.500  1.00  0.00     0.074 A 
ATOM     40  C   UNL A   1      42.016  28.027  30.037  1.00  0.00     0.049 A 
ATOM     41  N   UNL A   1      39.913  30.101  30.430  1.00  0.00    -0.248 NA
ATOM     42  C   UNL A   1      38.806  29.268  28.548  1.00  0.00     0.031 C 
ATOM     43  C   UNL A   1      43.051  27.014  29.955  1.00  0.00     0.029 A 
ATOM     44  N   UNL A   1      42.436  28.816  31.090  1.00  0.00    -0.354 N 
ATOM     45  C   UNL A   1      38.783  30.865  30.183  1.00  0.00     0.074 A 
ATOM     46  C   UNL A   1      38.117  30.286  29.036  1.00  0.00     0.031 C 
ATOM     47  C   UNL A   1      43.865  27.103  31.019  1.00  0.00     0.029 A 
ATOM     48  C   UNL A   1      43.506  28.286  31.792  1.00  0.00     0.049 A 
ATOM     49  H   UNL A   1      42.013  29.674  31.322  1.00  0.00     0.167 HD
ATOM     50  C   UNL A   1      38.358  31.979  30.822  1.00  0.00     0.037 A 
ATOM     51  C   UNL A   1      44.133  28.703  32.917  1.00  0.00     0.037 A 
ATOM     52  C   UNL A   1      39.071  32.631  31.886  1.00  0.00     0.049 A 
ATOM     53  C   UNL A   1      43.714  30.019  33.528  1.00  0.00     0.074 A 
ATOM     54  C   UNL A   1      38.739  33.800  32.546  1.00  0.00     0.029 A 
ATOM     55  N   UNL A   1      40.279  32.202  32.414  1.00  0.00    -0.354 N 
ATOM     56  N   UNL A   1      42.703  30.791  33.208  1.00  0.00    -0.248 NA
ATOM     57  C   UNL A   1      44.542  30.543  34.624  1.00  0.00     0.031 C 
ATOM     58  C   UNL A   1      39.776  34.109  33.434  1.00  0.00     0.029 A 
ATOM     59  C   UNL A   1      40.708  33.085  33.392  1.00  0.00     0.049 A 
ATOM     60  H   UNL A   1      40.760  31.389  32.136  1.00  0.00     0.167 HD
ATOM     61  C   UNL A   1      42.746  31.864  34.093  1.00  0.00     0.074 A 
ATOM     62  C   UNL A   1      43.893  31.653  34.949  1.00  0.00     0.031 C 
ATOM     63  C   UNL A   1      41.888  32.909  34.204  1.00  0.00     0.037 A 
BRANCH  50  64
ATOM     64  C   UNL A   1      37.115  32.618  30.282  1.00  0.00     0.058 A 
ATOM     65  C   UNL A   1      37.153  33.555  29.237  1.00  0.00     0.135 A 
ATOM     66  C   UNL A   1      35.873  32.324  30.864  1.00  0.00     0.135 A 
ATOM     67  F   UNL A   1      38.324  33.896  28.676  1.00  0.00    -0.206 F 
ATOM     68  C   UNL A   1      36.000  34.203  28.809  1.00  0.00     0.059 A 
ATOM     69  C   UNL A   1      34.705  32.942  30.436  1.00  0.00     0.059 A 
ATOM     70  F   UNL A   1      35.792  31.450  31.880  1.00  0.00    -0.206 F 
ATOM     71  C   UNL A   1      34.783  33.895  29.421  1.00  0.00     0.060 A 
BRANCH  71  72
ATOM     72  S   UNL A   1      33.299  34.772  28.887  1.00  0.00     0.124 S 
ATOM     73  O   UNL A   1      32.735  33.827  27.927  1.00  0.00    -0.237 OA
ATOM     74  O   UNL A   1      32.561  34.923  30.137  1.00  0.00    -0.237 OA
ATOM     75  O   UNL A   1      33.823  36.009  28.316  1.00  0.00    -0.744 OA
ENDBRANCH  71  72
ENDBRANCH  50  64
BRANCH  51  76
ATOM     76  C   UNL A   1      45.230  27.903  33.559  1.00  0.00     0.058 A 
ATOM     77  C   UNL A   1      46.561  28.005  33.110  1.00  0.00     0.135 A 
ATOM     78  C   UNL A   1      44.980  26.982  34.588  1.00  0.00     0.135 A 
ATOM     79  F   UNL A   1      46.871  28.828  32.099  1.00  0.00    -0.206 F 
ATOM     80  C   UNL A   1      47.589  27.233  33.647  1.00  0.00     0.059 A 
ATOM     81  C   UNL A   1      45.997  26.221  35.165  1.00  0.00     0.059 A 
ATOM     82  F   UNL A   1      43.732  26.813  35.053  1.00  0.00    -0.206 F 
ATOM     83  C   UNL A   1      47.297  26.345  34.679  1.00  0.00     0.060 A 
BRANCH  83  84
ATOM     84  S   UNL A   1      48.640  25.367  35.389  1.00  0.00     0.124 S 
ATOM     85  O   UNL A   1      49.506  26.407  35.932  1.00  0.00    -0.237 OA
ATOM     86  O   UNL A   1      47.938  24.545  36.370  1.00  0.00    -0.237 OA
ATOM     87  O   UNL A   1      49.170  24.641  34.238  1.00  0.00    -0.744 OA
ENDBRANCH  83  84
ENDBRANCH  51  76
BRANCH  63  88
ATOM     88  C   UNL A   1      42.140  33.903  35.306  1.00  0.00     0.058 A 
ATOM     89  C   UNL A   1      41.673  33.708  36.616  1.00  0.00     0.135 A 
ATOM     90  C   UNL A   1      42.899  35.058  35.048  1.00  0.00     0.135 A 
ATOM     91  F   UNL A   1      40.938  32.627  36.917  1.00  0.00    -0.206 F 
ATOM     92  C   UNL A   1      41.923  34.637  37.622  1.00  0.00     0.059 A 
ATOM     93  C   UNL A   1      43.189  35.981  36.046  1.00  0.00     0.059 A 
ATOM     94  F   UNL A   1      43.376  35.293  33.815  1.00  0.00    -0.206 F 
ATOM     95  C   UNL A   1      42.683  35.771  37.327  1.00  0.00     0.060 A 
BRANCH  95  96
ATOM     96  S   UNL A   1      43.026  36.959  38.643  1.00  0.00     0.124 S 
ATOM     97  O   UNL A   1      44.004  37.832  38.003  1.00  0.00    -0.237 OA
ATOM     98  O   UNL A   1      41.712  37.548  38.886  1.00  0.00    -0.237 OA
ATOM     99  O   UNL A   1      43.539  36.125  39.726  1.00  0.00    -0.744 OA
ENDBRANCH  95  96
ENDBRANCH  63  88
ENDBRANCH  37  38
ENDBRANCH  30  32
ENDBRANCH  29  30
ENDBRANCH   1  29
TORSDOF 17
ENDMDL
