MODEL 1
REMARK VINA RESULT:     -11.4      0.000      0.000
REMARK SMILES NS(=O)(=O)CCNC(=O)N1[C@@H]2CC[C@H]1C[C@H](CC(=O)OCCOC(=O)c1ccc(-c3c4nc(c(-c5c(F)cc(S(=O)(=O)[O-])cc5F)c5ccc([nH]5)c(-c5c(F)cc(S(=O)(=O)[O-])cc5F)c5nc(c(-c6c(F)cc(S(=O)(=O)[O-])cc6F)c6ccc3[nH]6)C=C5)C=C4)cc1)C2
REMARK SMILES IDX 20 1 18 2 19 3 17 4 16 5 10 6 11 7 14 8 12 9 92 10 13 11
REMARK SMILES IDX 15 12 8 13 7 14 9 16 6 17 5 18 2 19 3 20 4 21 1 22 21 25
REMARK SMILES IDX 22 26 23 27 24 28 25 29 26 30 27 31 91 32 28 33 90 34 29 35
REMARK SMILES IDX 30 36 31 37 84 38 32 39 89 40 83 41 85 42 33 43 88 44 82 45
REMARK SMILES IDX 81 46 34 48 68 49 47 50 67 51 48 52 51 53 66 54 86 55 49 56
REMARK SMILES IDX 50 57 65 59 87 60 52 61 35 62 36 63 45 64 37 65 38 66 44 67
REMARK SMILES IDX 46 68 39 69 40 70 41 71 42 72 43 73 69 74 70 75 79 76 71 77
REMARK SMILES IDX 72 78 78 79 80 80 73 81 74 82 75 83 76 84 77 85 53 86 54 87
REMARK SMILES IDX 63 88 55 89 56 90 62 91 64 92 57 93 58 94 59 95 60 96 61 97
REMARK H PARENT 7 15 1 23 1 24 85 47 51 58
REMARK Flexibility Score: inf
ROOT
ATOM      1  O   UNL A   1      37.530  21.974  24.555  1.00  0.00    -0.462 OA
ENDROOT
BRANCH   1   2
ATOM      2  C   UNL A   1      36.745  22.825  23.850  1.00  0.00     0.306 C 
ATOM      3  O   UNL A   1      36.749  22.926  22.630  1.00  0.00    -0.252 OA
BRANCH   2   4
ATOM      4  C   UNL A   1      35.894  23.708  24.745  1.00  0.00     0.126 C 
BRANCH   4   5
ATOM      5  C   UNL A   1      34.362  23.622  24.563  1.00  0.00     0.004 C 
ATOM      6  N   UNL A   1      32.510  25.777  24.342  1.00  0.00    -0.319 N 
ATOM      7  C   UNL A   1      32.558  24.887  23.196  1.00  0.00     0.087 C 
ATOM      8  C   UNL A   1      32.310  24.926  25.495  1.00  0.00     0.087 C 
ATOM      9  C   UNL A   1      31.472  23.847  23.489  1.00  0.00     0.027 C 
ATOM     10  C   UNL A   1      33.968  24.278  23.206  1.00  0.00     0.029 C 
ATOM     11  C   UNL A   1      31.262  23.919  25.004  1.00  0.00     0.027 C 
ATOM     12  C   UNL A   1      33.630  24.215  25.797  1.00  0.00     0.029 C 
BRANCH   6  13
ATOM     13  C   UNL A   1      32.573  27.121  24.209  1.00  0.00     0.317 C 
ATOM     14  N   UNL A   1      31.980  27.757  23.174  1.00  0.00    -0.337 N 
ATOM     15  H   UNL A   1      32.442  28.576  22.883  1.00  0.00     0.165 HD
ATOM     16  O   UNL A   1      33.138  27.838  25.038  1.00  0.00    -0.249 OA
BRANCH  14  17
ATOM     17  C   UNL A   1      30.779  27.441  22.416  1.00  0.00     0.135 C 
BRANCH  17  18
ATOM     18  C   UNL A   1      29.536  28.102  22.992  1.00  0.00     0.175 C 
BRANCH  18  19
ATOM     19  S   UNL A   1      29.280  29.748  22.340  1.00  0.00     0.210 S 
ATOM     20  O   UNL A   1      29.332  30.705  23.420  1.00  0.00    -0.213 OA
ATOM     21  O   UNL A   1      28.188  29.733  21.395  1.00  0.00    -0.213 OA
BRANCH  19  22
ATOM     22  N   UNL A   1      30.662  30.023  21.437  1.00  0.00    -0.229 NA
ATOM     23  H   UNL A   1      31.474  29.670  21.942  1.00  0.00     0.137 HD
ATOM     24  H   UNL A   1      30.769  31.024  21.277  1.00  0.00     0.137 HD
ENDBRANCH  19  22
ENDBRANCH  18  19
ENDBRANCH  17  18
ENDBRANCH  14  17
ENDBRANCH   6  13
ENDBRANCH   4   5
ENDBRANCH   2   4
ENDBRANCH   1   2
BRANCH   1  25
ATOM     25  C   UNL A   1      37.832  22.332  25.915  1.00  0.00     0.274 C 
BRANCH  25  26
ATOM     26  C   UNL A   1      39.338  22.525  26.109  1.00  0.00     0.275 C 
BRANCH  26  27
ATOM     27  O   UNL A   1      39.605  23.438  27.187  1.00  0.00    -0.458 OA
BRANCH  27  28
ATOM     28  C   UNL A   1      40.649  24.277  26.995  1.00  0.00     0.338 C 
ATOM     29  O   UNL A   1      41.516  24.193  26.142  1.00  0.00    -0.246 OA
BRANCH  28  30
ATOM     30  C   UNL A   1      40.533  25.416  27.915  1.00  0.00     0.060 A 
ATOM     31  C   UNL A   1      41.634  26.257  28.088  1.00  0.00     0.016 A 
ATOM     32  C   UNL A   1      39.373  25.605  28.665  1.00  0.00     0.016 A 
ATOM     33  C   UNL A   1      41.589  27.289  29.021  1.00  0.00     0.010 A 
ATOM     34  C   UNL A   1      39.321  26.652  29.589  1.00  0.00     0.010 A 
ATOM     35  C   UNL A   1      40.432  27.494  29.782  1.00  0.00    -0.014 A 
BRANCH  35  36
ATOM     36  C   UNL A   1      40.403  28.561  30.811  1.00  0.00     0.031 A 
ATOM     37  C   UNL A   1      41.328  28.484  31.994  1.00  0.00     0.074 A 
ATOM     38  C   UNL A   1      39.549  29.594  30.680  1.00  0.00     0.049 A 
ATOM     39  N   UNL A   1      41.385  29.251  33.051  1.00  0.00    -0.248 NA
ATOM     40  C   UNL A   1      42.316  27.394  31.986  1.00  0.00     0.031 C 
ATOM     41  C   UNL A   1      38.633  29.796  29.555  1.00  0.00     0.029 A 
ATOM     42  N   UNL A   1      39.305  30.664  31.504  1.00  0.00    -0.354 N 
ATOM     43  C   UNL A   1      42.395  28.725  33.847  1.00  0.00     0.074 A 
ATOM     44  C   UNL A   1      42.909  27.558  33.160  1.00  0.00     0.031 C 
ATOM     45  C   UNL A   1      37.927  30.919  29.761  1.00  0.00     0.029 A 
ATOM     46  C   UNL A   1      38.296  31.484  31.054  1.00  0.00     0.049 A 
ATOM     47  H   UNL A   1      39.803  30.828  32.337  1.00  0.00     0.167 HD
ATOM     48  C   UNL A   1      42.853  29.178  35.038  1.00  0.00     0.037 A 
ATOM     49  C   UNL A   1      37.712  32.549  31.636  1.00  0.00     0.037 A 
ATOM     50  C   UNL A   1      42.337  30.349  35.703  1.00  0.00     0.049 A 
ATOM     51  C   UNL A   1      38.196  32.998  32.990  1.00  0.00     0.074 A 
ATOM     52  C   UNL A   1      42.742  30.904  36.904  1.00  0.00     0.029 A 
ATOM     53  N   UNL A   1      41.302  31.142  35.227  1.00  0.00    -0.354 N 
ATOM     54  N   UNL A   1      39.154  32.494  33.732  1.00  0.00    -0.248 NA
ATOM     55  C   UNL A   1      37.519  34.156  33.587  1.00  0.00     0.031 C 
ATOM     56  C   UNL A   1      41.916  31.998  37.181  1.00  0.00     0.029 A 
ATOM     57  C   UNL A   1      41.038  32.165  36.122  1.00  0.00     0.049 A 
ATOM     58  H   UNL A   1      40.826  30.998  34.377  1.00  0.00     0.167 HD
ATOM     59  C   UNL A   1      39.213  33.291  34.870  1.00  0.00     0.074 A 
ATOM     60  C   UNL A   1      38.203  34.317  34.712  1.00  0.00     0.031 C 
ATOM     61  C   UNL A   1      40.031  33.185  35.946  1.00  0.00     0.037 A 
BRANCH  48  62
ATOM     62  C   UNL A   1      43.942  28.391  35.717  1.00  0.00     0.058 A 
ATOM     63  C   UNL A   1      43.659  27.357  36.623  1.00  0.00     0.135 A 
ATOM     64  C   UNL A   1      45.291  28.654  35.428  1.00  0.00     0.135 A 
ATOM     65  F   UNL A   1      42.387  27.074  36.951  1.00  0.00    -0.206 F 
ATOM     66  C   UNL A   1      44.673  26.631  37.240  1.00  0.00     0.059 A 
ATOM     67  C   UNL A   1      46.322  27.921  36.011  1.00  0.00     0.059 A 
ATOM     68  F   UNL A   1      45.621  29.632  34.571  1.00  0.00    -0.206 F 
ATOM     69  C   UNL A   1      46.002  26.921  36.927  1.00  0.00     0.060 A 
BRANCH  69  70
ATOM     70  S   UNL A   1      47.306  25.968  37.734  1.00  0.00     0.124 S 
ATOM     71  O   UNL A   1      48.073  25.494  36.586  1.00  0.00    -0.237 OA
ATOM     72  O   UNL A   1      47.962  26.975  38.561  1.00  0.00    -0.237 OA
ATOM     73  O   UNL A   1      46.574  24.939  38.467  1.00  0.00    -0.744 OA
ENDBRANCH  69  70
ENDBRANCH  48  62
BRANCH  49  74
ATOM     74  C   UNL A   1      36.594  33.251  30.950  1.00  0.00     0.058 A 
ATOM     75  C   UNL A   1      35.269  33.109  31.389  1.00  0.00     0.135 A 
ATOM     76  C   UNL A   1      36.829  34.086  29.844  1.00  0.00     0.135 A 
ATOM     77  F   UNL A   1      34.991  32.315  32.434  1.00  0.00    -0.206 F 
ATOM     78  C   UNL A   1      34.216  33.755  30.750  1.00  0.00     0.059 A 
ATOM     79  C   UNL A   1      35.796  34.767  29.208  1.00  0.00     0.059 A 
ATOM     80  F   UNL A   1      38.079  34.265  29.390  1.00  0.00    -0.206 F 
ATOM     81  C   UNL A   1      34.491  34.586  29.662  1.00  0.00     0.060 A 
BRANCH  81  82
ATOM     82  S   UNL A   1      33.121  35.455  28.869  1.00  0.00     0.124 S 
ATOM     83  O   UNL A   1      33.825  36.485  28.113  1.00  0.00    -0.237 OA
ATOM     84  O   UNL A   1      32.502  34.394  28.081  1.00  0.00    -0.237 OA
ATOM     85  O   UNL A   1      32.327  35.933  29.997  1.00  0.00    -0.744 OA
ENDBRANCH  81  82
ENDBRANCH  49  74
BRANCH  61  86
ATOM     86  C   UNL A   1      39.900  34.229  37.022  1.00  0.00     0.058 A 
ATOM     87  C   UNL A   1      40.482  35.501  36.896  1.00  0.00     0.135 A 
ATOM     88  C   UNL A   1      39.138  33.969  38.173  1.00  0.00     0.135 A 
ATOM     89  F   UNL A   1      41.227  35.800  35.821  1.00  0.00    -0.206 F 
ATOM     90  C   UNL A   1      40.333  36.468  37.885  1.00  0.00     0.059 A 
ATOM     91  C   UNL A   1      38.949  34.932  39.159  1.00  0.00     0.059 A 
ATOM     92  F   UNL A   1      38.551  32.773  38.339  1.00  0.00    -0.206 F 
ATOM     93  C   UNL A   1      39.562  36.175  39.012  1.00  0.00     0.060 A 
BRANCH  93  94
ATOM     94  S   UNL A   1      39.347  37.452  40.269  1.00  0.00     0.124 S 
ATOM     95  O   UNL A   1      38.706  36.703  41.344  1.00  0.00    -0.237 OA
ATOM     96  O   UNL A   1      40.721  37.876  40.522  1.00  0.00    -0.237 OA
ATOM     97  O   UNL A   1      38.505  38.445  39.606  1.00  0.00    -0.744 OA
ENDBRANCH  93  94
ENDBRANCH  61  86
ENDBRANCH  35  36
ENDBRANCH  28  30
ENDBRANCH  27  28
ENDBRANCH  26  27
ENDBRANCH  25  26
ENDBRANCH   1  25
TORSDOF 20
ENDMDL
MODEL 2
REMARK VINA RESULT:     -11.4      2.556      4.125
REMARK SMILES NS(=O)(=O)CCNC(=O)N1[C@@H]2CC[C@H]1C[C@H](CC(=O)OCCOC(=O)c1ccc(-c3c4nc(c(-c5c(F)cc(S(=O)(=O)[O-])cc5F)c5ccc([nH]5)c(-c5c(F)cc(S(=O)(=O)[O-])cc5F)c5nc(c(-c6c(F)cc(S(=O)(=O)[O-])cc6F)c6ccc3[nH]6)C=C5)C=C4)cc1)C2
REMARK SMILES IDX 20 1 18 2 19 3 17 4 16 5 10 6 11 7 14 8 12 9 92 10 13 11
REMARK SMILES IDX 15 12 8 13 7 14 9 16 6 17 5 18 2 19 3 20 4 21 1 22 21 25
REMARK SMILES IDX 22 26 23 27 24 28 25 29 26 30 27 31 91 32 28 33 90 34 29 35
REMARK SMILES IDX 30 36 31 37 84 38 32 39 89 40 83 41 85 42 33 43 88 44 82 45
REMARK SMILES IDX 81 46 34 48 68 49 47 50 67 51 48 52 51 53 66 54 86 55 49 56
REMARK SMILES IDX 50 57 65 59 87 60 52 61 35 62 36 63 45 64 37 65 38 66 44 67
REMARK SMILES IDX 46 68 39 69 40 70 41 71 42 72 43 73 69 74 70 75 79 76 71 77
REMARK SMILES IDX 72 78 78 79 80 80 73 81 74 82 75 83 76 84 77 85 53 86 54 87
REMARK SMILES IDX 63 88 55 89 56 90 62 91 64 92 57 93 58 94 59 95 60 96 61 97
REMARK H PARENT 7 15 1 23 1 24 85 47 51 58
REMARK Flexibility Score: inf
ROOT
ATOM      1  O   UNL A   1      38.952  21.592  25.904  1.00  0.00    -0.462 OA
ENDROOT
BRANCH   1   2
ATOM      2  C   UNL A   1      38.499  20.425  25.383  1.00  0.00     0.306 C 
ATOM      3  O   UNL A   1      39.142  19.385  25.344  1.00  0.00    -0.252 OA
BRANCH   2   4
ATOM      4  C   UNL A   1      37.114  20.559  24.775  1.00  0.00     0.126 C 
BRANCH   4   5
ATOM      5  C   UNL A   1      36.361  21.885  25.032  1.00  0.00     0.004 C 
ATOM      6  N   UNL A   1      33.549  22.337  24.940  1.00  0.00    -0.319 N 
ATOM      7  C   UNL A   1      34.173  22.603  26.224  1.00  0.00     0.087 C 
ATOM      8  C   UNL A   1      34.312  23.087  23.966  1.00  0.00     0.087 C 
ATOM      9  C   UNL A   1      34.520  24.094  26.165  1.00  0.00     0.027 C 
ATOM     10  C   UNL A   1      35.425  21.714  26.265  1.00  0.00     0.029 C 
ATOM     11  C   UNL A   1      34.548  24.428  24.670  1.00  0.00     0.027 C 
ATOM     12  C   UNL A   1      35.641  22.363  23.742  1.00  0.00     0.029 C 
BRANCH   6  13
ATOM     13  C   UNL A   1      32.432  21.582  24.828  1.00  0.00     0.317 C 
ATOM     14  N   UNL A   1      32.487  20.300  24.402  1.00  0.00    -0.337 N 
ATOM     15  H   UNL A   1      31.690  20.004  23.906  1.00  0.00     0.165 HD
ATOM     16  O   UNL A   1      31.318  22.006  25.141  1.00  0.00    -0.249 OA
BRANCH  14  17
ATOM     17  C   UNL A   1      33.517  19.283  24.550  1.00  0.00     0.135 C 
BRANCH  17  18
ATOM     18  C   UNL A   1      32.950  17.937  24.975  1.00  0.00     0.175 C 
BRANCH  18  19
ATOM     19  S   UNL A   1      33.889  16.567  24.311  1.00  0.00     0.210 S 
ATOM     20  O   UNL A   1      34.146  16.798  22.908  1.00  0.00    -0.213 OA
ATOM     21  O   UNL A   1      33.333  15.321  24.782  1.00  0.00    -0.213 OA
BRANCH  19  22
ATOM     22  N   UNL A   1      35.375  16.718  25.065  1.00  0.00    -0.229 NA
ATOM     23  H   UNL A   1      36.079  16.990  24.379  1.00  0.00     0.137 HD
ATOM     24  H   UNL A   1      35.635  15.825  25.483  1.00  0.00     0.137 HD
ENDBRANCH  19  22
ENDBRANCH  18  19
ENDBRANCH  17  18
ENDBRANCH  14  17
ENDBRANCH   6  13
ENDBRANCH   4   5
ENDBRANCH   2   4
ENDBRANCH   1   2
BRANCH   1  25
ATOM     25  C   UNL A   1      40.112  21.527  26.752  1.00  0.00     0.274 C 
BRANCH  25  26
ATOM     26  C   UNL A   1      41.133  22.599  26.364  1.00  0.00     0.275 C 
BRANCH  26  27
ATOM     27  O   UNL A   1      40.583  23.917  26.529  1.00  0.00    -0.458 OA
BRANCH  27  28
ATOM     28  C   UNL A   1      41.448  24.938  26.330  1.00  0.00     0.338 C 
ATOM     29  O   UNL A   1      42.113  25.159  25.332  1.00  0.00    -0.246 OA
BRANCH  28  30
ATOM     30  C   UNL A   1      41.396  25.851  27.480  1.00  0.00     0.060 A 
ATOM     31  C   UNL A   1      40.370  25.699  28.414  1.00  0.00     0.016 A 
ATOM     32  C   UNL A   1      42.306  26.902  27.591  1.00  0.00     0.016 A 
ATOM     33  C   UNL A   1      40.238  26.603  29.464  1.00  0.00     0.010 A 
ATOM     34  C   UNL A   1      42.183  27.799  28.656  1.00  0.00     0.010 A 
ATOM     35  C   UNL A   1      41.142  27.664  29.592  1.00  0.00    -0.014 A 
BRANCH  35  36
ATOM     36  C   UNL A   1      40.970  28.656  30.681  1.00  0.00     0.031 A 
ATOM     37  C   UNL A   1      41.843  28.581  31.903  1.00  0.00     0.074 A 
ATOM     38  C   UNL A   1      40.035  29.618  30.569  1.00  0.00     0.049 A 
ATOM     39  N   UNL A   1      41.783  29.280  33.006  1.00  0.00    -0.248 NA
ATOM     40  C   UNL A   1      42.923  27.582  31.880  1.00  0.00     0.031 C 
ATOM     41  C   UNL A   1      39.158  29.813  29.413  1.00  0.00     0.029 A 
ATOM     42  N   UNL A   1      39.659  30.608  31.443  1.00  0.00    -0.354 N 
ATOM     43  C   UNL A   1      42.798  28.792  33.820  1.00  0.00     0.074 A 
ATOM     44  C   UNL A   1      43.444  27.720  33.091  1.00  0.00     0.031 C 
ATOM     45  C   UNL A   1      38.346  30.856  29.649  1.00  0.00     0.029 A 
ATOM     46  C   UNL A   1      38.604  31.366  30.992  1.00  0.00     0.049 A 
ATOM     47  H   UNL A   1      40.102  30.759  32.309  1.00  0.00     0.167 HD
ATOM     48  C   UNL A   1      43.158  29.204  35.059  1.00  0.00     0.037 A 
ATOM     49  C   UNL A   1      37.902  32.337  31.607  1.00  0.00     0.037 A 
ATOM     50  C   UNL A   1      42.511  30.281  35.765  1.00  0.00     0.049 A 
ATOM     51  C   UNL A   1      38.281  32.737  33.008  1.00  0.00     0.074 A 
ATOM     52  C   UNL A   1      42.809  30.789  37.018  1.00  0.00     0.029 A 
ATOM     53  N   UNL A   1      41.432  31.011  35.286  1.00  0.00    -0.354 N 
ATOM     54  N   UNL A   1      39.244  32.269  33.766  1.00  0.00    -0.248 NA
ATOM     55  C   UNL A   1      37.477  33.792  33.639  1.00  0.00     0.031 C 
ATOM     56  C   UNL A   1      41.878  31.789  37.317  1.00  0.00     0.029 A 
ATOM     57  C   UNL A   1      41.038  31.948  36.227  1.00  0.00     0.049 A 
ATOM     58  H   UNL A   1      41.010  30.883  34.406  1.00  0.00     0.167 HD
ATOM     59  C   UNL A   1      39.180  32.993  34.953  1.00  0.00     0.074 A 
ATOM     60  C   UNL A   1      38.092  33.936  34.806  1.00  0.00     0.031 C 
ATOM     61  C   UNL A   1      39.954  32.887  36.061  1.00  0.00     0.037 A 
BRANCH  48  62
ATOM     62  C   UNL A   1      44.280  28.471  35.744  1.00  0.00     0.058 A 
ATOM     63  C   UNL A   1      45.625  28.822  35.554  1.00  0.00     0.135 A 
ATOM     64  C   UNL A   1      44.000  27.421  36.635  1.00  0.00     0.135 A 
ATOM     65  F   UNL A   1      45.953  29.807  34.700  1.00  0.00    -0.206 F 
ATOM     66  C   UNL A   1      46.654  28.142  36.198  1.00  0.00     0.059 A 
ATOM     67  C   UNL A   1      45.011  26.745  37.313  1.00  0.00     0.059 A 
ATOM     68  F   UNL A   1      42.732  27.040  36.855  1.00  0.00    -0.206 F 
ATOM     69  C   UNL A   1      46.337  27.104  37.077  1.00  0.00     0.060 A 
BRANCH  69  70
ATOM     70  S   UNL A   1      47.683  26.233  37.906  1.00  0.00     0.124 S 
ATOM     71  O   UNL A   1      48.360  27.330  38.591  1.00  0.00    -0.237 OA
ATOM     72  O   UNL A   1      46.966  25.297  38.765  1.00  0.00    -0.237 OA
ATOM     73  O   UNL A   1      48.426  25.627  36.805  1.00  0.00    -0.744 OA
ENDBRANCH  69  70
ENDBRANCH  48  62
BRANCH  49  74
ATOM     74  C   UNL A   1      36.758  32.984  30.907  1.00  0.00     0.058 A 
ATOM     75  C   UNL A   1      35.432  32.670  31.240  1.00  0.00     0.135 A 
ATOM     76  C   UNL A   1      36.969  33.936  29.896  1.00  0.00     0.135 A 
ATOM     77  F   UNL A   1      35.178  31.760  32.192  1.00  0.00    -0.206 F 
ATOM     78  C   UNL A   1      34.357  33.265  30.588  1.00  0.00     0.059 A 
ATOM     79  C   UNL A   1      35.911  34.566  29.251  1.00  0.00     0.059 A 
ATOM     80  F   UNL A   1      38.218  34.280  29.546  1.00  0.00    -0.206 F 
ATOM     81  C   UNL A   1      34.607  34.215  29.597  1.00  0.00     0.060 A 
BRANCH  81  82
ATOM     82  S   UNL A   1      33.202  35.013  28.788  1.00  0.00     0.124 S 
ATOM     83  O   UNL A   1      33.837  36.174  28.176  1.00  0.00    -0.237 OA
ATOM     84  O   UNL A   1      32.750  33.973  27.869  1.00  0.00    -0.237 OA
ATOM     85  O   UNL A   1      32.295  35.299  29.895  1.00  0.00    -0.744 OA
ENDBRANCH  81  82
ENDBRANCH  49  74
BRANCH  61  86
ATOM     86  C   UNL A   1      39.682  33.844  37.190  1.00  0.00     0.058 A 
ATOM     87  C   UNL A   1      38.885  33.487  38.290  1.00  0.00     0.135 A 
ATOM     88  C   UNL A   1      40.269  35.120  37.195  1.00  0.00     0.135 A 
ATOM     89  F   UNL A   1      38.294  32.283  38.334  1.00  0.00    -0.206 F 
ATOM     90  C   UNL A   1      38.661  34.371  39.341  1.00  0.00     0.059 A 
ATOM     91  C   UNL A   1      40.085  36.008  38.250  1.00  0.00     0.059 A 
ATOM     92  F   UNL A   1      41.048  35.510  36.173  1.00  0.00    -0.206 F 
ATOM     93  C   UNL A   1      39.268  35.628  39.313  1.00  0.00     0.060 A 
BRANCH  93  94
ATOM     94  S   UNL A   1      38.997  36.749  40.702  1.00  0.00     0.124 S 
ATOM     95  O   UNL A   1      38.121  35.955  41.556  1.00  0.00    -0.237 OA
ATOM     96  O   UNL A   1      40.353  36.959  41.203  1.00  0.00    -0.237 OA
ATOM     97  O   UNL A   1      38.379  37.918  40.080  1.00  0.00    -0.744 OA
ENDBRANCH  93  94
ENDBRANCH  61  86
ENDBRANCH  35  36
ENDBRANCH  28  30
ENDBRANCH  27  28
ENDBRANCH  26  27
ENDBRANCH  25  26
ENDBRANCH   1  25
TORSDOF 20
ENDMDL
MODEL 3
REMARK VINA RESULT:     -11.4      6.651     11.866
REMARK SMILES NS(=O)(=O)CCNC(=O)N1[C@@H]2CC[C@H]1C[C@H](CC(=O)OCCOC(=O)c1ccc(-c3c4nc(c(-c5c(F)cc(S(=O)(=O)[O-])cc5F)c5ccc([nH]5)c(-c5c(F)cc(S(=O)(=O)[O-])cc5F)c5nc(c(-c6c(F)cc(S(=O)(=O)[O-])cc6F)c6ccc3[nH]6)C=C5)C=C4)cc1)C2
REMARK SMILES IDX 20 1 18 2 19 3 17 4 16 5 10 6 11 7 14 8 12 9 92 10 13 11
REMARK SMILES IDX 15 12 8 13 7 14 9 16 6 17 5 18 2 19 3 20 4 21 1 22 21 25
REMARK SMILES IDX 22 26 23 27 24 28 25 29 26 30 27 31 91 32 28 33 90 34 29 35
REMARK SMILES IDX 30 36 31 37 84 38 32 39 89 40 83 41 85 42 33 43 88 44 82 45
REMARK SMILES IDX 81 46 34 48 68 49 47 50 67 51 48 52 51 53 66 54 86 55 49 56
REMARK SMILES IDX 50 57 65 59 87 60 52 61 35 62 36 63 45 64 37 65 38 66 44 67
REMARK SMILES IDX 46 68 39 69 40 70 41 71 42 72 43 73 69 74 70 75 79 76 71 77
REMARK SMILES IDX 72 78 78 79 80 80 73 81 74 82 75 83 76 84 77 85 53 86 54 87
REMARK SMILES IDX 63 88 55 89 56 90 62 91 64 92 57 93 58 94 59 95 60 96 61 97
REMARK H PARENT 7 15 1 23 1 24 85 47 51 58
REMARK Flexibility Score: inf
ROOT
ATOM      1  O   UNL A   1      33.002  30.110  27.706  1.00  0.00    -0.462 OA
ENDROOT
BRANCH   1   2
ATOM      2  C   UNL A   1      32.086  29.664  26.811  1.00  0.00     0.306 C 
ATOM      3  O   UNL A   1      31.669  30.312  25.860  1.00  0.00    -0.252 OA
BRANCH   2   4
ATOM      4  C   UNL A   1      31.565  28.280  27.154  1.00  0.00     0.126 C 
BRANCH   4   5
ATOM      5  C   UNL A   1      32.408  27.076  26.677  1.00  0.00     0.004 C 
ATOM      6  N   UNL A   1      32.494  25.935  24.066  1.00  0.00    -0.319 N 
ATOM      7  C   UNL A   1      33.760  26.452  24.553  1.00  0.00     0.087 C 
ATOM      8  C   UNL A   1      32.007  25.044  25.098  1.00  0.00     0.087 C 
ATOM      9  C   UNL A   1      34.423  25.241  25.217  1.00  0.00     0.027 C 
ATOM     10  C   UNL A   1      33.395  27.547  25.567  1.00  0.00     0.029 C 
ATOM     11  C   UNL A   1      33.269  24.281  25.519  1.00  0.00     0.027 C 
ATOM     12  C   UNL A   1      31.489  25.897  26.257  1.00  0.00     0.029 C 
BRANCH   6  13
ATOM     13  C   UNL A   1      32.017  26.244  22.839  1.00  0.00     0.317 C 
ATOM     14  N   UNL A   1      30.883  26.963  22.684  1.00  0.00    -0.337 N 
ATOM     15  H   UNL A   1      30.369  26.739  21.875  1.00  0.00     0.165 HD
ATOM     16  O   UNL A   1      32.604  25.921  21.805  1.00  0.00    -0.249 OA
BRANCH  14  17
ATOM     17  C   UNL A   1      30.291  28.010  23.503  1.00  0.00     0.135 C 
BRANCH  17  18
ATOM     18  C   UNL A   1      28.953  28.488  22.961  1.00  0.00     0.175 C 
BRANCH  18  19
ATOM     19  S   UNL A   1      29.086  30.056  22.112  1.00  0.00     0.210 S 
ATOM     20  O   UNL A   1      29.134  31.124  23.083  1.00  0.00    -0.213 OA
ATOM     21  O   UNL A   1      28.167  30.087  20.999  1.00  0.00    -0.213 OA
BRANCH  19  22
ATOM     22  N   UNL A   1      30.617  30.000  21.438  1.00  0.00    -0.229 NA
ATOM     23  H   UNL A   1      30.577  30.332  20.475  1.00  0.00     0.137 HD
ATOM     24  H   UNL A   1      30.960  29.040  21.454  1.00  0.00     0.137 HD
ENDBRANCH  19  22
ENDBRANCH  18  19
ENDBRANCH  17  18
ENDBRANCH  14  17
ENDBRANCH   6  13
ENDBRANCH   4   5
ENDBRANCH   2   4
ENDBRANCH   1   2
BRANCH   1  25
ATOM     25  C   UNL A   1      34.100  30.885  27.192  1.00  0.00     0.274 C 
BRANCH  25  26
ATOM     26  C   UNL A   1      34.842  31.599  28.324  1.00  0.00     0.275 C 
BRANCH  26  27
ATOM     27  O   UNL A   1      35.633  30.672  29.086  1.00  0.00    -0.458 OA
BRANCH  27  28
ATOM     28  C   UNL A   1      36.581  31.228  29.877  1.00  0.00     0.338 C 
ATOM     29  O   UNL A   1      36.413  32.039  30.771  1.00  0.00    -0.246 OA
BRANCH  28  30
ATOM     30  C   UNL A   1      37.882  30.614  29.580  1.00  0.00     0.060 A 
ATOM     31  C   UNL A   1      38.832  30.524  30.600  1.00  0.00     0.016 A 
ATOM     32  C   UNL A   1      38.193  30.206  28.284  1.00  0.00     0.016 A 
ATOM     33  C   UNL A   1      40.106  30.033  30.330  1.00  0.00     0.010 A 
ATOM     34  C   UNL A   1      39.468  29.697  28.017  1.00  0.00     0.010 A 
ATOM     35  C   UNL A   1      40.436  29.618  29.035  1.00  0.00    -0.014 A 
BRANCH  35  36
ATOM     36  C   UNL A   1      41.809  29.143  28.737  1.00  0.00     0.031 A 
ATOM     37  C   UNL A   1      42.954  30.117  28.744  1.00  0.00     0.074 A 
ATOM     38  C   UNL A   1      42.023  27.842  28.462  1.00  0.00     0.049 A 
ATOM     39  N   UNL A   1      44.203  29.929  28.408  1.00  0.00    -0.248 NA
ATOM     40  C   UNL A   1      42.649  31.488  29.184  1.00  0.00     0.031 C 
ATOM     41  C   UNL A   1      40.996  26.799  28.465  1.00  0.00     0.029 A 
ATOM     42  N   UNL A   1      43.173  27.177  28.118  1.00  0.00    -0.354 N 
ATOM     43  C   UNL A   1      44.830  31.159  28.571  1.00  0.00     0.074 A 
ATOM     44  C   UNL A   1      43.816  32.093  29.014  1.00  0.00     0.031 C 
ATOM     45  C   UNL A   1      41.562  25.626  28.137  1.00  0.00     0.029 A 
ATOM     46  C   UNL A   1      42.975  25.844  27.845  1.00  0.00     0.049 A 
ATOM     47  H   UNL A   1      44.055  27.613  28.070  1.00  0.00     0.167 HD
ATOM     48  C   UNL A   1      46.132  31.475  28.372  1.00  0.00     0.037 A 
ATOM     49  C   UNL A   1      43.829  24.912  27.378  1.00  0.00     0.037 A 
ATOM     50  C   UNL A   1      47.130  30.529  27.941  1.00  0.00     0.049 A 
ATOM     51  C   UNL A   1      45.257  25.302  27.105  1.00  0.00     0.074 A 
ATOM     52  C   UNL A   1      48.481  30.742  27.726  1.00  0.00     0.029 A 
ATOM     53  N   UNL A   1      46.888  29.192  27.655  1.00  0.00    -0.354 N 
ATOM     54  N   UNL A   1      45.838  26.468  27.265  1.00  0.00    -0.248 NA
ATOM     55  C   UNL A   1      46.144  24.253  26.585  1.00  0.00     0.031 C 
ATOM     56  C   UNL A   1      49.043  29.550  27.258  1.00  0.00     0.029 A 
ATOM     57  C   UNL A   1      48.058  28.577  27.241  1.00  0.00     0.049 A 
ATOM     58  H   UNL A   1      46.013  28.748  27.734  1.00  0.00     0.167 HD
ATOM     59  C   UNL A   1      47.166  26.285  26.893  1.00  0.00     0.074 A 
ATOM     60  C   UNL A   1      47.303  24.895  26.512  1.00  0.00     0.031 C 
ATOM     61  C   UNL A   1      48.179  27.186  26.871  1.00  0.00     0.037 A 
BRANCH  48  62
ATOM     62  C   UNL A   1      46.547  32.906  28.585  1.00  0.00     0.058 A 
ATOM     63  C   UNL A   1      46.506  33.855  27.551  1.00  0.00     0.135 A 
ATOM     64  C   UNL A   1      46.957  33.343  29.855  1.00  0.00     0.135 A 
ATOM     65  F   UNL A   1      46.138  33.489  26.312  1.00  0.00    -0.206 F 
ATOM     66  C   UNL A   1      46.885  35.177  27.761  1.00  0.00     0.059 A 
ATOM     67  C   UNL A   1      47.313  34.668  30.095  1.00  0.00     0.059 A 
ATOM     68  F   UNL A   1      47.017  32.480  30.881  1.00  0.00    -0.206 F 
ATOM     69  C   UNL A   1      47.287  35.574  29.038  1.00  0.00     0.060 A 
BRANCH  69  70
ATOM     70  S   UNL A   1      47.773  37.294  29.293  1.00  0.00     0.124 S 
ATOM     71  O   UNL A   1      48.428  37.221  30.595  1.00  0.00    -0.237 OA
ATOM     72  O   UNL A   1      48.653  37.541  28.155  1.00  0.00    -0.237 OA
ATOM     73  O   UNL A   1      46.504  38.015  29.268  1.00  0.00    -0.744 OA
ENDBRANCH  69  70
ENDBRANCH  48  62
BRANCH  49  74
ATOM     74  C   UNL A   1      43.349  23.527  27.122  1.00  0.00     0.058 A 
ATOM     75  C   UNL A   1      42.935  23.127  25.842  1.00  0.00     0.135 A 
ATOM     76  C   UNL A   1      43.303  22.571  28.151  1.00  0.00     0.135 A 
ATOM     77  F   UNL A   1      42.951  24.005  24.828  1.00  0.00    -0.206 F 
ATOM     78  C   UNL A   1      42.479  21.836  25.594  1.00  0.00     0.059 A 
ATOM     79  C   UNL A   1      42.880  21.266  27.920  1.00  0.00     0.059 A 
ATOM     80  F   UNL A   1      43.697  22.899  29.391  1.00  0.00    -0.206 F 
ATOM     81  C   UNL A   1      42.459  20.911  26.640  1.00  0.00     0.060 A 
BRANCH  81  82
ATOM     82  S   UNL A   1      41.907  19.226  26.295  1.00  0.00     0.124 S 
ATOM     83  O   UNL A   1      40.531  19.450  25.869  1.00  0.00    -0.237 OA
ATOM     84  O   UNL A   1      42.840  18.808  25.253  1.00  0.00    -0.237 OA
ATOM     85  O   UNL A   1      42.068  18.551  27.579  1.00  0.00    -0.744 OA
ENDBRANCH  81  82
ENDBRANCH  49  74
BRANCH  61  86
ATOM     86  C   UNL A   1      49.539  26.689  26.462  1.00  0.00     0.058 A 
ATOM     87  C   UNL A   1      50.007  26.808  25.144  1.00  0.00     0.135 A 
ATOM     88  C   UNL A   1      50.407  26.132  27.417  1.00  0.00     0.135 A 
ATOM     89  F   UNL A   1      49.217  27.327  24.190  1.00  0.00    -0.206 F 
ATOM     90  C   UNL A   1      51.277  26.369  24.782  1.00  0.00     0.059 A 
ATOM     91  C   UNL A   1      51.692  25.716  27.084  1.00  0.00     0.059 A 
ATOM     92  F   UNL A   1      50.014  26.004  28.694  1.00  0.00    -0.206 F 
ATOM     93  C   UNL A   1      52.113  25.828  25.760  1.00  0.00     0.060 A 
BRANCH  93  94
ATOM     94  S   UNL A   1      53.771  25.296  25.283  1.00  0.00     0.124 S 
ATOM     95  O   UNL A   1      54.132  26.308  24.295  1.00  0.00    -0.237 OA
ATOM     96  O   UNL A   1      54.496  25.358  26.549  1.00  0.00    -0.237 OA
ATOM     97  O   UNL A   1      53.559  23.951  24.755  1.00  0.00    -0.744 OA
ENDBRANCH  93  94
ENDBRANCH  61  86
ENDBRANCH  35  36
ENDBRANCH  28  30
ENDBRANCH  27  28
ENDBRANCH  26  27
ENDBRANCH  25  26
ENDBRANCH   1  25
TORSDOF 20
ENDMDL
