MODEL 1
REMARK VINA RESULT:     -13.4      0.000      0.000
REMARK SMILES Cc1ccccc1C(=O)Nc1ccc(OCC(=O)OCCOC(=O)c2ccc(-c3c4nc(c(-c5c(F)cc(S(=O)(=O)[O-])cc5F)c5ccc([nH]5)c(-c5c(F)cc(S(=O)(=O)[O-])cc5F)c5nc(c(-c6c(F)cc(S(=O)(=O)[O-])cc6F)c6ccc3[nH]6)C=C5)C=C4)cc2)c(-c2nc3ccccc3s2)c1
REMARK SMILES IDX 20 1 19 2 17 3 18 4 16 5 15 6 14 7 11 8 12 9 101 10 13 11
REMARK SMILES IDX 91 12 10 13 8 14 9 15 7 17 1 18 2 19 3 20 4 21 6 22 5 23
REMARK SMILES IDX 92 24 93 25 100 26 94 27 99 28 95 29 98 30 96 31 97 32 21 33
REMARK SMILES IDX 22 34 23 35 24 36 25 37 26 38 90 39 27 40 89 41 28 42 29 43
REMARK SMILES IDX 30 44 83 45 31 46 88 47 82 48 84 49 32 50 87 51 81 52 80 53
REMARK SMILES IDX 33 55 67 56 46 57 66 58 47 59 50 60 65 61 85 62 48 63 49 64
REMARK SMILES IDX 64 66 86 67 51 68 34 69 35 70 44 71 36 72 37 73 43 74 45 75
REMARK SMILES IDX 38 76 39 77 40 78 41 79 42 80 68 81 69 82 78 83 70 84 71 85
REMARK SMILES IDX 77 86 79 87 72 88 73 89 74 90 75 91 76 92 52 93 53 94 62 95
REMARK SMILES IDX 54 96 55 97 61 98 63 99 56 100 57 101 58 102 59 103 60 104
REMARK H PARENT 10 16 84 54 50 65
REMARK Flexibility Score: inf
ROOT
ATOM      1  C   UNL A   1      33.557  33.742  27.792  1.00  0.00     0.274 C 
ENDROOT
BRANCH   1   2
ATOM      2  O   UNL A   1      32.234  33.178  27.835  1.00  0.00    -0.460 OA
BRANCH   2   3
ATOM      3  C   UNL A   1      31.981  32.067  26.924  1.00  0.00     0.344 C 
ATOM      4  O   UNL A   1      31.080  32.499  26.147  1.00  0.00    -0.248 OA
BRANCH   3   5
ATOM      5  C   UNL A   1      33.098  30.191  26.927  1.00  0.00     0.352 C 
BRANCH   5   6
ATOM      6  O   UNL A   1      33.528  29.051  25.839  1.00  0.00    -0.481 OA
BRANCH   6   7
ATOM      7  C   UNL A   1      32.826  27.862  25.654  1.00  0.00     0.130 A 
ATOM      8  C   UNL A   1      31.976  25.269  24.866  1.00  0.00     0.042 A 
ATOM      9  C   UNL A   1      32.599  25.473  26.101  1.00  0.00     0.030 A 
ATOM     10  C   UNL A   1      31.540  26.401  24.177  1.00  0.00     0.041 A 
ATOM     11  C   UNL A   1      33.095  26.746  26.456  1.00  0.00     0.049 A 
ATOM     12  C   UNL A   1      31.853  27.727  24.624  1.00  0.00     0.055 A 
BRANCH   8  13
ATOM     13  N   UNL A   1      31.703  23.943  24.452  1.00  0.00    -0.322 N 
ATOM     14  C   UNL A   1      32.472  22.932  23.880  1.00  0.00     0.255 C 
ATOM     15  O   UNL A   1      31.870  22.038  23.271  1.00  0.00    -0.269 OA
ATOM     16  H   UNL A   1      30.768  23.676  24.603  1.00  0.00     0.170 HD
BRANCH  14  17
ATOM     17  C   UNL A   1      33.938  22.709  24.102  1.00  0.00     0.043 A 
ATOM     18  C   UNL A   1      33.625  20.968  25.954  1.00  0.00     0.045 C 
ATOM     19  C   UNL A   1      34.468  21.785  25.024  1.00  0.00    -0.038 A 
ATOM     20  C   UNL A   1      35.873  21.690  25.162  1.00  0.00     0.004 A 
ATOM     21  C   UNL A   1      36.740  22.437  24.373  1.00  0.00     0.000 A 
ATOM     22  C   UNL A   1      34.831  23.313  23.190  1.00  0.00     0.014 A 
ATOM     23  C   UNL A   1      36.221  23.192  23.334  1.00  0.00     0.001 A 
ENDBRANCH  14  17
ENDBRANCH   8  13
BRANCH  12  24
ATOM     24  C   UNL A   1      31.239  28.843  23.848  1.00  0.00     0.128 A 
ATOM     25  N   UNL A   1      30.731  29.925  24.410  1.00  0.00    -0.236 NA
ATOM     26  S   UNL A   1      31.128  28.910  22.118  1.00  0.00    -0.114 S 
ATOM     27  C   UNL A   1      29.737  30.427  23.593  1.00  0.00     0.082 A 
ATOM     28  C   UNL A   1      29.777  29.982  22.272  1.00  0.00     0.055 A 
ATOM     29  C   UNL A   1      28.671  31.256  24.001  1.00  0.00     0.030 A 
ATOM     30  C   UNL A   1      28.788  30.343  21.336  1.00  0.00     0.021 A 
ATOM     31  C   UNL A   1      27.636  31.548  23.108  1.00  0.00     0.002 A 
ATOM     32  C   UNL A   1      27.697  31.101  21.791  1.00  0.00     0.002 A 
ENDBRANCH  12  24
ENDBRANCH   6   7
ENDBRANCH   5   6
ENDBRANCH   3   5
ENDBRANCH   2   3
ENDBRANCH   1   2
BRANCH   1  33
ATOM     33  C   UNL A   1      33.893  34.332  29.160  1.00  0.00     0.275 C 
BRANCH  33  34
ATOM     34  O   UNL A   1      34.387  33.397  30.140  1.00  0.00    -0.458 OA
BRANCH  34  35
ATOM     35  C   UNL A   1      35.610  32.833  30.211  1.00  0.00     0.338 C 
ATOM     36  O   UNL A   1      36.631  33.431  30.494  1.00  0.00    -0.246 OA
BRANCH  35  37
ATOM     37  C   UNL A   1      35.811  31.552  29.564  1.00  0.00     0.060 A 
ATOM     38  C   UNL A   1      36.007  30.329  30.887  1.00  0.00     0.016 A 
ATOM     39  C   UNL A   1      36.686  31.356  28.017  1.00  0.00     0.016 A 
ATOM     40  C   UNL A   1      37.206  29.009  30.739  1.00  0.00     0.010 A 
ATOM     41  C   UNL A   1      37.896  30.005  27.885  1.00  0.00     0.010 A 
ATOM     42  C   UNL A   1      38.238  28.943  29.307  1.00  0.00    -0.014 A 
BRANCH  42  43
ATOM     43  C   UNL A   1      39.678  28.710  29.531  1.00  0.00     0.031 A 
ATOM     44  C   UNL A   1      40.126  27.357  29.227  1.00  0.00     0.074 A 
ATOM     45  C   UNL A   1      40.570  29.718  29.787  1.00  0.00     0.049 A 
ATOM     46  N   UNL A   1      41.263  26.903  29.593  1.00  0.00    -0.248 NA
ATOM     47  C   UNL A   1      39.299  26.342  28.577  1.00  0.00     0.031 C 
ATOM     48  C   UNL A   1      42.002  29.771  29.482  1.00  0.00     0.029 A 
ATOM     49  N   UNL A   1      40.377  30.942  30.424  1.00  0.00    -0.354 N 
ATOM     50  C   UNL A   1      41.492  25.791  28.826  1.00  0.00     0.074 A 
ATOM     51  C   UNL A   1      40.189  25.361  28.408  1.00  0.00     0.031 C 
ATOM     52  C   UNL A   1      42.573  30.824  30.098  1.00  0.00     0.029 A 
ATOM     53  C   UNL A   1      41.574  31.467  30.928  1.00  0.00     0.049 A 
ATOM     54  H   UNL A   1      39.503  31.386  30.511  1.00  0.00     0.167 HD
ATOM     55  C   UNL A   1      42.787  25.540  28.496  1.00  0.00     0.037 A 
ATOM     56  C   UNL A   1      41.720  31.700  32.270  1.00  0.00     0.037 A 
ATOM     57  C   UNL A   1      43.683  26.396  29.298  1.00  0.00     0.049 A 
ATOM     58  C   UNL A   1      42.500  30.607  32.959  1.00  0.00     0.074 A 
ATOM     59  C   UNL A   1      44.525  27.463  29.042  1.00  0.00     0.029 A 
ATOM     60  N   UNL A   1      43.504  26.398  30.676  1.00  0.00    -0.354 N 
ATOM     61  N   UNL A   1      43.000  29.570  32.343  1.00  0.00    -0.248 NA
ATOM     62  C   UNL A   1      42.781  30.572  34.384  1.00  0.00     0.031 C 
ATOM     63  C   UNL A   1      44.832  28.094  30.292  1.00  0.00     0.029 A 
ATOM     64  C   UNL A   1      44.209  27.394  31.314  1.00  0.00     0.049 A 
ATOM     65  H   UNL A   1      42.931  25.752  31.150  1.00  0.00     0.167 HD
ATOM     66  C   UNL A   1      43.597  28.706  33.225  1.00  0.00     0.074 A 
ATOM     67  C   UNL A   1      43.438  29.403  34.494  1.00  0.00     0.031 C 
ATOM     68  C   UNL A   1      44.124  27.511  32.782  1.00  0.00     0.037 A 
BRANCH  55  69
ATOM     69  C   UNL A   1      43.239  24.673  27.340  1.00  0.00     0.058 A 
ATOM     70  C   UNL A   1      44.192  23.662  27.575  1.00  0.00     0.135 A 
ATOM     71  C   UNL A   1      42.852  24.805  25.984  1.00  0.00     0.135 A 
ATOM     72  F   UNL A   1      44.681  23.433  28.802  1.00  0.00    -0.206 F 
ATOM     73  C   UNL A   1      44.703  22.845  26.566  1.00  0.00     0.059 A 
ATOM     74  C   UNL A   1      43.322  23.976  24.963  1.00  0.00     0.059 A 
ATOM     75  F   UNL A   1      42.028  25.765  25.554  1.00  0.00    -0.206 F 
ATOM     76  C   UNL A   1      44.250  22.997  25.264  1.00  0.00     0.060 A 
BRANCH  76  77
ATOM     77  S   UNL A   1      44.881  21.897  23.990  1.00  0.00     0.124 S 
ATOM     78  O   UNL A   1      46.312  22.184  24.026  1.00  0.00    -0.237 OA
ATOM     79  O   UNL A   1      44.478  20.589  24.493  1.00  0.00    -0.237 OA
ATOM     80  O   UNL A   1      44.189  22.340  22.782  1.00  0.00    -0.744 OA
ENDBRANCH  76  77
ENDBRANCH  55  69
BRANCH  56  81
ATOM     81  C   UNL A   1      40.632  32.551  32.855  1.00  0.00     0.058 A 
ATOM     82  C   UNL A   1      39.612  31.881  33.553  1.00  0.00     0.135 A 
ATOM     83  C   UNL A   1      40.989  33.810  33.332  1.00  0.00     0.135 A 
ATOM     84  F   UNL A   1      39.089  30.752  33.051  1.00  0.00    -0.206 F 
ATOM     85  C   UNL A   1      39.204  32.282  34.822  1.00  0.00     0.059 A 
ATOM     86  C   UNL A   1      40.665  34.173  34.641  1.00  0.00     0.059 A 
ATOM     87  F   UNL A   1      41.839  34.574  32.628  1.00  0.00    -0.206 F 
ATOM     88  C   UNL A   1      39.830  33.371  35.408  1.00  0.00     0.060 A 
BRANCH  88  89
ATOM     89  S   UNL A   1      39.590  33.620  37.185  1.00  0.00     0.124 S 
ATOM     90  O   UNL A   1      40.310  34.870  37.411  1.00  0.00    -0.237 OA
ATOM     91  O   UNL A   1      38.136  33.702  37.273  1.00  0.00    -0.237 OA
ATOM     92  O   UNL A   1      40.204  32.449  37.785  1.00  0.00    -0.744 OA
ENDBRANCH  88  89
ENDBRANCH  56  81
BRANCH  68  93
ATOM     93  C   UNL A   1      44.624  26.321  33.627  1.00  0.00     0.058 A 
ATOM     94  C   UNL A   1      45.923  25.792  33.600  1.00  0.00     0.135 A 
ATOM     95  C   UNL A   1      43.757  25.626  34.526  1.00  0.00     0.135 A 
ATOM     96  F   UNL A   1      46.872  26.259  32.793  1.00  0.00    -0.206 F 
ATOM     97  C   UNL A   1      46.327  24.703  34.380  1.00  0.00     0.059 A 
ATOM     98  C   UNL A   1      44.136  24.543  35.314  1.00  0.00     0.059 A 
ATOM     99  F   UNL A   1      42.472  25.945  34.706  1.00  0.00    -0.206 F 
ATOM    100  C   UNL A   1      45.426  24.077  35.225  1.00  0.00     0.060 A 
BRANCH 100 101
ATOM    101  S   UNL A   1      45.945  22.629  36.144  1.00  0.00     0.124 S 
ATOM    102  O   UNL A   1      45.134  21.584  35.527  1.00  0.00    -0.237 OA
ATOM    103  O   UNL A   1      47.374  22.583  35.846  1.00  0.00    -0.237 OA
ATOM    104  O   UNL A   1      45.604  22.955  37.524  1.00  0.00    -0.744 OA
ENDBRANCH 100 101
ENDBRANCH  68  93
ENDBRANCH  42  43
ENDBRANCH  35  37
ENDBRANCH  34  35
ENDBRANCH  33  34
ENDBRANCH   1  33
TORSDOF 19
ENDMDL
MODEL 2
REMARK VINA RESULT:     -12.8      1.740      2.227
REMARK SMILES Cc1ccccc1C(=O)Nc1ccc(OCC(=O)OCCOC(=O)c2ccc(-c3c4nc(c(-c5c(F)cc(S(=O)(=O)[O-])cc5F)c5ccc([nH]5)c(-c5c(F)cc(S(=O)(=O)[O-])cc5F)c5nc(c(-c6c(F)cc(S(=O)(=O)[O-])cc6F)c6ccc3[nH]6)C=C5)C=C4)cc2)c(-c2nc3ccccc3s2)c1
REMARK SMILES IDX 20 1 19 2 17 3 18 4 16 5 15 6 14 7 11 8 12 9 101 10 13 11
REMARK SMILES IDX 91 12 10 13 8 14 9 15 7 17 1 18 2 19 3 20 4 21 6 22 5 23
REMARK SMILES IDX 92 24 93 25 100 26 94 27 99 28 95 29 98 30 96 31 97 32 21 33
REMARK SMILES IDX 22 34 23 35 24 36 25 37 26 38 90 39 27 40 89 41 28 42 29 43
REMARK SMILES IDX 30 44 83 45 31 46 88 47 82 48 84 49 32 50 87 51 81 52 80 53
REMARK SMILES IDX 33 55 67 56 46 57 66 58 47 59 50 60 65 61 85 62 48 63 49 64
REMARK SMILES IDX 64 66 86 67 51 68 34 69 35 70 44 71 36 72 37 73 43 74 45 75
REMARK SMILES IDX 38 76 39 77 40 78 41 79 42 80 68 81 69 82 78 83 70 84 71 85
REMARK SMILES IDX 77 86 79 87 72 88 73 89 74 90 75 91 76 92 52 93 53 94 62 95
REMARK SMILES IDX 54 96 55 97 61 98 63 99 56 100 57 101 58 102 59 103 60 104
REMARK H PARENT 10 16 84 54 50 65
REMARK Flexibility Score: inf
ROOT
ATOM      1  C   UNL A   1      32.802  33.485  27.754  1.00  0.00     0.274 C 
ENDROOT
BRANCH   1   2
ATOM      2  O   UNL A   1      32.920  32.095  27.401  1.00  0.00    -0.460 OA
BRANCH   2   3
ATOM      3  C   UNL A   1      31.801  31.524  26.658  1.00  0.00     0.344 C 
ATOM      4  O   UNL A   1      31.102  32.526  26.328  1.00  0.00    -0.248 OA
BRANCH   3   5
ATOM      5  C   UNL A   1      31.597  29.405  26.174  1.00  0.00     0.352 C 
BRANCH   5   6
ATOM      6  O   UNL A   1      32.312  28.331  25.172  1.00  0.00    -0.481 OA
BRANCH   6   7
ATOM      7  C   UNL A   1      31.983  26.978  25.135  1.00  0.00     0.130 A 
ATOM      8  C   UNL A   1      31.886  24.189  24.609  1.00  0.00     0.042 A 
ATOM      9  C   UNL A   1      32.506  24.678  25.763  1.00  0.00     0.030 A 
ATOM     10  C   UNL A   1      31.089  25.077  23.888  1.00  0.00     0.041 A 
ATOM     11  C   UNL A   1      32.626  26.068  25.983  1.00  0.00     0.049 A 
ATOM     12  C   UNL A   1      31.025  26.472  24.212  1.00  0.00     0.055 A 
BRANCH   8  13
ATOM     13  N   UNL A   1      31.992  22.807  24.314  1.00  0.00    -0.322 N 
ATOM     14  C   UNL A   1      33.038  21.984  23.904  1.00  0.00     0.255 C 
ATOM     15  O   UNL A   1      32.736  20.920  23.348  1.00  0.00    -0.269 OA
ATOM     16  H   UNL A   1      31.141  22.324  24.425  1.00  0.00     0.170 HD
BRANCH  14  17
ATOM     17  C   UNL A   1      34.485  22.161  24.251  1.00  0.00     0.043 A 
ATOM     18  C   UNL A   1      34.286  21.133  26.589  1.00  0.00     0.045 C 
ATOM     19  C   UNL A   1      35.067  21.741  25.463  1.00  0.00    -0.038 A 
ATOM     20  C   UNL A   1      36.441  21.994  25.683  1.00  0.00     0.004 A 
ATOM     21  C   UNL A   1      37.242  22.590  24.716  1.00  0.00     0.000 A 
ATOM     22  C   UNL A   1      35.351  22.590  23.221  1.00  0.00     0.014 A 
ATOM     23  C   UNL A   1      36.714  22.819  23.456  1.00  0.00     0.001 A 
ENDBRANCH  14  17
ENDBRANCH   8  13
BRANCH  12  24
ATOM     24  C   UNL A   1      30.055  27.285  23.422  1.00  0.00     0.128 A 
ATOM     25  N   UNL A   1      30.407  28.043  22.398  1.00  0.00    -0.236 NA
ATOM     26  S   UNL A   1      28.343  27.337  23.697  1.00  0.00    -0.114 S 
ATOM     27  C   UNL A   1      29.511  29.089  22.290  1.00  0.00     0.082 A 
ATOM     28  C   UNL A   1      28.296  28.897  22.947  1.00  0.00     0.055 A 
ATOM     29  C   UNL A   1      29.758  30.327  21.662  1.00  0.00     0.030 A 
ATOM     30  C   UNL A   1      27.310  29.901  22.993  1.00  0.00     0.021 A 
ATOM     31  C   UNL A   1      28.828  31.364  21.778  1.00  0.00     0.002 A 
ATOM     32  C   UNL A   1      27.617  31.151  22.431  1.00  0.00     0.002 A 
ENDBRANCH  12  24
ENDBRANCH   6   7
ENDBRANCH   5   6
ENDBRANCH   3   5
ENDBRANCH   2   3
ENDBRANCH   1   2
BRANCH   1  33
ATOM     33  C   UNL A   1      34.084  33.933  28.452  1.00  0.00     0.275 C 
BRANCH  33  34
ATOM     34  O   UNL A   1      34.258  33.460  29.804  1.00  0.00    -0.458 OA
BRANCH  34  35
ATOM     35  C   UNL A   1      35.335  32.854  30.342  1.00  0.00     0.338 C 
ATOM     36  O   UNL A   1      36.107  33.380  31.121  1.00  0.00    -0.246 OA
BRANCH  35  37
ATOM     37  C   UNL A   1      35.836  31.654  29.700  1.00  0.00     0.060 A 
ATOM     38  C   UNL A   1      35.925  30.378  30.985  1.00  0.00     0.016 A 
ATOM     39  C   UNL A   1      37.025  31.674  28.366  1.00  0.00     0.016 A 
ATOM     40  C   UNL A   1      37.297  29.232  31.039  1.00  0.00     0.010 A 
ATOM     41  C   UNL A   1      38.410  30.498  28.436  1.00  0.00     0.010 A 
ATOM     42  C   UNL A   1      38.598  29.394  29.855  1.00  0.00    -0.014 A 
BRANCH  42  43
ATOM     43  C   UNL A   1      39.981  29.327  30.367  1.00  0.00     0.031 A 
ATOM     44  C   UNL A   1      40.773  28.229  29.829  1.00  0.00     0.074 A 
ATOM     45  C   UNL A   1      40.554  30.327  31.108  1.00  0.00     0.049 A 
ATOM     46  N   UNL A   1      41.888  27.865  30.334  1.00  0.00    -0.248 NA
ATOM     47  C   UNL A   1      40.340  27.360  28.736  1.00  0.00     0.031 C 
ATOM     48  C   UNL A   1      41.968  30.697  31.206  1.00  0.00     0.029 A 
ATOM     49  N   UNL A   1      39.968  31.238  31.985  1.00  0.00    -0.354 N 
ATOM     50  C   UNL A   1      42.509  27.106  29.378  1.00  0.00     0.074 A 
ATOM     51  C   UNL A   1      41.444  26.635  28.539  1.00  0.00     0.031 C 
ATOM     52  C   UNL A   1      42.154  31.573  32.212  1.00  0.00     0.029 A 
ATOM     53  C   UNL A   1      40.893  31.754  32.902  1.00  0.00     0.049 A 
ATOM     54  H   UNL A   1      39.017  31.490  31.963  1.00  0.00     0.167 HD
ATOM     55  C   UNL A   1      43.865  27.177  29.334  1.00  0.00     0.037 A 
ATOM     56  C   UNL A   1      40.715  31.567  34.247  1.00  0.00     0.037 A 
ATOM     57  C   UNL A   1      44.369  27.861  30.541  1.00  0.00     0.049 A 
ATOM     58  C   UNL A   1      41.571  30.446  34.786  1.00  0.00     0.074 A 
ATOM     59  C   UNL A   1      44.982  29.071  30.811  1.00  0.00     0.029 A 
ATOM     60  N   UNL A   1      43.927  27.395  31.774  1.00  0.00    -0.354 N 
ATOM     61  N   UNL A   1      42.404  29.751  34.059  1.00  0.00    -0.248 NA
ATOM     62  C   UNL A   1      41.567  30.003  36.170  1.00  0.00     0.031 C 
ATOM     63  C   UNL A   1      44.887  29.310  32.222  1.00  0.00     0.029 A 
ATOM     64  C   UNL A   1      44.250  28.233  32.818  1.00  0.00     0.049 A 
ATOM     65  H   UNL A   1      43.434  26.551  31.890  1.00  0.00     0.167 HD
ATOM     66  C   UNL A   1      42.994  28.755  34.793  1.00  0.00     0.074 A 
ATOM     67  C   UNL A   1      42.436  28.977  36.119  1.00  0.00     0.031 C 
ATOM     68  C   UNL A   1      43.854  27.861  34.190  1.00  0.00     0.037 A 
BRANCH  55  69
ATOM     69  C   UNL A   1      44.720  26.806  28.141  1.00  0.00     0.058 A 
ATOM     70  C   UNL A   1      45.528  25.653  28.209  1.00  0.00     0.135 A 
ATOM     71  C   UNL A   1      44.859  27.544  26.940  1.00  0.00     0.135 A 
ATOM     72  F   UNL A   1      45.531  24.865  29.294  1.00  0.00    -0.206 F 
ATOM     73  C   UNL A   1      46.382  25.257  27.180  1.00  0.00     0.059 A 
ATOM     74  C   UNL A   1      45.680  27.149  25.882  1.00  0.00     0.059 A 
ATOM     75  F   UNL A   1      44.243  28.711  26.729  1.00  0.00    -0.206 F 
ATOM     76  C   UNL A   1      46.440  26.002  26.011  1.00  0.00     0.060 A 
BRANCH  76  77
ATOM     77  S   UNL A   1      47.506  25.442  24.676  1.00  0.00     0.124 S 
ATOM     78  O   UNL A   1      46.867  24.189  24.285  1.00  0.00    -0.237 OA
ATOM     79  O   UNL A   1      47.399  26.539  23.722  1.00  0.00    -0.237 OA
ATOM     80  O   UNL A   1      48.810  25.299  25.318  1.00  0.00    -0.744 OA
ENDBRANCH  76  77
ENDBRANCH  55  69
BRANCH  56  81
ATOM     81  C   UNL A   1      39.371  32.007  34.744  1.00  0.00     0.058 A 
ATOM     82  C   UNL A   1      38.459  30.991  35.084  1.00  0.00     0.135 A 
ATOM     83  C   UNL A   1      39.318  33.171  35.507  1.00  0.00     0.135 A 
ATOM     84  F   UNL A   1      38.324  29.920  34.288  1.00  0.00    -0.206 F 
ATOM     85  C   UNL A   1      37.772  30.995  36.296  1.00  0.00     0.059 A 
ATOM     86  C   UNL A   1      38.715  33.148  36.767  1.00  0.00     0.059 A 
ATOM     87  F   UNL A   1      40.044  34.240  35.143  1.00  0.00    -0.206 F 
ATOM     88  C   UNL A   1      38.004  32.031  37.186  1.00  0.00     0.060 A 
BRANCH  88  89
ATOM     89  S   UNL A   1      37.438  31.813  38.892  1.00  0.00     0.124 S 
ATOM     90  O   UNL A   1      37.182  30.376  38.941  1.00  0.00    -0.237 OA
ATOM     91  O   UNL A   1      38.601  32.274  39.645  1.00  0.00    -0.237 OA
ATOM     92  O   UNL A   1      36.251  32.644  38.973  1.00  0.00    -0.744 OA
ENDBRANCH  88  89
ENDBRANCH  56  81
BRANCH  68  93
ATOM     93  C   UNL A   1      44.433  26.556  34.775  1.00  0.00     0.058 A 
ATOM     94  C   UNL A   1      45.796  26.282  34.961  1.00  0.00     0.135 A 
ATOM     95  C   UNL A   1      43.587  25.474  35.171  1.00  0.00     0.135 A 
ATOM     96  F   UNL A   1      46.755  27.136  34.610  1.00  0.00    -0.206 F 
ATOM     97  C   UNL A   1      46.275  25.078  35.489  1.00  0.00     0.059 A 
ATOM     98  C   UNL A   1      44.039  24.268  35.700  1.00  0.00     0.059 A 
ATOM     99  F   UNL A   1      42.256  25.505  35.071  1.00  0.00    -0.206 F 
ATOM    100  C   UNL A   1      45.392  24.072  35.844  1.00  0.00     0.060 A 
BRANCH 100 101
ATOM    101  S   UNL A   1      46.036  22.507  36.431  1.00  0.00     0.124 S 
ATOM    102  O   UNL A   1      45.702  22.567  37.851  1.00  0.00    -0.237 OA
ATOM    103  O   UNL A   1      45.267  21.551  35.638  1.00  0.00    -0.237 OA
ATOM    104  O   UNL A   1      47.459  22.578  36.118  1.00  0.00    -0.744 OA
ENDBRANCH 100 101
ENDBRANCH  68  93
ENDBRANCH  42  43
ENDBRANCH  35  37
ENDBRANCH  34  35
ENDBRANCH  33  34
ENDBRANCH   1  33
TORSDOF 19
ENDMDL
MODEL 3
REMARK VINA RESULT:     -12.6      4.016     11.046
REMARK SMILES Cc1ccccc1C(=O)Nc1ccc(OCC(=O)OCCOC(=O)c2ccc(-c3c4nc(c(-c5c(F)cc(S(=O)(=O)[O-])cc5F)c5ccc([nH]5)c(-c5c(F)cc(S(=O)(=O)[O-])cc5F)c5nc(c(-c6c(F)cc(S(=O)(=O)[O-])cc6F)c6ccc3[nH]6)C=C5)C=C4)cc2)c(-c2nc3ccccc3s2)c1
REMARK SMILES IDX 20 1 19 2 17 3 18 4 16 5 15 6 14 7 11 8 12 9 101 10 13 11
REMARK SMILES IDX 91 12 10 13 8 14 9 15 7 17 1 18 2 19 3 20 4 21 6 22 5 23
REMARK SMILES IDX 92 24 93 25 100 26 94 27 99 28 95 29 98 30 96 31 97 32 21 33
REMARK SMILES IDX 22 34 23 35 24 36 25 37 26 38 90 39 27 40 89 41 28 42 29 43
REMARK SMILES IDX 30 44 83 45 31 46 88 47 82 48 84 49 32 50 87 51 81 52 80 53
REMARK SMILES IDX 33 55 67 56 46 57 66 58 47 59 50 60 65 61 85 62 48 63 49 64
REMARK SMILES IDX 64 66 86 67 51 68 34 69 35 70 44 71 36 72 37 73 43 74 45 75
REMARK SMILES IDX 38 76 39 77 40 78 41 79 42 80 68 81 69 82 78 83 70 84 71 85
REMARK SMILES IDX 77 86 79 87 72 88 73 89 74 90 75 91 76 92 52 93 53 94 62 95
REMARK SMILES IDX 54 96 55 97 61 98 63 99 56 100 57 101 58 102 59 103 60 104
REMARK H PARENT 10 16 84 54 50 65
REMARK Flexibility Score: inf
ROOT
ATOM      1  C   UNL A   1      39.577  20.400  25.389  1.00  0.00     0.274 C 
ENDROOT
BRANCH   1   2
ATOM      2  O   UNL A   1      38.758  19.221  25.296  1.00  0.00    -0.460 OA
BRANCH   2   3
ATOM      3  C   UNL A   1      37.339  19.445  25.034  1.00  0.00     0.344 C 
ATOM      4  O   UNL A   1      36.845  18.281  24.976  1.00  0.00    -0.248 OA
BRANCH   3   5
ATOM      5  C   UNL A   1      36.400  21.413  24.943  1.00  0.00     0.352 C 
BRANCH   5   6
ATOM      6  O   UNL A   1      35.468  22.249  23.893  1.00  0.00    -0.481 OA
BRANCH   6   7
ATOM      7  C   UNL A   1      34.419  23.076  24.286  1.00  0.00     0.130 A 
ATOM      8  C   UNL A   1      32.604  24.705  25.742  1.00  0.00     0.042 A 
ATOM      9  C   UNL A   1      33.642  25.277  24.999  1.00  0.00     0.030 A 
ATOM     10  C   UNL A   1      32.327  23.357  25.517  1.00  0.00     0.041 A 
ATOM     11  C   UNL A   1      34.592  24.464  24.344  1.00  0.00     0.049 A 
ATOM     12  C   UNL A   1      33.161  22.540  24.684  1.00  0.00     0.055 A 
BRANCH   8  13
ATOM     13  N   UNL A   1      31.817  25.543  26.569  1.00  0.00    -0.322 N 
ATOM     14  C   UNL A   1      31.344  26.848  26.450  1.00  0.00     0.255 C 
ATOM     15  O   UNL A   1      31.029  27.433  27.495  1.00  0.00    -0.269 OA
ATOM     16  H   UNL A   1      31.543  25.109  27.409  1.00  0.00     0.170 HD
BRANCH  14  17
ATOM     17  C   UNL A   1      30.986  27.541  25.171  1.00  0.00     0.043 A 
ATOM     18  C   UNL A   1      33.040  29.072  25.159  1.00  0.00     0.045 C 
ATOM     19  C   UNL A   1      31.777  28.533  24.558  1.00  0.00    -0.038 A 
ATOM     20  C   UNL A   1      31.314  29.134  23.364  1.00  0.00     0.004 A 
ATOM     21  C   UNL A   1      30.133  28.732  22.750  1.00  0.00     0.000 A 
ATOM     22  C   UNL A   1      29.897  27.024  24.435  1.00  0.00     0.014 A 
ATOM     23  C   UNL A   1      29.464  27.624  23.244  1.00  0.00     0.001 A 
ENDBRANCH  14  17
ENDBRANCH   8  13
BRANCH  12  24
ATOM     24  C   UNL A   1      32.690  21.144  24.451  1.00  0.00     0.128 A 
ATOM     25  N   UNL A   1      32.421  20.296  25.427  1.00  0.00    -0.236 NA
ATOM     26  S   UNL A   1      32.396  20.440  22.893  1.00  0.00    -0.114 S 
ATOM     27  C   UNL A   1      32.629  19.009  24.969  1.00  0.00     0.082 A 
ATOM     28  C   UNL A   1      32.654  18.873  23.581  1.00  0.00     0.055 A 
ATOM     29  C   UNL A   1      32.897  17.880  25.770  1.00  0.00     0.030 A 
ATOM     30  C   UNL A   1      32.931  17.639  22.962  1.00  0.00     0.021 A 
ATOM     31  C   UNL A   1      33.264  16.672  25.169  1.00  0.00     0.002 A 
ATOM     32  C   UNL A   1      33.275  16.553  23.782  1.00  0.00     0.002 A 
ENDBRANCH  12  24
ENDBRANCH   6   7
ENDBRANCH   5   6
ENDBRANCH   3   5
ENDBRANCH   2   3
ENDBRANCH   1   2
BRANCH   1  33
ATOM     33  C   UNL A   1      40.670  20.167  26.431  1.00  0.00     0.275 C 
BRANCH  33  34
ATOM     34  O   UNL A   1      40.853  21.226  27.393  1.00  0.00    -0.458 OA
BRANCH  34  35
ATOM     35  C   UNL A   1      41.431  22.430  27.205  1.00  0.00     0.338 C 
ATOM     36  O   UNL A   1      42.550  22.725  27.578  1.00  0.00    -0.246 OA
BRANCH  35  37
ATOM     37  C   UNL A   1      40.576  23.557  26.888  1.00  0.00     0.060 A 
ATOM     38  C   UNL A   1      41.561  24.681  25.862  1.00  0.00     0.016 A 
ATOM     39  C   UNL A   1      39.343  24.206  28.008  1.00  0.00     0.016 A 
ATOM     40  C   UNL A   1      41.444  26.453  26.079  1.00  0.00     0.010 A 
ATOM     41  C   UNL A   1      39.236  26.009  28.211  1.00  0.00     0.010 A 
ATOM     42  C   UNL A   1      40.394  27.095  27.346  1.00  0.00    -0.014 A 
BRANCH  42  43
ATOM     43  C   UNL A   1      40.955  28.156  28.205  1.00  0.00     0.031 A 
ATOM     44  C   UNL A   1      40.066  29.290  28.425  1.00  0.00     0.074 A 
ATOM     45  C   UNL A   1      42.113  28.007  28.921  1.00  0.00     0.049 A 
ATOM     46  N   UNL A   1      40.463  30.398  28.921  1.00  0.00    -0.248 NA
ATOM     47  C   UNL A   1      38.665  29.330  28.009  1.00  0.00     0.031 C 
ATOM     48  C   UNL A   1      42.502  28.652  30.178  1.00  0.00     0.029 A 
ATOM     49  N   UNL A   1      43.242  27.237  28.645  1.00  0.00    -0.354 N 
ATOM     50  C   UNL A   1      39.335  31.056  29.332  1.00  0.00     0.074 A 
ATOM     51  C   UNL A   1      38.275  30.487  28.550  1.00  0.00     0.031 C 
ATOM     52  C   UNL A   1      43.805  28.427  30.437  1.00  0.00     0.029 A 
ATOM     53  C   UNL A   1      44.377  27.709  29.316  1.00  0.00     0.049 A 
ATOM     54  H   UNL A   1      43.242  26.454  28.049  1.00  0.00     0.167 HD
ATOM     55  C   UNL A   1      39.458  31.839  30.437  1.00  0.00     0.037 A 
ATOM     56  C   UNL A   1      45.477  28.127  28.613  1.00  0.00     0.037 A 
ATOM     57  C   UNL A   1      40.886  32.011  30.770  1.00  0.00     0.049 A 
ATOM     58  C   UNL A   1      45.544  29.630  28.497  1.00  0.00     0.074 A 
ATOM     59  C   UNL A   1      41.721  31.596  31.791  1.00  0.00     0.029 A 
ATOM     60  N   UNL A   1      41.735  32.432  29.754  1.00  0.00    -0.354 N 
ATOM     61  N   UNL A   1      44.668  30.441  29.027  1.00  0.00    -0.248 NA
ATOM     62  C   UNL A   1      46.580  30.352  27.780  1.00  0.00     0.031 C 
ATOM     63  C   UNL A   1      43.075  31.776  31.355  1.00  0.00     0.029 A 
ATOM     64  C   UNL A   1      43.068  32.332  30.085  1.00  0.00     0.049 A 
ATOM     65  H   UNL A   1      41.417  32.769  28.885  1.00  0.00     0.167 HD
ATOM     66  C   UNL A   1      44.938  31.746  28.703  1.00  0.00     0.074 A 
ATOM     67  C   UNL A   1      46.165  31.624  27.928  1.00  0.00     0.031 C 
ATOM     68  C   UNL A   1      44.088  32.755  29.106  1.00  0.00     0.037 A 
BRANCH  55  69
ATOM     69  C   UNL A   1      38.313  32.294  31.316  1.00  0.00     0.058 A 
ATOM     70  C   UNL A   1      37.542  33.405  30.917  1.00  0.00     0.135 A 
ATOM     71  C   UNL A   1      37.949  31.753  32.574  1.00  0.00     0.135 A 
ATOM     72  F   UNL A   1      37.783  34.045  29.765  1.00  0.00    -0.206 F 
ATOM     73  C   UNL A   1      36.499  33.924  31.684  1.00  0.00     0.059 A 
ATOM     74  C   UNL A   1      36.886  32.234  33.341  1.00  0.00     0.059 A 
ATOM     75  F   UNL A   1      38.621  30.757  33.158  1.00  0.00    -0.206 F 
ATOM     76  C   UNL A   1      36.165  33.322  32.888  1.00  0.00     0.060 A 
BRANCH  76  77
ATOM     77  S   UNL A   1      34.781  33.975  33.831  1.00  0.00     0.124 S 
ATOM     78  O   UNL A   1      33.669  33.171  33.331  1.00  0.00    -0.237 OA
ATOM     79  O   UNL A   1      35.196  33.708  35.203  1.00  0.00    -0.237 OA
ATOM     80  O   UNL A   1      34.745  35.385  33.453  1.00  0.00    -0.744 OA
ENDBRANCH  76  77
ENDBRANCH  55  69
BRANCH  56  81
ATOM     81  C   UNL A   1      45.985  27.113  27.632  1.00  0.00     0.058 A 
ATOM     82  C   UNL A   1      45.662  27.326  26.280  1.00  0.00     0.135 A 
ATOM     83  C   UNL A   1      47.224  26.533  27.892  1.00  0.00     0.135 A 
ATOM     84  F   UNL A   1      44.422  27.709  25.940  1.00  0.00    -0.206 F 
ATOM     85  C   UNL A   1      46.627  27.273  25.277  1.00  0.00     0.059 A 
ATOM     86  C   UNL A   1      48.225  26.570  26.918  1.00  0.00     0.059 A 
ATOM     87  F   UNL A   1      47.534  26.155  29.142  1.00  0.00    -0.206 F 
ATOM     88  C   UNL A   1      47.939  27.007  25.632  1.00  0.00     0.060 A 
BRANCH  88  89
ATOM     89  S   UNL A   1      49.225  27.349  24.404  1.00  0.00     0.124 S 
ATOM     90  O   UNL A   1      48.439  27.825  23.270  1.00  0.00    -0.237 OA
ATOM     91  O   UNL A   1      50.022  28.360  25.092  1.00  0.00    -0.237 OA
ATOM     92  O   UNL A   1      49.863  26.060  24.202  1.00  0.00    -0.744 OA
ENDBRANCH  88  89
ENDBRANCH  56  81
BRANCH  68  93
ATOM     93  C   UNL A   1      44.088  34.232  28.662  1.00  0.00     0.058 A 
ATOM     94  C   UNL A   1      43.744  34.698  27.384  1.00  0.00     0.135 A 
ATOM     95  C   UNL A   1      44.474  35.281  29.553  1.00  0.00     0.135 A 
ATOM     96  F   UNL A   1      43.405  33.882  26.389  1.00  0.00    -0.206 F 
ATOM     97  C   UNL A   1      43.767  36.050  27.025  1.00  0.00     0.059 A 
ATOM     98  C   UNL A   1      44.502  36.632  29.221  1.00  0.00     0.059 A 
ATOM     99  F   UNL A   1      44.855  35.072  30.816  1.00  0.00    -0.206 F 
ATOM    100  C   UNL A   1      44.159  37.009  27.944  1.00  0.00     0.060 A 
BRANCH 100 101
ATOM    101  S   UNL A   1      44.267  38.723  27.432  1.00  0.00     0.124 S 
ATOM    102  O   UNL A   1      44.217  39.416  28.715  1.00  0.00    -0.237 OA
ATOM    103  O   UNL A   1      45.556  38.748  26.746  1.00  0.00    -0.237 OA
ATOM    104  O   UNL A   1      43.100  38.902  26.576  1.00  0.00    -0.744 OA
ENDBRANCH 100 101
ENDBRANCH  68  93
ENDBRANCH  42  43
ENDBRANCH  35  37
ENDBRANCH  34  35
ENDBRANCH  33  34
ENDBRANCH   1  33
TORSDOF 19
ENDMDL
