MODEL 1
REMARK VINA RESULT:     -10.9      0.000      0.000
REMARK SMILES O=C(OCCOC(=O)c1ccc(C2SCCCS2)cc1)c1ccc(-c2c3nc(c(-c4c(F)cc(S(=O)(=O)[O-])cc4F)c4ccc([nH]4)c(-c4c(F)cc(S(=O)(=O)[O-])cc4F)c4nc(c(-c5c(F)cc(S(=O)(=O)[O-])cc5F)c5ccc2[nH]5)C=C4)C=C3)cc1
REMARK SMILES IDX 4 1 3 2 2 3 1 4 21 5 22 6 86 7 23 8 85 9 24 10 25 11 26 12
REMARK SMILES IDX 79 13 27 14 84 15 78 16 80 17 28 18 83 19 77 20 76 21 29 23
REMARK SMILES IDX 63 24 42 25 62 26 43 27 46 28 61 29 81 30 44 31 45 32 60 34
REMARK SMILES IDX 82 35 47 36 30 37 31 38 40 39 32 40 33 41 39 42 41 43 34 44
REMARK SMILES IDX 35 45 36 46 37 47 38 48 64 49 65 50 74 51 66 52 67 53 73 54
REMARK SMILES IDX 75 55 68 56 69 57 70 58 71 59 72 60 48 61 49 62 58 63 50 64
REMARK SMILES IDX 51 65 57 66 59 67 52 68 53 69 54 70 55 71 56 72 5 73 6 74
REMARK SMILES IDX 7 75 8 76 9 77 10 78 20 79 11 80 19 81 12 82 13 83 14 84
REMARK SMILES IDX 18 85 15 86 17 87 16 88
REMARK H PARENT 80 22 46 33
REMARK Flexibility Score: inf
ROOT
ATOM      1  C   UNL A   1      42.525  23.070  27.141  1.00  0.00     0.275 C 
ENDROOT
BRANCH   1   2
ATOM      2  O   UNL A   1      42.012  23.930  26.106  1.00  0.00    -0.458 OA
BRANCH   2   3
ATOM      3  C   UNL A   1      41.746  25.259  26.107  1.00  0.00     0.338 C 
ATOM      4  O   UNL A   1      41.807  25.864  25.037  1.00  0.00    -0.246 OA
BRANCH   3   5
ATOM      5  C   UNL A   1      41.485  26.067  27.342  1.00  0.00     0.060 A 
ATOM      6  C   UNL A   1      40.381  25.937  28.185  1.00  0.00     0.016 A 
ATOM      7  C   UNL A   1      42.430  27.067  27.650  1.00  0.00     0.016 A 
ATOM      8  C   UNL A   1      40.244  26.736  29.325  1.00  0.00     0.010 A 
ATOM      9  C   UNL A   1      42.301  27.868  28.790  1.00  0.00     0.010 A 
ATOM     10  C   UNL A   1      41.195  27.711  29.631  1.00  0.00    -0.014 A 
BRANCH  10  11
ATOM     11  C   UNL A   1      40.925  28.660  30.735  1.00  0.00     0.031 A 
ATOM     12  C   UNL A   1      41.692  28.496  32.018  1.00  0.00     0.074 A 
ATOM     13  C   UNL A   1      40.080  29.694  30.566  1.00  0.00     0.049 A 
ATOM     14  N   UNL A   1      41.669  29.239  33.092  1.00  0.00    -0.248 NA
ATOM     15  C   UNL A   1      42.642  27.371  32.085  1.00  0.00     0.031 C 
ATOM     16  C   UNL A   1      39.346  30.003  29.337  1.00  0.00     0.029 A 
ATOM     17  N   UNL A   1      39.677  30.671  31.440  1.00  0.00    -0.354 N 
ATOM     18  C   UNL A   1      42.647  28.718  33.929  1.00  0.00     0.074 A 
ATOM     19  C   UNL A   1      43.182  27.541  33.281  1.00  0.00     0.031 C 
ATOM     20  C   UNL A   1      38.514  31.037  29.565  1.00  0.00     0.029 A 
ATOM     21  C   UNL A   1      38.680  31.478  30.945  1.00  0.00     0.049 A 
ATOM     22  H   UNL A   1      40.065  30.783  32.338  1.00  0.00     0.167 HD
ATOM     23  C   UNL A   1      43.096  29.207  35.109  1.00  0.00     0.037 A 
ATOM     24  C   UNL A   1      37.967  32.442  31.557  1.00  0.00     0.037 A 
ATOM     25  C   UNL A   1      42.519  30.347  35.768  1.00  0.00     0.049 A 
ATOM     26  C   UNL A   1      38.340  32.842  32.952  1.00  0.00     0.074 A 
ATOM     27  C   UNL A   1      42.875  30.920  36.975  1.00  0.00     0.029 A 
ATOM     28  N   UNL A   1      41.448  31.079  35.277  1.00  0.00    -0.354 N 
ATOM     29  N   UNL A   1      39.271  32.344  33.728  1.00  0.00    -0.248 NA
ATOM     30  C   UNL A   1      37.597  33.967  33.531  1.00  0.00     0.031 C 
ATOM     31  C   UNL A   1      41.992  31.976  37.231  1.00  0.00     0.029 A 
ATOM     32  C   UNL A   1      41.116  32.088  36.162  1.00  0.00     0.049 A 
ATOM     33  H   UNL A   1      40.990  30.904  34.422  1.00  0.00     0.167 HD
ATOM     34  C   UNL A   1      39.258  33.122  34.876  1.00  0.00     0.074 A 
ATOM     35  C   UNL A   1      38.211  34.113  34.698  1.00  0.00     0.031 C 
ATOM     36  C   UNL A   1      40.059  33.047  35.966  1.00  0.00     0.037 A 
BRANCH  23  37
ATOM     37  C   UNL A   1      44.272  28.514  35.735  1.00  0.00     0.058 A 
ATOM     38  C   UNL A   1      44.089  27.453  36.639  1.00  0.00     0.135 A 
ATOM     39  C   UNL A   1      45.588  28.897  35.433  1.00  0.00     0.135 A 
ATOM     40  F   UNL A   1      42.851  27.060  36.979  1.00  0.00    -0.206 F 
ATOM     41  C   UNL A   1      45.169  26.813  37.240  1.00  0.00     0.059 A 
ATOM     42  C   UNL A   1      46.684  28.257  36.007  1.00  0.00     0.059 A 
ATOM     43  F   UNL A   1      45.818  29.908  34.582  1.00  0.00    -0.206 F 
ATOM     44  C   UNL A   1      46.463  27.224  36.919  1.00  0.00     0.060 A 
BRANCH  44  45
ATOM     45  S   UNL A   1      47.851  26.383  37.709  1.00  0.00     0.124 S 
ATOM     46  O   UNL A   1      47.862  25.109  36.999  1.00  0.00    -0.237 OA
ATOM     47  O   UNL A   1      48.966  27.280  37.418  1.00  0.00    -0.237 OA
ATOM     48  O   UNL A   1      47.454  26.318  39.113  1.00  0.00    -0.744 OA
ENDBRANCH  44  45
ENDBRANCH  23  37
BRANCH  24  49
ATOM     49  C   UNL A   1      36.797  33.060  30.890  1.00  0.00     0.058 A 
ATOM     50  C   UNL A   1      35.483  32.649  31.143  1.00  0.00     0.135 A 
ATOM     51  C   UNL A   1      36.998  34.075  29.945  1.00  0.00     0.135 A 
ATOM     52  F   UNL A   1      35.248  31.653  32.009  1.00  0.00    -0.206 F 
ATOM     53  C   UNL A   1      34.403  33.243  30.495  1.00  0.00     0.059 A 
ATOM     54  C   UNL A   1      35.937  34.701  29.304  1.00  0.00     0.059 A 
ATOM     55  F   UNL A   1      38.246  34.455  29.634  1.00  0.00    -0.206 F 
ATOM     56  C   UNL A   1      34.640  34.274  29.584  1.00  0.00     0.060 A 
BRANCH  56  57
ATOM     57  S   UNL A   1      33.244  35.113  28.799  1.00  0.00     0.124 S 
ATOM     58  O   UNL A   1      32.466  35.532  29.957  1.00  0.00    -0.237 OA
ATOM     59  O   UNL A   1      33.897  36.179  28.045  1.00  0.00    -0.237 OA
ATOM     60  O   UNL A   1      32.653  34.055  27.983  1.00  0.00    -0.744 OA
ENDBRANCH  56  57
ENDBRANCH  24  49
BRANCH  36  61
ATOM     61  C   UNL A   1      39.858  34.092  37.022  1.00  0.00     0.058 A 
ATOM     62  C   UNL A   1      39.063  33.858  38.151  1.00  0.00     0.135 A 
ATOM     63  C   UNL A   1      40.488  35.341  36.900  1.00  0.00     0.135 A 
ATOM     64  F   UNL A   1      38.429  32.684  38.301  1.00  0.00    -0.206 F 
ATOM     65  C   UNL A   1      38.875  34.840  39.116  1.00  0.00     0.059 A 
ATOM     66  C   UNL A   1      40.336  36.327  37.866  1.00  0.00     0.059 A 
ATOM     67  F   UNL A   1      41.262  35.608  35.835  1.00  0.00    -0.206 F 
ATOM     68  C   UNL A   1      39.514  36.072  38.964  1.00  0.00     0.060 A 
BRANCH  68  69
ATOM     69  S   UNL A   1      39.278  37.335  40.229  1.00  0.00     0.124 S 
ATOM     70  O   UNL A   1      38.610  36.575  41.279  1.00  0.00    -0.237 OA
ATOM     71  O   UNL A   1      40.647  37.750  40.519  1.00  0.00    -0.237 OA
ATOM     72  O   UNL A   1      38.455  38.338  39.557  1.00  0.00    -0.744 OA
ENDBRANCH  68  69
ENDBRANCH  36  61
ENDBRANCH  10  11
ENDBRANCH   3   5
ENDBRANCH   2   3
ENDBRANCH   1   2
BRANCH   1  73
ATOM     73  C   UNL A   1      41.496  22.134  27.778  1.00  0.00     0.275 C 
BRANCH  73  74
ATOM     74  O   UNL A   1      40.153  22.409  27.366  1.00  0.00    -0.458 OA
BRANCH  74  75
ATOM     75  C   UNL A   1      39.675  21.583  26.398  1.00  0.00     0.338 C 
ATOM     76  O   UNL A   1      40.152  20.516  26.050  1.00  0.00    -0.246 OA
BRANCH  75  77
ATOM     77  C   UNL A   1      38.389  22.107  25.894  1.00  0.00     0.060 A 
ATOM     78  C   UNL A   1      38.099  23.460  26.083  1.00  0.00     0.016 A 
ATOM     79  C   UNL A   1      37.483  21.291  25.223  1.00  0.00     0.016 A 
ATOM     80  C   UNL A   1      36.902  23.993  25.596  1.00  0.00     0.006 A 
ATOM     81  C   UNL A   1      36.283  21.832  24.748  1.00  0.00     0.006 A 
ATOM     82  C   UNL A   1      35.960  23.188  24.928  1.00  0.00    -0.025 A 
BRANCH  82  83
ATOM     83  C   UNL A   1      34.638  23.809  24.495  1.00  0.00     0.133 C 
ATOM     84  S   UNL A   1      33.827  23.095  23.052  1.00  0.00    -0.143 SA
ATOM     85  S   UNL A   1      33.498  24.170  25.852  1.00  0.00    -0.143 SA
ATOM     86  C   UNL A   1      33.045  21.624  23.758  1.00  0.00     0.072 C 
ATOM     87  C   UNL A   1      32.866  22.515  26.207  1.00  0.00     0.072 C 
ATOM     88  C   UNL A   1      32.221  21.812  25.024  1.00  0.00     0.022 C 
ENDBRANCH  82  83
ENDBRANCH  75  77
ENDBRANCH  74  75
ENDBRANCH  73  74
ENDBRANCH   1  73
TORSDOF 15
ENDMDL
MODEL 2
REMARK VINA RESULT:     -10.8      0.539      1.471
REMARK SMILES O=C(OCCOC(=O)c1ccc(C2SCCCS2)cc1)c1ccc(-c2c3nc(c(-c4c(F)cc(S(=O)(=O)[O-])cc4F)c4ccc([nH]4)c(-c4c(F)cc(S(=O)(=O)[O-])cc4F)c4nc(c(-c5c(F)cc(S(=O)(=O)[O-])cc5F)c5ccc2[nH]5)C=C4)C=C3)cc1
REMARK SMILES IDX 4 1 3 2 2 3 1 4 21 5 22 6 86 7 23 8 85 9 24 10 25 11 26 12
REMARK SMILES IDX 79 13 27 14 84 15 78 16 80 17 28 18 83 19 77 20 76 21 29 23
REMARK SMILES IDX 63 24 42 25 62 26 43 27 46 28 61 29 81 30 44 31 45 32 60 34
REMARK SMILES IDX 82 35 47 36 30 37 31 38 40 39 32 40 33 41 39 42 41 43 34 44
REMARK SMILES IDX 35 45 36 46 37 47 38 48 64 49 65 50 74 51 66 52 67 53 73 54
REMARK SMILES IDX 75 55 68 56 69 57 70 58 71 59 72 60 48 61 49 62 58 63 50 64
REMARK SMILES IDX 51 65 57 66 59 67 52 68 53 69 54 70 55 71 56 72 5 73 6 74
REMARK SMILES IDX 7 75 8 76 9 77 10 78 20 79 11 80 19 81 12 82 13 83 14 84
REMARK SMILES IDX 18 85 15 86 17 87 16 88
REMARK H PARENT 80 22 46 33
REMARK Flexibility Score: inf
ROOT
ATOM      1  C   UNL A   1      41.818  22.887  26.906  1.00  0.00     0.275 C 
ENDROOT
BRANCH   1   2
ATOM      2  O   UNL A   1      41.627  23.914  25.915  1.00  0.00    -0.458 OA
BRANCH   2   3
ATOM      3  C   UNL A   1      41.755  25.260  25.994  1.00  0.00     0.338 C 
ATOM      4  O   UNL A   1      42.197  25.861  25.014  1.00  0.00    -0.246 OA
BRANCH   3   5
ATOM      5  C   UNL A   1      41.494  26.062  27.233  1.00  0.00     0.060 A 
ATOM      6  C   UNL A   1      40.369  25.959  28.051  1.00  0.00     0.016 A 
ATOM      7  C   UNL A   1      42.465  27.025  27.574  1.00  0.00     0.016 A 
ATOM      8  C   UNL A   1      40.234  26.748  29.198  1.00  0.00     0.010 A 
ATOM      9  C   UNL A   1      42.338  27.816  28.722  1.00  0.00     0.010 A 
ATOM     10  C   UNL A   1      41.210  27.687  29.537  1.00  0.00    -0.014 A 
BRANCH  10  11
ATOM     11  C   UNL A   1      40.948  28.631  30.647  1.00  0.00     0.031 A 
ATOM     12  C   UNL A   1      41.736  28.471  31.918  1.00  0.00     0.074 A 
ATOM     13  C   UNL A   1      40.090  29.657  30.493  1.00  0.00     0.049 A 
ATOM     14  N   UNL A   1      41.722  29.212  32.994  1.00  0.00    -0.248 NA
ATOM     15  C   UNL A   1      42.697  27.355  31.967  1.00  0.00     0.031 C 
ATOM     16  C   UNL A   1      39.335  29.962  29.276  1.00  0.00     0.029 A 
ATOM     17  N   UNL A   1      39.692  30.628  31.376  1.00  0.00    -0.354 N 
ATOM     18  C   UNL A   1      42.718  28.697  33.815  1.00  0.00     0.074 A 
ATOM     19  C   UNL A   1      43.255  27.527  33.156  1.00  0.00     0.031 C 
ATOM     20  C   UNL A   1      38.498  30.987  29.519  1.00  0.00     0.029 A 
ATOM     21  C   UNL A   1      38.680  31.426  30.898  1.00  0.00     0.049 A 
ATOM     22  H   UNL A   1      40.092  30.742  32.268  1.00  0.00     0.167 HD
ATOM     23  C   UNL A   1      43.180  29.188  34.988  1.00  0.00     0.037 A 
ATOM     24  C   UNL A   1      37.968  32.382  31.523  1.00  0.00     0.037 A 
ATOM     25  C   UNL A   1      42.603  30.322  35.659  1.00  0.00     0.049 A 
ATOM     26  C   UNL A   1      38.358  32.783  32.913  1.00  0.00     0.074 A 
ATOM     27  C   UNL A   1      42.972  30.896  36.861  1.00  0.00     0.029 A 
ATOM     28  N   UNL A   1      41.518  31.044  35.186  1.00  0.00    -0.354 N 
ATOM     29  N   UNL A   1      39.305  32.292  33.673  1.00  0.00    -0.248 NA
ATOM     30  C   UNL A   1      37.614  33.900  33.506  1.00  0.00     0.031 C 
ATOM     31  C   UNL A   1      42.083  31.942  37.133  1.00  0.00     0.029 A 
ATOM     32  C   UNL A   1      41.190  32.049  36.078  1.00  0.00     0.049 A 
ATOM     33  H   UNL A   1      41.048  30.867  34.337  1.00  0.00     0.167 HD
ATOM     34  C   UNL A   1      39.302  33.068  34.823  1.00  0.00     0.074 A 
ATOM     35  C   UNL A   1      38.244  34.049  34.663  1.00  0.00     0.031 C 
ATOM     36  C   UNL A   1      40.121  32.998  35.901  1.00  0.00     0.037 A 
BRANCH  23  37
ATOM     37  C   UNL A   1      44.373  28.506  35.595  1.00  0.00     0.058 A 
ATOM     38  C   UNL A   1      45.680  28.897  35.254  1.00  0.00     0.135 A 
ATOM     39  C   UNL A   1      44.222  27.465  36.524  1.00  0.00     0.135 A 
ATOM     40  F   UNL A   1      45.881  29.873  34.354  1.00  0.00    -0.206 F 
ATOM     41  C   UNL A   1      46.794  28.263  35.794  1.00  0.00     0.059 A 
ATOM     42  C   UNL A   1      45.324  26.831  37.093  1.00  0.00     0.059 A 
ATOM     43  F   UNL A   1      42.997  27.049  36.878  1.00  0.00    -0.206 F 
ATOM     44  C   UNL A   1      46.606  27.229  36.712  1.00  0.00     0.060 A 
BRANCH  44  45
ATOM     45  S   UNL A   1      48.064  26.418  37.402  1.00  0.00     0.124 S 
ATOM     46  O   UNL A   1      47.628  25.026  37.448  1.00  0.00    -0.237 OA
ATOM     47  O   UNL A   1      49.091  26.728  36.412  1.00  0.00    -0.237 OA
ATOM     48  O   UNL A   1      48.232  27.067  38.699  1.00  0.00    -0.744 OA
ENDBRANCH  44  45
ENDBRANCH  23  37
BRANCH  24  49
ATOM     49  C   UNL A   1      36.781  32.990  30.875  1.00  0.00     0.058 A 
ATOM     50  C   UNL A   1      35.472  32.638  31.220  1.00  0.00     0.135 A 
ATOM     51  C   UNL A   1      36.961  33.935  29.855  1.00  0.00     0.135 A 
ATOM     52  F   UNL A   1      35.255  31.708  32.162  1.00  0.00    -0.206 F 
ATOM     53  C   UNL A   1      34.376  33.220  30.589  1.00  0.00     0.059 A 
ATOM     54  C   UNL A   1      35.885  34.550  29.227  1.00  0.00     0.059 A 
ATOM     55  F   UNL A   1      38.201  34.256  29.458  1.00  0.00    -0.206 F 
ATOM     56  C   UNL A   1      34.593  34.181  29.600  1.00  0.00     0.060 A 
BRANCH  56  57
ATOM     57  S   UNL A   1      33.182  35.009  28.831  1.00  0.00     0.124 S 
ATOM     58  O   UNL A   1      32.725  33.995  27.891  1.00  0.00    -0.237 OA
ATOM     59  O   UNL A   1      32.306  35.268  29.970  1.00  0.00    -0.237 OA
ATOM     60  O   UNL A   1      33.792  36.198  28.241  1.00  0.00    -0.744 OA
ENDBRANCH  56  57
ENDBRANCH  24  49
BRANCH  36  61
ATOM     61  C   UNL A   1      39.927  34.039  36.961  1.00  0.00     0.058 A 
ATOM     62  C   UNL A   1      40.511  35.309  36.864  1.00  0.00     0.135 A 
ATOM     63  C   UNL A   1      39.130  33.759  38.083  1.00  0.00     0.135 A 
ATOM     64  F   UNL A   1      41.293  35.615  35.817  1.00  0.00    -0.206 F 
ATOM     65  C   UNL A   1      40.334  36.262  37.860  1.00  0.00     0.059 A 
ATOM     66  C   UNL A   1      38.918  34.705  39.077  1.00  0.00     0.059 A 
ATOM     67  F   UNL A   1      38.548  32.555  38.216  1.00  0.00    -0.206 F 
ATOM     68  C   UNL A   1      39.537  35.949  38.963  1.00  0.00     0.060 A 
BRANCH  68  69
ATOM     69  S   UNL A   1      39.300  37.197  40.244  1.00  0.00     0.124 S 
ATOM     70  O   UNL A   1      38.568  36.442  41.255  1.00  0.00    -0.237 OA
ATOM     71  O   UNL A   1      40.671  37.557  40.590  1.00  0.00    -0.237 OA
ATOM     72  O   UNL A   1      38.538  38.241  39.563  1.00  0.00    -0.744 OA
ENDBRANCH  68  69
ENDBRANCH  36  61
ENDBRANCH  10  11
ENDBRANCH   3   5
ENDBRANCH   2   3
ENDBRANCH   1   2
BRANCH   1  73
ATOM     73  C   UNL A   1      40.544  22.168  27.352  1.00  0.00     0.275 C 
BRANCH  73  74
ATOM     74  O   UNL A   1      39.359  22.686  26.738  1.00  0.00    -0.458 OA
BRANCH  74  75
ATOM     75  C   UNL A   1      38.761  21.843  25.855  1.00  0.00     0.338 C 
ATOM     76  O   UNL A   1      39.077  20.688  25.623  1.00  0.00    -0.246 OA
BRANCH  75  77
ATOM     77  C   UNL A   1      37.562  22.492  25.289  1.00  0.00     0.060 A 
ATOM     78  C   UNL A   1      37.004  23.576  25.971  1.00  0.00     0.016 A 
ATOM     79  C   UNL A   1      36.997  22.062  24.092  1.00  0.00     0.016 A 
ATOM     80  C   UNL A   1      35.883  24.229  25.449  1.00  0.00     0.006 A 
ATOM     81  C   UNL A   1      35.869  22.716  23.583  1.00  0.00     0.006 A 
ATOM     82  C   UNL A   1      35.282  23.805  24.248  1.00  0.00    -0.025 A 
BRANCH  82  83
ATOM     83  C   UNL A   1      34.014  24.505  23.775  1.00  0.00     0.133 C 
ATOM     84  S   UNL A   1      33.101  23.729  22.429  1.00  0.00    -0.143 SA
ATOM     85  S   UNL A   1      32.950  25.112  25.106  1.00  0.00    -0.143 SA
ATOM     86  C   UNL A   1      32.202  22.421  23.298  1.00  0.00     0.072 C 
ATOM     87  C   UNL A   1      32.174  23.571  25.643  1.00  0.00     0.072 C 
ATOM     88  C   UNL A   1      31.434  22.816  24.552  1.00  0.00     0.022 C 
ENDBRANCH  82  83
ENDBRANCH  75  77
ENDBRANCH  74  75
ENDBRANCH  73  74
ENDBRANCH   1  73
TORSDOF 15
ENDMDL
MODEL 3
REMARK VINA RESULT:     -10.7      6.448     12.348
REMARK SMILES O=C(OCCOC(=O)c1ccc(C2SCCCS2)cc1)c1ccc(-c2c3nc(c(-c4c(F)cc(S(=O)(=O)[O-])cc4F)c4ccc([nH]4)c(-c4c(F)cc(S(=O)(=O)[O-])cc4F)c4nc(c(-c5c(F)cc(S(=O)(=O)[O-])cc5F)c5ccc2[nH]5)C=C4)C=C3)cc1
REMARK SMILES IDX 4 1 3 2 2 3 1 4 21 5 22 6 86 7 23 8 85 9 24 10 25 11 26 12
REMARK SMILES IDX 79 13 27 14 84 15 78 16 80 17 28 18 83 19 77 20 76 21 29 23
REMARK SMILES IDX 63 24 42 25 62 26 43 27 46 28 61 29 81 30 44 31 45 32 60 34
REMARK SMILES IDX 82 35 47 36 30 37 31 38 40 39 32 40 33 41 39 42 41 43 34 44
REMARK SMILES IDX 35 45 36 46 37 47 38 48 64 49 65 50 74 51 66 52 67 53 73 54
REMARK SMILES IDX 75 55 68 56 69 57 70 58 71 59 72 60 48 61 49 62 58 63 50 64
REMARK SMILES IDX 51 65 57 66 59 67 52 68 53 69 54 70 55 71 56 72 5 73 6 74
REMARK SMILES IDX 7 75 8 76 9 77 10 78 20 79 11 80 19 81 12 82 13 83 14 84
REMARK SMILES IDX 18 85 15 86 17 87 16 88
REMARK H PARENT 80 22 46 33
REMARK Flexibility Score: inf
ROOT
ATOM      1  C   UNL A   1      34.876  32.449  29.607  1.00  0.00     0.275 C 
ENDROOT
BRANCH   1   2
ATOM      2  O   UNL A   1      35.724  31.527  30.318  1.00  0.00    -0.458 OA
BRANCH   2   3
ATOM      3  C   UNL A   1      36.910  31.714  30.946  1.00  0.00     0.338 C 
ATOM      4  O   UNL A   1      36.956  32.527  31.869  1.00  0.00    -0.246 OA
BRANCH   3   5
ATOM      5  C   UNL A   1      38.198  31.074  30.526  1.00  0.00     0.060 A 
ATOM      6  C   UNL A   1      39.299  30.835  31.349  1.00  0.00     0.016 A 
ATOM      7  C   UNL A   1      38.307  30.716  29.167  1.00  0.00     0.016 A 
ATOM      8  C   UNL A   1      40.450  30.214  30.854  1.00  0.00     0.010 A 
ATOM      9  C   UNL A   1      39.455  30.092  28.666  1.00  0.00     0.010 A 
ATOM     10  C   UNL A   1      40.542  29.847  29.511  1.00  0.00    -0.014 A 
BRANCH  10  11
ATOM     11  C   UNL A   1      41.838  29.366  28.981  1.00  0.00     0.031 A 
ATOM     12  C   UNL A   1      42.941  30.368  28.782  1.00  0.00     0.074 A 
ATOM     13  C   UNL A   1      42.052  28.054  28.766  1.00  0.00     0.049 A 
ATOM     14  N   UNL A   1      44.172  30.171  28.392  1.00  0.00    -0.248 NA
ATOM     15  C   UNL A   1      42.630  31.771  29.107  1.00  0.00     0.031 C 
ATOM     16  C   UNL A   1      41.084  26.982  29.005  1.00  0.00     0.029 A 
ATOM     17  N   UNL A   1      43.151  27.397  28.275  1.00  0.00    -0.354 N 
ATOM     18  C   UNL A   1      44.799  31.406  28.493  1.00  0.00     0.074 A 
ATOM     19  C   UNL A   1      43.793  32.365  28.892  1.00  0.00     0.031 C 
ATOM     20  C   UNL A   1      41.599  25.815  28.575  1.00  0.00     0.029 A 
ATOM     21  C   UNL A   1      42.941  26.056  28.057  1.00  0.00     0.049 A 
ATOM     22  H   UNL A   1      44.010  27.845  28.095  1.00  0.00     0.167 HD
ATOM     23  C   UNL A   1      46.107  31.704  28.320  1.00  0.00     0.037 A 
ATOM     24  C   UNL A   1      43.740  25.142  27.476  1.00  0.00     0.037 A 
ATOM     25  C   UNL A   1      47.088  30.752  27.872  1.00  0.00     0.049 A 
ATOM     26  C   UNL A   1      45.134  25.537  27.095  1.00  0.00     0.074 A 
ATOM     27  C   UNL A   1      48.437  30.943  27.639  1.00  0.00     0.029 A 
ATOM     28  N   UNL A   1      46.813  29.426  27.571  1.00  0.00    -0.354 N 
ATOM     29  N   UNL A   1      45.714  26.707  27.202  1.00  0.00    -0.248 NA
ATOM     30  C   UNL A   1      45.993  24.474  26.561  1.00  0.00     0.031 C 
ATOM     31  C   UNL A   1      48.970  29.741  27.160  1.00  0.00     0.029 A 
ATOM     32  C   UNL A   1      47.962  28.789  27.139  1.00  0.00     0.049 A 
ATOM     33  H   UNL A   1      45.928  29.000  27.653  1.00  0.00     0.167 HD
ATOM     34  C   UNL A   1      47.024  26.515  26.788  1.00  0.00     0.074 A 
ATOM     35  C   UNL A   1      47.143  25.118  26.411  1.00  0.00     0.031 C 
ATOM     36  C   UNL A   1      48.046  27.404  26.752  1.00  0.00     0.037 A 
BRANCH  23  37
ATOM     37  C   UNL A   1      46.539  33.107  28.637  1.00  0.00     0.058 A 
ATOM     38  C   UNL A   1      46.963  33.458  29.931  1.00  0.00     0.135 A 
ATOM     39  C   UNL A   1      46.541  34.108  27.653  1.00  0.00     0.135 A 
ATOM     40  F   UNL A   1      46.961  32.544  30.914  1.00  0.00    -0.206 F 
ATOM     41  C   UNL A   1      47.350  34.757  30.244  1.00  0.00     0.059 A 
ATOM     42  C   UNL A   1      46.944  35.411  27.940  1.00  0.00     0.059 A 
ATOM     43  F   UNL A   1      46.139  33.828  26.405  1.00  0.00    -0.206 F 
ATOM     44  C   UNL A   1      47.334  35.728  29.241  1.00  0.00     0.060 A 
BRANCH  44  45
ATOM     45  S   UNL A   1      47.838  37.408  29.666  1.00  0.00     0.124 S 
ATOM     46  O   UNL A   1      48.631  37.779  28.498  1.00  0.00    -0.237 OA
ATOM     47  O   UNL A   1      46.556  38.093  29.804  1.00  0.00    -0.237 OA
ATOM     48  O   UNL A   1      48.590  37.235  30.906  1.00  0.00    -0.744 OA
ENDBRANCH  44  45
ENDBRANCH  23  37
BRANCH  24  49
ATOM     49  C   UNL A   1      43.236  23.783  27.163  1.00  0.00     0.058 A 
ATOM     50  C   UNL A   1      42.793  23.420  25.887  1.00  0.00     0.135 A 
ATOM     51  C   UNL A   1      43.167  22.823  28.182  1.00  0.00     0.135 A 
ATOM     52  F   UNL A   1      42.803  24.321  24.893  1.00  0.00    -0.206 F 
ATOM     53  C   UNL A   1      42.317  22.138  25.624  1.00  0.00     0.059 A 
ATOM     54  C   UNL A   1      42.720  21.529  27.941  1.00  0.00     0.059 A 
ATOM     55  F   UNL A   1      43.529  23.151  29.431  1.00  0.00    -0.206 F 
ATOM     56  C   UNL A   1      42.293  21.198  26.656  1.00  0.00     0.060 A 
BRANCH  56  57
ATOM     57  S   UNL A   1      41.759  19.505  26.311  1.00  0.00     0.124 S 
ATOM     58  O   UNL A   1      40.321  19.678  26.157  1.00  0.00    -0.237 OA
ATOM     59  O   UNL A   1      42.500  19.180  25.096  1.00  0.00    -0.237 OA
ATOM     60  O   UNL A   1      42.191  18.784  27.506  1.00  0.00    -0.744 OA
ENDBRANCH  56  57
ENDBRANCH  24  49
BRANCH  36  61
ATOM     61  C   UNL A   1      49.384  26.874  26.335  1.00  0.00     0.058 A 
ATOM     62  C   UNL A   1      49.848  26.996  25.018  1.00  0.00     0.135 A 
ATOM     63  C   UNL A   1      50.216  26.248  27.277  1.00  0.00     0.135 A 
ATOM     64  F   UNL A   1      49.080  27.573  24.081  1.00  0.00    -0.206 F 
ATOM     65  C   UNL A   1      51.086  26.489  24.641  1.00  0.00     0.059 A 
ATOM     66  C   UNL A   1      51.467  25.758  26.927  1.00  0.00     0.059 A 
ATOM     67  F   UNL A   1      49.813  26.111  28.551  1.00  0.00    -0.206 F 
ATOM     68  C   UNL A   1      51.887  25.870  25.602  1.00  0.00     0.060 A 
BRANCH  68  69
ATOM     69  S   UNL A   1      53.499  25.229  25.107  1.00  0.00     0.124 S 
ATOM     70  O   UNL A   1      54.384  25.911  26.045  1.00  0.00    -0.237 OA
ATOM     71  O   UNL A   1      53.342  23.793  25.312  1.00  0.00    -0.237 OA
ATOM     72  O   UNL A   1      53.616  25.647  23.713  1.00  0.00    -0.744 OA
ENDBRANCH  68  69
ENDBRANCH  36  61
ENDBRANCH  10  11
ENDBRANCH   3   5
ENDBRANCH   2   3
ENDBRANCH   1   2
BRANCH   1  73
ATOM     73  C   UNL A   1      34.952  32.359  28.082  1.00  0.00     0.275 C 
BRANCH  73  74
ATOM     74  O   UNL A   1      34.641  31.055  27.578  1.00  0.00    -0.458 OA
BRANCH  74  75
ATOM     75  C   UNL A   1      33.329  30.860  27.279  1.00  0.00     0.338 C 
ATOM     76  O   UNL A   1      32.469  31.719  27.177  1.00  0.00    -0.246 OA
BRANCH  75  77
ATOM     77  C   UNL A   1      33.103  29.435  26.960  1.00  0.00     0.060 A 
ATOM     78  C   UNL A   1      31.840  28.889  27.197  1.00  0.00     0.016 A 
ATOM     79  C   UNL A   1      34.109  28.642  26.415  1.00  0.00     0.016 A 
ATOM     80  C   UNL A   1      31.586  27.551  26.882  1.00  0.00     0.006 A 
ATOM     81  C   UNL A   1      33.848  27.302  26.112  1.00  0.00     0.006 A 
ATOM     82  C   UNL A   1      32.589  26.722  26.344  1.00  0.00    -0.025 A 
BRANCH  82  83
ATOM     83  C   UNL A   1      32.274  25.252  26.101  1.00  0.00     0.133 C 
ATOM     84  S   UNL A   1      30.546  24.813  25.838  1.00  0.00    -0.143 SA
ATOM     85  S   UNL A   1      33.406  24.420  24.961  1.00  0.00    -0.143 SA
ATOM     86  C   UNL A   1      30.308  25.278  24.105  1.00  0.00     0.072 C 
ATOM     87  C   UNL A   1      32.805  25.047  23.377  1.00  0.00     0.072 C 
ATOM     88  C   UNL A   1      31.336  24.776  23.100  1.00  0.00     0.022 C 
ENDBRANCH  82  83
ENDBRANCH  75  77
ENDBRANCH  74  75
ENDBRANCH  73  74
ENDBRANCH   1  73
TORSDOF 15
ENDMDL
