MODEL 1
REMARK VINA RESULT:     -10.5      0.000      0.000
REMARK SMILES CCOc1cc2c(cc1OCC)[C@@H](C(=O)OCCOC(=O)c1ccc(-c3c4nc(c(-c5c(F)cc(S(=O)(=O)[O-])cc5F)c5ccc([nH]5)c(-c5c(F)cc(S(=O)(=O)[O-])cc5F)c5nc(c(-c6c(F)cc(S(=O)(=O)[O-])cc6F)c6ccc3[nH]6)C=C5)C=C4)cc1)[C@H](c1ccc(F)cc1Cl)N(C)C2=O
REMARK SMILES IDX 18 1 17 2 16 3 14 4 15 5 13 6 4 7 5 8 9 9 6 10 8 11 7 12
REMARK SMILES IDX 99 13 97 14 100 15 88 16 98 17 3 18 2 19 1 20 10 21 11 22
REMARK SMILES IDX 12 23 89 24 90 25 95 26 91 27 94 28 96 29 92 30 93 31 19 32
REMARK SMILES IDX 20 33 21 34 22 35 23 36 87 37 24 38 86 39 25 40 26 41 27 42
REMARK SMILES IDX 80 43 28 44 85 45 79 46 81 47 29 48 84 49 78 50 77 51 30 53
REMARK SMILES IDX 64 54 43 55 63 56 44 57 47 58 62 59 82 60 45 61 46 62 61 64
REMARK SMILES IDX 83 65 48 66 31 67 32 68 41 69 33 70 34 71 40 72 42 73 35 74
REMARK SMILES IDX 36 75 37 76 38 77 39 78 65 79 66 80 75 81 67 82 68 83 74 84
REMARK SMILES IDX 76 85 69 86 70 87 71 88 72 89 73 90 49 91 50 92 59 93 51 94
REMARK SMILES IDX 52 95 58 96 60 97 53 98 54 99 55 100 56 101 57 102
REMARK H PARENT 81 52 47 63
REMARK Flexibility Score: inf
ROOT
ATOM      1  C   UNL A   1      34.328  29.817  27.445  1.00  0.00     0.275 C 
ENDROOT
BRANCH   1   2
ATOM      2  C   UNL A   1      33.667  29.214  26.200  1.00  0.00     0.274 C 
BRANCH   2   3
ATOM      3  O   UNL A   1      34.613  28.522  25.361  1.00  0.00    -0.462 OA
BRANCH   3   4
ATOM      4  C   UNL A   1      34.092  27.745  24.381  1.00  0.00     0.316 C 
ATOM      5  O   UNL A   1      34.077  28.059  23.194  1.00  0.00    -0.251 OA
BRANCH   4   6
ATOM      6  C   UNL A   1      33.454  26.448  24.870  1.00  0.00     0.157 C 
ATOM      7  C   UNL A   1      36.066  23.085  24.304  1.00  0.00     0.161 A 
ATOM      8  C   UNL A   1      35.108  23.424  23.332  1.00  0.00     0.064 A 
ATOM      9  C   UNL A   1      36.184  23.847  25.474  1.00  0.00     0.161 A 
ATOM     10  C   UNL A   1      34.292  24.537  23.499  1.00  0.00     0.048 A 
ATOM     11  C   UNL A   1      35.344  24.954  25.636  1.00  0.00     0.056 A 
ATOM     12  C   UNL A   1      34.394  25.293  24.666  1.00  0.00    -0.015 A 
ATOM     13  C   UNL A   1      33.308  24.921  22.447  1.00  0.00     0.254 C 
ATOM     14  N   UNL A   1      32.236  25.710  22.865  1.00  0.00    -0.333 N 
ATOM     15  O   UNL A   1      33.484  24.560  21.288  1.00  0.00    -0.269 OA
ATOM     16  C   UNL A   1      32.062  26.082  24.274  1.00  0.00     0.135 C 
ATOM     17  C   UNL A   1      31.304  26.222  21.876  1.00  0.00     0.147 C 
BRANCH   7  18
ATOM     18  O   UNL A   1      36.790  21.938  24.116  1.00  0.00    -0.490 OA
BRANCH  18  19
ATOM     19  C   UNL A   1      36.631  20.992  25.182  1.00  0.00     0.226 C 
ATOM     20  C   UNL A   1      36.772  19.564  24.683  1.00  0.00     0.049 C 
ENDBRANCH  18  19
ENDBRANCH   7  18
BRANCH   9  21
ATOM     21  O   UNL A   1      37.011  23.696  26.547  1.00  0.00    -0.490 OA
BRANCH  21  22
ATOM     22  C   UNL A   1      38.368  24.108  26.507  1.00  0.00     0.226 C 
ATOM     23  C   UNL A   1      39.297  22.910  26.580  1.00  0.00     0.049 C 
ENDBRANCH  21  22
ENDBRANCH   9  21
BRANCH  16  24
ATOM     24  C   UNL A   1      31.328  25.038  25.167  1.00  0.00    -0.005 A 
ATOM     25  C   UNL A   1      31.347  23.698  24.692  1.00  0.00     0.010 A 
ATOM     26  C   UNL A   1      30.612  25.260  26.367  1.00  0.00     0.049 A 
ATOM     27  C   UNL A   1      30.617  22.673  25.304  1.00  0.00     0.040 A 
ATOM     28  C   UNL A   1      29.885  24.225  26.979  1.00  0.00     0.060 A 
ATOM     29  Cl  UNL A   1      30.546  26.745  27.244  1.00  0.00    -0.084 Cl
ATOM     30  C   UNL A   1      29.877  22.953  26.435  1.00  0.00     0.124 A 
ATOM     31  F   UNL A   1      29.159  21.988  27.022  1.00  0.00    -0.207 F 
ENDBRANCH  16  24
ENDBRANCH   4   6
ENDBRANCH   3   4
ENDBRANCH   2   3
ENDBRANCH   1   2
BRANCH   1  32
ATOM     32  O   UNL A   1      35.653  29.295  27.665  1.00  0.00    -0.458 OA
BRANCH  32  33
ATOM     33  C   UNL A   1      36.253  29.750  28.789  1.00  0.00     0.338 C 
ATOM     34  O   UNL A   1      35.712  30.047  29.841  1.00  0.00    -0.246 OA
BRANCH  33  35
ATOM     35  C   UNL A   1      37.716  29.665  28.666  1.00  0.00     0.060 A 
ATOM     36  C   UNL A   1      38.237  29.659  27.370  1.00  0.00     0.016 A 
ATOM     37  C   UNL A   1      38.551  29.471  29.764  1.00  0.00     0.016 A 
ATOM     38  C   UNL A   1      39.585  29.423  27.152  1.00  0.00     0.010 A 
ATOM     39  C   UNL A   1      39.916  29.234  29.546  1.00  0.00     0.010 A 
ATOM     40  C   UNL A   1      40.431  29.182  28.238  1.00  0.00    -0.014 A 
BRANCH  40  41
ATOM     41  C   UNL A   1      41.825  28.766  27.959  1.00  0.00     0.031 A 
ATOM     42  C   UNL A   1      42.927  29.785  28.039  1.00  0.00     0.074 A 
ATOM     43  C   UNL A   1      42.108  27.469  27.735  1.00  0.00     0.049 A 
ATOM     44  N   UNL A   1      44.208  29.635  27.826  1.00  0.00    -0.248 NA
ATOM     45  C   UNL A   1      42.536  31.155  28.412  1.00  0.00     0.031 C 
ATOM     46  C   UNL A   1      41.124  26.386  27.694  1.00  0.00     0.029 A 
ATOM     47  N   UNL A   1      43.306  26.841  27.515  1.00  0.00    -0.354 N 
ATOM     48  C   UNL A   1      44.772  30.893  28.006  1.00  0.00     0.074 A 
ATOM     49  C   UNL A   1      43.694  31.797  28.341  1.00  0.00     0.031 C 
ATOM     50  C   UNL A   1      41.760  25.225  27.467  1.00  0.00     0.029 A 
ATOM     51  C   UNL A   1      43.188  25.488  27.308  1.00  0.00     0.049 A 
ATOM     52  H   UNL A   1      44.170  27.315  27.505  1.00  0.00     0.167 HD
ATOM     53  C   UNL A   1      46.072  31.256  27.902  1.00  0.00     0.037 A 
ATOM     54  C   UNL A   1      44.123  24.569  27.003  1.00  0.00     0.037 A 
ATOM     55  C   UNL A   1      47.142  30.343  27.599  1.00  0.00     0.049 A 
ATOM     56  C   UNL A   1      45.559  25.003  26.877  1.00  0.00     0.074 A 
ATOM     57  C   UNL A   1      48.495  30.610  27.480  1.00  0.00     0.029 A 
ATOM     58  N   UNL A   1      46.982  28.984  27.374  1.00  0.00    -0.354 N 
ATOM     59  N   UNL A   1      46.074  26.200  27.032  1.00  0.00    -0.248 NA
ATOM     60  C   UNL A   1      46.539  23.965  26.537  1.00  0.00     0.031 C 
ATOM     61  C   UNL A   1      49.149  29.417  27.152  1.00  0.00     0.029 A 
ATOM     62  C   UNL A   1      48.209  28.400  27.104  1.00  0.00     0.049 A 
ATOM     63  H   UNL A   1      46.122  28.504  27.401  1.00  0.00     0.167 HD
ATOM     64  C   UNL A   1      47.440  26.056  26.816  1.00  0.00     0.074 A 
ATOM     65  C   UNL A   1      47.673  24.652  26.545  1.00  0.00     0.031 C 
ATOM     66  C   UNL A   1      48.414  27.000  26.836  1.00  0.00     0.037 A 
BRANCH  53  67
ATOM     67  C   UNL A   1      46.402  32.711  28.082  1.00  0.00     0.058 A 
ATOM     68  C   UNL A   1      46.359  33.621  27.015  1.00  0.00     0.135 A 
ATOM     69  C   UNL A   1      46.740  33.204  29.352  1.00  0.00     0.135 A 
ATOM     70  F   UNL A   1      46.065  33.196  25.775  1.00  0.00    -0.206 F 
ATOM     71  C   UNL A   1      46.658  34.968  27.197  1.00  0.00     0.059 A 
ATOM     72  C   UNL A   1      47.022  34.551  29.562  1.00  0.00     0.059 A 
ATOM     73  F   UNL A   1      46.801  32.374  30.405  1.00  0.00    -0.206 F 
ATOM     74  C   UNL A   1      46.991  35.423  28.475  1.00  0.00     0.060 A 
BRANCH  74  75
ATOM     75  S   UNL A   1      47.371  37.173  28.700  1.00  0.00     0.124 S 
ATOM     76  O   UNL A   1      46.631  37.776  27.595  1.00  0.00    -0.237 OA
ATOM     77  O   UNL A   1      46.845  37.440  30.035  1.00  0.00    -0.237 OA
ATOM     78  O   UNL A   1      48.825  37.222  28.582  1.00  0.00    -0.744 OA
ENDBRANCH  74  75
ENDBRANCH  53  67
BRANCH  54  79
ATOM     79  C   UNL A   1      43.730  23.157  26.764  1.00  0.00     0.058 A 
ATOM     80  C   UNL A   1      43.310  22.327  27.814  1.00  0.00     0.135 A 
ATOM     81  C   UNL A   1      43.769  22.607  25.472  1.00  0.00     0.135 A 
ATOM     82  F   UNL A   1      43.264  22.804  29.067  1.00  0.00    -0.206 F 
ATOM     83  C   UNL A   1      42.960  20.998  27.596  1.00  0.00     0.059 A 
ATOM     84  C   UNL A   1      43.399  21.289  25.225  1.00  0.00     0.059 A 
ATOM     85  F   UNL A   1      44.151  23.363  24.431  1.00  0.00    -0.206 F 
ATOM     86  C   UNL A   1      43.008  20.488  26.297  1.00  0.00     0.060 A 
BRANCH  86  87
ATOM     87  S   UNL A   1      42.514  18.775  26.012  1.00  0.00     0.124 S 
ATOM     88  O   UNL A   1      43.432  18.378  24.951  1.00  0.00    -0.237 OA
ATOM     89  O   UNL A   1      42.743  18.165  27.318  1.00  0.00    -0.237 OA
ATOM     90  O   UNL A   1      41.111  18.894  25.624  1.00  0.00    -0.744 OA
ENDBRANCH  86  87
ENDBRANCH  54  79
BRANCH  66  91
ATOM     91  C   UNL A   1      49.819  26.532  26.575  1.00  0.00     0.058 A 
ATOM     92  C   UNL A   1      50.658  26.114  27.619  1.00  0.00     0.135 A 
ATOM     93  C   UNL A   1      50.323  26.488  25.266  1.00  0.00     0.135 A 
ATOM     94  F   UNL A   1      50.222  26.142  28.889  1.00  0.00    -0.206 F 
ATOM     95  C   UNL A   1      51.963  25.701  27.379  1.00  0.00     0.059 A 
ATOM     96  C   UNL A   1      51.618  26.055  25.000  1.00  0.00     0.059 A 
ATOM     97  F   UNL A   1      49.556  26.865  24.232  1.00  0.00    -0.206 F 
ATOM     98  C   UNL A   1      52.437  25.681  26.065  1.00  0.00     0.060 A 
BRANCH  98  99
ATOM     99  S   UNL A   1      54.132  25.143  25.759  1.00  0.00     0.124 S 
ATOM    100  O   UNL A   1      54.633  24.968  27.118  1.00  0.00    -0.237 OA
ATOM    101  O   UNL A   1      53.941  23.916  24.991  1.00  0.00    -0.237 OA
ATOM    102  O   UNL A   1      54.710  26.257  25.013  1.00  0.00    -0.744 OA
ENDBRANCH  98  99
ENDBRANCH  66  91
ENDBRANCH  40  41
ENDBRANCH  33  35
ENDBRANCH  32  33
ENDBRANCH   1  32
TORSDOF 19
ENDMDL
MODEL 2
REMARK VINA RESULT:     -10.5      7.094     13.871
REMARK SMILES CCOc1cc2c(cc1OCC)[C@@H](C(=O)OCCOC(=O)c1ccc(-c3c4nc(c(-c5c(F)cc(S(=O)(=O)[O-])cc5F)c5ccc([nH]5)c(-c5c(F)cc(S(=O)(=O)[O-])cc5F)c5nc(c(-c6c(F)cc(S(=O)(=O)[O-])cc6F)c6ccc3[nH]6)C=C5)C=C4)cc1)[C@H](c1ccc(F)cc1Cl)N(C)C2=O
REMARK SMILES IDX 18 1 17 2 16 3 14 4 15 5 13 6 4 7 5 8 9 9 6 10 8 11 7 12
REMARK SMILES IDX 99 13 97 14 100 15 88 16 98 17 3 18 2 19 1 20 10 21 11 22
REMARK SMILES IDX 12 23 89 24 90 25 95 26 91 27 94 28 96 29 92 30 93 31 19 32
REMARK SMILES IDX 20 33 21 34 22 35 23 36 87 37 24 38 86 39 25 40 26 41 27 42
REMARK SMILES IDX 80 43 28 44 85 45 79 46 81 47 29 48 84 49 78 50 77 51 30 53
REMARK SMILES IDX 64 54 43 55 63 56 44 57 47 58 62 59 82 60 45 61 46 62 61 64
REMARK SMILES IDX 83 65 48 66 31 67 32 68 41 69 33 70 34 71 40 72 42 73 35 74
REMARK SMILES IDX 36 75 37 76 38 77 39 78 65 79 66 80 75 81 67 82 68 83 74 84
REMARK SMILES IDX 76 85 69 86 70 87 71 88 72 89 73 90 49 91 50 92 59 93 51 94
REMARK SMILES IDX 52 95 58 96 60 97 53 98 54 99 55 100 56 101 57 102
REMARK H PARENT 81 52 47 63
REMARK Flexibility Score: inf
ROOT
ATOM      1  C   UNL A   1      43.115  23.373  26.104  1.00  0.00     0.275 C 
ENDROOT
BRANCH   1   2
ATOM      2  C   UNL A   1      44.297  22.989  27.001  1.00  0.00     0.274 C 
BRANCH   2   3
ATOM      3  O   UNL A   1      45.567  23.258  26.374  1.00  0.00    -0.462 OA
BRANCH   3   4
ATOM      4  C   UNL A   1      45.818  24.549  26.051  1.00  0.00     0.316 C 
ATOM      5  O   UNL A   1      45.965  24.950  24.900  1.00  0.00    -0.251 OA
BRANCH   4   6
ATOM      6  C   UNL A   1      45.970  25.485  27.247  1.00  0.00     0.157 C 
ATOM      7  C   UNL A   1      45.764  29.611  26.067  1.00  0.00     0.161 A 
ATOM      8  C   UNL A   1      47.002  28.953  26.170  1.00  0.00     0.064 A 
ATOM      9  C   UNL A   1      44.575  28.923  26.346  1.00  0.00     0.161 A 
ATOM     10  C   UNL A   1      47.063  27.606  26.512  1.00  0.00     0.048 A 
ATOM     11  C   UNL A   1      44.653  27.574  26.706  1.00  0.00     0.056 A 
ATOM     12  C   UNL A   1      45.887  26.919  26.803  1.00  0.00    -0.015 A 
ATOM     13  C   UNL A   1      48.374  26.899  26.576  1.00  0.00     0.254 C 
ATOM     14  N   UNL A   1      48.414  25.745  27.360  1.00  0.00    -0.333 N 
ATOM     15  O   UNL A   1      49.330  27.330  25.940  1.00  0.00    -0.269 OA
ATOM     16  C   UNL A   1      47.243  25.299  28.125  1.00  0.00     0.135 C 
ATOM     17  C   UNL A   1      49.621  24.938  27.374  1.00  0.00     0.147 C 
BRANCH   7  18
ATOM     18  O   UNL A   1      45.773  30.953  25.797  1.00  0.00    -0.490 OA
BRANCH  18  19
ATOM     19  C   UNL A   1      46.590  31.704  26.706  1.00  0.00     0.226 C 
ATOM     20  C   UNL A   1      45.830  32.054  27.974  1.00  0.00     0.049 C 
ENDBRANCH  18  19
ENDBRANCH   7  18
BRANCH   9  21
ATOM     21  O   UNL A   1      43.282  29.356  26.336  1.00  0.00    -0.490 OA
BRANCH  21  22
ATOM     22  C   UNL A   1      42.283  28.702  25.570  1.00  0.00     0.226 C 
ATOM     23  C   UNL A   1      40.912  28.907  26.186  1.00  0.00     0.049 C 
ENDBRANCH  21  22
ENDBRANCH   9  21
BRANCH  16  24
ATOM     24  C   UNL A   1      47.057  25.954  29.526  1.00  0.00    -0.005 A 
ATOM     25  C   UNL A   1      47.993  26.969  29.863  1.00  0.00     0.010 A 
ATOM     26  C   UNL A   1      46.101  25.639  30.520  1.00  0.00     0.049 A 
ATOM     27  C   UNL A   1      48.046  27.553  31.133  1.00  0.00     0.040 A 
ATOM     28  C   UNL A   1      46.157  26.232  31.793  1.00  0.00     0.060 A 
ATOM     29  Cl  UNL A   1      44.766  24.561  30.333  1.00  0.00    -0.084 Cl
ATOM     30  C   UNL A   1      47.134  27.163  32.093  1.00  0.00     0.124 A 
ATOM     31  F   UNL A   1      47.183  27.699  33.319  1.00  0.00    -0.207 F 
ENDBRANCH  16  24
ENDBRANCH   4   6
ENDBRANCH   3   4
ENDBRANCH   2   3
ENDBRANCH   1   2
BRANCH   1  32
ATOM     32  O   UNL A   1      42.443  24.560  26.567  1.00  0.00    -0.458 OA
BRANCH  32  33
ATOM     33  C   UNL A   1      41.334  24.323  27.306  1.00  0.00     0.338 C 
ATOM     34  O   UNL A   1      40.760  23.256  27.445  1.00  0.00    -0.246 OA
BRANCH  33  35
ATOM     35  C   UNL A   1      40.987  25.502  28.113  1.00  0.00     0.060 A 
ATOM     36  C   UNL A   1      42.037  26.355  28.461  1.00  0.00     0.016 A 
ATOM     37  C   UNL A   1      39.708  25.711  28.624  1.00  0.00     0.016 A 
ATOM     38  C   UNL A   1      41.834  27.399  29.349  1.00  0.00     0.010 A 
ATOM     39  C   UNL A   1      39.500  26.768  29.521  1.00  0.00     0.010 A 
ATOM     40  C   UNL A   1      40.569  27.598  29.907  1.00  0.00    -0.014 A 
BRANCH  40  41
ATOM     41  C   UNL A   1      40.428  28.613  30.978  1.00  0.00     0.031 A 
ATOM     42  C   UNL A   1      41.348  28.562  32.165  1.00  0.00     0.074 A 
ATOM     43  C   UNL A   1      39.552  29.624  30.834  1.00  0.00     0.049 A 
ATOM     44  N   UNL A   1      41.390  29.345  33.211  1.00  0.00    -0.248 NA
ATOM     45  C   UNL A   1      42.358  27.491  32.175  1.00  0.00     0.031 C 
ATOM     46  C   UNL A   1      38.651  29.804  29.694  1.00  0.00     0.029 A 
ATOM     47  N   UNL A   1      39.286  30.698  31.643  1.00  0.00    -0.354 N 
ATOM     48  C   UNL A   1      42.405  28.844  34.018  1.00  0.00     0.074 A 
ATOM     49  C   UNL A   1      42.951  27.687  33.344  1.00  0.00     0.031 C 
ATOM     50  C   UNL A   1      37.934  30.925  29.876  1.00  0.00     0.029 A 
ATOM     51  C   UNL A   1      38.296  31.519  31.160  1.00  0.00     0.049 A 
ATOM     52  H   UNL A   1      39.758  30.864  32.492  1.00  0.00     0.167 HD
ATOM     53  C   UNL A   1      42.840  29.311  35.212  1.00  0.00     0.037 A 
ATOM     54  C   UNL A   1      37.732  32.614  31.703  1.00  0.00     0.037 A 
ATOM     55  C   UNL A   1      42.311  30.483  35.861  1.00  0.00     0.049 A 
ATOM     56  C   UNL A   1      38.223  33.102  33.039  1.00  0.00     0.074 A 
ATOM     57  C   UNL A   1      42.690  31.044  37.068  1.00  0.00     0.029 A 
ATOM     58  N   UNL A   1      41.295  31.277  35.352  1.00  0.00    -0.354 N 
ATOM     59  N   UNL A   1      39.171  32.606  33.799  1.00  0.00    -0.248 NA
ATOM     60  C   UNL A   1      37.571  34.296  33.591  1.00  0.00     0.031 C 
ATOM     61  C   UNL A   1      41.880  32.161  37.303  1.00  0.00     0.029 A 
ATOM     62  C   UNL A   1      41.023  32.317  36.225  1.00  0.00     0.049 A 
ATOM     63  H   UNL A   1      40.833  31.124  34.496  1.00  0.00     0.167 HD
ATOM     64  C   UNL A   1      39.234  33.434  34.915  1.00  0.00     0.074 A 
ATOM     65  C   UNL A   1      38.246  34.475  34.717  1.00  0.00     0.031 C 
ATOM     66  C   UNL A   1      40.033  33.340  36.007  1.00  0.00     0.037 A 
BRANCH  53  67
ATOM     67  C   UNL A   1      43.918  28.532  35.911  1.00  0.00     0.058 A 
ATOM     68  C   UNL A   1      45.277  28.849  35.766  1.00  0.00     0.135 A 
ATOM     69  C   UNL A   1      43.579  27.467  36.762  1.00  0.00     0.135 A 
ATOM     70  F   UNL A   1      45.656  29.842  34.946  1.00  0.00    -0.206 F 
ATOM     71  C   UNL A   1      46.266  28.125  36.426  1.00  0.00     0.059 A 
ATOM     72  C   UNL A   1      44.549  26.743  37.449  1.00  0.00     0.059 A 
ATOM     73  F   UNL A   1      42.293  27.120  36.930  1.00  0.00    -0.206 F 
ATOM     74  C   UNL A   1      45.891  27.072  37.265  1.00  0.00     0.060 A 
BRANCH  74  75
ATOM     75  S   UNL A   1      47.182  26.143  38.120  1.00  0.00     0.124 S 
ATOM     76  O   UNL A   1      46.583  25.962  39.438  1.00  0.00    -0.237 OA
ATOM     77  O   UNL A   1      47.295  24.938  37.304  1.00  0.00    -0.237 OA
ATOM     78  O   UNL A   1      48.333  27.040  38.072  1.00  0.00    -0.744 OA
ENDBRANCH  74  75
ENDBRANCH  53  67
BRANCH  54  79
ATOM     79  C   UNL A   1      36.619  33.304  31.001  1.00  0.00     0.058 A 
ATOM     80  C   UNL A   1      35.292  33.181  31.437  1.00  0.00     0.135 A 
ATOM     81  C   UNL A   1      36.865  34.101  29.871  1.00  0.00     0.135 A 
ATOM     82  F   UNL A   1      35.005  32.424  32.506  1.00  0.00    -0.206 F 
ATOM     83  C   UNL A   1      34.245  33.810  30.769  1.00  0.00     0.059 A 
ATOM     84  C   UNL A   1      35.839  34.760  29.202  1.00  0.00     0.059 A 
ATOM     85  F   UNL A   1      38.120  34.261  29.421  1.00  0.00    -0.206 F 
ATOM     86  C   UNL A   1      34.530  34.598  29.651  1.00  0.00     0.060 A 
BRANCH  86  87
ATOM     87  S   UNL A   1      33.174  35.445  28.812  1.00  0.00     0.124 S 
ATOM     88  O   UNL A   1      32.560  34.351  28.069  1.00  0.00    -0.237 OA
ATOM     89  O   UNL A   1      32.398  35.973  29.931  1.00  0.00    -0.237 OA
ATOM     90  O   UNL A   1      33.859  36.452  28.006  1.00  0.00    -0.744 OA
ENDBRANCH  86  87
ENDBRANCH  54  79
BRANCH  66  91
ATOM     91  C   UNL A   1      39.879  34.405  37.056  1.00  0.00     0.058 A 
ATOM     92  C   UNL A   1      38.960  34.271  38.108  1.00  0.00     0.135 A 
ATOM     93  C   UNL A   1      40.671  35.563  37.017  1.00  0.00     0.135 A 
ATOM     94  F   UNL A   1      38.176  33.183  38.186  1.00  0.00    -0.206 F 
ATOM     95  C   UNL A   1      38.805  35.266  39.066  1.00  0.00     0.059 A 
ATOM     96  C   UNL A   1      40.549  36.560  37.979  1.00  0.00     0.059 A 
ATOM     97  F   UNL A   1      41.574  35.732  36.039  1.00  0.00    -0.206 F 
ATOM     98  C   UNL A   1      39.600  36.411  38.989  1.00  0.00     0.060 A 
BRANCH  98  99
ATOM     99  S   UNL A   1      39.395  37.699  40.237  1.00  0.00     0.124 S 
ATOM    100  O   UNL A   1      38.248  38.433  39.713  1.00  0.00    -0.237 OA
ATOM    101  O   UNL A   1      39.151  36.927  41.452  1.00  0.00    -0.237 OA
ATOM    102  O   UNL A   1      40.669  38.410  40.201  1.00  0.00    -0.744 OA
ENDBRANCH  98  99
ENDBRANCH  66  91
ENDBRANCH  40  41
ENDBRANCH  33  35
ENDBRANCH  32  33
ENDBRANCH   1  32
TORSDOF 19
ENDMDL
MODEL 3
REMARK VINA RESULT:     -10.3      4.640      8.248
REMARK SMILES CCOc1cc2c(cc1OCC)[C@@H](C(=O)OCCOC(=O)c1ccc(-c3c4nc(c(-c5c(F)cc(S(=O)(=O)[O-])cc5F)c5ccc([nH]5)c(-c5c(F)cc(S(=O)(=O)[O-])cc5F)c5nc(c(-c6c(F)cc(S(=O)(=O)[O-])cc6F)c6ccc3[nH]6)C=C5)C=C4)cc1)[C@H](c1ccc(F)cc1Cl)N(C)C2=O
REMARK SMILES IDX 18 1 17 2 16 3 14 4 15 5 13 6 4 7 5 8 9 9 6 10 8 11 7 12
REMARK SMILES IDX 99 13 97 14 100 15 88 16 98 17 3 18 2 19 1 20 10 21 11 22
REMARK SMILES IDX 12 23 89 24 90 25 95 26 91 27 94 28 96 29 92 30 93 31 19 32
REMARK SMILES IDX 20 33 21 34 22 35 23 36 87 37 24 38 86 39 25 40 26 41 27 42
REMARK SMILES IDX 80 43 28 44 85 45 79 46 81 47 29 48 84 49 78 50 77 51 30 53
REMARK SMILES IDX 64 54 43 55 63 56 44 57 47 58 62 59 82 60 45 61 46 62 61 64
REMARK SMILES IDX 83 65 48 66 31 67 32 68 41 69 33 70 34 71 40 72 42 73 35 74
REMARK SMILES IDX 36 75 37 76 38 77 39 78 65 79 66 80 75 81 67 82 68 83 74 84
REMARK SMILES IDX 76 85 69 86 70 87 71 88 72 89 73 90 49 91 50 92 59 93 51 94
REMARK SMILES IDX 52 95 58 96 60 97 53 98 54 99 55 100 56 101 57 102
REMARK H PARENT 81 52 47 63
REMARK Flexibility Score: inf
ROOT
ATOM      1  C   UNL A   1      36.067  31.811  32.846  1.00  0.00     0.275 C 
ENDROOT
BRANCH   1   2
ATOM      2  C   UNL A   1      37.353  32.643  32.909  1.00  0.00     0.274 C 
BRANCH   2   3
ATOM      3  O   UNL A   1      38.136  32.348  34.083  1.00  0.00    -0.462 OA
BRANCH   3   4
ATOM      4  C   UNL A   1      39.269  31.631  33.886  1.00  0.00     0.316 C 
ATOM      5  O   UNL A   1      39.533  30.591  34.482  1.00  0.00    -0.251 OA
BRANCH   4   6
ATOM      6  C   UNL A   1      40.249  32.252  32.894  1.00  0.00     0.157 C 
ATOM      7  C   UNL A   1      44.240  30.772  33.472  1.00  0.00     0.161 A 
ATOM      8  C   UNL A   1      43.814  31.955  34.099  1.00  0.00     0.064 A 
ATOM      9  C   UNL A   1      43.362  30.053  32.650  1.00  0.00     0.161 A 
ATOM     10  C   UNL A   1      42.509  32.410  33.943  1.00  0.00     0.048 A 
ATOM     11  C   UNL A   1      42.057  30.533  32.488  1.00  0.00     0.056 A 
ATOM     12  C   UNL A   1      41.633  31.709  33.117  1.00  0.00    -0.015 A 
ATOM     13  C   UNL A   1      42.046  33.641  34.645  1.00  0.00     0.254 C 
ATOM     14  N   UNL A   1      40.939  34.287  34.092  1.00  0.00    -0.333 N 
ATOM     15  O   UNL A   1      42.622  34.016  35.661  1.00  0.00    -0.269 OA
ATOM     16  C   UNL A   1      40.314  33.807  32.853  1.00  0.00     0.135 C 
ATOM     17  C   UNL A   1      40.359  35.422  34.787  1.00  0.00     0.147 C 
BRANCH   7  18
ATOM     18  O   UNL A   1      45.555  30.414  33.606  1.00  0.00    -0.490 OA
BRANCH  18  19
ATOM     19  C   UNL A   1      46.402  31.513  33.967  1.00  0.00     0.226 C 
ATOM     20  C   UNL A   1      47.226  31.196  35.204  1.00  0.00     0.049 C 
ENDBRANCH  18  19
ENDBRANCH   7  18
BRANCH   9  21
ATOM     21  O   UNL A   1      43.558  28.911  31.933  1.00  0.00    -0.490 OA
BRANCH  21  22
ATOM     22  C   UNL A   1      43.139  27.645  32.417  1.00  0.00     0.226 C 
ATOM     23  C   UNL A   1      41.984  27.795  33.390  1.00  0.00     0.049 C 
ENDBRANCH  21  22
ENDBRANCH   9  21
BRANCH  16  24
ATOM     24  C   UNL A   1      40.964  34.305  31.527  1.00  0.00    -0.005 A 
ATOM     25  C   UNL A   1      42.287  34.813  31.640  1.00  0.00     0.010 A 
ATOM     26  C   UNL A   1      40.390  34.354  30.235  1.00  0.00     0.049 A 
ATOM     27  C   UNL A   1      42.952  35.424  30.572  1.00  0.00     0.040 A 
ATOM     28  C   UNL A   1      41.065  34.965  29.166  1.00  0.00     0.060 A 
ATOM     29  Cl  UNL A   1      38.868  33.679  29.779  1.00  0.00    -0.084 Cl
ATOM     30  C   UNL A   1      42.324  35.510  29.346  1.00  0.00     0.124 A 
ATOM     31  F   UNL A   1      42.939  36.108  28.319  1.00  0.00    -0.207 F 
ENDBRANCH  16  24
ENDBRANCH   4   6
ENDBRANCH   3   4
ENDBRANCH   2   3
ENDBRANCH   1   2
BRANCH   1  32
ATOM     32  O   UNL A   1      36.236  30.603  32.080  1.00  0.00    -0.458 OA
BRANCH  32  33
ATOM     33  C   UNL A   1      36.240  30.787  30.739  1.00  0.00     0.338 C 
ATOM     34  O   UNL A   1      35.489  31.499  30.094  1.00  0.00    -0.246 OA
BRANCH  33  35
ATOM     35  C   UNL A   1      37.421  30.155  30.133  1.00  0.00     0.060 A 
ATOM     36  C   UNL A   1      38.357  29.602  31.009  1.00  0.00     0.016 A 
ATOM     37  C   UNL A   1      37.680  30.205  28.764  1.00  0.00     0.016 A 
ATOM     38  C   UNL A   1      39.572  29.129  30.541  1.00  0.00     0.010 A 
ATOM     39  C   UNL A   1      38.907  29.726  28.287  1.00  0.00     0.010 A 
ATOM     40  C   UNL A   1      39.868  29.212  29.177  1.00  0.00    -0.014 A 
BRANCH  40  41
ATOM     41  C   UNL A   1      41.237  28.856  28.736  1.00  0.00     0.031 A 
ATOM     42  C   UNL A   1      42.317  29.900  28.771  1.00  0.00     0.074 A 
ATOM     43  C   UNL A   1      41.526  27.584  28.404  1.00  0.00     0.049 A 
ATOM     44  N   UNL A   1      43.573  29.802  28.424  1.00  0.00    -0.248 NA
ATOM     45  C   UNL A   1      41.933  31.233  29.267  1.00  0.00     0.031 C 
ATOM     46  C   UNL A   1      40.568  26.477  28.391  1.00  0.00     0.029 A 
ATOM     47  N   UNL A   1      42.710  27.006  28.027  1.00  0.00    -0.354 N 
ATOM     48  C   UNL A   1      44.122  31.062  28.627  1.00  0.00     0.074 A 
ATOM     49  C   UNL A   1      43.062  31.912  29.123  1.00  0.00     0.031 C 
ATOM     50  C   UNL A   1      41.205  25.351  28.030  1.00  0.00     0.029 A 
ATOM     51  C   UNL A   1      42.603  25.665  27.747  1.00  0.00     0.049 A 
ATOM     52  H   UNL A   1      43.557  27.505  27.962  1.00  0.00     0.167 HD
ATOM     53  C   UNL A   1      45.396  31.470  28.418  1.00  0.00     0.037 A 
ATOM     54  C   UNL A   1      43.525  24.795  27.293  1.00  0.00     0.037 A 
ATOM     55  C   UNL A   1      46.452  30.608  27.954  1.00  0.00     0.049 A 
ATOM     56  C   UNL A   1      44.930  25.278  27.054  1.00  0.00     0.074 A 
ATOM     57  C   UNL A   1      47.780  30.923  27.719  1.00  0.00     0.029 A 
ATOM     58  N   UNL A   1      46.302  29.262  27.660  1.00  0.00    -0.354 N 
ATOM     59  N   UNL A   1      45.429  26.478  27.233  1.00  0.00    -0.248 NA
ATOM     60  C   UNL A   1      45.896  24.292  26.554  1.00  0.00     0.031 C 
ATOM     61  C   UNL A   1      48.425  29.771  27.253  1.00  0.00     0.029 A 
ATOM     62  C   UNL A   1      47.509  28.732  27.234  1.00  0.00     0.049 A 
ATOM     63  H   UNL A   1      45.461  28.756  27.741  1.00  0.00     0.167 HD
ATOM     64  C   UNL A   1      46.770  26.388  26.875  1.00  0.00     0.074 A 
ATOM     65  C   UNL A   1      47.008  25.010  26.494  1.00  0.00     0.031 C 
ATOM     66  C   UNL A   1      47.719  27.357  26.858  1.00  0.00     0.037 A 
BRANCH  53  67
ATOM     67  C   UNL A   1      45.709  32.920  28.657  1.00  0.00     0.058 A 
ATOM     68  C   UNL A   1      46.109  33.397  29.915  1.00  0.00     0.135 A 
ATOM     69  C   UNL A   1      45.632  33.841  27.600  1.00  0.00     0.135 A 
ATOM     70  F   UNL A   1      46.175  32.562  30.965  1.00  0.00    -0.206 F 
ATOM     71  C   UNL A   1      46.404  34.741  30.121  1.00  0.00     0.059 A 
ATOM     72  C   UNL A   1      45.944  35.185  27.777  1.00  0.00     0.059 A 
ATOM     73  F   UNL A   1      45.248  33.436  26.378  1.00  0.00    -0.206 F 
ATOM     74  C   UNL A   1      46.317  35.629  29.045  1.00  0.00     0.060 A 
BRANCH  74  75
ATOM     75  S   UNL A   1      46.708  37.369  29.323  1.00  0.00     0.124 S 
ATOM     76  O   UNL A   1      47.042  37.811  27.973  1.00  0.00    -0.237 OA
ATOM     77  O   UNL A   1      45.458  37.888  29.869  1.00  0.00    -0.237 OA
ATOM     78  O   UNL A   1      47.825  37.320  30.262  1.00  0.00    -0.744 OA
ENDBRANCH  74  75
ENDBRANCH  53  67
BRANCH  54  79
ATOM     79  C   UNL A   1      43.142  23.388  27.005  1.00  0.00     0.058 A 
ATOM     80  C   UNL A   1      42.964  22.934  25.691  1.00  0.00     0.135 A 
ATOM     81  C   UNL A   1      42.945  22.469  28.048  1.00  0.00     0.135 A 
ATOM     82  F   UNL A   1      43.133  23.777  24.662  1.00  0.00    -0.206 F 
ATOM     83  C   UNL A   1      42.586  21.622  25.419  1.00  0.00     0.059 A 
ATOM     84  C   UNL A   1      42.592  21.146  27.801  1.00  0.00     0.059 A 
ATOM     85  F   UNL A   1      43.116  22.850  29.324  1.00  0.00    -0.206 F 
ATOM     86  C   UNL A   1      42.402  20.736  26.483  1.00  0.00     0.060 A 
BRANCH  86  87
ATOM     87  S   UNL A   1      41.952  19.024  26.124  1.00  0.00     0.124 S 
ATOM     88  O   UNL A   1      42.284  18.364  27.381  1.00  0.00    -0.237 OA
ATOM     89  O   UNL A   1      40.529  19.136  25.817  1.00  0.00    -0.237 OA
ATOM     90  O   UNL A   1      42.804  18.687  24.988  1.00  0.00    -0.744 OA
ENDBRANCH  86  87
ENDBRANCH  54  79
BRANCH  66  91
ATOM     91  C   UNL A   1      49.101  26.948  26.431  1.00  0.00     0.058 A 
ATOM     92  C   UNL A   1      50.051  26.495  27.359  1.00  0.00     0.135 A 
ATOM     93  C   UNL A   1      49.471  26.995  25.079  1.00  0.00     0.135 A 
ATOM     94  F   UNL A   1      49.746  26.437  28.666  1.00  0.00    -0.206 F 
ATOM     95  C   UNL A   1      51.335  26.137  26.965  1.00  0.00     0.059 A 
ATOM     96  C   UNL A   1      50.743  26.618  24.659  1.00  0.00     0.059 A 
ATOM     97  F   UNL A   1      48.594  27.409  24.151  1.00  0.00    -0.206 F 
ATOM     98  C   UNL A   1      51.674  26.208  25.612  1.00  0.00     0.060 A 
BRANCH  98  99
ATOM     99  S   UNL A   1      53.342  25.740  25.107  1.00  0.00     0.124 S 
ATOM    100  O   UNL A   1      54.156  26.469  26.075  1.00  0.00    -0.237 OA
ATOM    101  O   UNL A   1      53.324  24.288  25.260  1.00  0.00    -0.237 OA
ATOM    102  O   UNL A   1      53.424  26.217  23.730  1.00  0.00    -0.744 OA
ENDBRANCH  98  99
ENDBRANCH  66  91
ENDBRANCH  40  41
ENDBRANCH  33  35
ENDBRANCH  32  33
ENDBRANCH   1  32
TORSDOF 19
ENDMDL
