MODEL 1
REMARK VINA RESULT:     -11.3      0.000      0.000
REMARK SMILES C[C@](C(=O)OCCOC(=O)c1ccc(-c2c3nc(c(-c4c(F)cc(S(=O)(=O)[O-])cc4F)c4ccc([nH]4)c(-c4c(F)cc(S(=O)(=O)[O-])cc4F)c4nc(c(-c5c(F)cc(S(=O)(=O)[O-])cc5F)c5ccc2[nH]5)C=C4)C=C3)cc1)(c1cc(F)cc(F)c1)[NH+]1CCCC1
REMARK SMILES IDX 7 1 6 2 5 3 3 4 4 5 2 6 1 7 77 8 78 9 84 10 79 11 82 12
REMARK SMILES IDX 80 13 81 14 83 15 85 16 86 17 89 18 87 20 88 21 8 22 9 23
REMARK SMILES IDX 10 24 11 25 12 26 76 27 13 28 75 29 14 30 15 31 16 32 69 33
REMARK SMILES IDX 17 34 74 35 68 36 70 37 18 38 73 39 67 40 66 41 19 43 53 44
REMARK SMILES IDX 32 45 52 46 33 47 36 48 51 49 71 50 34 51 35 52 50 54 72 55
REMARK SMILES IDX 37 56 20 57 21 58 30 59 22 60 23 61 29 62 31 63 24 64 25 65
REMARK SMILES IDX 26 66 27 67 28 68 54 69 55 70 64 71 56 72 57 73 63 74 65 75
REMARK SMILES IDX 58 76 59 77 60 78 61 79 62 80 38 81 39 82 48 83 40 84 41 85
REMARK SMILES IDX 47 86 49 87 42 88 43 89 44 90 45 91 46 92
REMARK H PARENT 85 19 70 42 36 53
REMARK Flexibility Score: inf
ROOT
ATOM      1  C   UNL A   1      34.441  31.028  27.903  1.00  0.00     0.275 C 
ENDROOT
BRANCH   1   2
ATOM      2  C   UNL A   1      33.534  30.427  26.827  1.00  0.00     0.274 C 
BRANCH   2   3
ATOM      3  O   UNL A   1      33.666  28.993  26.741  1.00  0.00    -0.457 OA
BRANCH   3   4
ATOM      4  C   UNL A   1      32.519  28.259  26.812  1.00  0.00     0.372 C 
ATOM      5  O   UNL A   1      31.762  28.322  27.779  1.00  0.00    -0.244 OA
BRANCH   4   6
ATOM      6  C   UNL A   1      32.312  27.268  25.594  1.00  0.00     0.218 C 
ATOM      7  C   UNL A   1      32.078  25.878  26.257  1.00  0.00     0.098 C 
BRANCH   6   8
ATOM      8  C   UNL A   1      31.095  27.651  24.705  1.00  0.00     0.029 A 
ATOM      9  C   UNL A   1      30.944  28.932  24.129  1.00  0.00     0.050 A 
ATOM     10  C   UNL A   1      30.052  26.734  24.465  1.00  0.00     0.050 A 
ATOM     11  C   UNL A   1      29.823  29.258  23.363  1.00  0.00     0.126 A 
ATOM     12  C   UNL A   1      28.941  27.080  23.693  1.00  0.00     0.126 A 
ATOM     13  F   UNL A   1      29.716  30.491  22.852  1.00  0.00    -0.207 F 
ATOM     14  C   UNL A   1      28.815  28.340  23.137  1.00  0.00     0.078 A 
ATOM     15  F   UNL A   1      27.971  26.175  23.499  1.00  0.00    -0.207 F 
ENDBRANCH   6   8
BRANCH   6  16
ATOM     16  N   UNL A   1      33.592  27.005  24.850  1.00  0.00    -0.317 N 
ATOM     17  C   UNL A   1      33.862  27.701  23.597  1.00  0.00     0.263 C 
ATOM     18  C   UNL A   1      34.038  25.632  24.637  1.00  0.00     0.263 C 
ATOM     19  H   UNL A   1      34.126  27.433  25.606  1.00  0.00     0.349 HD
ATOM     20  C   UNL A   1      33.456  26.701  22.536  1.00  0.00     0.067 C 
ATOM     21  C   UNL A   1      33.801  25.351  23.155  1.00  0.00     0.067 C 
ENDBRANCH   6  16
ENDBRANCH   4   6
ENDBRANCH   3   4
ENDBRANCH   2   3
ENDBRANCH   1   2
BRANCH   1  22
ATOM     22  O   UNL A   1      35.533  30.149  28.220  1.00  0.00    -0.458 OA
BRANCH  22  23
ATOM     23  C   UNL A   1      36.206  30.459  29.351  1.00  0.00     0.338 C 
ATOM     24  O   UNL A   1      35.735  30.762  30.433  1.00  0.00    -0.246 OA
BRANCH  23  25
ATOM     25  C   UNL A   1      37.646  30.273  29.131  1.00  0.00     0.060 A 
ATOM     26  C   UNL A   1      38.068  29.946  27.845  1.00  0.00     0.016 A 
ATOM     27  C   UNL A   1      38.549  30.278  30.191  1.00  0.00     0.016 A 
ATOM     28  C   UNL A   1      39.375  29.544  27.615  1.00  0.00     0.010 A 
ATOM     29  C   UNL A   1      39.886  29.938  29.946  1.00  0.00     0.010 A 
ATOM     30  C   UNL A   1      40.301  29.538  28.663  1.00  0.00    -0.014 A 
BRANCH  30  31
ATOM     31  C   UNL A   1      41.684  29.061  28.410  1.00  0.00     0.031 A 
ATOM     32  C   UNL A   1      42.838  30.013  28.546  1.00  0.00     0.074 A 
ATOM     33  C   UNL A   1      41.907  27.767  28.108  1.00  0.00     0.049 A 
ATOM     34  N   UNL A   1      44.094  29.840  28.223  1.00  0.00    -0.248 NA
ATOM     35  C   UNL A   1      42.542  31.338  29.115  1.00  0.00     0.031 C 
ATOM     36  C   UNL A   1      40.878  26.728  28.015  1.00  0.00     0.029 A 
ATOM     37  N   UNL A   1      43.075  27.100  27.839  1.00  0.00    -0.354 N 
ATOM     38  C   UNL A   1      44.724  31.050  28.489  1.00  0.00     0.074 A 
ATOM     39  C   UNL A   1      43.717  31.944  29.017  1.00  0.00     0.031 C 
ATOM     40  C   UNL A   1      41.464  25.552  27.742  1.00  0.00     0.029 A 
ATOM     41  C   UNL A   1      42.896  25.765  27.567  1.00  0.00     0.049 A 
ATOM     42  H   UNL A   1      43.958  27.537  27.839  1.00  0.00     0.167 HD
ATOM     43  C   UNL A   1      46.022  31.381  28.298  1.00  0.00     0.037 A 
ATOM     44  C   UNL A   1      43.781  24.825  27.182  1.00  0.00     0.037 A 
ATOM     45  C   UNL A   1      47.027  30.465  27.825  1.00  0.00     0.049 A 
ATOM     46  C   UNL A   1      45.216  25.217  26.973  1.00  0.00     0.074 A 
ATOM     47  C   UNL A   1      48.369  30.703  27.585  1.00  0.00     0.029 A 
ATOM     48  N   UNL A   1      46.801  29.127  27.539  1.00  0.00    -0.354 N 
ATOM     49  N   UNL A   1      45.780  26.389  27.142  1.00  0.00    -0.248 NA
ATOM     50  C   UNL A   1      46.126  24.169  26.496  1.00  0.00     0.031 C 
ATOM     51  C   UNL A   1      48.951  29.511  27.139  1.00  0.00     0.029 A 
ATOM     52  C   UNL A   1      47.977  28.526  27.125  1.00  0.00     0.049 A 
ATOM     53  H   UNL A   1      45.932  28.671  27.620  1.00  0.00     0.167 HD
ATOM     54  C   UNL A   1      47.113  26.221  26.789  1.00  0.00     0.074 A 
ATOM     55  C   UNL A   1      47.275  24.829  26.417  1.00  0.00     0.031 C 
ATOM     56  C   UNL A   1      48.110  27.138  26.760  1.00  0.00     0.037 A 
BRANCH  43  57
ATOM     57  C   UNL A   1      46.416  32.807  28.556  1.00  0.00     0.058 A 
ATOM     58  C   UNL A   1      46.893  33.234  29.803  1.00  0.00     0.135 A 
ATOM     59  C   UNL A   1      46.325  33.757  27.526  1.00  0.00     0.135 A 
ATOM     60  F   UNL A   1      46.978  32.368  30.827  1.00  0.00    -0.206 F 
ATOM     61  C   UNL A   1      47.247  34.561  30.028  1.00  0.00     0.059 A 
ATOM     62  C   UNL A   1      46.690  35.085  27.724  1.00  0.00     0.059 A 
ATOM     63  F   UNL A   1      45.871  33.399  26.315  1.00  0.00    -0.206 F 
ATOM     64  C   UNL A   1      47.137  35.481  28.984  1.00  0.00     0.060 A 
BRANCH  64  65
ATOM     65  S   UNL A   1      47.592  37.202  29.283  1.00  0.00     0.124 S 
ATOM     66  O   UNL A   1      49.048  37.114  29.325  1.00  0.00    -0.237 OA
ATOM     67  O   UNL A   1      47.033  37.885  28.119  1.00  0.00    -0.237 OA
ATOM     68  O   UNL A   1      46.942  37.508  30.553  1.00  0.00    -0.744 OA
ENDBRANCH  64  65
ENDBRANCH  43  57
BRANCH  44  69
ATOM     69  C   UNL A   1      43.319  23.436  26.929  1.00  0.00     0.058 A 
ATOM     70  C   UNL A   1      43.193  22.945  25.622  1.00  0.00     0.135 A 
ATOM     71  C   UNL A   1      43.023  22.566  27.989  1.00  0.00     0.135 A 
ATOM     72  F   UNL A   1      43.454  23.744  24.576  1.00  0.00    -0.206 F 
ATOM     73  C   UNL A   1      42.792  21.636  25.373  1.00  0.00     0.059 A 
ATOM     74  C   UNL A   1      42.641  21.248  27.767  1.00  0.00     0.059 A 
ATOM     75  F   UNL A   1      43.139  22.988  29.258  1.00  0.00    -0.206 F 
ATOM     76  C   UNL A   1      42.522  20.793  26.454  1.00  0.00     0.060 A 
BRANCH  76  77
ATOM     77  S   UNL A   1      42.073  19.073  26.135  1.00  0.00     0.124 S 
ATOM     78  O   UNL A   1      42.966  18.737  25.031  1.00  0.00    -0.237 OA
ATOM     79  O   UNL A   1      42.366  18.429  27.412  1.00  0.00    -0.237 OA
ATOM     80  O   UNL A   1      40.654  19.158  25.798  1.00  0.00    -0.744 OA
ENDBRANCH  76  77
ENDBRANCH  44  69
BRANCH  56  81
ATOM     81  C   UNL A   1      49.461  26.658  26.323  1.00  0.00     0.058 A 
ATOM     82  C   UNL A   1      49.897  26.821  25.000  1.00  0.00     0.135 A 
ATOM     83  C   UNL A   1      50.340  26.067  27.243  1.00  0.00     0.135 A 
ATOM     84  F   UNL A   1      49.086  27.376  24.085  1.00  0.00    -0.206 F 
ATOM     85  C   UNL A   1      51.158  26.395  24.597  1.00  0.00     0.059 A 
ATOM     86  C   UNL A   1      51.611  25.648  26.864  1.00  0.00     0.059 A 
ATOM     87  F   UNL A   1      49.968  25.896  28.521  1.00  0.00    -0.206 F 
ATOM     88  C   UNL A   1      52.006  25.806  25.536  1.00  0.00     0.060 A 
BRANCH  88  89
ATOM     89  S   UNL A   1      53.653  25.280  25.014  1.00  0.00     0.124 S 
ATOM     90  O   UNL A   1      53.732  25.852  23.673  1.00  0.00    -0.237 OA
ATOM     91  O   UNL A   1      54.517  25.893  26.018  1.00  0.00    -0.237 OA
ATOM     92  O   UNL A   1      53.574  23.823  25.072  1.00  0.00    -0.744 OA
ENDBRANCH  88  89
ENDBRANCH  56  81
ENDBRANCH  30  31
ENDBRANCH  23  25
ENDBRANCH  22  23
ENDBRANCH   1  22
TORSDOF 16
ENDMDL
MODEL 2
REMARK VINA RESULT:     -11.2      2.636      3.621
REMARK SMILES C[C@](C(=O)OCCOC(=O)c1ccc(-c2c3nc(c(-c4c(F)cc(S(=O)(=O)[O-])cc4F)c4ccc([nH]4)c(-c4c(F)cc(S(=O)(=O)[O-])cc4F)c4nc(c(-c5c(F)cc(S(=O)(=O)[O-])cc5F)c5ccc2[nH]5)C=C4)C=C3)cc1)(c1cc(F)cc(F)c1)[NH+]1CCCC1
REMARK SMILES IDX 7 1 6 2 5 3 3 4 4 5 2 6 1 7 77 8 78 9 84 10 79 11 82 12
REMARK SMILES IDX 80 13 81 14 83 15 85 16 86 17 89 18 87 20 88 21 8 22 9 23
REMARK SMILES IDX 10 24 11 25 12 26 76 27 13 28 75 29 14 30 15 31 16 32 69 33
REMARK SMILES IDX 17 34 74 35 68 36 70 37 18 38 73 39 67 40 66 41 19 43 53 44
REMARK SMILES IDX 32 45 52 46 33 47 36 48 51 49 71 50 34 51 35 52 50 54 72 55
REMARK SMILES IDX 37 56 20 57 21 58 30 59 22 60 23 61 29 62 31 63 24 64 25 65
REMARK SMILES IDX 26 66 27 67 28 68 54 69 55 70 64 71 56 72 57 73 63 74 65 75
REMARK SMILES IDX 58 76 59 77 60 78 61 79 62 80 38 81 39 82 48 83 40 84 41 85
REMARK SMILES IDX 47 86 49 87 42 88 43 89 44 90 45 91 46 92
REMARK H PARENT 85 19 70 42 36 53
REMARK Flexibility Score: inf
ROOT
ATOM      1  C   UNL A   1      32.730  28.735  26.576  1.00  0.00     0.275 C 
ENDROOT
BRANCH   1   2
ATOM      2  C   UNL A   1      31.761  27.602  26.920  1.00  0.00     0.274 C 
BRANCH   2   3
ATOM      3  O   UNL A   1      32.271  26.310  26.529  1.00  0.00    -0.457 OA
BRANCH   3   4
ATOM      4  C   UNL A   1      31.357  25.316  26.335  1.00  0.00     0.372 C 
ATOM      5  O   UNL A   1      30.148  25.508  26.450  1.00  0.00    -0.244 OA
BRANCH   4   6
ATOM      6  C   UNL A   1      32.002  23.898  26.046  1.00  0.00     0.218 C 
ATOM      7  C   UNL A   1      30.910  22.877  26.486  1.00  0.00     0.098 C 
BRANCH   6   8
ATOM      8  C   UNL A   1      32.357  23.692  24.546  1.00  0.00     0.029 A 
ATOM      9  C   UNL A   1      32.864  24.729  23.733  1.00  0.00     0.050 A 
ATOM     10  C   UNL A   1      32.146  22.450  23.912  1.00  0.00     0.050 A 
ATOM     11  C   UNL A   1      33.143  24.523  22.380  1.00  0.00     0.126 A 
ATOM     12  C   UNL A   1      32.434  22.265  22.558  1.00  0.00     0.126 A 
ATOM     13  F   UNL A   1      33.607  25.542  21.645  1.00  0.00    -0.207 F 
ATOM     14  C   UNL A   1      32.932  23.295  21.781  1.00  0.00     0.078 A 
ATOM     15  F   UNL A   1      32.208  21.068  21.999  1.00  0.00    -0.207 F 
ENDBRANCH   6   8
BRANCH   6  16
ATOM     16  N   UNL A   1      33.099  23.562  27.017  1.00  0.00    -0.317 N 
ATOM     17  C   UNL A   1      34.491  23.589  26.581  1.00  0.00     0.263 C 
ATOM     18  C   UNL A   1      32.980  22.381  27.866  1.00  0.00     0.263 C 
ATOM     19  H   UNL A   1      32.888  24.402  27.555  1.00  0.00     0.349 HD
ATOM     20  C   UNL A   1      34.800  22.139  26.278  1.00  0.00     0.067 C 
ATOM     21  C   UNL A   1      33.969  21.367  27.296  1.00  0.00     0.067 C 
ENDBRANCH   6  16
ENDBRANCH   4   6
ENDBRANCH   3   4
ENDBRANCH   2   3
ENDBRANCH   1   2
BRANCH   1  22
ATOM     22  O   UNL A   1      33.890  28.709  27.424  1.00  0.00    -0.458 OA
BRANCH  22  23
ATOM     23  C   UNL A   1      34.318  29.921  27.843  1.00  0.00     0.338 C 
ATOM     24  O   UNL A   1      33.651  30.927  28.004  1.00  0.00    -0.246 OA
BRANCH  23  25
ATOM     25  C   UNL A   1      35.741  29.842  28.198  1.00  0.00     0.060 A 
ATOM     26  C   UNL A   1      36.674  30.097  27.196  1.00  0.00     0.016 A 
ATOM     27  C   UNL A   1      36.155  29.389  29.449  1.00  0.00     0.016 A 
ATOM     28  C   UNL A   1      38.019  29.827  27.402  1.00  0.00     0.010 A 
ATOM     29  C   UNL A   1      37.521  29.183  29.680  1.00  0.00     0.010 A 
ATOM     30  C   UNL A   1      38.459  29.370  28.649  1.00  0.00    -0.014 A 
BRANCH  30  31
ATOM     31  C   UNL A   1      39.894  29.042  28.839  1.00  0.00     0.031 A 
ATOM     32  C   UNL A   1      40.822  30.067  29.426  1.00  0.00     0.074 A 
ATOM     33  C   UNL A   1      40.353  27.813  28.532  1.00  0.00     0.049 A 
ATOM     34  N   UNL A   1      42.125  30.038  29.530  1.00  0.00    -0.248 NA
ATOM     35  C   UNL A   1      40.204  31.291  29.962  1.00  0.00     0.031 C 
ATOM     36  C   UNL A   1      39.539  26.707  28.019  1.00  0.00     0.029 A 
ATOM     37  N   UNL A   1      41.614  27.281  28.619  1.00  0.00    -0.354 N 
ATOM     38  C   UNL A   1      42.489  31.260  30.085  1.00  0.00     0.074 A 
ATOM     39  C   UNL A   1      41.267  32.002  30.311  1.00  0.00     0.031 C 
ATOM     40  C   UNL A   1      40.315  25.623  27.870  1.00  0.00     0.029 A 
ATOM     41  C   UNL A   1      41.690  25.974  28.202  1.00  0.00     0.049 A 
ATOM     42  H   UNL A   1      42.391  27.789  28.949  1.00  0.00     0.167 HD
ATOM     43  C   UNL A   1      43.730  31.719  30.366  1.00  0.00     0.037 A 
ATOM     44  C   UNL A   1      42.756  25.161  28.066  1.00  0.00     0.037 A 
ATOM     45  C   UNL A   1      44.934  30.950  30.189  1.00  0.00     0.049 A 
ATOM     46  C   UNL A   1      44.124  25.694  28.381  1.00  0.00     0.074 A 
ATOM     47  C   UNL A   1      46.243  31.325  30.432  1.00  0.00     0.029 A 
ATOM     48  N   UNL A   1      44.971  29.637  29.743  1.00  0.00    -0.354 N 
ATOM     49  N   UNL A   1      44.462  26.883  28.818  1.00  0.00    -0.248 NA
ATOM     50  C   UNL A   1      45.256  24.786  28.158  1.00  0.00     0.031 C 
ATOM     51  C   UNL A   1      47.074  30.244  30.117  1.00  0.00     0.029 A 
ATOM     52  C   UNL A   1      46.279  29.187  29.702  1.00  0.00     0.049 A 
ATOM     53  H   UNL A   1      44.182  29.103  29.492  1.00  0.00     0.167 HD
ATOM     54  C   UNL A   1      45.847  26.869  28.921  1.00  0.00     0.074 A 
ATOM     55  C   UNL A   1      46.282  25.546  28.520  1.00  0.00     0.031 C 
ATOM     56  C   UNL A   1      46.685  27.865  29.299  1.00  0.00     0.037 A 
BRANCH  43  57
ATOM     57  C   UNL A   1      43.849  33.136  30.849  1.00  0.00     0.058 A 
ATOM     58  C   UNL A   1      44.006  34.213  29.964  1.00  0.00     0.135 A 
ATOM     59  C   UNL A   1      43.791  33.416  32.223  1.00  0.00     0.135 A 
ATOM     60  F   UNL A   1      44.089  33.995  28.642  1.00  0.00    -0.206 F 
ATOM     61  C   UNL A   1      44.122  35.520  30.428  1.00  0.00     0.059 A 
ATOM     62  C   UNL A   1      43.888  34.717  32.707  1.00  0.00     0.059 A 
ATOM     63  F   UNL A   1      43.646  32.420  33.111  1.00  0.00    -0.206 F 
ATOM     64  C   UNL A   1      44.068  35.762  31.802  1.00  0.00     0.060 A 
BRANCH  64  65
ATOM     65  S   UNL A   1      44.226  37.459  32.399  1.00  0.00     0.124 S 
ATOM     66  O   UNL A   1      45.644  37.516  32.740  1.00  0.00    -0.237 OA
ATOM     67  O   UNL A   1      43.824  38.243  31.235  1.00  0.00    -0.237 OA
ATOM     68  O   UNL A   1      43.304  37.506  33.529  1.00  0.00    -0.744 OA
ENDBRANCH  64  65
ENDBRANCH  43  57
BRANCH  44  69
ATOM     69  C   UNL A   1      42.566  23.775  27.567  1.00  0.00     0.058 A 
ATOM     70  C   UNL A   1      42.544  23.500  26.193  1.00  0.00     0.135 A 
ATOM     71  C   UNL A   1      42.435  22.696  28.454  1.00  0.00     0.135 A 
ATOM     72  F   UNL A   1      42.654  24.500  25.305  1.00  0.00    -0.206 F 
ATOM     73  C   UNL A   1      42.400  22.201  25.714  1.00  0.00     0.059 A 
ATOM     74  C   UNL A   1      42.312  21.388  28.001  1.00  0.00     0.059 A 
ATOM     75  F   UNL A   1      42.462  22.909  29.780  1.00  0.00    -0.206 F 
ATOM     76  C   UNL A   1      42.288  21.151  26.627  1.00  0.00     0.060 A 
BRANCH  76  77
ATOM     77  S   UNL A   1      42.175  19.457  26.008  1.00  0.00     0.124 S 
ATOM     78  O   UNL A   1      40.743  19.328  25.768  1.00  0.00    -0.237 OA
ATOM     79  O   UNL A   1      43.021  19.500  24.820  1.00  0.00    -0.237 OA
ATOM     80  O   UNL A   1      42.707  18.665  27.115  1.00  0.00    -0.744 OA
ENDBRANCH  76  77
ENDBRANCH  44  69
BRANCH  56  81
ATOM     81  C   UNL A   1      48.151  27.552  29.305  1.00  0.00     0.058 A 
ATOM     82  C   UNL A   1      48.953  27.807  28.183  1.00  0.00     0.135 A 
ATOM     83  C   UNL A   1      48.764  27.030  30.453  1.00  0.00     0.135 A 
ATOM     84  F   UNL A   1      48.407  28.301  27.060  1.00  0.00    -0.206 F 
ATOM     85  C   UNL A   1      50.317  27.538  28.193  1.00  0.00     0.059 A 
ATOM     86  C   UNL A   1      50.130  26.767  30.490  1.00  0.00     0.059 A 
ATOM     87  F   UNL A   1      48.037  26.776  31.553  1.00  0.00    -0.206 F 
ATOM     88  C   UNL A   1      50.895  27.014  29.351  1.00  0.00     0.060 A 
BRANCH  88  89
ATOM     89  S   UNL A   1      52.672  26.691  29.368  1.00  0.00     0.124 S 
ATOM     90  O   UNL A   1      53.215  28.045  29.402  1.00  0.00    -0.237 OA
ATOM     91  O   UNL A   1      52.841  25.908  30.588  1.00  0.00    -0.237 OA
ATOM     92  O   UNL A   1      52.891  25.956  28.126  1.00  0.00    -0.744 OA
ENDBRANCH  88  89
ENDBRANCH  56  81
ENDBRANCH  30  31
ENDBRANCH  23  25
ENDBRANCH  22  23
ENDBRANCH   1  22
TORSDOF 16
ENDMDL
MODEL 3
REMARK VINA RESULT:     -11.2      2.665      3.831
REMARK SMILES C[C@](C(=O)OCCOC(=O)c1ccc(-c2c3nc(c(-c4c(F)cc(S(=O)(=O)[O-])cc4F)c4ccc([nH]4)c(-c4c(F)cc(S(=O)(=O)[O-])cc4F)c4nc(c(-c5c(F)cc(S(=O)(=O)[O-])cc5F)c5ccc2[nH]5)C=C4)C=C3)cc1)(c1cc(F)cc(F)c1)[NH+]1CCCC1
REMARK SMILES IDX 7 1 6 2 5 3 3 4 4 5 2 6 1 7 77 8 78 9 84 10 79 11 82 12
REMARK SMILES IDX 80 13 81 14 83 15 85 16 86 17 89 18 87 20 88 21 8 22 9 23
REMARK SMILES IDX 10 24 11 25 12 26 76 27 13 28 75 29 14 30 15 31 16 32 69 33
REMARK SMILES IDX 17 34 74 35 68 36 70 37 18 38 73 39 67 40 66 41 19 43 53 44
REMARK SMILES IDX 32 45 52 46 33 47 36 48 51 49 71 50 34 51 35 52 50 54 72 55
REMARK SMILES IDX 37 56 20 57 21 58 30 59 22 60 23 61 29 62 31 63 24 64 25 65
REMARK SMILES IDX 26 66 27 67 28 68 54 69 55 70 64 71 56 72 57 73 63 74 65 75
REMARK SMILES IDX 58 76 59 77 60 78 61 79 62 80 38 81 39 82 48 83 40 84 41 85
REMARK SMILES IDX 47 86 49 87 42 88 43 89 44 90 45 91 46 92
REMARK H PARENT 85 19 70 42 36 53
REMARK Flexibility Score: inf
ROOT
ATOM      1  C   UNL A   1      32.420  28.505  27.645  1.00  0.00     0.275 C 
ENDROOT
BRANCH   1   2
ATOM      2  C   UNL A   1      31.848  27.613  26.541  1.00  0.00     0.274 C 
BRANCH   2   3
ATOM      3  O   UNL A   1      32.756  26.555  26.170  1.00  0.00    -0.457 OA
BRANCH   3   4
ATOM      4  C   UNL A   1      32.209  25.333  25.907  1.00  0.00     0.372 C 
ATOM      5  O   UNL A   1      31.515  24.738  26.729  1.00  0.00    -0.244 OA
BRANCH   4   6
ATOM      6  C   UNL A   1      32.627  24.729  24.503  1.00  0.00     0.218 C 
ATOM      7  C   UNL A   1      33.791  25.644  24.017  1.00  0.00     0.098 C 
BRANCH   6   8
ATOM      8  C   UNL A   1      33.109  23.253  24.602  1.00  0.00     0.029 A 
ATOM      9  C   UNL A   1      32.461  22.194  23.929  1.00  0.00     0.050 A 
ATOM     10  C   UNL A   1      34.206  22.899  25.412  1.00  0.00     0.050 A 
ATOM     11  C   UNL A   1      32.896  20.874  24.063  1.00  0.00     0.126 A 
ATOM     12  C   UNL A   1      34.626  21.572  25.530  1.00  0.00     0.126 A 
ATOM     13  F   UNL A   1      32.240  19.900  23.418  1.00  0.00    -0.207 F 
ATOM     14  C   UNL A   1      33.978  20.550  24.860  1.00  0.00     0.078 A 
ATOM     15  F   UNL A   1      35.670  21.284  26.320  1.00  0.00    -0.207 F 
ENDBRANCH   6   8
BRANCH   6  16
ATOM     16  N   UNL A   1      31.601  25.000  23.438  1.00  0.00    -0.317 N 
ATOM     17  C   UNL A   1      31.839  26.041  22.445  1.00  0.00     0.263 C 
ATOM     18  C   UNL A   1      30.193  25.124  23.803  1.00  0.00     0.263 C 
ATOM     19  H   UNL A   1      31.776  24.082  23.029  1.00  0.00     0.349 HD
ATOM     20  C   UNL A   1      31.077  27.232  22.983  1.00  0.00     0.067 C 
ATOM     21  C   UNL A   1      29.868  26.610  23.675  1.00  0.00     0.067 C 
ENDBRANCH   6  16
ENDBRANCH   4   6
ENDBRANCH   3   4
ENDBRANCH   2   3
ENDBRANCH   1   2
BRANCH   1  22
ATOM     22  O   UNL A   1      33.832  28.711  27.474  1.00  0.00    -0.458 OA
BRANCH  22  23
ATOM     23  C   UNL A   1      34.279  29.934  27.837  1.00  0.00     0.338 C 
ATOM     24  O   UNL A   1      33.627  30.957  27.954  1.00  0.00    -0.246 OA
BRANCH  23  25
ATOM     25  C   UNL A   1      35.701  29.851  28.193  1.00  0.00     0.060 A 
ATOM     26  C   UNL A   1      36.636  30.142  27.202  1.00  0.00     0.016 A 
ATOM     27  C   UNL A   1      36.114  29.360  29.429  1.00  0.00     0.016 A 
ATOM     28  C   UNL A   1      37.981  29.872  27.403  1.00  0.00     0.010 A 
ATOM     29  C   UNL A   1      37.481  29.152  29.657  1.00  0.00     0.010 A 
ATOM     30  C   UNL A   1      38.421  29.377  28.635  1.00  0.00    -0.014 A 
BRANCH  30  31
ATOM     31  C   UNL A   1      39.857  29.049  28.818  1.00  0.00     0.031 A 
ATOM     32  C   UNL A   1      40.788  30.078  29.394  1.00  0.00     0.074 A 
ATOM     33  C   UNL A   1      40.313  27.819  28.514  1.00  0.00     0.049 A 
ATOM     34  N   UNL A   1      42.092  30.049  29.491  1.00  0.00    -0.248 NA
ATOM     35  C   UNL A   1      40.174  31.305  29.927  1.00  0.00     0.031 C 
ATOM     36  C   UNL A   1      39.496  26.711  28.013  1.00  0.00     0.029 A 
ATOM     37  N   UNL A   1      41.575  27.287  28.597  1.00  0.00    -0.354 N 
ATOM     38  C   UNL A   1      42.459  31.273  30.036  1.00  0.00     0.074 A 
ATOM     39  C   UNL A   1      41.239  32.017  30.266  1.00  0.00     0.031 C 
ATOM     40  C   UNL A   1      40.271  25.625  27.864  1.00  0.00     0.029 A 
ATOM     41  C   UNL A   1      41.649  25.978  28.186  1.00  0.00     0.049 A 
ATOM     42  H   UNL A   1      42.355  27.797  28.919  1.00  0.00     0.167 HD
ATOM     43  C   UNL A   1      43.702  31.734  30.308  1.00  0.00     0.037 A 
ATOM     44  C   UNL A   1      42.713  25.164  28.047  1.00  0.00     0.037 A 
ATOM     45  C   UNL A   1      44.905  30.964  30.127  1.00  0.00     0.049 A 
ATOM     46  C   UNL A   1      44.083  25.698  28.351  1.00  0.00     0.074 A 
ATOM     47  C   UNL A   1      46.216  31.340  30.360  1.00  0.00     0.029 A 
ATOM     48  N   UNL A   1      44.939  29.648  29.687  1.00  0.00    -0.354 N 
ATOM     49  N   UNL A   1      44.424  26.890  28.780  1.00  0.00    -0.248 NA
ATOM     50  C   UNL A   1      45.214  24.789  28.127  1.00  0.00     0.031 C 
ATOM     51  C   UNL A   1      47.044  30.257  30.046  1.00  0.00     0.029 A 
ATOM     52  C   UNL A   1      46.247  29.198  29.641  1.00  0.00     0.049 A 
ATOM     53  H   UNL A   1      44.149  29.114  29.445  1.00  0.00     0.167 HD
ATOM     54  C   UNL A   1      45.810  26.876  28.875  1.00  0.00     0.074 A 
ATOM     55  C   UNL A   1      46.243  25.551  28.478  1.00  0.00     0.031 C 
ATOM     56  C   UNL A   1      46.650  27.874  29.242  1.00  0.00     0.037 A 
BRANCH  43  57
ATOM     57  C   UNL A   1      43.825  33.153  30.782  1.00  0.00     0.058 A 
ATOM     58  C   UNL A   1      43.877  33.481  32.145  1.00  0.00     0.135 A 
ATOM     59  C   UNL A   1      43.906  34.200  29.850  1.00  0.00     0.135 A 
ATOM     60  F   UNL A   1      43.782  32.517  33.076  1.00  0.00    -0.206 F 
ATOM     61  C   UNL A   1      43.983  34.802  32.569  1.00  0.00     0.059 A 
ATOM     62  C   UNL A   1      44.030  35.527  30.252  1.00  0.00     0.059 A 
ATOM     63  F   UNL A   1      43.856  33.939  28.535  1.00  0.00    -0.206 F 
ATOM     64  C   UNL A   1      44.053  35.819  31.616  1.00  0.00     0.060 A 
BRANCH  64  65
ATOM     65  S   UNL A   1      44.185  37.532  32.171  1.00  0.00     0.124 S 
ATOM     66  O   UNL A   1      45.595  37.609  32.542  1.00  0.00    -0.237 OA
ATOM     67  O   UNL A   1      43.803  38.283  30.978  1.00  0.00    -0.237 OA
ATOM     68  O   UNL A   1      43.237  37.602  33.278  1.00  0.00    -0.744 OA
ENDBRANCH  64  65
ENDBRANCH  43  57
BRANCH  44  69
ATOM     69  C   UNL A   1      42.520  23.776  27.557  1.00  0.00     0.058 A 
ATOM     70  C   UNL A   1      42.466  23.496  26.184  1.00  0.00     0.135 A 
ATOM     71  C   UNL A   1      42.418  22.699  28.450  1.00  0.00     0.135 A 
ATOM     72  F   UNL A   1      42.549  24.495  25.292  1.00  0.00    -0.206 F 
ATOM     73  C   UNL A   1      42.319  22.196  25.712  1.00  0.00     0.059 A 
ATOM     74  C   UNL A   1      42.291  21.388  28.003  1.00  0.00     0.059 A 
ATOM     75  F   UNL A   1      42.475  22.915  29.774  1.00  0.00    -0.206 F 
ATOM     76  C   UNL A   1      42.236  21.147  26.631  1.00  0.00     0.060 A 
BRANCH  76  77
ATOM     77  S   UNL A   1      42.119  19.451  26.019  1.00  0.00     0.124 S 
ATOM     78  O   UNL A   1      42.593  18.692  27.171  1.00  0.00    -0.237 OA
ATOM     79  O   UNL A   1      40.698  19.325  25.712  1.00  0.00    -0.237 OA
ATOM     80  O   UNL A   1      43.003  19.457  24.856  1.00  0.00    -0.744 OA
ENDBRANCH  76  77
ENDBRANCH  44  69
BRANCH  56  81
ATOM     81  C   UNL A   1      48.116  27.561  29.240  1.00  0.00     0.058 A 
ATOM     82  C   UNL A   1      48.939  27.941  28.171  1.00  0.00     0.135 A 
ATOM     83  C   UNL A   1      48.708  26.911  30.334  1.00  0.00     0.135 A 
ATOM     84  F   UNL A   1      48.414  28.559  27.101  1.00  0.00    -0.206 F 
ATOM     85  C   UNL A   1      50.303  27.671  28.176  1.00  0.00     0.059 A 
ATOM     86  C   UNL A   1      50.073  26.644  30.367  1.00  0.00     0.059 A 
ATOM     87  F   UNL A   1      47.960  26.534  31.383  1.00  0.00    -0.206 F 
ATOM     88  C   UNL A   1      50.860  27.018  29.278  1.00  0.00     0.060 A 
BRANCH  88  89
ATOM     89  S   UNL A   1      52.636  26.693  29.292  1.00  0.00     0.124 S 
ATOM     90  O   UNL A   1      52.787  25.944  30.535  1.00  0.00    -0.237 OA
ATOM     91  O   UNL A   1      52.830  25.929  28.063  1.00  0.00    -0.237 OA
ATOM     92  O   UNL A   1      53.221  28.030  29.288  1.00  0.00    -0.744 OA
ENDBRANCH  88  89
ENDBRANCH  56  81
ENDBRANCH  30  31
ENDBRANCH  23  25
ENDBRANCH  22  23
ENDBRANCH   1  22
TORSDOF 16
ENDMDL
