MODEL 1
REMARK VINA RESULT:     -13.0      0.000      0.000
REMARK SMILES COc1ccc(-c2ccc(/C=C3\SC(=S)N([C@H](Cc4ccccc4)C(=O)OCCOC(=O)c4ccc(-c5c6nc(c(-c7c(F)cc(S(=O)(=O)[O-])cc7F)c7ccc([nH]7)c(-c7c(F)cc(S(=O)(=O)[O-])cc7F)c7nc(c(-c8c(F)cc(S(=O)(=O)[O-])cc8F)c8ccc5[nH]8)C=C7)C=C6)cc4)C3=O)o2)cc1
REMARK SMILES IDX 28 1 27 2 25 3 26 4 17 5 16 6 11 7 12 8 13 9 99 10 14 11
REMARK SMILES IDX 100 12 15 13 10 14 7 15 8 16 101 17 9 18 6 19 3 20 4 21
REMARK SMILES IDX 103 22 5 23 102 24 2 25 1 26 18 27 19 28 20 29 24 30 21 31
REMARK SMILES IDX 23 32 22 33 29 34 30 35 31 36 32 37 33 38 34 39 98 40 35 41
REMARK SMILES IDX 97 42 36 43 37 44 38 45 91 46 39 47 96 48 90 49 92 50 40 51
REMARK SMILES IDX 95 52 89 53 88 54 41 56 75 57 54 58 74 59 55 60 58 61 73 62
REMARK SMILES IDX 93 63 56 64 57 65 72 67 94 68 59 69 42 70 43 71 52 72 44 73
REMARK SMILES IDX 45 74 51 75 53 76 46 77 47 78 48 79 49 80 50 81 76 82 77 83
REMARK SMILES IDX 86 84 78 85 79 86 85 87 87 88 80 89 81 90 82 91 83 92 84 93
REMARK SMILES IDX 60 94 61 95 70 96 62 97 63 98 69 99 71 100 64 101 65 102
REMARK SMILES IDX 66 103 67 104 68 105
REMARK H PARENT 92 55 58 66
REMARK Flexibility Score: inf
ROOT
ATOM      1  C   UNL A   1      33.873  30.368  27.516  1.00  0.00     0.274 C 
ENDROOT
BRANCH   1   2
ATOM      2  O   UNL A   1      33.460  29.530  26.421  1.00  0.00    -0.461 OA
BRANCH   2   3
ATOM      3  C   UNL A   1      32.224  28.983  26.509  1.00  0.00     0.329 C 
ATOM      4  O   UNL A   1      31.584  28.872  27.551  1.00  0.00    -0.250 OA
BRANCH   3   5
ATOM      5  C   UNL A   1      31.666  28.510  25.165  1.00  0.00     0.206 C 
BRANCH   5   6
ATOM      6  N   UNL A   1      32.410  27.322  24.727  1.00  0.00    -0.278 N 
ATOM      7  C   UNL A   1      33.193  23.948  25.598  1.00  0.00     0.068 C 
ATOM      8  C   UNL A   1      33.132  25.104  24.936  1.00  0.00     0.084 C 
ATOM      9  S   UNL A   1      34.036  25.674  23.599  1.00  0.00    -0.054 SA
ATOM     10  C   UNL A   1      32.141  26.119  25.348  1.00  0.00     0.267 C 
ATOM     11  C   UNL A   1      33.324  27.282  23.696  1.00  0.00     0.149 C 
ATOM     12  O   UNL A   1      31.196  25.878  26.086  1.00  0.00    -0.268 OA
ATOM     13  S   UNL A   1      33.799  28.514  22.678  1.00  0.00    -0.052 S 
BRANCH   7  14
ATOM     14  C   UNL A   1      34.039  22.866  25.267  1.00  0.00     0.128 A 
ATOM     15  C   UNL A   1      34.535  20.728  24.929  1.00  0.00     0.134 A 
ATOM     16  C   UNL A   1      35.686  21.428  24.657  1.00  0.00     0.051 A 
ATOM     17  O   UNL A   1      33.563  21.583  25.333  1.00  0.00    -0.457 OA
ATOM     18  C   UNL A   1      35.368  22.796  24.865  1.00  0.00     0.051 A 
BRANCH  15  19
ATOM     19  C   UNL A   1      34.128  19.339  24.889  1.00  0.00     0.017 A 
ATOM     20  C   UNL A   1      33.355  16.643  24.730  1.00  0.00     0.118 A 
ATOM     21  C   UNL A   1      34.622  17.035  24.302  1.00  0.00     0.047 A 
ATOM     22  C   UNL A   1      32.482  17.596  25.260  1.00  0.00     0.047 A 
ATOM     23  C   UNL A   1      35.002  18.375  24.370  1.00  0.00     0.016 A 
ATOM     24  C   UNL A   1      32.870  18.938  25.345  1.00  0.00     0.016 A 
BRANCH  20  25
ATOM     25  O   UNL A   1      33.095  15.307  24.600  1.00  0.00    -0.497 OA
ATOM     26  C   UNL A   1      32.405  14.699  25.683  1.00  0.00     0.278 C 
ENDBRANCH  20  25
ENDBRANCH  15  19
ENDBRANCH   7  14
ENDBRANCH   5   6
BRANCH   5  27
ATOM     27  C   UNL A   1      31.350  29.539  24.057  1.00  0.00     0.073 C 
BRANCH  27  28
ATOM     28  C   UNL A   1      29.904  29.781  23.703  1.00  0.00    -0.045 A 
ATOM     29  C   UNL A   1      29.335  31.049  23.876  1.00  0.00     0.004 A 
ATOM     30  C   UNL A   1      29.113  28.748  23.175  1.00  0.00     0.004 A 
ATOM     31  C   UNL A   1      28.019  31.294  23.485  1.00  0.00     0.000 A 
ATOM     32  C   UNL A   1      27.798  28.996  22.781  1.00  0.00     0.000 A 
ATOM     33  C   UNL A   1      27.253  30.271  22.928  1.00  0.00     0.000 A 
ENDBRANCH  27  28
ENDBRANCH   5  27
ENDBRANCH   3   5
ENDBRANCH   2   3
ENDBRANCH   1   2
BRANCH   1  34
ATOM     34  C   UNL A   1      35.108  29.786  28.207  1.00  0.00     0.275 C 
BRANCH  34  35
ATOM     35  O   UNL A   1      35.729  30.745  29.085  1.00  0.00    -0.458 OA
BRANCH  35  36
ATOM     36  C   UNL A   1      36.417  30.193  30.113  1.00  0.00     0.338 C 
ATOM     37  O   UNL A   1      35.953  29.685  31.120  1.00  0.00    -0.246 OA
BRANCH  36  38
ATOM     38  C   UNL A   1      37.853  30.135  29.806  1.00  0.00     0.060 A 
ATOM     39  C   UNL A   1      38.215  30.106  28.457  1.00  0.00     0.016 A 
ATOM     40  C   UNL A   1      38.814  29.962  30.801  1.00  0.00     0.016 A 
ATOM     41  C   UNL A   1      39.531  29.868  28.087  1.00  0.00     0.010 A 
ATOM     42  C   UNL A   1      40.141  29.714  30.429  1.00  0.00     0.010 A 
ATOM     43  C   UNL A   1      40.497  29.634  29.070  1.00  0.00    -0.014 A 
BRANCH  43  44
ATOM     44  C   UNL A   1      41.841  29.172  28.648  1.00  0.00     0.031 A 
ATOM     45  C   UNL A   1      42.987  30.146  28.656  1.00  0.00     0.074 A 
ATOM     46  C   UNL A   1      42.045  27.879  28.337  1.00  0.00     0.049 A 
ATOM     47  N   UNL A   1      44.227  29.966  28.284  1.00  0.00    -0.248 NA
ATOM     48  C   UNL A   1      42.699  31.504  29.148  1.00  0.00     0.031 C 
ATOM     49  C   UNL A   1      41.020  26.834  28.349  1.00  0.00     0.029 A 
ATOM     50  N   UNL A   1      43.188  27.223  27.959  1.00  0.00    -0.354 N 
ATOM     51  C   UNL A   1      44.859  31.191  28.463  1.00  0.00     0.074 A 
ATOM     52  C   UNL A   1      43.866  32.109  28.977  1.00  0.00     0.031 C 
ATOM     53  C   UNL A   1      41.583  25.667  27.989  1.00  0.00     0.029 A 
ATOM     54  C   UNL A   1      42.994  25.890  27.692  1.00  0.00     0.049 A 
ATOM     55  H   UNL A   1      44.064  27.666  27.885  1.00  0.00     0.167 HD
ATOM     56  C   UNL A   1      46.149  31.518  28.219  1.00  0.00     0.037 A 
ATOM     57  C   UNL A   1      43.857  24.960  27.238  1.00  0.00     0.037 A 
ATOM     58  C   UNL A   1      47.142  30.589  27.749  1.00  0.00     0.049 A 
ATOM     59  C   UNL A   1      45.288  25.350  26.985  1.00  0.00     0.074 A 
ATOM     60  C   UNL A   1      48.478  30.822  27.472  1.00  0.00     0.029 A 
ATOM     61  N   UNL A   1      46.911  29.245  27.502  1.00  0.00    -0.354 N 
ATOM     62  N   UNL A   1      45.862  26.520  27.131  1.00  0.00    -0.248 NA
ATOM     63  C   UNL A   1      46.190  24.292  26.508  1.00  0.00     0.031 C 
ATOM     64  C   UNL A   1      49.051  29.621  27.038  1.00  0.00     0.029 A 
ATOM     65  C   UNL A   1      48.079  28.635  27.076  1.00  0.00     0.049 A 
ATOM     66  H   UNL A   1      46.044  28.791  27.613  1.00  0.00     0.167 HD
ATOM     67  C   UNL A   1      47.196  26.334  26.785  1.00  0.00     0.074 A 
ATOM     68  C   UNL A   1      47.347  24.937  26.436  1.00  0.00     0.031 C 
ATOM     69  C   UNL A   1      48.206  27.238  26.753  1.00  0.00     0.037 A 
BRANCH  56  70
ATOM     70  C   UNL A   1      46.560  32.946  28.430  1.00  0.00     0.058 A 
ATOM     71  C   UNL A   1      46.462  33.904  27.409  1.00  0.00     0.135 A 
ATOM     72  C   UNL A   1      47.011  33.372  29.690  1.00  0.00     0.135 A 
ATOM     73  F   UNL A   1      46.059  33.543  26.181  1.00  0.00    -0.206 F 
ATOM     74  C   UNL A   1      46.804  35.234  27.629  1.00  0.00     0.059 A 
ATOM     75  C   UNL A   1      47.341  34.701  29.937  1.00  0.00     0.059 A 
ATOM     76  F   UNL A   1      47.130  32.493  30.697  1.00  0.00    -0.206 F 
ATOM     77  C   UNL A   1      47.242  35.623  28.897  1.00  0.00     0.060 A 
BRANCH  77  78
ATOM     78  S   UNL A   1      47.655  37.359  29.179  1.00  0.00     0.124 S 
ATOM     79  O   UNL A   1      48.999  37.433  28.613  1.00  0.00    -0.237 OA
ATOM     80  O   UNL A   1      46.614  38.057  28.431  1.00  0.00    -0.237 OA
ATOM     81  O   UNL A   1      47.576  37.494  30.630  1.00  0.00    -0.744 OA
ENDBRANCH  77  78
ENDBRANCH  56  70
BRANCH  57  82
ATOM     82  C   UNL A   1      43.390  23.576  26.964  1.00  0.00     0.058 A 
ATOM     83  C   UNL A   1      43.111  22.681  28.005  1.00  0.00     0.135 A 
ATOM     84  C   UNL A   1      43.243  23.116  25.646  1.00  0.00     0.135 A 
ATOM     85  F   UNL A   1      43.245  23.074  29.282  1.00  0.00    -0.206 F 
ATOM     86  C   UNL A   1      42.730  21.367  27.753  1.00  0.00     0.059 A 
ATOM     87  C   UNL A   1      42.840  21.814  25.369  1.00  0.00     0.059 A 
ATOM     88  F   UNL A   1      43.484  23.940  24.614  1.00  0.00    -0.206 F 
ATOM     89  C   UNL A   1      42.605  20.941  26.430  1.00  0.00     0.060 A 
BRANCH  89  90
ATOM     90  S   UNL A   1      42.099  19.239  26.100  1.00  0.00     0.124 S 
ATOM     91  O   UNL A   1      40.648  19.371  26.049  1.00  0.00    -0.237 OA
ATOM     92  O   UNL A   1      42.759  18.955  24.829  1.00  0.00    -0.237 OA
ATOM     93  O   UNL A   1      42.628  18.508  27.248  1.00  0.00    -0.744 OA
ENDBRANCH  89  90
ENDBRANCH  57  82
BRANCH  69  94
ATOM     94  C   UNL A   1      49.565  26.728  26.369  1.00  0.00     0.058 A 
ATOM     95  C   UNL A   1      50.103  26.956  25.094  1.00  0.00     0.135 A 
ATOM     96  C   UNL A   1      50.343  26.018  27.297  1.00  0.00     0.135 A 
ATOM     97  F   UNL A   1      49.394  27.627  24.172  1.00  0.00    -0.206 F 
ATOM     98  C   UNL A   1      51.355  26.466  24.737  1.00  0.00     0.059 A 
ATOM     99  C   UNL A   1      51.606  25.538  26.969  1.00  0.00     0.059 A 
ATOM    100  F   UNL A   1      49.876  25.786  28.534  1.00  0.00    -0.206 F 
ATOM    101  C   UNL A   1      52.096  25.751  25.681  1.00  0.00     0.060 A 
BRANCH 101 102
ATOM    102  S   UNL A   1      53.723  25.120  25.217  1.00  0.00     0.124 S 
ATOM    103  O   UNL A   1      54.586  25.816  26.165  1.00  0.00    -0.237 OA
ATOM    104  O   UNL A   1      53.580  23.683  25.427  1.00  0.00    -0.237 OA
ATOM    105  O   UNL A   1      53.857  25.532  23.822  1.00  0.00    -0.744 OA
ENDBRANCH 101 102
ENDBRANCH  69  94
ENDBRANCH  43  44
ENDBRANCH  36  38
ENDBRANCH  35  36
ENDBRANCH  34  35
ENDBRANCH   1  34
TORSDOF 20
ENDMDL
MODEL 2
REMARK VINA RESULT:     -12.7      2.033      8.010
REMARK SMILES COc1ccc(-c2ccc(/C=C3\SC(=S)N([C@H](Cc4ccccc4)C(=O)OCCOC(=O)c4ccc(-c5c6nc(c(-c7c(F)cc(S(=O)(=O)[O-])cc7F)c7ccc([nH]7)c(-c7c(F)cc(S(=O)(=O)[O-])cc7F)c7nc(c(-c8c(F)cc(S(=O)(=O)[O-])cc8F)c8ccc5[nH]8)C=C7)C=C6)cc4)C3=O)o2)cc1
REMARK SMILES IDX 28 1 27 2 25 3 26 4 17 5 16 6 11 7 12 8 13 9 99 10 14 11
REMARK SMILES IDX 100 12 15 13 10 14 7 15 8 16 101 17 9 18 6 19 3 20 4 21
REMARK SMILES IDX 103 22 5 23 102 24 2 25 1 26 18 27 19 28 20 29 24 30 21 31
REMARK SMILES IDX 23 32 22 33 29 34 30 35 31 36 32 37 33 38 34 39 98 40 35 41
REMARK SMILES IDX 97 42 36 43 37 44 38 45 91 46 39 47 96 48 90 49 92 50 40 51
REMARK SMILES IDX 95 52 89 53 88 54 41 56 75 57 54 58 74 59 55 60 58 61 73 62
REMARK SMILES IDX 93 63 56 64 57 65 72 67 94 68 59 69 42 70 43 71 52 72 44 73
REMARK SMILES IDX 45 74 51 75 53 76 46 77 47 78 48 79 49 80 50 81 76 82 77 83
REMARK SMILES IDX 86 84 78 85 79 86 85 87 87 88 80 89 81 90 82 91 83 92 84 93
REMARK SMILES IDX 60 94 61 95 70 96 62 97 63 98 69 99 71 100 64 101 65 102
REMARK SMILES IDX 66 103 67 104 68 105
REMARK H PARENT 92 55 58 66
REMARK Flexibility Score: inf
ROOT
ATOM      1  C   UNL A   1      32.164  30.763  26.844  1.00  0.00     0.274 C 
ENDROOT
BRANCH   1   2
ATOM      2  O   UNL A   1      32.265  29.857  25.730  1.00  0.00    -0.461 OA
BRANCH   2   3
ATOM      3  C   UNL A   1      31.714  28.631  25.895  1.00  0.00     0.329 C 
ATOM      4  O   UNL A   1      31.550  28.081  26.980  1.00  0.00    -0.250 OA
BRANCH   3   5
ATOM      5  C   UNL A   1      31.289  27.968  24.582  1.00  0.00     0.206 C 
BRANCH   5   6
ATOM      6  N   UNL A   1      32.174  26.829  24.310  1.00  0.00    -0.278 N 
ATOM      7  C   UNL A   1      32.810  23.423  25.174  1.00  0.00     0.068 C 
ATOM      8  C   UNL A   1      32.895  24.619  24.590  1.00  0.00     0.084 C 
ATOM      9  S   UNL A   1      34.120  25.297  23.606  1.00  0.00    -0.054 SA
ATOM     10  C   UNL A   1      31.787  25.582  24.757  1.00  0.00     0.267 C 
ATOM     11  C   UNL A   1      33.346  26.879  23.586  1.00  0.00     0.149 C 
ATOM     12  O   UNL A   1      30.681  25.271  25.175  1.00  0.00    -0.268 OA
ATOM     13  S   UNL A   1      34.042  28.186  22.821  1.00  0.00    -0.052 S 
BRANCH   7  14
ATOM     14  C   UNL A   1      33.759  22.384  25.039  1.00  0.00     0.128 A 
ATOM     15  C   UNL A   1      34.424  20.270  24.903  1.00  0.00     0.134 A 
ATOM     16  C   UNL A   1      35.561  21.031  24.774  1.00  0.00     0.051 A 
ATOM     17  O   UNL A   1      33.353  21.078  25.103  1.00  0.00    -0.457 OA
ATOM     18  C   UNL A   1      35.137  22.383  24.852  1.00  0.00     0.051 A 
BRANCH  15  19
ATOM     19  C   UNL A   1      34.109  18.856  24.879  1.00  0.00     0.017 A 
ATOM     20  C   UNL A   1      33.484  16.118  24.915  1.00  0.00     0.118 A 
ATOM     21  C   UNL A   1      32.570  17.052  25.401  1.00  0.00     0.047 A 
ATOM     22  C   UNL A   1      34.701  16.556  24.389  1.00  0.00     0.047 A 
ATOM     23  C   UNL A   1      32.885  18.411  25.395  1.00  0.00     0.016 A 
ATOM     24  C   UNL A   1      35.010  17.921  24.366  1.00  0.00     0.016 A 
BRANCH  20  25
ATOM     25  O   UNL A   1      33.067  14.818  24.989  1.00  0.00    -0.497 OA
ATOM     26  C   UNL A   1      31.951  14.570  25.831  1.00  0.00     0.278 C 
ENDBRANCH  20  25
ENDBRANCH  15  19
ENDBRANCH   7  14
ENDBRANCH   5   6
BRANCH   5  27
ATOM     27  C   UNL A   1      30.937  28.842  23.357  1.00  0.00     0.073 C 
BRANCH  27  28
ATOM     28  C   UNL A   1      29.650  29.627  23.389  1.00  0.00    -0.045 A 
ATOM     29  C   UNL A   1      29.640  30.953  23.840  1.00  0.00     0.004 A 
ATOM     30  C   UNL A   1      28.448  29.051  22.949  1.00  0.00     0.004 A 
ATOM     31  C   UNL A   1      28.466  31.704  23.806  1.00  0.00     0.000 A 
ATOM     32  C   UNL A   1      27.275  29.804  22.912  1.00  0.00     0.000 A 
ATOM     33  C   UNL A   1      27.285  31.133  23.333  1.00  0.00     0.000 A 
ENDBRANCH  27  28
ENDBRANCH   5  27
ENDBRANCH   3   5
ENDBRANCH   2   3
ENDBRANCH   1   2
BRANCH   1  34
ATOM     34  C   UNL A   1      33.541  31.317  27.217  1.00  0.00     0.275 C 
BRANCH  34  35
ATOM     35  O   UNL A   1      34.339  30.338  27.911  1.00  0.00    -0.458 OA
BRANCH  35  36
ATOM     36  C   UNL A   1      35.150  30.857  28.863  1.00  0.00     0.338 C 
ATOM     37  O   UNL A   1      34.846  31.660  29.730  1.00  0.00    -0.246 OA
BRANCH  36  38
ATOM     38  C   UNL A   1      36.468  30.208  28.834  1.00  0.00     0.060 A 
ATOM     39  C   UNL A   1      37.007  29.805  30.057  1.00  0.00     0.016 A 
ATOM     40  C   UNL A   1      37.226  30.130  27.666  1.00  0.00     0.016 A 
ATOM     41  C   UNL A   1      38.318  29.354  30.135  1.00  0.00     0.010 A 
ATOM     42  C   UNL A   1      38.551  29.684  27.743  1.00  0.00     0.010 A 
ATOM     43  C   UNL A   1      39.111  29.325  28.984  1.00  0.00    -0.014 A 
BRANCH  43  44
ATOM     44  C   UNL A   1      40.559  29.048  29.128  1.00  0.00     0.031 A 
ATOM     45  C   UNL A   1      41.098  27.713  28.689  1.00  0.00     0.074 A 
ATOM     46  C   UNL A   1      41.391  30.007  29.573  1.00  0.00     0.049 A 
ATOM     47  N   UNL A   1      42.317  27.248  28.767  1.00  0.00    -0.248 NA
ATOM     48  C   UNL A   1      40.136  26.779  28.080  1.00  0.00     0.031 C 
ATOM     49  C   UNL A   1      40.989  31.356  29.975  1.00  0.00     0.029 A 
ATOM     50  N   UNL A   1      42.750  29.994  29.755  1.00  0.00    -0.354 N 
ATOM     51  C   UNL A   1      42.264  25.958  28.252  1.00  0.00     0.074 A 
ATOM     52  C   UNL A   1      40.892  25.711  27.863  1.00  0.00     0.031 C 
ATOM     53  C   UNL A   1      42.080  32.040  30.360  1.00  0.00     0.029 A 
ATOM     54  C   UNL A   1      43.248  31.170  30.262  1.00  0.00     0.049 A 
ATOM     55  H   UNL A   1      43.315  29.217  29.542  1.00  0.00     0.167 HD
ATOM     56  C   UNL A   1      43.269  25.062  28.117  1.00  0.00     0.037 A 
ATOM     57  C   UNL A   1      44.502  31.497  30.627  1.00  0.00     0.037 A 
ATOM     58  C   UNL A   1      44.639  25.328  28.465  1.00  0.00     0.049 A 
ATOM     59  C   UNL A   1      45.602  30.483  30.457  1.00  0.00     0.074 A 
ATOM     60  C   UNL A   1      45.734  24.486  28.366  1.00  0.00     0.029 A 
ATOM     61  N   UNL A   1      45.106  26.534  28.966  1.00  0.00    -0.354 N 
ATOM     62  N   UNL A   1      45.530  29.257  29.996  1.00  0.00    -0.248 NA
ATOM     63  C   UNL A   1      46.955  30.899  30.854  1.00  0.00     0.031 C 
ATOM     64  C   UNL A   1      46.861  25.178  28.824  1.00  0.00     0.029 A 
ATOM     65  C   UNL A   1      46.473  26.459  29.179  1.00  0.00     0.049 A 
ATOM     66  H   UNL A   1      44.549  27.326  29.142  1.00  0.00     0.167 HD
ATOM     67  C   UNL A   1      46.829  28.764  30.028  1.00  0.00     0.074 A 
ATOM     68  C   UNL A   1      47.669  29.826  30.540  1.00  0.00     0.031 C 
ATOM     69  C   UNL A   1      47.288  27.538  29.671  1.00  0.00     0.037 A 
BRANCH  56  70
ATOM     70  C   UNL A   1      42.924  23.697  27.595  1.00  0.00     0.058 A 
ATOM     71  C   UNL A   1      42.910  23.413  26.221  1.00  0.00     0.135 A 
ATOM     72  C   UNL A   1      42.652  22.648  28.488  1.00  0.00     0.135 A 
ATOM     73  F   UNL A   1      43.138  24.386  25.327  1.00  0.00    -0.206 F 
ATOM     74  C   UNL A   1      42.631  22.134  25.750  1.00  0.00     0.059 A 
ATOM     75  C   UNL A   1      42.390  21.357  28.039  1.00  0.00     0.059 A 
ATOM     76  F   UNL A   1      42.646  22.872  29.811  1.00  0.00    -0.206 F 
ATOM     77  C   UNL A   1      42.373  21.112  26.667  1.00  0.00     0.060 A 
BRANCH  77  78
ATOM     78  S   UNL A   1      42.043  19.449  26.045  1.00  0.00     0.124 S 
ATOM     79  O   UNL A   1      40.606  19.513  25.794  1.00  0.00    -0.237 OA
ATOM     80  O   UNL A   1      42.890  19.381  24.859  1.00  0.00    -0.237 OA
ATOM     81  O   UNL A   1      42.450  18.587  27.151  1.00  0.00    -0.744 OA
ENDBRANCH  77  78
ENDBRANCH  56  70
BRANCH  57  82
ATOM     82  C   UNL A   1      44.787  32.830  31.217  1.00  0.00     0.058 A 
ATOM     83  C   UNL A   1      44.708  33.050  32.598  1.00  0.00     0.135 A 
ATOM     84  C   UNL A   1      45.117  33.922  30.397  1.00  0.00     0.135 A 
ATOM     85  F   UNL A   1      44.388  32.038  33.420  1.00  0.00    -0.206 F 
ATOM     86  C   UNL A   1      44.917  34.310  33.149  1.00  0.00     0.059 A 
ATOM     87  C   UNL A   1      45.353  35.186  30.926  1.00  0.00     0.059 A 
ATOM     88  F   UNL A   1      45.220  33.759  29.069  1.00  0.00    -0.206 F 
ATOM     89  C   UNL A   1      45.231  35.374  32.302  1.00  0.00     0.060 A 
BRANCH  89  90
ATOM     90  S   UNL A   1      45.514  37.009  33.016  1.00  0.00     0.124 S 
ATOM     91  O   UNL A   1      44.158  37.413  33.367  1.00  0.00    -0.237 OA
ATOM     92  O   UNL A   1      46.403  36.713  34.136  1.00  0.00    -0.237 OA
ATOM     93  O   UNL A   1      46.131  37.748  31.917  1.00  0.00    -0.744 OA
ENDBRANCH  89  90
ENDBRANCH  57  82
BRANCH  69  94
ATOM     94  C   UNL A   1      48.767  27.306  29.782  1.00  0.00     0.058 A 
ATOM     95  C   UNL A   1      49.619  27.445  28.676  1.00  0.00     0.135 A 
ATOM     96  C   UNL A   1      49.339  26.958  31.016  1.00  0.00     0.135 A 
ATOM     97  F   UNL A   1      49.117  27.774  27.475  1.00  0.00    -0.206 F 
ATOM     98  C   UNL A   1      50.986  27.212  28.780  1.00  0.00     0.059 A 
ATOM     99  C   UNL A   1      50.705  26.741  31.148  1.00  0.00     0.059 A 
ATOM    100  F   UNL A   1      48.566  26.825  32.106  1.00  0.00    -0.206 F 
ATOM    101  C   UNL A   1      51.519  26.853  30.020  1.00  0.00     0.060 A 
BRANCH 101 102
ATOM    102  S   UNL A   1      53.294  26.555  30.154  1.00  0.00     0.124 S 
ATOM    103  O   UNL A   1      53.773  27.851  30.624  1.00  0.00    -0.237 OA
ATOM    104  O   UNL A   1      53.363  25.465  31.123  1.00  0.00    -0.237 OA
ATOM    105  O   UNL A   1      53.678  26.198  28.791  1.00  0.00    -0.744 OA
ENDBRANCH 101 102
ENDBRANCH  69  94
ENDBRANCH  43  44
ENDBRANCH  36  38
ENDBRANCH  35  36
ENDBRANCH  34  35
ENDBRANCH   1  34
TORSDOF 20
ENDMDL
MODEL 3
REMARK VINA RESULT:     -12.7      2.276      3.222
REMARK SMILES COc1ccc(-c2ccc(/C=C3\SC(=S)N([C@H](Cc4ccccc4)C(=O)OCCOC(=O)c4ccc(-c5c6nc(c(-c7c(F)cc(S(=O)(=O)[O-])cc7F)c7ccc([nH]7)c(-c7c(F)cc(S(=O)(=O)[O-])cc7F)c7nc(c(-c8c(F)cc(S(=O)(=O)[O-])cc8F)c8ccc5[nH]8)C=C7)C=C6)cc4)C3=O)o2)cc1
REMARK SMILES IDX 28 1 27 2 25 3 26 4 17 5 16 6 11 7 12 8 13 9 99 10 14 11
REMARK SMILES IDX 100 12 15 13 10 14 7 15 8 16 101 17 9 18 6 19 3 20 4 21
REMARK SMILES IDX 103 22 5 23 102 24 2 25 1 26 18 27 19 28 20 29 24 30 21 31
REMARK SMILES IDX 23 32 22 33 29 34 30 35 31 36 32 37 33 38 34 39 98 40 35 41
REMARK SMILES IDX 97 42 36 43 37 44 38 45 91 46 39 47 96 48 90 49 92 50 40 51
REMARK SMILES IDX 95 52 89 53 88 54 41 56 75 57 54 58 74 59 55 60 58 61 73 62
REMARK SMILES IDX 93 63 56 64 57 65 72 67 94 68 59 69 42 70 43 71 52 72 44 73
REMARK SMILES IDX 45 74 51 75 53 76 46 77 47 78 48 79 49 80 50 81 76 82 77 83
REMARK SMILES IDX 86 84 78 85 79 86 85 87 87 88 80 89 81 90 82 91 83 92 84 93
REMARK SMILES IDX 60 94 61 95 70 96 62 97 63 98 69 99 71 100 64 101 65 102
REMARK SMILES IDX 66 103 67 104 68 105
REMARK H PARENT 92 55 58 66
REMARK Flexibility Score: inf
ROOT
ATOM      1  C   UNL A   1      31.774  30.796  26.490  1.00  0.00     0.274 C 
ENDROOT
BRANCH   1   2
ATOM      2  O   UNL A   1      32.114  29.775  25.535  1.00  0.00    -0.461 OA
BRANCH   2   3
ATOM      3  C   UNL A   1      31.570  28.551  25.736  1.00  0.00     0.329 C 
ATOM      4  O   UNL A   1      31.405  28.035  26.838  1.00  0.00    -0.250 OA
BRANCH   3   5
ATOM      5  C   UNL A   1      31.154  27.845  24.444  1.00  0.00     0.206 C 
BRANCH   5   6
ATOM      6  N   UNL A   1      32.065  26.720  24.195  1.00  0.00    -0.278 N 
ATOM      7  C   UNL A   1      32.702  23.308  25.035  1.00  0.00     0.068 C 
ATOM      8  C   UNL A   1      32.799  24.515  24.475  1.00  0.00     0.084 C 
ATOM      9  S   UNL A   1      34.060  25.222  23.559  1.00  0.00    -0.054 SA
ATOM     10  C   UNL A   1      31.673  25.462  24.604  1.00  0.00     0.267 C 
ATOM     11  C   UNL A   1      33.269  26.795  23.528  1.00  0.00     0.149 C 
ATOM     12  O   UNL A   1      30.552  25.132  24.966  1.00  0.00    -0.268 OA
ATOM     13  S   UNL A   1      33.984  28.122  22.817  1.00  0.00    -0.052 S 
BRANCH   7  14
ATOM     14  C   UNL A   1      33.668  22.283  24.929  1.00  0.00     0.128 A 
ATOM     15  C   UNL A   1      34.373  20.178  24.878  1.00  0.00     0.134 A 
ATOM     16  C   UNL A   1      35.492  20.954  24.688  1.00  0.00     0.051 A 
ATOM     17  O   UNL A   1      33.290  20.973  25.063  1.00  0.00    -0.457 OA
ATOM     18  C   UNL A   1      35.041  22.299  24.712  1.00  0.00     0.051 A 
BRANCH  15  19
ATOM     19  C   UNL A   1      34.086  18.759  24.928  1.00  0.00     0.017 A 
ATOM     20  C   UNL A   1      33.530  16.012  25.108  1.00  0.00     0.118 A 
ATOM     21  C   UNL A   1      32.690  16.938  25.723  1.00  0.00     0.047 A 
ATOM     22  C   UNL A   1      34.636  16.460  24.383  1.00  0.00     0.047 A 
ATOM     23  C   UNL A   1      32.972  18.302  25.644  1.00  0.00     0.016 A 
ATOM     24  C   UNL A   1      34.909  17.830  24.288  1.00  0.00     0.016 A 
BRANCH  20  25
ATOM     25  O   UNL A   1      33.156  14.706  25.269  1.00  0.00    -0.497 OA
ATOM     26  C   UNL A   1      31.803  14.488  25.643  1.00  0.00     0.278 C 
ENDBRANCH  20  25
ENDBRANCH  15  19
ENDBRANCH   7  14
ENDBRANCH   5   6
BRANCH   5  27
ATOM     27  C   UNL A   1      30.775  28.678  23.199  1.00  0.00     0.073 C 
BRANCH  27  28
ATOM     28  C   UNL A   1      29.527  29.522  23.260  1.00  0.00    -0.045 A 
ATOM     29  C   UNL A   1      28.266  28.935  23.092  1.00  0.00     0.004 A 
ATOM     30  C   UNL A   1      29.606  30.902  23.508  1.00  0.00     0.004 A 
ATOM     31  C   UNL A   1      27.107  29.700  23.218  1.00  0.00     0.000 A 
ATOM     32  C   UNL A   1      28.445  31.665  23.637  1.00  0.00     0.000 A 
ATOM     33  C   UNL A   1      27.195  31.062  23.500  1.00  0.00     0.000 A 
ENDBRANCH  27  28
ENDBRANCH   5  27
ENDBRANCH   3   5
ENDBRANCH   2   3
ENDBRANCH   1   2
BRANCH   1  34
ATOM     34  C   UNL A   1      33.036  31.457  27.049  1.00  0.00     0.275 C 
BRANCH  34  35
ATOM     35  O   UNL A   1      33.814  30.537  27.840  1.00  0.00    -0.458 OA
BRANCH  35  36
ATOM     36  C   UNL A   1      34.677  31.133  28.696  1.00  0.00     0.338 C 
ATOM     37  O   UNL A   1      34.434  32.043  29.470  1.00  0.00    -0.246 OA
BRANCH  36  38
ATOM     38  C   UNL A   1      35.970  30.434  28.699  1.00  0.00     0.060 A 
ATOM     39  C   UNL A   1      36.490  30.063  29.941  1.00  0.00     0.016 A 
ATOM     40  C   UNL A   1      36.729  30.280  27.539  1.00  0.00     0.016 A 
ATOM     41  C   UNL A   1      37.783  29.568  30.044  1.00  0.00     0.010 A 
ATOM     42  C   UNL A   1      38.036  29.788  27.641  1.00  0.00     0.010 A 
ATOM     43  C   UNL A   1      38.578  29.461  28.898  1.00  0.00    -0.014 A 
BRANCH  43  44
ATOM     44  C   UNL A   1      40.014  29.136  29.061  1.00  0.00     0.031 A 
ATOM     45  C   UNL A   1      40.940  30.174  29.635  1.00  0.00     0.074 A 
ATOM     46  C   UNL A   1      40.467  27.903  28.771  1.00  0.00     0.049 A 
ATOM     47  N   UNL A   1      42.233  30.116  29.820  1.00  0.00    -0.248 NA
ATOM     48  C   UNL A   1      40.330  31.446  30.057  1.00  0.00     0.031 C 
ATOM     49  C   UNL A   1      39.649  26.801  28.260  1.00  0.00     0.029 A 
ATOM     50  N   UNL A   1      41.725  27.368  28.871  1.00  0.00    -0.354 N 
ATOM     51  C   UNL A   1      42.596  31.350  30.346  1.00  0.00     0.074 A 
ATOM     52  C   UNL A   1      41.388  32.139  30.452  1.00  0.00     0.031 C 
ATOM     53  C   UNL A   1      40.431  25.720  28.089  1.00  0.00     0.029 A 
ATOM     54  C   UNL A   1      41.804  26.064  28.446  1.00  0.00     0.049 A 
ATOM     55  H   UNL A   1      42.498  27.871  29.216  1.00  0.00     0.167 HD
ATOM     56  C   UNL A   1      43.827  31.784  30.706  1.00  0.00     0.037 A 
ATOM     57  C   UNL A   1      42.871  25.248  28.338  1.00  0.00     0.037 A 
ATOM     58  C   UNL A   1      45.018  30.979  30.640  1.00  0.00     0.049 A 
ATOM     59  C   UNL A   1      44.225  25.755  28.756  1.00  0.00     0.074 A 
ATOM     60  C   UNL A   1      46.314  31.326  30.982  1.00  0.00     0.029 A 
ATOM     61  N   UNL A   1      45.056  29.660  30.215  1.00  0.00    -0.354 N 
ATOM     62  N   UNL A   1      44.556  26.935  29.223  1.00  0.00    -0.248 NA
ATOM     63  C   UNL A   1      45.350  24.818  28.634  1.00  0.00     0.031 C 
ATOM     64  C   UNL A   1      47.139  30.220  30.747  1.00  0.00     0.029 A 
ATOM     65  C   UNL A   1      46.352  29.177  30.288  1.00  0.00     0.049 A 
ATOM     66  H   UNL A   1      44.277  29.143  29.908  1.00  0.00     0.167 HD
ATOM     67  C   UNL A   1      45.923  26.874  29.471  1.00  0.00     0.074 A 
ATOM     68  C   UNL A   1      46.354  25.538  29.115  1.00  0.00     0.031 C 
ATOM     69  C   UNL A   1      46.751  27.837  29.946  1.00  0.00     0.037 A 
BRANCH  56  70
ATOM     70  C   UNL A   1      43.956  33.201  31.182  1.00  0.00     0.058 A 
ATOM     71  C   UNL A   1      43.773  33.550  32.528  1.00  0.00     0.135 A 
ATOM     72  C   UNL A   1      44.319  34.217  30.282  1.00  0.00     0.135 A 
ATOM     73  F   UNL A   1      43.403  32.621  33.423  1.00  0.00    -0.206 F 
ATOM     74  C   UNL A   1      43.939  34.861  32.966  1.00  0.00     0.059 A 
ATOM     75  C   UNL A   1      44.509  35.530  30.701  1.00  0.00     0.059 A 
ATOM     76  F   UNL A   1      44.498  33.935  28.982  1.00  0.00    -0.206 F 
ATOM     77  C   UNL A   1      44.308  35.844  32.044  1.00  0.00     0.060 A 
BRANCH  77  78
ATOM     78  S   UNL A   1      44.549  37.535  32.629  1.00  0.00     0.124 S 
ATOM     79  O   UNL A   1      46.003  37.657  32.574  1.00  0.00    -0.237 OA
ATOM     80  O   UNL A   1      43.810  38.319  31.644  1.00  0.00    -0.237 OA
ATOM     81  O   UNL A   1      43.971  37.515  33.970  1.00  0.00    -0.744 OA
ENDBRANCH  77  78
ENDBRANCH  56  70
BRANCH  57  82
ATOM     82  C   UNL A   1      42.712  23.879  27.786  1.00  0.00     0.058 A 
ATOM     83  C   UNL A   1      42.645  23.652  26.404  1.00  0.00     0.135 A 
ATOM     84  C   UNL A   1      42.596  22.770  28.638  1.00  0.00     0.135 A 
ATOM     85  F   UNL A   1      42.744  24.683  25.550  1.00  0.00    -0.206 F 
ATOM     86  C   UNL A   1      42.438  22.378  25.884  1.00  0.00     0.059 A 
ATOM     87  C   UNL A   1      42.412  21.484  28.142  1.00  0.00     0.059 A 
ATOM     88  F   UNL A   1      42.669  22.933  29.969  1.00  0.00    -0.206 F 
ATOM     89  C   UNL A   1      42.315  21.301  26.763  1.00  0.00     0.060 A 
BRANCH  89  90
ATOM     90  S   UNL A   1      42.059  19.645  26.090  1.00  0.00     0.124 S 
ATOM     91  O   UNL A   1      40.649  19.695  25.721  1.00  0.00    -0.237 OA
ATOM     92  O   UNL A   1      43.008  19.606  24.982  1.00  0.00    -0.237 OA
ATOM     93  O   UNL A   1      42.388  18.775  27.216  1.00  0.00    -0.744 OA
ENDBRANCH  89  90
ENDBRANCH  57  82
BRANCH  69  94
ATOM     94  C   UNL A   1      48.190  27.461  30.146  1.00  0.00     0.058 A 
ATOM     95  C   UNL A   1      48.657  26.962  31.371  1.00  0.00     0.135 A 
ATOM     96  C   UNL A   1      49.108  27.586  29.091  1.00  0.00     0.135 A 
ATOM     97  F   UNL A   1      47.816  26.828  32.410  1.00  0.00    -0.206 F 
ATOM     98  C   UNL A   1      49.994  26.631  31.557  1.00  0.00     0.059 A 
ATOM     99  C   UNL A   1      50.446  27.241  29.248  1.00  0.00     0.059 A 
ATOM    100  F   UNL A   1      48.707  28.047  27.896  1.00  0.00    -0.206 F 
ATOM    101  C   UNL A   1      50.884  26.781  30.490  1.00  0.00     0.060 A 
BRANCH 101 102
ATOM    102  S   UNL A   1      52.619  26.347  30.732  1.00  0.00     0.124 S 
ATOM    103  O   UNL A   1      52.506  25.112  31.500  1.00  0.00    -0.237 OA
ATOM    104  O   UNL A   1      53.106  26.201  29.363  1.00  0.00    -0.237 OA
ATOM    105  O   UNL A   1      53.154  27.495  31.460  1.00  0.00    -0.744 OA
ENDBRANCH 101 102
ENDBRANCH  69  94
ENDBRANCH  43  44
ENDBRANCH  36  38
ENDBRANCH  35  36
ENDBRANCH  34  35
ENDBRANCH   1  34
TORSDOF 20
ENDMDL
