MODEL 1
REMARK VINA RESULT:     -14.7      0.000      0.000
REMARK SMILES Cc1ccc([C@H](C)NC(=O)[C@H]2[C@@H]3CC[C@@H](C3)[C@@H]2C(=O)OCCOC(=O)c2ccc(-c3c4nc(c(-c5c(F)cc(S(=O)(=O)[O-])cc5F)c5ccc([nH]5)c(-c5c(F)cc(S(=O)(=O)[O-])cc5F)c5nc(c(-c6c(F)cc(S(=O)(=O)[O-])cc6F)c6ccc3[nH]6)C=C5)C=C4)cc2)cc1
REMARK SMILES IDX 21 1 20 2 18 3 19 4 17 5 11 6 12 7 13 8 16 9 15 10 14 11
REMARK SMILES IDX 9 12 8 13 10 15 6 16 7 17 5 18 1 19 2 20 3 21 93 22 4 23
REMARK SMILES IDX 92 24 22 25 23 26 24 27 25 28 26 29 27 30 91 31 28 32 90 33
REMARK SMILES IDX 29 34 30 35 31 36 84 37 32 38 89 39 83 40 85 41 33 42 88 43
REMARK SMILES IDX 82 44 81 45 34 47 68 48 47 49 67 50 48 51 51 52 66 53 86 54
REMARK SMILES IDX 49 55 50 56 65 58 87 59 52 60 35 61 36 62 45 63 37 64 38 65
REMARK SMILES IDX 44 66 46 67 39 68 40 69 41 70 42 71 43 72 69 73 70 74 79 75
REMARK SMILES IDX 71 76 72 77 78 78 80 79 73 80 74 81 75 82 76 83 77 84 53 85
REMARK SMILES IDX 54 86 63 87 55 88 56 89 62 90 64 91 57 92 58 93 59 94 60 95
REMARK SMILES IDX 61 96
REMARK H PARENT 8 14 85 46 51 57
REMARK Flexibility Score: inf
ROOT
ATOM      1  C   UNL A   1      32.320  30.875  26.595  1.00  0.00     0.274 C 
ENDROOT
BRANCH   1   2
ATOM      2  O   UNL A   1      32.716  29.554  25.119  1.00  0.00    -0.462 OA
BRANCH   2   3
ATOM      3  C   UNL A   1      33.044  28.624  24.137  1.00  0.00     0.310 C 
ATOM      4  O   UNL A   1      32.944  28.990  22.955  1.00  0.00    -0.252 OA
BRANCH   3   5
ATOM      5  C   UNL A   1      33.248  27.094  24.337  1.00  0.00     0.115 C 
ATOM      6  C   UNL A   1      32.571  25.850  23.731  1.00  0.00     0.096 C 
ATOM      7  C   UNL A   1      32.300  24.931  24.952  1.00  0.00     0.002 C 
ATOM      8  C   UNL A   1      31.132  25.547  25.753  1.00  0.00     0.005 C 
ATOM      9  C   UNL A   1      33.455  25.223  25.893  1.00  0.00     0.009 C 
ATOM     10  C   UNL A   1      33.224  26.735  25.857  1.00  0.00     0.004 C 
ATOM     11  C   UNL A   1      31.779  26.793  26.386  1.00  0.00     0.005 C 
BRANCH   6  12
ATOM     12  C   UNL A   1      33.218  25.097  22.561  1.00  0.00     0.224 C 
ATOM     13  N   UNL A   1      33.456  23.773  22.470  1.00  0.00    -0.349 N 
ATOM     14  H   UNL A   1      33.747  23.498  21.571  1.00  0.00     0.164 HD
ATOM     15  O   UNL A   1      33.501  25.748  21.541  1.00  0.00    -0.275 OA
BRANCH  13  16
ATOM     16  C   UNL A   1      33.379  22.663  23.403  1.00  0.00     0.109 C 
ATOM     17  C   UNL A   1      32.623  21.480  22.794  1.00  0.00     0.036 C 
BRANCH  16  18
ATOM     18  C   UNL A   1      34.749  22.236  23.868  1.00  0.00    -0.026 A 
ATOM     19  C   UNL A   1      38.538  21.588  25.721  1.00  0.00     0.044 C 
ATOM     20  C   UNL A   1      37.227  21.730  25.039  1.00  0.00    -0.051 A 
ATOM     21  C   UNL A   1      37.075  22.799  24.161  1.00  0.00     0.004 A 
ATOM     22  C   UNL A   1      36.181  20.832  25.232  1.00  0.00     0.004 A 
ATOM     23  C   UNL A   1      35.844  23.066  23.594  1.00  0.00     0.006 A 
ATOM     24  C   UNL A   1      34.946  21.079  24.640  1.00  0.00     0.006 A 
ENDBRANCH  16  18
ENDBRANCH  13  16
ENDBRANCH   6  12
ENDBRANCH   3   5
ENDBRANCH   2   3
ENDBRANCH   1   2
BRANCH   1  25
ATOM     25  C   UNL A   1      33.376  31.864  27.364  1.00  0.00     0.275 C 
BRANCH  25  26
ATOM     26  O   UNL A   1      33.872  31.534  28.683  1.00  0.00    -0.458 OA
BRANCH  26  27
ATOM     27  C   UNL A   1      35.165  31.793  28.981  1.00  0.00     0.338 C 
ATOM     28  O   UNL A   1      35.613  32.807  29.472  1.00  0.00    -0.246 OA
BRANCH  27  29
ATOM     29  C   UNL A   1      35.864  30.555  28.764  1.00  0.00     0.060 A 
ATOM     30  C   UNL A   1      36.928  30.527  27.313  1.00  0.00     0.016 A 
ATOM     31  C   UNL A   1      36.369  29.744  30.277  1.00  0.00     0.016 A 
ATOM     32  C   UNL A   1      38.490  29.584  27.354  1.00  0.00     0.010 A 
ATOM     33  C   UNL A   1      37.927  28.902  30.339  1.00  0.00     0.010 A 
ATOM     34  C   UNL A   1      38.996  28.747  28.874  1.00  0.00    -0.014 A 
BRANCH  34  35
ATOM     35  C   UNL A   1      40.228  27.938  29.079  1.00  0.00     0.031 A 
ATOM     36  C   UNL A   1      40.493  26.512  28.700  1.00  0.00     0.074 A 
ATOM     37  C   UNL A   1      41.225  28.506  29.799  1.00  0.00     0.049 A 
ATOM     38  N   UNL A   1      41.535  25.838  29.096  1.00  0.00    -0.248 NA
ATOM     39  C   UNL A   1      39.590  25.679  27.923  1.00  0.00     0.031 C 
ATOM     40  C   UNL A   1      42.658  28.279  29.662  1.00  0.00     0.029 A 
ATOM     41  N   UNL A   1      41.118  29.349  30.903  1.00  0.00    -0.354 N 
ATOM     42  C   UNL A   1      41.555  24.615  28.463  1.00  0.00     0.074 A 
ATOM     43  C   UNL A   1      40.267  24.532  27.829  1.00  0.00     0.031 C 
ATOM     44  C   UNL A   1      43.289  28.840  30.701  1.00  0.00     0.029 A 
ATOM     45  C   UNL A   1      42.290  29.323  31.638  1.00  0.00     0.049 A 
ATOM     46  H   UNL A   1      40.324  29.884  31.128  1.00  0.00     0.167 HD
ATOM     47  C   UNL A   1      42.700  23.867  28.434  1.00  0.00     0.037 A 
ATOM     48  C   UNL A   1      42.375  29.341  32.991  1.00  0.00     0.037 A 
ATOM     49  C   UNL A   1      43.740  24.445  29.290  1.00  0.00     0.049 A 
ATOM     50  C   UNL A   1      43.222  28.188  33.470  1.00  0.00     0.074 A 
ATOM     51  C   UNL A   1      44.743  25.374  29.070  1.00  0.00     0.029 A 
ATOM     52  N   UNL A   1      43.695  24.254  30.661  1.00  0.00    -0.354 N 
ATOM     53  N   UNL A   1      43.600  27.204  32.694  1.00  0.00    -0.248 NA
ATOM     54  C   UNL A   1      43.735  28.041  34.821  1.00  0.00     0.031 C 
ATOM     55  C   UNL A   1      45.256  25.782  30.334  1.00  0.00     0.029 A 
ATOM     56  C   UNL A   1      44.595  25.079  31.331  1.00  0.00     0.049 A 
ATOM     57  H   UNL A   1      43.098  23.610  31.108  1.00  0.00     0.167 HD
ATOM     58  C   UNL A   1      44.336  26.283  33.394  1.00  0.00     0.074 A 
ATOM     59  C   UNL A   1      44.439  26.898  34.708  1.00  0.00     0.031 C 
ATOM     60  C   UNL A   1      44.701  25.089  32.810  1.00  0.00     0.037 A 
BRANCH  47  61
ATOM     61  C   UNL A   1      42.985  22.779  27.395  1.00  0.00     0.058 A 
ATOM     62  C   UNL A   1      42.254  21.567  27.415  1.00  0.00     0.135 A 
ATOM     63  C   UNL A   1      44.006  22.810  26.421  1.00  0.00     0.135 A 
ATOM     64  F   UNL A   1      41.185  21.411  28.208  1.00  0.00    -0.206 F 
ATOM     65  C   UNL A   1      42.590  20.451  26.636  1.00  0.00     0.059 A 
ATOM     66  C   UNL A   1      44.399  21.693  25.673  1.00  0.00     0.059 A 
ATOM     67  F   UNL A   1      44.636  23.945  26.099  1.00  0.00    -0.206 F 
ATOM     68  C   UNL A   1      43.695  20.506  25.799  1.00  0.00     0.060 A 
BRANCH  68  69
ATOM     69  S   UNL A   1      44.182  19.032  24.880  1.00  0.00     0.124 S 
ATOM     70  O   UNL A   1      45.511  18.760  25.419  1.00  0.00    -0.237 OA
ATOM     71  O   UNL A   1      43.140  18.081  25.248  1.00  0.00    -0.237 OA
ATOM     72  O   UNL A   1      44.160  19.475  23.488  1.00  0.00    -0.744 OA
ENDBRANCH  68  69
ENDBRANCH  47  61
BRANCH  48  73
ATOM     73  C   UNL A   1      41.276  30.102  33.663  1.00  0.00     0.058 A 
ATOM     74  C   UNL A   1      41.533  31.462  33.941  1.00  0.00     0.135 A 
ATOM     75  C   UNL A   1      39.928  29.721  33.633  1.00  0.00     0.135 A 
ATOM     76  F   UNL A   1      42.802  31.892  34.047  1.00  0.00    -0.206 F 
ATOM     77  C   UNL A   1      40.522  32.420  33.996  1.00  0.00     0.059 A 
ATOM     78  C   UNL A   1      38.890  30.669  33.677  1.00  0.00     0.059 A 
ATOM     79  F   UNL A   1      39.602  28.434  33.475  1.00  0.00    -0.206 F 
ATOM     80  C   UNL A   1      39.200  32.026  33.801  1.00  0.00     0.060 A 
BRANCH  80  81
ATOM     81  S   UNL A   1      37.945  33.321  33.566  1.00  0.00     0.124 S 
ATOM     82  O   UNL A   1      38.699  34.524  33.904  1.00  0.00    -0.237 OA
ATOM     83  O   UNL A   1      37.595  33.179  32.153  1.00  0.00    -0.237 OA
ATOM     84  O   UNL A   1      36.879  32.981  34.500  1.00  0.00    -0.744 OA
ENDBRANCH  80  81
ENDBRANCH  48  73
BRANCH  60  85
ATOM     85  C   UNL A   1      45.149  23.813  33.543  1.00  0.00     0.058 A 
ATOM     86  C   UNL A   1      46.433  23.575  34.068  1.00  0.00     0.135 A 
ATOM     87  C   UNL A   1      44.212  22.786  33.848  1.00  0.00     0.135 A 
ATOM     88  F   UNL A   1      47.424  24.462  33.978  1.00  0.00    -0.206 F 
ATOM     89  C   UNL A   1      46.774  22.417  34.775  1.00  0.00     0.059 A 
ATOM     90  C   UNL A   1      44.515  21.651  34.607  1.00  0.00     0.059 A 
ATOM     91  F   UNL A   1      42.936  22.845  33.444  1.00  0.00    -0.206 F 
ATOM     92  C   UNL A   1      45.810  21.462  35.046  1.00  0.00     0.060 A 
BRANCH  92  93
ATOM     93  S   UNL A   1      46.273  20.005  35.995  1.00  0.00     0.124 S 
ATOM     94  O   UNL A   1      45.426  18.982  35.390  1.00  0.00    -0.237 OA
ATOM     95  O   UNL A   1      47.701  19.892  35.709  1.00  0.00    -0.237 OA
ATOM     96  O   UNL A   1      45.941  20.370  37.367  1.00  0.00    -0.744 OA
ENDBRANCH  92  93
ENDBRANCH  60  85
ENDBRANCH  34  35
ENDBRANCH  27  29
ENDBRANCH  26  27
ENDBRANCH  25  26
ENDBRANCH   1  25
TORSDOF 17
ENDMDL
MODEL 2
REMARK VINA RESULT:     -13.9      4.624     11.491
REMARK SMILES Cc1ccc([C@H](C)NC(=O)[C@H]2[C@@H]3CC[C@@H](C3)[C@@H]2C(=O)OCCOC(=O)c2ccc(-c3c4nc(c(-c5c(F)cc(S(=O)(=O)[O-])cc5F)c5ccc([nH]5)c(-c5c(F)cc(S(=O)(=O)[O-])cc5F)c5nc(c(-c6c(F)cc(S(=O)(=O)[O-])cc6F)c6ccc3[nH]6)C=C5)C=C4)cc2)cc1
REMARK SMILES IDX 21 1 20 2 18 3 19 4 17 5 11 6 12 7 13 8 16 9 15 10 14 11
REMARK SMILES IDX 9 12 8 13 10 15 6 16 7 17 5 18 1 19 2 20 3 21 93 22 4 23
REMARK SMILES IDX 92 24 22 25 23 26 24 27 25 28 26 29 27 30 91 31 28 32 90 33
REMARK SMILES IDX 29 34 30 35 31 36 84 37 32 38 89 39 83 40 85 41 33 42 88 43
REMARK SMILES IDX 82 44 81 45 34 47 68 48 47 49 67 50 48 51 51 52 66 53 86 54
REMARK SMILES IDX 49 55 50 56 65 58 87 59 52 60 35 61 36 62 45 63 37 64 38 65
REMARK SMILES IDX 44 66 46 67 39 68 40 69 41 70 42 71 43 72 69 73 70 74 79 75
REMARK SMILES IDX 71 76 72 77 78 78 80 79 73 80 74 81 75 82 76 83 77 84 53 85
REMARK SMILES IDX 54 86 63 87 55 88 56 89 62 90 64 91 57 92 58 93 59 94 60 95
REMARK SMILES IDX 61 96
REMARK H PARENT 8 14 85 46 51 57
REMARK Flexibility Score: inf
ROOT
ATOM      1  C   UNL A   1      37.261  22.511  24.889  1.00  0.00     0.274 C 
ENDROOT
BRANCH   1   2
ATOM      2  O   UNL A   1      35.650  23.730  24.907  1.00  0.00    -0.462 OA
BRANCH   2   3
ATOM      3  C   UNL A   1      34.515  24.533  24.972  1.00  0.00     0.310 C 
ATOM      4  O   UNL A   1      34.639  25.644  25.512  1.00  0.00    -0.252 OA
BRANCH   3   5
ATOM      5  C   UNL A   1      33.047  24.090  24.704  1.00  0.00     0.115 C 
ATOM      6  C   UNL A   1      31.980  23.394  25.569  1.00  0.00     0.096 C 
ATOM      7  C   UNL A   1      31.392  22.298  24.640  1.00  0.00     0.002 C 
ATOM      8  C   UNL A   1      32.449  21.179  24.508  1.00  0.00     0.005 C 
ATOM      9  C   UNL A   1      31.476  22.911  23.254  1.00  0.00     0.009 C 
ATOM     10  C   UNL A   1      32.962  23.249  23.391  1.00  0.00     0.004 C 
ATOM     11  C   UNL A   1      33.531  21.839  23.634  1.00  0.00     0.005 C 
BRANCH   6  12
ATOM     12  C   UNL A   1      30.891  24.209  26.278  1.00  0.00     0.224 C 
ATOM     13  N   UNL A   1      30.420  25.425  25.932  1.00  0.00    -0.349 N 
ATOM     14  H   UNL A   1      29.625  25.688  26.447  1.00  0.00     0.164 HD
ATOM     15  O   UNL A   1      30.312  23.683  27.244  1.00  0.00    -0.275 OA
BRANCH  13  16
ATOM     16  C   UNL A   1      30.827  26.432  24.968  1.00  0.00     0.109 C 
ATOM     17  C   UNL A   1      29.674  26.798  24.031  1.00  0.00     0.036 C 
BRANCH  16  18
ATOM     18  C   UNL A   1      31.371  27.662  25.650  1.00  0.00    -0.026 A 
ATOM     19  C   UNL A   1      33.606  30.848  27.401  1.00  0.00     0.044 C 
ATOM     20  C   UNL A   1      32.755  29.795  26.791  1.00  0.00    -0.051 A 
ATOM     21  C   UNL A   1      32.624  28.596  27.485  1.00  0.00     0.004 A 
ATOM     22  C   UNL A   1      32.083  29.980  25.586  1.00  0.00     0.004 A 
ATOM     23  C   UNL A   1      31.956  27.529  26.916  1.00  0.00     0.006 A 
ATOM     24  C   UNL A   1      31.384  28.918  25.020  1.00  0.00     0.006 A 
ENDBRANCH  16  18
ENDBRANCH  13  16
ENDBRANCH   6  12
ENDBRANCH   3   5
ENDBRANCH   2   3
ENDBRANCH   1   2
BRANCH   1  25
ATOM     25  C   UNL A   1      38.369  22.297  26.077  1.00  0.00     0.275 C 
BRANCH  25  26
ATOM     26  O   UNL A   1      39.780  22.213  25.765  1.00  0.00    -0.458 OA
BRANCH  26  27
ATOM     27  C   UNL A   1      40.656  22.953  26.482  1.00  0.00     0.338 C 
ATOM     28  O   UNL A   1      41.814  22.687  26.721  1.00  0.00    -0.246 OA
BRANCH  27  29
ATOM     29  C   UNL A   1      39.981  24.196  26.744  1.00  0.00     0.060 A 
ATOM     30  C   UNL A   1      39.236  24.326  28.377  1.00  0.00     0.016 A 
ATOM     31  C   UNL A   1      40.773  25.612  25.991  1.00  0.00     0.016 A 
ATOM     32  C   UNL A   1      39.203  25.939  29.231  1.00  0.00     0.010 A 
ATOM     33  C   UNL A   1      40.815  27.156  26.862  1.00  0.00     0.010 A 
ATOM     34  C   UNL A   1      39.985  27.378  28.466  1.00  0.00    -0.014 A 
BRANCH  34  35
ATOM     35  C   UNL A   1      40.049  28.758  29.019  1.00  0.00     0.031 A 
ATOM     36  C   UNL A   1      39.016  29.844  28.963  1.00  0.00     0.074 A 
ATOM     37  C   UNL A   1      41.226  29.152  29.560  1.00  0.00     0.049 A 
ATOM     38  N   UNL A   1      39.243  31.080  29.308  1.00  0.00    -0.248 NA
ATOM     39  C   UNL A   1      37.670  29.682  28.438  1.00  0.00     0.031 C 
ATOM     40  C   UNL A   1      41.430  30.098  30.649  1.00  0.00     0.029 A 
ATOM     41  N   UNL A   1      42.516  28.837  29.138  1.00  0.00    -0.354 N 
ATOM     42  C   UNL A   1      38.062  31.787  29.274  1.00  0.00     0.074 A 
ATOM     43  C   UNL A   1      37.142  30.893  28.626  1.00  0.00     0.031 C 
ATOM     44  C   UNL A   1      42.732  30.396  30.730  1.00  0.00     0.029 A 
ATOM     45  C   UNL A   1      43.414  29.780  29.606  1.00  0.00     0.049 A 
ATOM     46  H   UNL A   1      42.753  28.058  28.585  1.00  0.00     0.167 HD
ATOM     47  C   UNL A   1      37.956  32.992  29.913  1.00  0.00     0.037 A 
ATOM     48  C   UNL A   1      44.472  30.273  28.918  1.00  0.00     0.037 A 
ATOM     49  C   UNL A   1      39.257  33.449  30.413  1.00  0.00     0.049 A 
ATOM     50  C   UNL A   1      44.425  31.782  28.911  1.00  0.00     0.074 A 
ATOM     51  C   UNL A   1      39.936  33.260  31.605  1.00  0.00     0.029 A 
ATOM     52  N   UNL A   1      40.167  34.031  29.546  1.00  0.00    -0.354 N 
ATOM     53  N   UNL A   1      43.384  32.468  29.309  1.00  0.00    -0.248 NA
ATOM     54  C   UNL A   1      45.516  32.644  28.494  1.00  0.00     0.031 C 
ATOM     55  C   UNL A   1      41.284  33.679  31.419  1.00  0.00     0.029 A 
ATOM     56  C   UNL A   1      41.426  34.161  30.126  1.00  0.00     0.049 A 
ATOM     57  H   UNL A   1      39.949  34.318  28.630  1.00  0.00     0.167 HD
ATOM     58  C   UNL A   1      43.603  33.815  29.170  1.00  0.00     0.074 A 
ATOM     59  C   UNL A   1      44.984  33.861  28.714  1.00  0.00     0.031 C 
ATOM     60  C   UNL A   1      42.582  34.716  29.380  1.00  0.00     0.037 A 
BRANCH  47  61
ATOM     61  C   UNL A   1      36.628  33.614  30.352  1.00  0.00     0.058 A 
ATOM     62  C   UNL A   1      35.709  34.087  29.386  1.00  0.00     0.135 A 
ATOM     63  C   UNL A   1      36.230  33.863  31.684  1.00  0.00     0.135 A 
ATOM     64  F   UNL A   1      35.884  33.841  28.080  1.00  0.00    -0.206 F 
ATOM     65  C   UNL A   1      34.576  34.846  29.706  1.00  0.00     0.059 A 
ATOM     66  C   UNL A   1      35.137  34.668  32.029  1.00  0.00     0.059 A 
ATOM     67  F   UNL A   1      36.846  33.287  32.721  1.00  0.00    -0.206 F 
ATOM     68  C   UNL A   1      34.320  35.173  31.030  1.00  0.00     0.060 A 
BRANCH  68  69
ATOM     69  S   UNL A   1      32.919  36.238  31.424  1.00  0.00     0.124 S 
ATOM     70  O   UNL A   1      31.996  35.308  32.065  1.00  0.00    -0.237 OA
ATOM     71  O   UNL A   1      33.526  37.235  32.298  1.00  0.00    -0.237 OA
ATOM     72  O   UNL A   1      32.488  36.732  30.117  1.00  0.00    -0.744 OA
ENDBRANCH  68  69
ENDBRANCH  47  61
BRANCH  48  73
ATOM     73  C   UNL A   1      45.085  29.303  27.957  1.00  0.00     0.058 A 
ATOM     74  C   UNL A   1      46.128  28.495  28.461  1.00  0.00     0.135 A 
ATOM     75  C   UNL A   1      44.447  28.838  26.800  1.00  0.00     0.135 A 
ATOM     76  F   UNL A   1      46.827  28.903  29.534  1.00  0.00    -0.206 F 
ATOM     77  C   UNL A   1      46.394  27.220  27.965  1.00  0.00     0.059 A 
ATOM     78  C   UNL A   1      44.692  27.553  26.285  1.00  0.00     0.059 A 
ATOM     79  F   UNL A   1      43.517  29.592  26.202  1.00  0.00    -0.206 F 
ATOM     80  C   UNL A   1      45.629  26.727  26.911  1.00  0.00     0.060 A 
BRANCH  80  81
ATOM     81  S   UNL A   1      45.782  24.963  26.492  1.00  0.00     0.124 S 
ATOM     82  O   UNL A   1      47.053  24.942  25.777  1.00  0.00    -0.237 OA
ATOM     83  O   UNL A   1      45.793  24.318  27.806  1.00  0.00    -0.237 OA
ATOM     84  O   UNL A   1      44.612  24.671  25.674  1.00  0.00    -0.744 OA
ENDBRANCH  80  81
ENDBRANCH  48  73
BRANCH  60  85
ATOM     85  C   UNL A   1      42.533  36.172  28.887  1.00  0.00     0.058 A 
ATOM     86  C   UNL A   1      43.156  37.271  29.508  1.00  0.00     0.135 A 
ATOM     87  C   UNL A   1      41.913  36.497  27.648  1.00  0.00     0.135 A 
ATOM     88  F   UNL A   1      43.875  37.155  30.625  1.00  0.00    -0.206 F 
ATOM     89  C   UNL A   1      43.125  38.569  28.988  1.00  0.00     0.059 A 
ATOM     90  C   UNL A   1      41.924  37.774  27.078  1.00  0.00     0.059 A 
ATOM     91  F   UNL A   1      41.281  35.577  26.906  1.00  0.00    -0.206 F 
ATOM     92  C   UNL A   1      42.513  38.814  27.771  1.00  0.00     0.060 A 
BRANCH  92  93
ATOM     93  S   UNL A   1      42.529  40.487  27.111  1.00  0.00     0.124 S 
ATOM     94  O   UNL A   1      43.566  40.387  26.089  1.00  0.00    -0.237 OA
ATOM     95  O   UNL A   1      41.164  40.636  26.614  1.00  0.00    -0.237 OA
ATOM     96  O   UNL A   1      42.861  41.309  28.269  1.00  0.00    -0.744 OA
ENDBRANCH  92  93
ENDBRANCH  60  85
ENDBRANCH  34  35
ENDBRANCH  27  29
ENDBRANCH  26  27
ENDBRANCH  25  26
ENDBRANCH   1  25
TORSDOF 17
ENDMDL
MODEL 3
REMARK VINA RESULT:     -13.5      1.664      2.333
REMARK SMILES Cc1ccc([C@H](C)NC(=O)[C@H]2[C@@H]3CC[C@@H](C3)[C@@H]2C(=O)OCCOC(=O)c2ccc(-c3c4nc(c(-c5c(F)cc(S(=O)(=O)[O-])cc5F)c5ccc([nH]5)c(-c5c(F)cc(S(=O)(=O)[O-])cc5F)c5nc(c(-c6c(F)cc(S(=O)(=O)[O-])cc6F)c6ccc3[nH]6)C=C5)C=C4)cc2)cc1
REMARK SMILES IDX 21 1 20 2 18 3 19 4 17 5 11 6 12 7 13 8 16 9 15 10 14 11
REMARK SMILES IDX 9 12 8 13 10 15 6 16 7 17 5 18 1 19 2 20 3 21 93 22 4 23
REMARK SMILES IDX 92 24 22 25 23 26 24 27 25 28 26 29 27 30 91 31 28 32 90 33
REMARK SMILES IDX 29 34 30 35 31 36 84 37 32 38 89 39 83 40 85 41 33 42 88 43
REMARK SMILES IDX 82 44 81 45 34 47 68 48 47 49 67 50 48 51 51 52 66 53 86 54
REMARK SMILES IDX 49 55 50 56 65 58 87 59 52 60 35 61 36 62 45 63 37 64 38 65
REMARK SMILES IDX 44 66 46 67 39 68 40 69 41 70 42 71 43 72 69 73 70 74 79 75
REMARK SMILES IDX 71 76 72 77 78 78 80 79 73 80 74 81 75 82 76 83 77 84 53 85
REMARK SMILES IDX 54 86 63 87 55 88 56 89 62 90 64 91 57 92 58 93 59 94 60 95
REMARK SMILES IDX 61 96
REMARK H PARENT 8 14 85 46 51 57
REMARK Flexibility Score: inf
ROOT
ATOM      1  C   UNL A   1      33.504  30.174  26.736  1.00  0.00     0.274 C 
ENDROOT
BRANCH   1   2
ATOM      2  O   UNL A   1      33.676  29.031  25.079  1.00  0.00    -0.462 OA
BRANCH   2   3
ATOM      3  C   UNL A   1      33.730  28.261  23.921  1.00  0.00     0.310 C 
ATOM      4  O   UNL A   1      34.448  28.678  22.998  1.00  0.00    -0.252 OA
BRANCH   3   5
ATOM      5  C   UNL A   1      32.777  27.092  23.538  1.00  0.00     0.115 C 
ATOM      6  C   UNL A   1      32.128  26.649  22.213  1.00  0.00     0.096 C 
ATOM      7  C   UNL A   1      30.649  26.365  22.589  1.00  0.00     0.002 C 
ATOM      8  C   UNL A   1      29.956  27.726  22.823  1.00  0.00     0.005 C 
ATOM      9  C   UNL A   1      30.727  25.855  24.017  1.00  0.00     0.009 C 
ATOM     10  C   UNL A   1      31.547  27.053  24.500  1.00  0.00     0.004 C 
ATOM     11  C   UNL A   1      30.574  28.195  24.153  1.00  0.00     0.005 C 
BRANCH   6  12
ATOM     12  C   UNL A   1      32.747  25.523  21.374  1.00  0.00     0.224 C 
ATOM     13  N   UNL A   1      33.031  24.265  21.772  1.00  0.00    -0.349 N 
ATOM     14  H   UNL A   1      33.289  23.678  21.027  1.00  0.00     0.164 HD
ATOM     15  O   UNL A   1      32.957  25.747  20.171  1.00  0.00    -0.275 OA
BRANCH  13  16
ATOM     16  C   UNL A   1      33.040  23.586  23.056  1.00  0.00     0.109 C 
ATOM     17  C   UNL A   1      32.621  22.122  22.910  1.00  0.00     0.036 C 
BRANCH  16  18
ATOM     18  C   UNL A   1      34.387  23.691  23.727  1.00  0.00    -0.026 A 
ATOM     19  C   UNL A   1      37.933  23.416  26.085  1.00  0.00     0.044 C 
ATOM     20  C   UNL A   1      36.748  23.555  25.200  1.00  0.00    -0.051 A 
ATOM     21  C   UNL A   1      35.645  24.234  25.710  1.00  0.00     0.004 A 
ATOM     22  C   UNL A   1      36.722  23.059  23.900  1.00  0.00     0.004 A 
ATOM     23  C   UNL A   1      34.466  24.286  24.992  1.00  0.00     0.006 A 
ATOM     24  C   UNL A   1      35.545  23.134  23.161  1.00  0.00     0.006 A 
ENDBRANCH  16  18
ENDBRANCH  13  16
ENDBRANCH   6  12
ENDBRANCH   3   5
ENDBRANCH   2   3
ENDBRANCH   1   2
BRANCH   1  25
ATOM     25  C   UNL A   1      34.708  30.736  27.695  1.00  0.00     0.275 C 
BRANCH  25  26
ATOM     26  O   UNL A   1      34.928  32.159  27.847  1.00  0.00    -0.458 OA
BRANCH  26  27
ATOM     27  C   UNL A   1      34.763  32.722  29.066  1.00  0.00     0.338 C 
ATOM     28  O   UNL A   1      33.762  33.255  29.494  1.00  0.00    -0.246 OA
BRANCH  27  29
ATOM     29  C   UNL A   1      35.953  32.395  29.803  1.00  0.00     0.060 A 
ATOM     30  C   UNL A   1      35.859  30.877  30.765  1.00  0.00     0.016 A 
ATOM     31  C   UNL A   1      37.464  32.841  28.955  1.00  0.00     0.016 A 
ATOM     32  C   UNL A   1      37.343  29.833  30.957  1.00  0.00     0.010 A 
ATOM     33  C   UNL A   1      38.878  31.779  29.073  1.00  0.00     0.010 A 
ATOM     34  C   UNL A   1      38.878  30.289  30.118  1.00  0.00    -0.014 A 
BRANCH  34  35
ATOM     35  C   UNL A   1      40.173  29.557  30.167  1.00  0.00     0.031 A 
ATOM     36  C   UNL A   1      40.510  28.201  29.623  1.00  0.00     0.074 A 
ATOM     37  C   UNL A   1      41.172  30.120  30.887  1.00  0.00     0.049 A 
ATOM     38  N   UNL A   1      41.619  27.569  29.886  1.00  0.00    -0.248 NA
ATOM     39  C   UNL A   1      39.619  27.388  28.812  1.00  0.00     0.031 C 
ATOM     40  C   UNL A   1      42.606  30.016  30.647  1.00  0.00     0.029 A 
ATOM     41  N   UNL A   1      41.078  30.835  32.079  1.00  0.00    -0.354 N 
ATOM     42  C   UNL A   1      41.682  26.423  29.126  1.00  0.00     0.074 A 
ATOM     43  C   UNL A   1      40.366  26.311  28.559  1.00  0.00     0.031 C 
ATOM     44  C   UNL A   1      43.261  30.513  31.704  1.00  0.00     0.029 A 
ATOM     45  C   UNL A   1      42.293  30.821  32.741  1.00  0.00     0.049 A 
ATOM     46  H   UNL A   1      40.265  31.284  32.404  1.00  0.00     0.167 HD
ATOM     47  C   UNL A   1      42.871  25.769  28.953  1.00  0.00     0.037 A 
ATOM     48  C   UNL A   1      42.462  30.706  34.081  1.00  0.00     0.037 A 
ATOM     49  C   UNL A   1      43.922  26.333  29.807  1.00  0.00     0.049 A 
ATOM     50  C   UNL A   1      43.414  29.576  34.387  1.00  0.00     0.074 A 
ATOM     51  C   UNL A   1      44.843  27.351  29.633  1.00  0.00     0.029 A 
ATOM     52  N   UNL A   1      43.976  25.998  31.150  1.00  0.00    -0.354 N 
ATOM     53  N   UNL A   1      43.808  28.709  33.489  1.00  0.00    -0.248 NA
ATOM     54  C   UNL A   1      44.020  29.329  35.683  1.00  0.00     0.031 C 
ATOM     55  C   UNL A   1      45.406  27.664  30.903  1.00  0.00     0.029 A 
ATOM     56  C   UNL A   1      44.858  26.814  31.853  1.00  0.00     0.049 A 
ATOM     57  H   UNL A   1      43.453  25.269  31.557  1.00  0.00     0.167 HD
ATOM     58  C   UNL A   1      44.648  27.777  34.044  1.00  0.00     0.074 A 
ATOM     59  C   UNL A   1      44.791  28.260  35.409  1.00  0.00     0.031 C 
ATOM     60  C   UNL A   1      45.056  26.680  33.317  1.00  0.00     0.037 A 
BRANCH  47  61
ATOM     61  C   UNL A   1      43.164  24.818  27.789  1.00  0.00     0.058 A 
ATOM     62  C   UNL A   1      42.948  23.427  27.935  1.00  0.00     0.135 A 
ATOM     63  C   UNL A   1      43.736  25.177  26.549  1.00  0.00     0.135 A 
ATOM     64  F   UNL A   1      42.318  22.929  29.008  1.00  0.00    -0.206 F 
ATOM     65  C   UNL A   1      43.379  22.477  27.000  1.00  0.00     0.059 A 
ATOM     66  C   UNL A   1      44.228  24.247  25.624  1.00  0.00     0.059 A 
ATOM     67  F   UNL A   1      43.792  26.449  26.143  1.00  0.00    -0.206 F 
ATOM     68  C   UNL A   1      44.062  22.892  25.865  1.00  0.00     0.060 A 
BRANCH  68  69
ATOM     69  S   UNL A   1      44.705  21.657  24.719  1.00  0.00     0.124 S 
ATOM     70  O   UNL A   1      44.521  22.311  23.427  1.00  0.00    -0.237 OA
ATOM     71  O   UNL A   1      46.085  21.512  25.166  1.00  0.00    -0.237 OA
ATOM     72  O   UNL A   1      43.848  20.497  24.951  1.00  0.00    -0.744 OA
ENDBRANCH  68  69
ENDBRANCH  47  61
BRANCH  48  73
ATOM     73  C   UNL A   1      41.358  31.309  34.891  1.00  0.00     0.058 A 
ATOM     74  C   UNL A   1      41.181  32.705  34.769  1.00  0.00     0.135 A 
ATOM     75  C   UNL A   1      40.262  30.588  35.382  1.00  0.00     0.135 A 
ATOM     76  F   UNL A   1      42.205  33.473  34.362  1.00  0.00    -0.206 F 
ATOM     77  C   UNL A   1      39.941  33.320  34.939  1.00  0.00     0.059 A 
ATOM     78  C   UNL A   1      38.999  31.184  35.553  1.00  0.00     0.059 A 
ATOM     79  F   UNL A   1      40.379  29.277  35.621  1.00  0.00    -0.206 F 
ATOM     80  C   UNL A   1      38.835  32.542  35.273  1.00  0.00     0.060 A 
BRANCH  80  81
ATOM     81  S   UNL A   1      37.188  33.309  35.182  1.00  0.00     0.124 S 
ATOM     82  O   UNL A   1      36.762  33.253  36.577  1.00  0.00    -0.237 OA
ATOM     83  O   UNL A   1      37.483  34.649  34.673  1.00  0.00    -0.237 OA
ATOM     84  O   UNL A   1      36.430  32.459  34.273  1.00  0.00    -0.744 OA
ENDBRANCH  80  81
ENDBRANCH  48  73
BRANCH  60  85
ATOM     85  C   UNL A   1      45.635  25.372  33.883  1.00  0.00     0.058 A 
ATOM     86  C   UNL A   1      44.888  24.248  34.282  1.00  0.00     0.135 A 
ATOM     87  C   UNL A   1      47.042  25.167  33.939  1.00  0.00     0.135 A 
ATOM     88  F   UNL A   1      43.558  24.204  34.206  1.00  0.00    -0.206 F 
ATOM     89  C   UNL A   1      45.467  23.060  34.740  1.00  0.00     0.059 A 
ATOM     90  C   UNL A   1      47.643  23.967  34.333  1.00  0.00     0.059 A 
ATOM     91  F   UNL A   1      47.914  26.121  33.584  1.00  0.00    -0.206 F 
ATOM     92  C   UNL A   1      46.845  22.924  34.759  1.00  0.00     0.060 A 
BRANCH  92  93
ATOM     93  S   UNL A   1      47.556  21.368  35.314  1.00  0.00     0.124 S 
ATOM     94  O   UNL A   1      47.520  20.577  34.087  1.00  0.00    -0.237 OA
ATOM     95  O   UNL A   1      48.884  21.778  35.762  1.00  0.00    -0.237 OA
ATOM     96  O   UNL A   1      46.649  20.934  36.371  1.00  0.00    -0.744 OA
ENDBRANCH  92  93
ENDBRANCH  60  85
ENDBRANCH  34  35
ENDBRANCH  27  29
ENDBRANCH  26  27
ENDBRANCH  25  26
ENDBRANCH   1  25
TORSDOF 17
ENDMDL
