MODEL 1
REMARK VINA RESULT:     -11.3      0.000      0.000
REMARK SMILES COCCN1C(=O)C[C@H](C(=O)OCCOC(=O)c2ccc(-c3c4nc(c(-c5c(F)cc(S(=O)(=O)[O-])cc5F)c5ccc([nH]5)c(-c5c(F)cc(S(=O)(=O)[O-])cc5F)c5nc(c(-c6c(F)cc(S(=O)(=O)[O-])cc6F)c6ccc3[nH]6)C=C5)C=C4)cc2)[C@@H]1c1ccccc1N1CCOCC1
REMARK SMILES IDX 13 1 12 2 10 3 11 4 9 5 5 6 6 7 84 8 7 9 8 10 4 11 3 12 2 13
REMARK SMILES IDX 1 14 85 15 86 16 90 17 87 18 89 19 88 20 91 21 92 22 96 23
REMARK SMILES IDX 93 24 95 25 94 26 14 27 15 28 16 29 17 30 18 31 19 32 83 33
REMARK SMILES IDX 20 34 82 35 21 36 22 37 23 38 76 39 24 40 81 41 75 42 77 43
REMARK SMILES IDX 25 44 80 45 74 46 73 47 26 49 60 50 39 51 59 52 40 53 43 54
REMARK SMILES IDX 58 55 78 56 41 57 42 58 57 60 79 61 44 62 27 63 28 64 37 65
REMARK SMILES IDX 29 66 30 67 36 68 38 69 31 70 32 71 33 72 34 73 35 74 61 75
REMARK SMILES IDX 62 76 71 77 63 78 64 79 70 80 72 81 65 82 66 83 67 84 68 85
REMARK SMILES IDX 69 86 45 87 46 88 55 89 47 90 48 91 54 92 56 93 49 94 50 95
REMARK SMILES IDX 51 96 52 97 53 98
REMARK H PARENT 77 48 43 59
REMARK Flexibility Score: inf
ROOT
ATOM      1  C   UNL A   1      37.707  21.604  25.757  1.00  0.00     0.274 C 
ENDROOT
BRANCH   1   2
ATOM      2  O   UNL A   1      37.112  21.392  24.463  1.00  0.00    -0.462 OA
BRANCH   2   3
ATOM      3  C   UNL A   1      36.378  22.433  24.002  1.00  0.00     0.312 C 
ATOM      4  O   UNL A   1      36.346  22.782  22.836  1.00  0.00    -0.252 OA
BRANCH   3   5
ATOM      5  C   UNL A   1      35.523  23.103  25.023  1.00  0.00     0.136 C 
ATOM      6  N   UNL A   1      33.504  23.362  26.093  1.00  0.00    -0.332 N 
ATOM      7  C   UNL A   1      33.796  24.609  25.557  1.00  0.00     0.224 C 
ATOM      8  C   UNL A   1      34.347  22.283  25.550  1.00  0.00     0.132 C 
ATOM      9  O   UNL A   1      33.205  25.656  25.768  1.00  0.00    -0.275 OA
ATOM     10  C   UNL A   1      34.968  24.462  24.631  1.00  0.00     0.118 C 
BRANCH   6  11
ATOM     11  C   UNL A   1      32.505  23.178  27.141  1.00  0.00     0.148 C 
BRANCH  11  12
ATOM     12  C   UNL A   1      31.117  22.769  26.630  1.00  0.00     0.181 C 
BRANCH  12  13
ATOM     13  O   UNL A   1      30.056  23.466  27.284  1.00  0.00    -0.383 OA
ATOM     14  C   UNL A   1      28.933  22.645  27.577  1.00  0.00     0.194 C 
ENDBRANCH  12  13
ENDBRANCH  11  12
ENDBRANCH   6  11
BRANCH   8  15
ATOM     15  C   UNL A   1      33.640  21.359  24.550  1.00  0.00    -0.001 A 
ATOM     16  C   UNL A   1      33.743  19.958  24.752  1.00  0.00     0.008 A 
ATOM     17  C   UNL A   1      32.829  21.832  23.471  1.00  0.00     0.042 A 
ATOM     18  C   UNL A   1      33.081  19.036  23.943  1.00  0.00     0.001 A 
ATOM     19  C   UNL A   1      32.170  20.861  22.682  1.00  0.00     0.026 A 
ATOM     20  C   UNL A   1      32.285  19.490  22.910  1.00  0.00     0.002 A 
BRANCH  17  21
ATOM     21  N   UNL A   1      32.597  23.183  23.200  1.00  0.00    -0.367 N 
ATOM     22  C   UNL A   1      33.263  23.860  22.070  1.00  0.00     0.145 C 
ATOM     23  C   UNL A   1      31.246  23.761  23.450  1.00  0.00     0.145 C 
ATOM     24  C   UNL A   1      33.284  25.384  22.315  1.00  0.00     0.181 C 
ATOM     25  C   UNL A   1      31.284  25.299  23.564  1.00  0.00     0.181 C 
ATOM     26  O   UNL A   1      31.951  25.904  22.449  1.00  0.00    -0.378 OA
ENDBRANCH  17  21
ENDBRANCH   8  15
ENDBRANCH   3   5
ENDBRANCH   2   3
ENDBRANCH   1   2
BRANCH   1  27
ATOM     27  C   UNL A   1      39.238  21.458  25.771  1.00  0.00     0.275 C 
BRANCH  27  28
ATOM     28  O   UNL A   1      39.702  20.299  26.499  1.00  0.00    -0.458 OA
BRANCH  28  29
ATOM     29  C   UNL A   1      40.997  19.956  26.282  1.00  0.00     0.338 C 
ATOM     30  O   UNL A   1      41.392  18.892  25.823  1.00  0.00    -0.246 OA
BRANCH  29  31
ATOM     31  C   UNL A   1      41.898  21.117  26.482  1.00  0.00     0.060 A 
ATOM     32  C   UNL A   1      42.132  21.539  27.800  1.00  0.00     0.016 A 
ATOM     33  C   UNL A   1      42.466  21.818  25.419  1.00  0.00     0.016 A 
ATOM     34  C   UNL A   1      42.924  22.652  28.065  1.00  0.00     0.010 A 
ATOM     35  C   UNL A   1      43.230  22.965  25.682  1.00  0.00     0.010 A 
ATOM     36  C   UNL A   1      43.444  23.398  27.004  1.00  0.00    -0.014 A 
BRANCH  36  37
ATOM     37  C   UNL A   1      44.045  24.723  27.285  1.00  0.00     0.031 A 
ATOM     38  C   UNL A   1      43.139  25.833  27.745  1.00  0.00     0.074 A 
ATOM     39  C   UNL A   1      45.370  24.928  27.179  1.00  0.00     0.049 A 
ATOM     40  N   UNL A   1      43.422  27.085  27.996  1.00  0.00    -0.248 NA
ATOM     41  C   UNL A   1      41.725  25.481  27.954  1.00  0.00     0.031 C 
ATOM     42  C   UNL A   1      46.355  23.912  26.810  1.00  0.00     0.029 A 
ATOM     43  N   UNL A   1      46.113  26.068  27.362  1.00  0.00    -0.354 N 
ATOM     44  C   UNL A   1      42.221  27.673  28.376  1.00  0.00     0.074 A 
ATOM     45  C   UNL A   1      41.205  26.646  28.313  1.00  0.00     0.031 C 
ATOM     46  C   UNL A   1      47.572  24.484  26.766  1.00  0.00     0.029 A 
ATOM     47  C   UNL A   1      47.446  25.910  27.066  1.00  0.00     0.049 A 
ATOM     48  H   UNL A   1      45.728  26.918  27.675  1.00  0.00     0.167 HD
ATOM     49  C   UNL A   1      41.988  28.957  28.739  1.00  0.00     0.037 A 
ATOM     50  C   UNL A   1      48.441  26.820  27.008  1.00  0.00     0.037 A 
ATOM     51  C   UNL A   1      43.004  29.974  28.794  1.00  0.00     0.049 A 
ATOM     52  C   UNL A   1      48.140  28.262  27.340  1.00  0.00     0.074 A 
ATOM     53  C   UNL A   1      42.871  31.301  29.161  1.00  0.00     0.029 A 
ATOM     54  N   UNL A   1      44.336  29.783  28.458  1.00  0.00    -0.354 N 
ATOM     55  N   UNL A   1      47.005  28.805  27.714  1.00  0.00    -0.248 NA
ATOM     56  C   UNL A   1      49.254  29.217  27.242  1.00  0.00     0.031 C 
ATOM     57  C   UNL A   1      44.109  31.928  28.988  1.00  0.00     0.029 A 
ATOM     58  C   UNL A   1      45.029  30.977  28.578  1.00  0.00     0.049 A 
ATOM     59  H   UNL A   1      44.731  28.927  28.177  1.00  0.00     0.167 HD
ATOM     60  C   UNL A   1      47.276  30.155  27.922  1.00  0.00     0.074 A 
ATOM     61  C   UNL A   1      48.684  30.345  27.645  1.00  0.00     0.031 C 
ATOM     62  C   UNL A   1      46.436  31.149  28.310  1.00  0.00     0.037 A 
BRANCH  49  63
ATOM     63  C   UNL A   1      40.571  29.347  29.058  1.00  0.00     0.058 A 
ATOM     64  C   UNL A   1      40.134  29.555  30.375  1.00  0.00     0.135 A 
ATOM     65  C   UNL A   1      39.648  29.556  28.021  1.00  0.00     0.135 A 
ATOM     66  F   UNL A   1      40.968  29.348  31.407  1.00  0.00    -0.206 F 
ATOM     67  C   UNL A   1      38.826  29.939  30.654  1.00  0.00     0.059 A 
ATOM     68  C   UNL A   1      38.344  29.968  28.273  1.00  0.00     0.059 A 
ATOM     69  F   UNL A   1      40.013  29.365  26.743  1.00  0.00    -0.206 F 
ATOM     70  C   UNL A   1      37.939  30.147  29.595  1.00  0.00     0.060 A 
BRANCH  70  71
ATOM     71  S   UNL A   1      36.250  30.663  29.971  1.00  0.00     0.124 S 
ATOM     72  O   UNL A   1      35.518  30.117  28.832  1.00  0.00    -0.237 OA
ATOM     73  O   UNL A   1      36.005  30.012  31.254  1.00  0.00    -0.237 OA
ATOM     74  O   UNL A   1      36.341  32.119  30.017  1.00  0.00    -0.744 OA
ENDBRANCH  70  71
ENDBRANCH  49  63
BRANCH  50  75
ATOM     75  C   UNL A   1      49.807  26.411  26.579  1.00  0.00     0.058 A 
ATOM     76  C   UNL A   1      50.793  26.056  27.512  1.00  0.00     0.135 A 
ATOM     77  C   UNL A   1      50.161  26.388  25.219  1.00  0.00     0.135 A 
ATOM     78  F   UNL A   1      50.513  26.077  28.824  1.00  0.00    -0.206 F 
ATOM     79  C   UNL A   1      52.082  25.712  27.117  1.00  0.00     0.059 A 
ATOM     80  C   UNL A   1      51.434  26.018  24.798  1.00  0.00     0.059 A 
ATOM     81  F   UNL A   1      49.256  26.715  24.283  1.00  0.00    -0.206 F 
ATOM     82  C   UNL A   1      52.393  25.693  25.756  1.00  0.00     0.060 A 
BRANCH  82  83
ATOM     83  S   UNL A   1      54.057  25.205  25.251  1.00  0.00     0.124 S 
ATOM     84  O   UNL A   1      53.855  23.809  24.882  1.00  0.00    -0.237 OA
ATOM     85  O   UNL A   1      54.323  26.124  24.147  1.00  0.00    -0.237 OA
ATOM     86  O   UNL A   1      54.854  25.433  26.451  1.00  0.00    -0.744 OA
ENDBRANCH  82  83
ENDBRANCH  50  75
BRANCH  62  87
ATOM     87  C   UNL A   1      47.016  32.525  28.503  1.00  0.00     0.058 A 
ATOM     88  C   UNL A   1      47.031  33.476  27.471  1.00  0.00     0.135 A 
ATOM     89  C   UNL A   1      47.500  32.918  29.762  1.00  0.00     0.135 A 
ATOM     90  F   UNL A   1      46.587  33.153  26.247  1.00  0.00    -0.206 F 
ATOM     91  C   UNL A   1      47.525  34.761  27.675  1.00  0.00     0.059 A 
ATOM     92  C   UNL A   1      47.967  34.208  29.996  1.00  0.00     0.059 A 
ATOM     93  F   UNL A   1      47.498  32.053  30.789  1.00  0.00    -0.206 F 
ATOM     94  C   UNL A   1      47.986  35.119  28.943  1.00  0.00     0.060 A 
BRANCH  94  95
ATOM     95  S   UNL A   1      48.584  36.803  29.204  1.00  0.00     0.124 S 
ATOM     96  O   UNL A   1      49.981  36.568  29.554  1.00  0.00    -0.237 OA
ATOM     97  O   UNL A   1      48.352  37.422  27.902  1.00  0.00    -0.237 OA
ATOM     98  O   UNL A   1      47.741  37.301  30.287  1.00  0.00    -0.744 OA
ENDBRANCH  94  95
ENDBRANCH  62  87
ENDBRANCH  36  37
ENDBRANCH  29  31
ENDBRANCH  28  29
ENDBRANCH  27  28
ENDBRANCH   1  27
TORSDOF 19
ENDMDL
MODEL 2
REMARK VINA RESULT:     -11.0      6.450     10.979
REMARK SMILES COCCN1C(=O)C[C@H](C(=O)OCCOC(=O)c2ccc(-c3c4nc(c(-c5c(F)cc(S(=O)(=O)[O-])cc5F)c5ccc([nH]5)c(-c5c(F)cc(S(=O)(=O)[O-])cc5F)c5nc(c(-c6c(F)cc(S(=O)(=O)[O-])cc6F)c6ccc3[nH]6)C=C5)C=C4)cc2)[C@@H]1c1ccccc1N1CCOCC1
REMARK SMILES IDX 13 1 12 2 10 3 11 4 9 5 5 6 6 7 84 8 7 9 8 10 4 11 3 12 2 13
REMARK SMILES IDX 1 14 85 15 86 16 90 17 87 18 89 19 88 20 91 21 92 22 96 23
REMARK SMILES IDX 93 24 95 25 94 26 14 27 15 28 16 29 17 30 18 31 19 32 83 33
REMARK SMILES IDX 20 34 82 35 21 36 22 37 23 38 76 39 24 40 81 41 75 42 77 43
REMARK SMILES IDX 25 44 80 45 74 46 73 47 26 49 60 50 39 51 59 52 40 53 43 54
REMARK SMILES IDX 58 55 78 56 41 57 42 58 57 60 79 61 44 62 27 63 28 64 37 65
REMARK SMILES IDX 29 66 30 67 36 68 38 69 31 70 32 71 33 72 34 73 35 74 61 75
REMARK SMILES IDX 62 76 71 77 63 78 64 79 70 80 72 81 65 82 66 83 67 84 68 85
REMARK SMILES IDX 69 86 45 87 46 88 55 89 47 90 48 91 54 92 56 93 49 94 50 95
REMARK SMILES IDX 51 96 52 97 53 98
REMARK H PARENT 77 48 43 59
REMARK Flexibility Score: inf
ROOT
ATOM      1  C   UNL A   1      37.442  23.331  25.733  1.00  0.00     0.274 C 
ENDROOT
BRANCH   1   2
ATOM      2  O   UNL A   1      36.204  23.974  26.089  1.00  0.00    -0.462 OA
BRANCH   2   3
ATOM      3  C   UNL A   1      35.102  23.434  25.516  1.00  0.00     0.312 C 
ATOM      4  O   UNL A   1      34.381  22.617  26.058  1.00  0.00    -0.252 OA
BRANCH   3   5
ATOM      5  C   UNL A   1      34.766  23.973  24.167  1.00  0.00     0.136 C 
ATOM      6  N   UNL A   1      33.239  24.796  22.657  1.00  0.00    -0.332 N 
ATOM      7  C   UNL A   1      33.792  23.679  22.045  1.00  0.00     0.224 C 
ATOM      8  C   UNL A   1      33.539  24.879  24.096  1.00  0.00     0.132 C 
ATOM      9  O   UNL A   1      33.638  23.324  20.888  1.00  0.00    -0.275 OA
ATOM     10  C   UNL A   1      34.610  22.940  23.063  1.00  0.00     0.118 C 
BRANCH   6  11
ATOM     11  C   UNL A   1      32.499  25.808  21.910  1.00  0.00     0.148 C 
BRANCH  11  12
ATOM     12  C   UNL A   1      31.099  26.107  22.462  1.00  0.00     0.181 C 
BRANCH  12  13
ATOM     13  O   UNL A   1      30.742  27.486  22.357  1.00  0.00    -0.383 OA
ATOM     14  C   UNL A   1      31.697  28.364  22.937  1.00  0.00     0.194 C 
ENDBRANCH  12  13
ENDBRANCH  11  12
ENDBRANCH   6  11
BRANCH   8  15
ATOM     15  C   UNL A   1      32.362  24.530  25.017  1.00  0.00    -0.001 A 
ATOM     16  C   UNL A   1      31.825  23.218  24.940  1.00  0.00     0.008 A 
ATOM     17  C   UNL A   1      31.825  25.427  25.992  1.00  0.00     0.042 A 
ATOM     18  C   UNL A   1      30.804  22.779  25.780  1.00  0.00     0.001 A 
ATOM     19  C   UNL A   1      30.795  24.935  26.828  1.00  0.00     0.026 A 
ATOM     20  C   UNL A   1      30.293  23.638  26.733  1.00  0.00     0.002 A 
BRANCH  17  21
ATOM     21  N   UNL A   1      32.302  26.722  26.211  1.00  0.00    -0.367 N 
ATOM     22  C   UNL A   1      31.610  27.645  27.133  1.00  0.00     0.145 C 
ATOM     23  C   UNL A   1      33.770  26.977  26.201  1.00  0.00     0.145 C 
ATOM     24  C   UNL A   1      31.978  29.102  26.785  1.00  0.00     0.181 C 
ATOM     25  C   UNL A   1      34.101  28.466  25.976  1.00  0.00     0.181 C 
ATOM     26  O   UNL A   1      33.395  29.317  26.889  1.00  0.00    -0.378 OA
ENDBRANCH  17  21
ENDBRANCH   8  15
ENDBRANCH   3   5
ENDBRANCH   2   3
ENDBRANCH   1   2
BRANCH   1  27
ATOM     27  C   UNL A   1      38.696  24.134  26.117  1.00  0.00     0.275 C 
BRANCH  27  28
ATOM     28  O   UNL A   1      39.533  23.471  27.090  1.00  0.00    -0.458 OA
BRANCH  28  29
ATOM     29  C   UNL A   1      40.692  24.110  27.393  1.00  0.00     0.338 C 
ATOM     30  O   UNL A   1      41.802  23.832  26.956  1.00  0.00    -0.246 OA
BRANCH  29  31
ATOM     31  C   UNL A   1      40.433  25.339  28.181  1.00  0.00     0.060 A 
ATOM     32  C   UNL A   1      41.476  26.270  28.297  1.00  0.00     0.016 A 
ATOM     33  C   UNL A   1      39.224  25.568  28.838  1.00  0.00     0.016 A 
ATOM     34  C   UNL A   1      41.326  27.422  29.062  1.00  0.00     0.010 A 
ATOM     35  C   UNL A   1      39.085  26.708  29.643  1.00  0.00     0.010 A 
ATOM     36  C   UNL A   1      40.143  27.627  29.775  1.00  0.00    -0.014 A 
BRANCH  36  37
ATOM     37  C   UNL A   1      40.096  28.702  30.795  1.00  0.00     0.031 A 
ATOM     38  C   UNL A   1      41.015  28.598  31.982  1.00  0.00     0.074 A 
ATOM     39  C   UNL A   1      39.291  29.769  30.652  1.00  0.00     0.049 A 
ATOM     40  N   UNL A   1      41.116  29.379  33.026  1.00  0.00    -0.248 NA
ATOM     41  C   UNL A   1      41.950  27.460  31.990  1.00  0.00     0.031 C 
ATOM     42  C   UNL A   1      38.409  30.015  29.512  1.00  0.00     0.029 A 
ATOM     43  N   UNL A   1      39.079  30.844  31.480  1.00  0.00    -0.354 N 
ATOM     44  C   UNL A   1      42.109  28.821  33.821  1.00  0.00     0.074 A 
ATOM     45  C   UNL A   1      42.576  27.629  33.145  1.00  0.00     0.031 C 
ATOM     46  C   UNL A   1      37.727  31.155  29.728  1.00  0.00     0.029 A 
ATOM     47  C   UNL A   1      38.098  31.698  31.035  1.00  0.00     0.049 A 
ATOM     48  H   UNL A   1      39.581  30.989  32.314  1.00  0.00     0.167 HD
ATOM     49  C   UNL A   1      42.587  29.261  35.009  1.00  0.00     0.037 A 
ATOM     50  C   UNL A   1      37.539  32.771  31.632  1.00  0.00     0.037 A 
ATOM     51  C   UNL A   1      42.113  30.444  35.676  1.00  0.00     0.049 A 
ATOM     52  C   UNL A   1      38.032  33.196  32.995  1.00  0.00     0.074 A 
ATOM     53  C   UNL A   1      42.540  30.981  36.878  1.00  0.00     0.029 A 
ATOM     54  N   UNL A   1      41.098  31.266  35.209  1.00  0.00    -0.354 N 
ATOM     55  N   UNL A   1      38.983  32.671  33.731  1.00  0.00    -0.248 NA
ATOM     56  C   UNL A   1      37.375  34.359  33.610  1.00  0.00     0.031 C 
ATOM     57  C   UNL A   1      41.742  32.091  37.168  1.00  0.00     0.029 A 
ATOM     58  C   UNL A   1      40.863  32.287  36.116  1.00  0.00     0.049 A 
ATOM     59  H   UNL A   1      40.617  31.143  34.360  1.00  0.00     0.167 HD
ATOM     60  C   UNL A   1      39.058  33.456  34.878  1.00  0.00     0.074 A 
ATOM     61  C   UNL A   1      38.064  34.498  34.735  1.00  0.00     0.031 C 
ATOM     62  C   UNL A   1      39.876  33.327  35.954  1.00  0.00     0.037 A 
BRANCH  49  63
ATOM     63  C   UNL A   1      43.640  28.432  35.690  1.00  0.00     0.058 A 
ATOM     64  C   UNL A   1      45.010  28.632  35.459  1.00  0.00     0.135 A 
ATOM     65  C   UNL A   1      43.270  27.448  36.621  1.00  0.00     0.135 A 
ATOM     66  F   UNL A   1      45.420  29.544  34.563  1.00  0.00    -0.206 F 
ATOM     67  C   UNL A   1      45.975  27.874  36.114  1.00  0.00     0.059 A 
ATOM     68  C   UNL A   1      44.218  26.698  37.309  1.00  0.00     0.059 A 
ATOM     69  F   UNL A   1      41.973  27.212  36.874  1.00  0.00    -0.206 F 
ATOM     70  C   UNL A   1      45.569  26.911  37.040  1.00  0.00     0.060 A 
BRANCH  70  71
ATOM     71  S   UNL A   1      46.833  25.947  37.896  1.00  0.00     0.124 S 
ATOM     72  O   UNL A   1      47.204  26.851  38.980  1.00  0.00    -0.237 OA
ATOM     73  O   UNL A   1      46.097  24.751  38.292  1.00  0.00    -0.237 OA
ATOM     74  O   UNL A   1      47.855  25.742  36.875  1.00  0.00    -0.744 OA
ENDBRANCH  70  71
ENDBRANCH  49  63
BRANCH  50  75
ATOM     75  C   UNL A   1      36.419  33.497  30.971  1.00  0.00     0.058 A 
ATOM     76  C   UNL A   1      36.638  34.327  29.861  1.00  0.00     0.135 A 
ATOM     77  C   UNL A   1      35.104  33.391  31.453  1.00  0.00     0.135 A 
ATOM     78  F   UNL A   1      37.878  34.477  29.371  1.00  0.00    -0.206 F 
ATOM     79  C   UNL A   1      35.600  35.039  29.266  1.00  0.00     0.059 A 
ATOM     80  C   UNL A   1      34.045  34.068  30.856  1.00  0.00     0.059 A 
ATOM     81  F   UNL A   1      34.836  32.608  32.511  1.00  0.00    -0.206 F 
ATOM     82  C   UNL A   1      34.305  34.901  29.769  1.00  0.00     0.060 A 
BRANCH  82  83
ATOM     83  S   UNL A   1      32.960  35.796  28.964  1.00  0.00     0.124 S 
ATOM     84  O   UNL A   1      33.687  36.839  28.249  1.00  0.00    -0.237 OA
ATOM     85  O   UNL A   1      32.354  34.757  28.136  1.00  0.00    -0.237 OA
ATOM     86  O   UNL A   1      32.141  36.251  30.083  1.00  0.00    -0.744 OA
ENDBRANCH  82  83
ENDBRANCH  50  75
BRANCH  62  87
ATOM     87  C   UNL A   1      39.769  34.359  37.046  1.00  0.00     0.058 A 
ATOM     88  C   UNL A   1      38.941  34.173  38.164  1.00  0.00     0.135 A 
ATOM     89  C   UNL A   1      40.563  35.517  37.005  1.00  0.00     0.135 A 
ATOM     90  F   UNL A   1      38.158  33.088  38.253  1.00  0.00    -0.206 F 
ATOM     91  C   UNL A   1      38.888  35.110  39.192  1.00  0.00     0.059 A 
ATOM     92  C   UNL A   1      40.550  36.451  38.036  1.00  0.00     0.059 A 
ATOM     93  F   UNL A   1      41.383  35.739  35.965  1.00  0.00    -0.206 F 
ATOM     94  C   UNL A   1      39.700  36.244  39.121  1.00  0.00     0.060 A 
BRANCH  94  95
ATOM     95  S   UNL A   1      39.653  37.430  40.482  1.00  0.00     0.124 S 
ATOM     96  O   UNL A   1      38.833  38.496  39.915  1.00  0.00    -0.237 OA
ATOM     97  O   UNL A   1      39.033  36.654  41.551  1.00  0.00    -0.237 OA
ATOM     98  O   UNL A   1      41.058  37.765  40.693  1.00  0.00    -0.744 OA
ENDBRANCH  94  95
ENDBRANCH  62  87
ENDBRANCH  36  37
ENDBRANCH  29  31
ENDBRANCH  28  29
ENDBRANCH  27  28
ENDBRANCH   1  27
TORSDOF 19
ENDMDL
MODEL 3
REMARK VINA RESULT:     -10.9      2.842      8.624
REMARK SMILES COCCN1C(=O)C[C@H](C(=O)OCCOC(=O)c2ccc(-c3c4nc(c(-c5c(F)cc(S(=O)(=O)[O-])cc5F)c5ccc([nH]5)c(-c5c(F)cc(S(=O)(=O)[O-])cc5F)c5nc(c(-c6c(F)cc(S(=O)(=O)[O-])cc6F)c6ccc3[nH]6)C=C5)C=C4)cc2)[C@@H]1c1ccccc1N1CCOCC1
REMARK SMILES IDX 13 1 12 2 10 3 11 4 9 5 5 6 6 7 84 8 7 9 8 10 4 11 3 12 2 13
REMARK SMILES IDX 1 14 85 15 86 16 90 17 87 18 89 19 88 20 91 21 92 22 96 23
REMARK SMILES IDX 93 24 95 25 94 26 14 27 15 28 16 29 17 30 18 31 19 32 83 33
REMARK SMILES IDX 20 34 82 35 21 36 22 37 23 38 76 39 24 40 81 41 75 42 77 43
REMARK SMILES IDX 25 44 80 45 74 46 73 47 26 49 60 50 39 51 59 52 40 53 43 54
REMARK SMILES IDX 58 55 78 56 41 57 42 58 57 60 79 61 44 62 27 63 28 64 37 65
REMARK SMILES IDX 29 66 30 67 36 68 38 69 31 70 32 71 33 72 34 73 35 74 61 75
REMARK SMILES IDX 62 76 71 77 63 78 64 79 70 80 72 81 65 82 66 83 67 84 68 85
REMARK SMILES IDX 69 86 45 87 46 88 55 89 47 90 48 91 54 92 56 93 49 94 50 95
REMARK SMILES IDX 51 96 52 97 53 98
REMARK H PARENT 77 48 43 59
REMARK Flexibility Score: inf
ROOT
ATOM      1  C   UNL A   1      34.011  30.441  27.565  1.00  0.00     0.274 C 
ENDROOT
BRANCH   1   2
ATOM      2  O   UNL A   1      33.477  29.824  26.380  1.00  0.00    -0.462 OA
BRANCH   2   3
ATOM      3  C   UNL A   1      32.395  29.037  26.591  1.00  0.00     0.312 C 
ATOM      4  O   UNL A   1      32.375  28.096  27.363  1.00  0.00    -0.252 OA
BRANCH   3   5
ATOM      5  C   UNL A   1      31.164  29.447  25.857  1.00  0.00     0.136 C 
ATOM      6  N   UNL A   1      29.925  29.567  23.923  1.00  0.00    -0.332 N 
ATOM      7  C   UNL A   1      30.088  30.882  24.334  1.00  0.00     0.224 C 
ATOM      8  C   UNL A   1      30.821  28.625  24.617  1.00  0.00     0.132 C 
ATOM      9  O   UNL A   1      29.536  31.869  23.875  1.00  0.00    -0.275 OA
ATOM     10  C   UNL A   1      31.096  30.909  25.445  1.00  0.00     0.118 C 
BRANCH   6  11
ATOM     11  C   UNL A   1      28.911  29.173  22.950  1.00  0.00     0.148 C 
BRANCH  11  12
ATOM     12  C   UNL A   1      28.932  29.983  21.647  1.00  0.00     0.181 C 
BRANCH  12  13
ATOM     13  O   UNL A   1      27.821  30.871  21.526  1.00  0.00    -0.383 OA
ATOM     14  C   UNL A   1      28.008  31.884  20.547  1.00  0.00     0.194 C 
ENDBRANCH  12  13
ENDBRANCH  11  12
ENDBRANCH   6  11
BRANCH   8  15
ATOM     15  C   UNL A   1      31.997  28.119  23.771  1.00  0.00    -0.001 A 
ATOM     16  C   UNL A   1      32.611  29.030  22.873  1.00  0.00     0.008 A 
ATOM     17  C   UNL A   1      32.548  26.804  23.887  1.00  0.00     0.042 A 
ATOM     18  C   UNL A   1      33.728  28.692  22.112  1.00  0.00     0.001 A 
ATOM     19  C   UNL A   1      33.687  26.508  23.102  1.00  0.00     0.026 A 
ATOM     20  C   UNL A   1      34.273  27.429  22.233  1.00  0.00     0.002 A 
BRANCH  17  21
ATOM     21  N   UNL A   1      32.077  25.833  24.773  1.00  0.00    -0.367 N 
ATOM     22  C   UNL A   1      30.676  25.370  24.724  1.00  0.00     0.145 C 
ATOM     23  C   UNL A   1      32.987  24.739  25.218  1.00  0.00     0.145 C 
ATOM     24  C   UNL A   1      30.281  24.759  26.085  1.00  0.00     0.181 C 
ATOM     25  C   UNL A   1      32.495  24.064  26.515  1.00  0.00     0.181 C 
ATOM     26  O   UNL A   1      31.127  23.646  26.417  1.00  0.00    -0.378 OA
ENDBRANCH  17  21
ENDBRANCH   8  15
ENDBRANCH   3   5
ENDBRANCH   2   3
ENDBRANCH   1   2
BRANCH   1  27
ATOM     27  C   UNL A   1      35.283  29.765  28.104  1.00  0.00     0.275 C 
BRANCH  27  28
ATOM     28  O   UNL A   1      36.062  30.611  28.978  1.00  0.00    -0.458 OA
BRANCH  28  29
ATOM     29  C   UNL A   1      36.780  29.961  29.929  1.00  0.00     0.338 C 
ATOM     30  O   UNL A   1      36.319  29.326  30.870  1.00  0.00    -0.246 OA
BRANCH  29  31
ATOM     31  C   UNL A   1      38.222  29.936  29.586  1.00  0.00     0.060 A 
ATOM     32  C   UNL A   1      38.568  29.797  28.234  1.00  0.00     0.016 A 
ATOM     33  C   UNL A   1      39.224  29.995  30.555  1.00  0.00     0.016 A 
ATOM     34  C   UNL A   1      39.900  29.714  27.839  1.00  0.00     0.010 A 
ATOM     35  C   UNL A   1      40.566  29.871  30.164  1.00  0.00     0.010 A 
ATOM     36  C   UNL A   1      40.907  29.708  28.808  1.00  0.00    -0.014 A 
BRANCH  36  37
ATOM     37  C   UNL A   1      42.286  29.344  28.407  1.00  0.00     0.031 A 
ATOM     38  C   UNL A   1      42.564  27.915  28.026  1.00  0.00     0.074 A 
ATOM     39  C   UNL A   1      43.262  30.267  28.338  1.00  0.00     0.049 A 
ATOM     40  N   UNL A   1      43.695  27.348  27.696  1.00  0.00    -0.248 NA
ATOM     41  C   UNL A   1      41.407  27.005  28.009  1.00  0.00     0.031 C 
ATOM     42  C   UNL A   1      43.098  31.693  28.615  1.00  0.00     0.029 A 
ATOM     43  N   UNL A   1      44.592  30.136  28.022  1.00  0.00    -0.354 N 
ATOM     44  C   UNL A   1      43.391  26.015  27.451  1.00  0.00     0.074 A 
ATOM     45  C   UNL A   1      41.971  25.853  27.677  1.00  0.00     0.031 C 
ATOM     46  C   UNL A   1      44.291  32.301  28.485  1.00  0.00     0.029 A 
ATOM     47  C   UNL A   1      45.307  31.303  28.152  1.00  0.00     0.049 A 
ATOM     48  H   UNL A   1      44.996  29.287  27.730  1.00  0.00     0.167 HD
ATOM     49  C   UNL A   1      44.222  25.015  27.074  1.00  0.00     0.037 A 
ATOM     50  C   UNL A   1      46.633  31.528  28.052  1.00  0.00     0.037 A 
ATOM     51  C   UNL A   1      45.634  25.183  26.855  1.00  0.00     0.049 A 
ATOM     52  C   UNL A   1      47.553  30.381  27.710  1.00  0.00     0.074 A 
ATOM     53  C   UNL A   1      46.561  24.234  26.461  1.00  0.00     0.029 A 
ATOM     54  N   UNL A   1      46.327  26.373  27.027  1.00  0.00    -0.354 N 
ATOM     55  N   UNL A   1      47.253  29.127  27.463  1.00  0.00    -0.248 NA
ATOM     56  C   UNL A   1      48.991  30.677  27.632  1.00  0.00     0.031 C 
ATOM     57  C   UNL A   1      47.824  24.835  26.454  1.00  0.00     0.029 A 
ATOM     58  C   UNL A   1      47.676  26.173  26.778  1.00  0.00     0.049 A 
ATOM     59  H   UNL A   1      45.922  27.231  27.287  1.00  0.00     0.167 HD
ATOM     60  C   UNL A   1      48.459  28.494  27.174  1.00  0.00     0.074 A 
ATOM     61  C   UNL A   1      49.492  29.504  27.264  1.00  0.00     0.031 C 
ATOM     62  C   UNL A   1      48.692  27.194  26.861  1.00  0.00     0.037 A 
BRANCH  49  63
ATOM     63  C   UNL A   1      43.638  23.638  26.923  1.00  0.00     0.058 A 
ATOM     64  C   UNL A   1      43.443  22.786  28.021  1.00  0.00     0.135 A 
ATOM     65  C   UNL A   1      43.230  23.180  25.659  1.00  0.00     0.135 A 
ATOM     66  F   UNL A   1      43.835  23.163  29.249  1.00  0.00    -0.206 F 
ATOM     67  C   UNL A   1      42.879  21.523  27.870  1.00  0.00     0.059 A 
ATOM     68  C   UNL A   1      42.638  21.934  25.488  1.00  0.00     0.059 A 
ATOM     69  F   UNL A   1      43.399  23.953  24.574  1.00  0.00    -0.206 F 
ATOM     70  C   UNL A   1      42.476  21.107  26.599  1.00  0.00     0.060 A 
BRANCH  70  71
ATOM     71  S   UNL A   1      41.730  19.473  26.421  1.00  0.00     0.124 S 
ATOM     72  O   UNL A   1      41.909  18.923  27.760  1.00  0.00    -0.237 OA
ATOM     73  O   UNL A   1      40.357  19.798  26.047  1.00  0.00    -0.237 OA
ATOM     74  O   UNL A   1      42.529  18.845  25.373  1.00  0.00    -0.744 OA
ENDBRANCH  70  71
ENDBRANCH  49  63
BRANCH  50  75
ATOM     75  C   UNL A   1      47.185  32.886  28.320  1.00  0.00     0.058 A 
ATOM     76  C   UNL A   1      47.587  33.272  29.608  1.00  0.00     0.135 A 
ATOM     77  C   UNL A   1      47.299  33.837  27.292  1.00  0.00     0.135 A 
ATOM     78  F   UNL A   1      47.483  32.408  30.630  1.00  0.00    -0.206 F 
ATOM     79  C   UNL A   1      48.064  34.553  29.871  1.00  0.00     0.059 A 
ATOM     80  C   UNL A   1      47.802  35.113  27.524  1.00  0.00     0.059 A 
ATOM     81  F   UNL A   1      46.932  33.521  26.040  1.00  0.00    -0.206 F 
ATOM     82  C   UNL A   1      48.171  35.466  28.821  1.00  0.00     0.060 A 
BRANCH  82  83
ATOM     83  S   UNL A   1      48.830  37.112  29.164  1.00  0.00     0.124 S 
ATOM     84  O   UNL A   1      49.756  36.836  30.258  1.00  0.00    -0.237 OA
ATOM     85  O   UNL A   1      49.441  37.469  27.887  1.00  0.00    -0.237 OA
ATOM     86  O   UNL A   1      47.644  37.883  29.520  1.00  0.00    -0.744 OA
ENDBRANCH  82  83
ENDBRANCH  50  75
BRANCH  62  87
ATOM     87  C   UNL A   1      50.109  26.789  26.547  1.00  0.00     0.058 A 
ATOM     88  C   UNL A   1      50.999  26.368  27.547  1.00  0.00     0.135 A 
ATOM     89  C   UNL A   1      50.556  26.755  25.215  1.00  0.00     0.135 A 
ATOM     90  F   UNL A   1      50.627  26.386  28.836  1.00  0.00    -0.206 F 
ATOM     91  C   UNL A   1      52.291  25.948  27.240  1.00  0.00     0.059 A 
ATOM     92  C   UNL A   1      51.832  26.308  24.883  1.00  0.00     0.059 A 
ATOM     93  F   UNL A   1      49.742  27.134  24.218  1.00  0.00    -0.206 F 
ATOM     94  C   UNL A   1      52.696  25.917  25.904  1.00  0.00     0.060 A 
BRANCH  94  95
ATOM     95  S   UNL A   1      54.359  25.330  25.517  1.00  0.00     0.124 S 
ATOM     96  O   UNL A   1      54.606  25.975  24.231  1.00  0.00    -0.237 OA
ATOM     97  O   UNL A   1      55.139  25.838  26.641  1.00  0.00    -0.237 OA
ATOM     98  O   UNL A   1      54.208  23.879  25.472  1.00  0.00    -0.744 OA
ENDBRANCH  94  95
ENDBRANCH  62  87
ENDBRANCH  36  37
ENDBRANCH  29  31
ENDBRANCH  28  29
ENDBRANCH  27  28
ENDBRANCH   1  27
TORSDOF 19
ENDMDL
