MODEL 1
REMARK VINA RESULT:     -11.7      0.000      0.000
REMARK SMILES COc1cc([C@H]2CC(c3ccc(S(C)(=O)=O)cc3)=NN2c2ccc(C(=O)OCCOC(=O)c3ccc(-c4c5nc(c(-c6c(F)cc(S(=O)(=O)[O-])cc6F)c6ccc([nH]6)c(-c6c(F)cc(S(=O)(=O)[O-])cc6F)c6nc(c(-c7c(F)cc(S(=O)(=O)[O-])cc7F)c7ccc4[nH]7)C=C6)C=C5)cc3)cc2)cc(OC)c1OC
REMARK SMILES IDX 28 1 27 2 25 3 26 4 24 5 21 6 22 7 100 8 23 9 99 10 20 11
REMARK SMILES IDX 6 12 7 13 8 14 19 15 5 16 3 17 4 18 105 19 102 20 101 21
REMARK SMILES IDX 2 22 1 23 106 24 107 25 103 26 104 27 9 28 10 29 18 30 11 31
REMARK SMILES IDX 17 32 12 33 13 34 14 35 15 36 16 37 29 38 30 39 31 40 32 41
REMARK SMILES IDX 33 42 34 43 98 44 35 45 97 46 36 47 37 48 38 49 91 50 39 51
REMARK SMILES IDX 96 52 90 53 92 54 40 55 95 56 89 57 88 58 41 60 75 61 54 62
REMARK SMILES IDX 74 63 55 64 58 65 73 66 93 67 56 68 57 69 72 71 94 72 59 73
REMARK SMILES IDX 42 74 43 75 52 76 44 77 45 78 51 79 53 80 46 81 47 82 48 83
REMARK SMILES IDX 49 84 50 85 76 86 77 87 86 88 78 89 79 90 85 91 87 92 80 93
REMARK SMILES IDX 81 94 82 95 83 96 84 97 60 98 61 99 70 100 62 101 63 102
REMARK SMILES IDX 69 103 71 104 64 105 65 106 66 107 67 108 68 109
REMARK H PARENT 92 59 58 70
REMARK Flexibility Score: inf
ROOT
ATOM      1  C   UNL A   1      40.171  21.354  26.867  1.00  0.00     0.275 C 
ENDROOT
BRANCH   1   2
ATOM      2  O   UNL A   1      39.003  21.781  26.134  1.00  0.00    -0.458 OA
BRANCH   2   3
ATOM      3  C   UNL A   1      38.736  23.109  26.220  1.00  0.00     0.338 C 
ATOM      4  O   UNL A   1      39.400  23.939  26.814  1.00  0.00    -0.246 OA
BRANCH   3   5
ATOM      5  C   UNL A   1      37.523  23.477  25.457  1.00  0.00     0.060 A 
ATOM      6  C   UNL A   1      35.011  23.871  24.221  1.00  0.00     0.060 A 
ATOM      7  C   UNL A   1      35.259  24.327  25.518  1.00  0.00     0.029 A 
ATOM      8  C   UNL A   1      36.072  23.266  23.530  1.00  0.00     0.029 A 
ATOM      9  C   UNL A   1      36.483  24.108  26.137  1.00  0.00     0.018 A 
ATOM     10  C   UNL A   1      37.330  23.082  24.134  1.00  0.00     0.018 A 
BRANCH   6  11
ATOM     11  N   UNL A   1      33.744  24.037  23.689  1.00  0.00    -0.257 N 
ATOM     12  C   UNL A   1      32.954  23.044  22.963  1.00  0.00     0.144 C 
ATOM     13  C   UNL A   1      31.620  23.791  22.730  1.00  0.00     0.091 C 
ATOM     14  C   UNL A   1      31.949  25.133  23.323  1.00  0.00     0.071 C 
ATOM     15  N   UNL A   1      33.125  25.240  23.847  1.00  0.00    -0.176 NA
BRANCH  12  16
ATOM     16  C   UNL A   1      32.799  21.721  23.710  1.00  0.00    -0.015 A 
ATOM     17  C   UNL A   1      32.138  19.357  23.750  1.00  0.00     0.164 A 
ATOM     18  C   UNL A   1      32.284  20.584  23.068  1.00  0.00     0.056 A 
ATOM     19  C   UNL A   1      32.506  19.226  25.103  1.00  0.00     0.203 A 
ATOM     20  C   UNL A   1      33.040  20.359  25.749  1.00  0.00     0.164 A 
ATOM     21  C   UNL A   1      33.194  21.571  25.045  1.00  0.00     0.056 A 
BRANCH  17  22
ATOM     22  O   UNL A   1      31.765  18.266  23.003  1.00  0.00    -0.493 OA
ATOM     23  C   UNL A   1      32.530  18.136  21.806  1.00  0.00     0.278 C 
ENDBRANCH  17  22
BRANCH  19  24
ATOM     24  O   UNL A   1      32.433  18.080  25.844  1.00  0.00    -0.490 OA
ATOM     25  C   UNL A   1      33.348  17.019  25.648  1.00  0.00     0.278 C 
ENDBRANCH  19  24
BRANCH  20  26
ATOM     26  O   UNL A   1      33.454  20.484  27.053  1.00  0.00    -0.493 OA
ATOM     27  C   UNL A   1      33.635  21.778  27.611  1.00  0.00     0.278 C 
ENDBRANCH  20  26
ENDBRANCH  12  16
BRANCH  14  28
ATOM     28  C   UNL A   1      31.013  26.266  23.258  1.00  0.00    -0.002 A 
ATOM     29  C   UNL A   1      31.408  27.422  22.573  1.00  0.00     0.011 A 
ATOM     30  C   UNL A   1      29.764  26.201  23.881  1.00  0.00     0.011 A 
ATOM     31  C   UNL A   1      30.533  28.506  22.470  1.00  0.00     0.021 A 
ATOM     32  C   UNL A   1      28.896  27.296  23.802  1.00  0.00     0.021 A 
ATOM     33  C   UNL A   1      29.281  28.438  23.089  1.00  0.00     0.067 A 
BRANCH  33  34
ATOM     34  S   UNL A   1      28.141  29.792  22.890  1.00  0.00     0.175 S 
ATOM     35  C   UNL A   1      28.291  30.269  21.189  1.00  0.00     0.163 C 
ATOM     36  O   UNL A   1      26.814  29.245  23.101  1.00  0.00    -0.224 OA
ATOM     37  O   UNL A   1      28.620  30.891  23.708  1.00  0.00    -0.224 OA
ENDBRANCH  33  34
ENDBRANCH  14  28
ENDBRANCH   6  11
ENDBRANCH   3   5
ENDBRANCH   2   3
ENDBRANCH   1   2
BRANCH   1  38
ATOM     38  C   UNL A   1      41.459  21.482  26.050  1.00  0.00     0.275 C 
BRANCH  38  39
ATOM     39  O   UNL A   1      42.232  20.267  26.083  1.00  0.00    -0.458 OA
BRANCH  39  40
ATOM     40  C   UNL A   1      43.295  20.256  25.250  1.00  0.00     0.338 C 
ATOM     41  O   UNL A   1      43.606  19.374  24.464  1.00  0.00    -0.246 OA
BRANCH  40  42
ATOM     42  C   UNL A   1      44.061  21.507  25.346  1.00  0.00     0.060 A 
ATOM     43  C   UNL A   1      44.906  21.671  26.434  1.00  0.00     0.016 A 
ATOM     44  C   UNL A   1      43.745  22.598  24.541  1.00  0.00     0.016 A 
ATOM     45  C   UNL A   1      45.269  22.949  26.849  1.00  0.00     0.010 A 
ATOM     46  C   UNL A   1      44.256  23.864  24.866  1.00  0.00     0.010 A 
ATOM     47  C   UNL A   1      44.964  24.070  26.065  1.00  0.00    -0.014 A 
BRANCH  47  48
ATOM     48  C   UNL A   1      45.349  25.444  26.519  1.00  0.00     0.031 A 
ATOM     49  C   UNL A   1      44.325  26.353  27.164  1.00  0.00     0.074 A 
ATOM     50  C   UNL A   1      46.617  25.883  26.372  1.00  0.00     0.049 A 
ATOM     51  N   UNL A   1      44.409  27.629  27.448  1.00  0.00    -0.248 NA
ATOM     52  C   UNL A   1      43.028  25.753  27.518  1.00  0.00     0.031 C 
ATOM     53  C   UNL A   1      47.726  25.109  25.808  1.00  0.00     0.029 A 
ATOM     54  N   UNL A   1      47.195  27.090  26.689  1.00  0.00    -0.354 N 
ATOM     55  C   UNL A   1      43.163  27.996  27.948  1.00  0.00     0.074 A 
ATOM     56  C   UNL A   1      42.335  26.810  27.918  1.00  0.00     0.031 C 
ATOM     57  C   UNL A   1      48.851  25.835  25.862  1.00  0.00     0.029 A 
ATOM     58  C   UNL A   1      48.529  27.166  26.359  1.00  0.00     0.049 A 
ATOM     59  H   UNL A   1      46.701  27.830  27.112  1.00  0.00     0.167 HD
ATOM     60  C   UNL A   1      42.750  29.209  28.393  1.00  0.00     0.037 A 
ATOM     61  C   UNL A   1      49.393  28.199  26.397  1.00  0.00     0.037 A 
ATOM     62  C   UNL A   1      43.601  30.370  28.478  1.00  0.00     0.049 A 
ATOM     63  C   UNL A   1      48.907  29.539  26.870  1.00  0.00     0.074 A 
ATOM     64  C   UNL A   1      43.285  31.640  28.929  1.00  0.00     0.029 A 
ATOM     65  N   UNL A   1      44.942  30.399  28.121  1.00  0.00    -0.354 N 
ATOM     66  N   UNL A   1      47.710  29.882  27.285  1.00  0.00    -0.248 NA
ATOM     67  C   UNL A   1      49.884  30.634  26.872  1.00  0.00     0.031 C 
ATOM     68  C   UNL A   1      44.420  32.448  28.805  1.00  0.00     0.029 A 
ATOM     69  C   UNL A   1      45.462  31.667  28.332  1.00  0.00     0.049 A 
ATOM     70  H   UNL A   1      45.449  29.633  27.767  1.00  0.00     0.167 HD
ATOM     71  C   UNL A   1      47.798  31.227  27.623  1.00  0.00     0.074 A 
ATOM     72  C   UNL A   1      49.168  31.629  27.376  1.00  0.00     0.031 C 
ATOM     73  C   UNL A   1      46.832  32.052  28.096  1.00  0.00     0.037 A 
BRANCH  60  74
ATOM     74  C   UNL A   1      41.302  29.360  28.793  1.00  0.00     0.058 A 
ATOM     75  C   UNL A   1      40.903  29.486  30.133  1.00  0.00     0.135 A 
ATOM     76  C   UNL A   1      40.301  29.422  27.808  1.00  0.00     0.135 A 
ATOM     77  F   UNL A   1      41.812  29.424  31.119  1.00  0.00    -0.206 F 
ATOM     78  C   UNL A   1      39.562  29.632  30.484  1.00  0.00     0.059 A 
ATOM     79  C   UNL A   1      38.959  29.600  28.134  1.00  0.00     0.059 A 
ATOM     80  F   UNL A   1      40.623  29.313  26.510  1.00  0.00    -0.206 F 
ATOM     81  C   UNL A   1      38.597  29.688  29.476  1.00  0.00     0.060 A 
BRANCH  81  82
ATOM     82  S   UNL A   1      36.866  29.885  29.948  1.00  0.00     0.124 S 
ATOM     83  O   UNL A   1      36.795  31.321  30.201  1.00  0.00    -0.237 OA
ATOM     84  O   UNL A   1      36.163  29.417  28.758  1.00  0.00    -0.237 OA
ATOM     85  O   UNL A   1      36.734  29.033  31.126  1.00  0.00    -0.744 OA
ENDBRANCH  81  82
ENDBRANCH  60  74
BRANCH  61  86
ATOM     86  C   UNL A   1      50.796  28.009  25.935  1.00  0.00     0.058 A 
ATOM     87  C   UNL A   1      51.834  27.771  26.846  1.00  0.00     0.135 A 
ATOM     88  C   UNL A   1      51.122  28.039  24.568  1.00  0.00     0.135 A 
ATOM     89  F   UNL A   1      51.578  27.742  28.162  1.00  0.00    -0.206 F 
ATOM     90  C   UNL A   1      53.147  27.582  26.423  1.00  0.00     0.059 A 
ATOM     91  C   UNL A   1      52.420  27.820  24.119  1.00  0.00     0.059 A 
ATOM     92  F   UNL A   1      50.164  28.249  23.651  1.00  0.00    -0.206 F 
ATOM     93  C   UNL A   1      53.429  27.604  25.056  1.00  0.00     0.060 A 
BRANCH  93  94
ATOM     94  S   UNL A   1      55.126  27.311  24.514  1.00  0.00     0.124 S 
ATOM     95  O   UNL A   1      55.218  25.859  24.613  1.00  0.00    -0.237 OA
ATOM     96  O   UNL A   1      55.116  27.860  23.162  1.00  0.00    -0.237 OA
ATOM     97  O   UNL A   1      55.922  28.061  25.481  1.00  0.00    -0.744 OA
ENDBRANCH  93  94
ENDBRANCH  61  86
BRANCH  73  98
ATOM     98  C   UNL A   1      47.237  33.459  28.440  1.00  0.00     0.058 A 
ATOM     99  C   UNL A   1      47.700  33.810  29.717  1.00  0.00     0.135 A 
ATOM    100  C   UNL A   1      47.183  34.465  27.461  1.00  0.00     0.135 A 
ATOM    101  F   UNL A   1      47.764  32.889  30.691  1.00  0.00    -0.206 F 
ATOM    102  C   UNL A   1      48.063  35.118  30.022  1.00  0.00     0.059 A 
ATOM    103  C   UNL A   1      47.571  35.772  27.736  1.00  0.00     0.059 A 
ATOM    104  F   UNL A   1      46.758  34.180  26.219  1.00  0.00    -0.206 F 
ATOM    105  C   UNL A   1      47.994  36.093  29.024  1.00  0.00     0.060 A 
BRANCH 105 106
ATOM    106  S   UNL A   1      48.483  37.783  29.427  1.00  0.00     0.124 S 
ATOM    107  O   UNL A   1      49.198  37.591  30.684  1.00  0.00    -0.237 OA
ATOM    108  O   UNL A   1      49.306  38.152  28.279  1.00  0.00    -0.237 OA
ATOM    109  O   UNL A   1      47.210  38.490  29.530  1.00  0.00    -0.744 OA
ENDBRANCH 105 106
ENDBRANCH  73  98
ENDBRANCH  47  48
ENDBRANCH  40  42
ENDBRANCH  39  40
ENDBRANCH  38  39
ENDBRANCH   1  38
TORSDOF 21
ENDMDL
MODEL 2
REMARK VINA RESULT:     -11.5      0.461      7.730
REMARK SMILES COc1cc([C@H]2CC(c3ccc(S(C)(=O)=O)cc3)=NN2c2ccc(C(=O)OCCOC(=O)c3ccc(-c4c5nc(c(-c6c(F)cc(S(=O)(=O)[O-])cc6F)c6ccc([nH]6)c(-c6c(F)cc(S(=O)(=O)[O-])cc6F)c6nc(c(-c7c(F)cc(S(=O)(=O)[O-])cc7F)c7ccc4[nH]7)C=C6)C=C5)cc3)cc2)cc(OC)c1OC
REMARK SMILES IDX 28 1 27 2 25 3 26 4 24 5 21 6 22 7 100 8 23 9 99 10 20 11
REMARK SMILES IDX 6 12 7 13 8 14 19 15 5 16 3 17 4 18 105 19 102 20 101 21
REMARK SMILES IDX 2 22 1 23 106 24 107 25 103 26 104 27 9 28 10 29 18 30 11 31
REMARK SMILES IDX 17 32 12 33 13 34 14 35 15 36 16 37 29 38 30 39 31 40 32 41
REMARK SMILES IDX 33 42 34 43 98 44 35 45 97 46 36 47 37 48 38 49 91 50 39 51
REMARK SMILES IDX 96 52 90 53 92 54 40 55 95 56 89 57 88 58 41 60 75 61 54 62
REMARK SMILES IDX 74 63 55 64 58 65 73 66 93 67 56 68 57 69 72 71 94 72 59 73
REMARK SMILES IDX 42 74 43 75 52 76 44 77 45 78 51 79 53 80 46 81 47 82 48 83
REMARK SMILES IDX 49 84 50 85 76 86 77 87 86 88 78 89 79 90 85 91 87 92 80 93
REMARK SMILES IDX 81 94 82 95 83 96 84 97 60 98 61 99 70 100 62 101 63 102
REMARK SMILES IDX 69 103 71 104 64 105 65 106 66 107 67 108 68 109
REMARK H PARENT 92 59 58 70
REMARK Flexibility Score: inf
ROOT
ATOM      1  C   UNL A   1      40.217  21.125  26.796  1.00  0.00     0.275 C 
ENDROOT
BRANCH   1   2
ATOM      2  O   UNL A   1      39.100  21.604  26.017  1.00  0.00    -0.458 OA
BRANCH   2   3
ATOM      3  C   UNL A   1      38.709  22.870  26.309  1.00  0.00     0.338 C 
ATOM      4  O   UNL A   1      39.232  23.617  27.117  1.00  0.00    -0.246 OA
BRANCH   3   5
ATOM      5  C   UNL A   1      37.553  23.293  25.487  1.00  0.00     0.060 A 
ATOM      6  C   UNL A   1      35.119  23.821  24.149  1.00  0.00     0.060 A 
ATOM      7  C   UNL A   1      35.368  24.331  25.427  1.00  0.00     0.029 A 
ATOM      8  C   UNL A   1      36.144  23.091  23.529  1.00  0.00     0.029 A 
ATOM      9  C   UNL A   1      36.552  24.047  26.096  1.00  0.00     0.018 A 
ATOM     10  C   UNL A   1      37.364  22.838  24.182  1.00  0.00     0.018 A 
BRANCH   6  11
ATOM     11  N   UNL A   1      33.886  24.060  23.568  1.00  0.00    -0.257 N 
ATOM     12  C   UNL A   1      33.088  23.128  22.774  1.00  0.00     0.144 C 
ATOM     13  C   UNL A   1      31.800  23.941  22.508  1.00  0.00     0.091 C 
ATOM     14  C   UNL A   1      32.158  25.246  23.162  1.00  0.00     0.071 C 
ATOM     15  N   UNL A   1      33.313  25.284  23.740  1.00  0.00    -0.176 NA
BRANCH  12  16
ATOM     16  C   UNL A   1      32.843  21.789  23.467  1.00  0.00    -0.015 A 
ATOM     17  C   UNL A   1      32.169  19.430  23.376  1.00  0.00     0.164 A 
ATOM     18  C   UNL A   1      32.398  20.671  22.743  1.00  0.00     0.056 A 
ATOM     19  C   UNL A   1      32.381  19.265  24.758  1.00  0.00     0.203 A 
ATOM     20  C   UNL A   1      32.845  20.378  25.486  1.00  0.00     0.164 A 
ATOM     21  C   UNL A   1      33.084  21.605  24.834  1.00  0.00     0.056 A 
BRANCH  17  22
ATOM     22  O   UNL A   1      31.878  18.360  22.565  1.00  0.00    -0.493 OA
ATOM     23  C   UNL A   1      32.965  17.443  22.457  1.00  0.00     0.278 C 
ENDBRANCH  17  22
BRANCH  19  24
ATOM     24  O   UNL A   1      32.218  18.103  25.458  1.00  0.00    -0.490 OA
ATOM     25  C   UNL A   1      33.325  17.286  25.792  1.00  0.00     0.278 C 
ENDBRANCH  19  24
BRANCH  20  26
ATOM     26  O   UNL A   1      33.109  20.470  26.832  1.00  0.00    -0.493 OA
ATOM     27  C   UNL A   1      33.459  21.726  27.395  1.00  0.00     0.278 C 
ENDBRANCH  20  26
ENDBRANCH  12  16
BRANCH  14  28
ATOM     28  C   UNL A   1      31.275  26.421  23.095  1.00  0.00    -0.002 A 
ATOM     29  C   UNL A   1      29.934  26.273  23.472  1.00  0.00     0.011 A 
ATOM     30  C   UNL A   1      31.755  27.655  22.649  1.00  0.00     0.011 A 
ATOM     31  C   UNL A   1      29.075  27.374  23.446  1.00  0.00     0.021 A 
ATOM     32  C   UNL A   1      30.891  28.754  22.596  1.00  0.00     0.021 A 
ATOM     33  C   UNL A   1      29.558  28.610  23.004  1.00  0.00     0.067 A 
BRANCH  33  34
ATOM     34  S   UNL A   1      28.480  30.027  23.044  1.00  0.00     0.175 S 
ATOM     35  C   UNL A   1      28.399  30.587  21.364  1.00  0.00     0.163 C 
ATOM     36  O   UNL A   1      27.170  29.534  23.430  1.00  0.00    -0.224 OA
ATOM     37  O   UNL A   1      29.138  31.055  23.829  1.00  0.00    -0.224 OA
ENDBRANCH  33  34
ENDBRANCH  14  28
ENDBRANCH   6  11
ENDBRANCH   3   5
ENDBRANCH   2   3
ENDBRANCH   1   2
BRANCH   1  38
ATOM     38  C   UNL A   1      41.550  21.254  26.055  1.00  0.00     0.275 C 
BRANCH  38  39
ATOM     39  O   UNL A   1      42.271  20.006  26.038  1.00  0.00    -0.458 OA
BRANCH  39  40
ATOM     40  C   UNL A   1      43.367  20.003  25.249  1.00  0.00     0.338 C 
ATOM     41  O   UNL A   1      43.737  19.106  24.506  1.00  0.00    -0.246 OA
BRANCH  40  42
ATOM     42  C   UNL A   1      44.088  21.281  25.332  1.00  0.00     0.060 A 
ATOM     43  C   UNL A   1      44.697  21.607  26.535  1.00  0.00     0.016 A 
ATOM     44  C   UNL A   1      43.931  22.252  24.347  1.00  0.00     0.016 A 
ATOM     45  C   UNL A   1      44.959  22.939  26.844  1.00  0.00     0.010 A 
ATOM     46  C   UNL A   1      44.356  23.564  24.599  1.00  0.00     0.010 A 
ATOM     47  C   UNL A   1      44.809  23.942  25.878  1.00  0.00    -0.014 A 
BRANCH  47  48
ATOM     48  C   UNL A   1      45.084  25.374  26.218  1.00  0.00     0.031 A 
ATOM     49  C   UNL A   1      46.466  25.958  26.017  1.00  0.00     0.074 A 
ATOM     50  C   UNL A   1      44.099  26.167  26.693  1.00  0.00     0.049 A 
ATOM     51  N   UNL A   1      46.951  27.105  26.423  1.00  0.00    -0.248 NA
ATOM     52  C   UNL A   1      47.439  25.133  25.280  1.00  0.00     0.031 C 
ATOM     53  C   UNL A   1      42.707  25.762  26.901  1.00  0.00     0.029 A 
ATOM     54  N   UNL A   1      44.114  27.484  27.086  1.00  0.00    -0.354 N 
ATOM     55  C   UNL A   1      48.292  27.111  26.052  1.00  0.00     0.074 A 
ATOM     56  C   UNL A   1      48.550  25.846  25.397  1.00  0.00     0.031 C 
ATOM     57  C   UNL A   1      41.996  26.812  27.333  1.00  0.00     0.029 A 
ATOM     58  C   UNL A   1      42.898  27.937  27.544  1.00  0.00     0.049 A 
ATOM     59  H   UNL A   1      44.920  28.050  27.045  1.00  0.00     0.167 HD
ATOM     60  C   UNL A   1      49.221  28.082  26.238  1.00  0.00     0.037 A 
ATOM     61  C   UNL A   1      42.546  29.103  28.118  1.00  0.00     0.037 A 
ATOM     62  C   UNL A   1      48.939  29.364  26.835  1.00  0.00     0.049 A 
ATOM     63  C   UNL A   1      43.596  30.154  28.336  1.00  0.00     0.074 A 
ATOM     64  C   UNL A   1      49.805  30.422  27.053  1.00  0.00     0.029 A 
ATOM     65  N   UNL A   1      47.694  29.770  27.292  1.00  0.00    -0.354 N 
ATOM     66  N   UNL A   1      44.872  30.120  28.031  1.00  0.00    -0.248 NA
ATOM     67  C   UNL A   1      43.163  31.398  28.984  1.00  0.00     0.031 C 
ATOM     68  C   UNL A   1      49.094  31.450  27.682  1.00  0.00     0.029 A 
ATOM     69  C   UNL A   1      47.772  31.057  27.801  1.00  0.00     0.049 A 
ATOM     70  H   UNL A   1      46.875  29.224  27.262  1.00  0.00     0.167 HD
ATOM     71  C   UNL A   1      45.388  31.348  28.426  1.00  0.00     0.074 A 
ATOM     72  C   UNL A   1      44.284  32.106  28.979  1.00  0.00     0.031 C 
ATOM     73  C   UNL A   1      46.661  31.806  28.336  1.00  0.00     0.037 A 
BRANCH  60  74
ATOM     74  C   UNL A   1      50.642  27.789  25.823  1.00  0.00     0.058 A 
ATOM     75  C   UNL A   1      51.082  27.931  24.497  1.00  0.00     0.135 A 
ATOM     76  C   UNL A   1      51.591  27.398  26.784  1.00  0.00     0.135 A 
ATOM     77  F   UNL A   1      50.220  28.290  23.533  1.00  0.00    -0.206 F 
ATOM     78  C   UNL A   1      52.401  27.664  24.134  1.00  0.00     0.059 A 
ATOM     79  C   UNL A   1      52.921  27.158  26.449  1.00  0.00     0.059 A 
ATOM     80  F   UNL A   1      51.231  27.251  28.069  1.00  0.00    -0.206 F 
ATOM     81  C   UNL A   1      53.313  27.277  25.117  1.00  0.00     0.060 A 
BRANCH  81  82
ATOM     82  S   UNL A   1      55.019  26.942  24.631  1.00  0.00     0.124 S 
ATOM     83  O   UNL A   1      55.066  27.546  23.303  1.00  0.00    -0.237 OA
ATOM     84  O   UNL A   1      55.781  27.631  25.667  1.00  0.00    -0.237 OA
ATOM     85  O   UNL A   1      55.102  25.485  24.660  1.00  0.00    -0.744 OA
ENDBRANCH  81  82
ENDBRANCH  60  74
BRANCH  61  86
ATOM     86  C   UNL A   1      41.140  29.317  28.562  1.00  0.00     0.058 A 
ATOM     87  C   UNL A   1      40.102  29.477  27.633  1.00  0.00     0.135 A 
ATOM     88  C   UNL A   1      40.804  29.341  29.926  1.00  0.00     0.135 A 
ATOM     89  F   UNL A   1      40.372  29.471  26.319  1.00  0.00    -0.206 F 
ATOM     90  C   UNL A   1      38.784  29.667  28.038  1.00  0.00     0.059 A 
ATOM     91  C   UNL A   1      39.490  29.496  30.354  1.00  0.00     0.059 A 
ATOM     92  F   UNL A   1      41.756  29.178  30.858  1.00  0.00    -0.206 F 
ATOM     93  C   UNL A   1      38.487  29.670  29.402  1.00  0.00     0.060 A 
BRANCH  93  94
ATOM     94  S   UNL A   1      36.769  29.870  29.916  1.00  0.00     0.124 S 
ATOM     95  O   UNL A   1      36.053  29.430  28.724  1.00  0.00    -0.237 OA
ATOM     96  O   UNL A   1      36.688  28.982  31.072  1.00  0.00    -0.237 OA
ATOM     97  O   UNL A   1      36.671  31.294  30.221  1.00  0.00    -0.744 OA
ENDBRANCH  93  94
ENDBRANCH  61  86
BRANCH  73  98
ATOM     98  C   UNL A   1      46.917  33.217  28.789  1.00  0.00     0.058 A 
ATOM     99  C   UNL A   1      46.759  34.317  27.932  1.00  0.00     0.135 A 
ATOM    100  C   UNL A   1      47.303  33.471  30.116  1.00  0.00     0.135 A 
ATOM    101  F   UNL A   1      46.400  34.130  26.651  1.00  0.00    -0.206 F 
ATOM    102  C   UNL A   1      47.008  35.616  28.363  1.00  0.00     0.059 A 
ATOM    103  C   UNL A   1      47.527  34.764  30.577  1.00  0.00     0.059 A 
ATOM    104  F   UNL A   1      47.458  32.456  30.982  1.00  0.00    -0.206 F 
ATOM    105  C   UNL A   1      47.393  35.828  29.688  1.00  0.00     0.060 A 
BRANCH 105 106
ATOM    106  S   UNL A   1      47.698  37.519  30.242  1.00  0.00     0.124 S 
ATOM    107  O   UNL A   1      48.418  37.295  31.490  1.00  0.00    -0.237 OA
ATOM    108  O   UNL A   1      48.489  38.069  29.144  1.00  0.00    -0.237 OA
ATOM    109  O   UNL A   1      46.357  38.079  30.381  1.00  0.00    -0.744 OA
ENDBRANCH 105 106
ENDBRANCH  73  98
ENDBRANCH  47  48
ENDBRANCH  40  42
ENDBRANCH  39  40
ENDBRANCH  38  39
ENDBRANCH   1  38
TORSDOF 21
ENDMDL
MODEL 3
REMARK VINA RESULT:     -11.0      6.446     13.956
REMARK SMILES COc1cc([C@H]2CC(c3ccc(S(C)(=O)=O)cc3)=NN2c2ccc(C(=O)OCCOC(=O)c3ccc(-c4c5nc(c(-c6c(F)cc(S(=O)(=O)[O-])cc6F)c6ccc([nH]6)c(-c6c(F)cc(S(=O)(=O)[O-])cc6F)c6nc(c(-c7c(F)cc(S(=O)(=O)[O-])cc7F)c7ccc4[nH]7)C=C6)C=C5)cc3)cc2)cc(OC)c1OC
REMARK SMILES IDX 28 1 27 2 25 3 26 4 24 5 21 6 22 7 100 8 23 9 99 10 20 11
REMARK SMILES IDX 6 12 7 13 8 14 19 15 5 16 3 17 4 18 105 19 102 20 101 21
REMARK SMILES IDX 2 22 1 23 106 24 107 25 103 26 104 27 9 28 10 29 18 30 11 31
REMARK SMILES IDX 17 32 12 33 13 34 14 35 15 36 16 37 29 38 30 39 31 40 32 41
REMARK SMILES IDX 33 42 34 43 98 44 35 45 97 46 36 47 37 48 38 49 91 50 39 51
REMARK SMILES IDX 96 52 90 53 92 54 40 55 95 56 89 57 88 58 41 60 75 61 54 62
REMARK SMILES IDX 74 63 55 64 58 65 73 66 93 67 56 68 57 69 72 71 94 72 59 73
REMARK SMILES IDX 42 74 43 75 52 76 44 77 45 78 51 79 53 80 46 81 47 82 48 83
REMARK SMILES IDX 49 84 50 85 76 86 77 87 86 88 78 89 79 90 85 91 87 92 80 93
REMARK SMILES IDX 81 94 82 95 83 96 84 97 60 98 61 99 70 100 62 101 63 102
REMARK SMILES IDX 69 103 71 104 64 105 65 106 66 107 67 108 68 109
REMARK H PARENT 92 59 58 70
REMARK Flexibility Score: inf
ROOT
ATOM      1  C   UNL A   1      43.078  22.094  25.796  1.00  0.00     0.275 C 
ENDROOT
BRANCH   1   2
ATOM      2  O   UNL A   1      44.115  22.909  25.209  1.00  0.00    -0.458 OA
BRANCH   2   3
ATOM      3  C   UNL A   1      45.328  22.799  25.808  1.00  0.00     0.338 C 
ATOM      4  O   UNL A   1      46.028  21.803  25.838  1.00  0.00    -0.246 OA
BRANCH   3   5
ATOM      5  C   UNL A   1      45.757  24.076  26.421  1.00  0.00     0.060 A 
ATOM      6  C   UNL A   1      46.232  26.474  27.841  1.00  0.00     0.060 A 
ATOM      7  C   UNL A   1      46.504  25.228  28.413  1.00  0.00     0.029 A 
ATOM      8  C   UNL A   1      45.775  26.494  26.514  1.00  0.00     0.029 A 
ATOM      9  C   UNL A   1      46.243  24.049  27.727  1.00  0.00     0.018 A 
ATOM     10  C   UNL A   1      45.552  25.305  25.796  1.00  0.00     0.018 A 
BRANCH   6  11
ATOM     11  N   UNL A   1      46.426  27.612  28.604  1.00  0.00    -0.257 N 
ATOM     12  C   UNL A   1      47.666  28.043  29.247  1.00  0.00     0.144 C 
ATOM     13  C   UNL A   1      47.267  29.411  29.847  1.00  0.00     0.091 C 
ATOM     14  C   UNL A   1      45.810  29.459  29.480  1.00  0.00     0.071 C 
ATOM     15  N   UNL A   1      45.373  28.455  28.794  1.00  0.00    -0.176 NA
BRANCH  12  16
ATOM     16  C   UNL A   1      48.857  28.110  28.293  1.00  0.00    -0.015 A 
ATOM     17  C   UNL A   1      50.156  29.296  26.581  1.00  0.00     0.164 A 
ATOM     18  C   UNL A   1      49.058  29.226  27.465  1.00  0.00     0.056 A 
ATOM     19  C   UNL A   1      51.094  28.249  26.497  1.00  0.00     0.203 A 
ATOM     20  C   UNL A   1      50.907  27.134  27.338  1.00  0.00     0.164 A 
ATOM     21  C   UNL A   1      49.814  27.090  28.227  1.00  0.00     0.056 A 
BRANCH  17  22
ATOM     22  O   UNL A   1      50.352  30.485  25.921  1.00  0.00    -0.493 OA
ATOM     23  C   UNL A   1      51.366  31.285  26.525  1.00  0.00     0.278 C 
ENDBRANCH  17  22
BRANCH  19  24
ATOM     24  O   UNL A   1      52.203  28.231  25.699  1.00  0.00    -0.490 OA
ATOM     25  C   UNL A   1      52.101  28.014  24.304  1.00  0.00     0.278 C 
ENDBRANCH  19  24
BRANCH  20  26
ATOM     26  O   UNL A   1      51.669  25.994  27.429  1.00  0.00    -0.493 OA
ATOM     27  C   UNL A   1      51.488  24.951  26.483  1.00  0.00     0.278 C 
ENDBRANCH  20  26
ENDBRANCH  12  16
BRANCH  14  28
ATOM     28  C   UNL A   1      44.927  30.548  29.925  1.00  0.00    -0.002 A 
ATOM     29  C   UNL A   1      43.852  30.916  29.106  1.00  0.00     0.011 A 
ATOM     30  C   UNL A   1      45.163  31.216  31.129  1.00  0.00     0.011 A 
ATOM     31  C   UNL A   1      42.979  31.929  29.511  1.00  0.00     0.021 A 
ATOM     32  C   UNL A   1      44.306  32.249  31.525  1.00  0.00     0.021 A 
ATOM     33  C   UNL A   1      43.214  32.593  30.719  1.00  0.00     0.067 A 
BRANCH  33  34
ATOM     34  S   UNL A   1      42.056  33.830  31.266  1.00  0.00     0.175 S 
ATOM     35  C   UNL A   1      43.029  35.295  31.501  1.00  0.00     0.163 C 
ATOM     36  O   UNL A   1      41.143  34.055  30.160  1.00  0.00    -0.224 OA
ATOM     37  O   UNL A   1      41.551  33.415  32.561  1.00  0.00    -0.224 OA
ENDBRANCH  33  34
ENDBRANCH  14  28
ENDBRANCH   6  11
ENDBRANCH   3   5
ENDBRANCH   2   3
ENDBRANCH   1   2
BRANCH   1  38
ATOM     38  C   UNL A   1      41.821  22.897  26.141  1.00  0.00     0.275 C 
BRANCH  38  39
ATOM     39  O   UNL A   1      42.138  24.081  26.897  1.00  0.00    -0.458 OA
BRANCH  39  40
ATOM     40  C   UNL A   1      41.941  25.240  26.233  1.00  0.00     0.338 C 
ATOM     41  O   UNL A   1      42.158  25.457  25.050  1.00  0.00    -0.246 OA
BRANCH  40  42
ATOM     42  C   UNL A   1      41.351  26.262  27.108  1.00  0.00     0.060 A 
ATOM     43  C   UNL A   1      41.793  27.570  26.971  1.00  0.00     0.016 A 
ATOM     44  C   UNL A   1      40.593  25.898  28.218  1.00  0.00     0.016 A 
ATOM     45  C   UNL A   1      41.665  28.464  28.030  1.00  0.00     0.010 A 
ATOM     46  C   UNL A   1      40.319  26.853  29.208  1.00  0.00     0.010 A 
ATOM     47  C   UNL A   1      40.913  28.129  29.164  1.00  0.00    -0.014 A 
BRANCH  47  48
ATOM     48  C   UNL A   1      40.786  29.090  30.305  1.00  0.00     0.031 A 
ATOM     49  C   UNL A   1      41.740  29.020  31.477  1.00  0.00     0.074 A 
ATOM     50  C   UNL A   1      39.827  30.042  30.294  1.00  0.00     0.049 A 
ATOM     51  N   UNL A   1      41.680  29.628  32.635  1.00  0.00    -0.248 NA
ATOM     52  C   UNL A   1      42.905  28.130  31.337  1.00  0.00     0.031 C 
ATOM     53  C   UNL A   1      38.860  30.264  29.216  1.00  0.00     0.029 A 
ATOM     54  N   UNL A   1      39.507  31.007  31.218  1.00  0.00    -0.354 N 
ATOM     55  C   UNL A   1      42.752  29.149  33.380  1.00  0.00     0.074 A 
ATOM     56  C   UNL A   1      43.443  28.188  32.547  1.00  0.00     0.031 C 
ATOM     57  C   UNL A   1      38.093  31.321  29.515  1.00  0.00     0.029 A 
ATOM     58  C   UNL A   1      38.433  31.786  30.853  1.00  0.00     0.049 A 
ATOM     59  H   UNL A   1      40.000  31.131  32.062  1.00  0.00     0.167 HD
ATOM     60  C   UNL A   1      43.129  29.481  34.641  1.00  0.00     0.037 A 
ATOM     61  C   UNL A   1      37.755  32.734  31.529  1.00  0.00     0.037 A 
ATOM     62  C   UNL A   1      42.472  30.486  35.440  1.00  0.00     0.049 A 
ATOM     63  C   UNL A   1      38.173  33.068  32.932  1.00  0.00     0.074 A 
ATOM     64  C   UNL A   1      42.784  30.909  36.720  1.00  0.00     0.029 A 
ATOM     65  N   UNL A   1      41.381  31.239  35.029  1.00  0.00    -0.354 N 
ATOM     66  N   UNL A   1      39.155  32.563  33.641  1.00  0.00    -0.248 NA
ATOM     67  C   UNL A   1      37.388  34.093  33.631  1.00  0.00     0.031 C 
ATOM     68  C   UNL A   1      41.857  31.885  37.100  1.00  0.00     0.029 A 
ATOM     69  C   UNL A   1      41.003  32.115  36.034  1.00  0.00     0.049 A 
ATOM     70  H   UNL A   1      40.939  31.161  34.152  1.00  0.00     0.167 HD
ATOM     71  C   UNL A   1      39.122  33.229  34.861  1.00  0.00     0.074 A 
ATOM     72  C   UNL A   1      38.032  34.180  34.786  1.00  0.00     0.031 C 
ATOM     73  C   UNL A   1      39.924  33.068  35.943  1.00  0.00     0.037 A 
BRANCH  60  74
ATOM     74  C   UNL A   1      44.285  28.731  35.255  1.00  0.00     0.058 A 
ATOM     75  C   UNL A   1      45.612  29.177  35.148  1.00  0.00     0.135 A 
ATOM     76  C   UNL A   1      44.051  27.563  36.001  1.00  0.00     0.135 A 
ATOM     77  F   UNL A   1      45.900  30.280  34.438  1.00  0.00    -0.206 F 
ATOM     78  C   UNL A   1      46.667  28.476  35.728  1.00  0.00     0.059 A 
ATOM     79  C   UNL A   1      45.086  26.864  36.617  1.00  0.00     0.059 A 
ATOM     80  F   UNL A   1      42.803  27.090  36.143  1.00  0.00    -0.206 F 
ATOM     81  C   UNL A   1      46.394  27.319  36.461  1.00  0.00     0.060 A 
BRANCH  81  82
ATOM     82  S   UNL A   1      47.771  26.426  37.211  1.00  0.00     0.124 S 
ATOM     83  O   UNL A   1      48.406  25.833  36.039  1.00  0.00    -0.237 OA
ATOM     84  O   UNL A   1      48.519  27.496  37.863  1.00  0.00    -0.237 OA
ATOM     85  O   UNL A   1      47.116  25.484  38.114  1.00  0.00    -0.744 OA
ENDBRANCH  81  82
ENDBRANCH  60  74
BRANCH  61  86
ATOM     86  C   UNL A   1      36.584  33.401  30.896  1.00  0.00     0.058 A 
ATOM     87  C   UNL A   1      35.277  33.146  31.336  1.00  0.00     0.135 A 
ATOM     88  C   UNL A   1      36.750  34.328  29.853  1.00  0.00     0.135 A 
ATOM     89  F   UNL A   1      35.063  32.263  32.323  1.00  0.00    -0.206 F 
ATOM     90  C   UNL A   1      34.177  33.773  30.758  1.00  0.00     0.059 A 
ATOM     91  C   UNL A   1      35.670  34.992  29.282  1.00  0.00     0.059 A 
ATOM     92  F   UNL A   1      37.981  34.620  29.402  1.00  0.00    -0.206 F 
ATOM     93  C   UNL A   1      34.385  34.698  29.734  1.00  0.00     0.060 A 
BRANCH  93  94
ATOM     94  S   UNL A   1      32.956  35.541  29.022  1.00  0.00     0.124 S 
ATOM     95  O   UNL A   1      32.427  34.517  28.128  1.00  0.00    -0.237 OA
ATOM     96  O   UNL A   1      32.151  35.833  30.204  1.00  0.00    -0.237 OA
ATOM     97  O   UNL A   1      33.543  36.706  28.369  1.00  0.00    -0.744 OA
ENDBRANCH  93  94
ENDBRANCH  61  86
BRANCH  73  98
ATOM     98  C   UNL A   1      39.692  33.984  37.112  1.00  0.00     0.058 A 
ATOM     99  C   UNL A   1      38.896  33.612  38.205  1.00  0.00     0.135 A 
ATOM    100  C   UNL A   1      40.301  35.250  37.146  1.00  0.00     0.135 A 
ATOM    101  F   UNL A   1      38.284  32.417  38.220  1.00  0.00    -0.206 F 
ATOM    102  C   UNL A   1      38.683  34.474  39.276  1.00  0.00     0.059 A 
ATOM    103  C   UNL A   1      40.128  36.116  38.220  1.00  0.00     0.059 A 
ATOM    104  F   UNL A   1      41.083  35.652  36.130  1.00  0.00    -0.206 F 
ATOM    105  C   UNL A   1      39.303  35.725  39.273  1.00  0.00     0.060 A 
BRANCH 105 106
ATOM    106  S   UNL A   1      39.033  36.830  40.675  1.00  0.00     0.124 S 
ATOM    107  O   UNL A   1      38.269  35.977  41.579  1.00  0.00    -0.237 OA
ATOM    108  O   UNL A   1      40.397  37.139  41.096  1.00  0.00    -0.237 OA
ATOM    109  O   UNL A   1      38.296  37.947  40.091  1.00  0.00    -0.744 OA
ENDBRANCH 105 106
ENDBRANCH  73  98
ENDBRANCH  47  48
ENDBRANCH  40  42
ENDBRANCH  39  40
ENDBRANCH  38  39
ENDBRANCH   1  38
TORSDOF 21
ENDMDL
