MODEL 1
REMARK VINA RESULT:     -10.4      0.000      0.000
REMARK SMILES C=CCN(CC(=O)OCCOC(=O)c1ccc(-c2c3nc(c(-c4c(F)cc(S(=O)(=O)[O-])cc4F)c4ccc([nH]4)c(-c4c(F)cc(S(=O)(=O)[O-])cc4F)c4nc(c(-c5c(F)cc(S(=O)(=O)[O-])cc5F)c5ccc2[nH]5)C=C4)C=C3)cc1)C(=O)N1CC[C@@H]([NH+]2CCCCC2)C1
REMARK SMILES IDX 9 1 8 2 6 3 7 4 5 5 4 6 3 7 2 8 1 9 80 10 81 11 82 12 83 13
REMARK SMILES IDX 92 14 84 15 85 16 86 17 87 18 91 19 88 21 90 22 89 23 10 24
REMARK SMILES IDX 11 25 12 26 13 27 14 28 15 29 79 30 16 31 78 32 17 33 18 34
REMARK SMILES IDX 19 35 72 36 20 37 77 38 71 39 73 40 21 41 76 42 70 43 69 44
REMARK SMILES IDX 22 46 56 47 35 48 55 49 36 50 39 51 54 52 74 53 37 54 38 55
REMARK SMILES IDX 53 57 75 58 40 59 23 60 24 61 33 62 25 63 26 64 32 65 34 66
REMARK SMILES IDX 27 67 28 68 29 69 30 70 31 71 57 72 58 73 67 74 59 75 60 76
REMARK SMILES IDX 66 77 68 78 61 79 62 80 63 81 64 82 65 83 41 84 42 85 51 86
REMARK SMILES IDX 43 87 44 88 50 89 52 90 45 91 46 92 47 93 48 94 49 95
REMARK H PARENT 86 20 73 45 39 56
REMARK Flexibility Score: inf
ROOT
ATOM      1  C   UNL A   1      33.156  30.080  26.971  1.00  0.00     0.274 C 
ENDROOT
BRANCH   1   2
ATOM      2  O   UNL A   1      32.562  28.991  26.239  1.00  0.00    -0.461 OA
BRANCH   2   3
ATOM      3  C   UNL A   1      32.246  27.890  26.972  1.00  0.00     0.325 C 
ATOM      4  O   UNL A   1      31.499  27.891  27.945  1.00  0.00    -0.250 OA
BRANCH   3   5
ATOM      5  C   UNL A   1      32.814  26.605  26.368  1.00  0.00     0.244 C 
BRANCH   5   6
ATOM      6  N   UNL A   1      31.884  25.466  26.239  1.00  0.00    -0.310 N 
BRANCH   6   7
ATOM      7  C   UNL A   1      30.693  25.817  25.466  1.00  0.00     0.149 C 
BRANCH   7   8
ATOM      8  C   UNL A   1      30.900  25.401  24.034  1.00  0.00    -0.013 C 
ATOM      9  C   UNL A   1      31.658  26.081  23.164  1.00  0.00     0.006 C 
ENDBRANCH   7   8
ENDBRANCH   6   7
BRANCH   6  10
ATOM     10  C   UNL A   1      31.973  24.134  26.619  1.00  0.00     0.321 C 
ATOM     11  O   UNL A   1      31.129  23.661  27.392  1.00  0.00    -0.248 OA
BRANCH  10  12
ATOM     12  N   UNL A   1      32.961  23.299  26.176  1.00  0.00    -0.318 N 
ATOM     13  C   UNL A   1      32.999  22.442  25.037  1.00  0.00     0.128 C 
ATOM     14  C   UNL A   1      34.300  23.334  26.792  1.00  0.00     0.186 C 
ATOM     15  C   UNL A   1      34.191  21.538  25.229  1.00  0.00     0.088 C 
ATOM     16  C   UNL A   1      35.205  22.319  26.032  1.00  0.00     0.205 C 
BRANCH  16  17
ATOM     17  N   UNL A   1      36.384  22.753  25.263  1.00  0.00    -0.331 N 
ATOM     18  C   UNL A   1      37.287  21.759  24.713  1.00  0.00     0.262 C 
ATOM     19  C   UNL A   1      37.086  23.935  25.790  1.00  0.00     0.262 C 
ATOM     20  H   UNL A   1      35.886  23.049  24.423  1.00  0.00     0.348 HD
ATOM     21  C   UNL A   1      38.371  21.315  25.680  1.00  0.00     0.062 C 
ATOM     22  C   UNL A   1      38.429  23.727  26.518  1.00  0.00     0.062 C 
ATOM     23  C   UNL A   1      39.221  22.468  26.179  1.00  0.00     0.012 C 
ENDBRANCH  16  17
ENDBRANCH  10  12
ENDBRANCH   6  10
ENDBRANCH   5   6
ENDBRANCH   3   5
ENDBRANCH   2   3
ENDBRANCH   1   2
BRANCH   1  24
ATOM     24  C   UNL A   1      34.469  29.602  27.604  1.00  0.00     0.275 C 
BRANCH  24  25
ATOM     25  O   UNL A   1      35.581  30.534  27.625  1.00  0.00    -0.458 OA
BRANCH  25  26
ATOM     26  C   UNL A   1      36.172  30.893  28.786  1.00  0.00     0.338 C 
ATOM     27  O   UNL A   1      35.779  31.725  29.586  1.00  0.00    -0.246 OA
BRANCH  26  28
ATOM     28  C   UNL A   1      37.526  30.296  28.852  1.00  0.00     0.060 A 
ATOM     29  C   UNL A   1      38.087  29.816  27.658  1.00  0.00     0.016 A 
ATOM     30  C   UNL A   1      38.203  30.119  30.062  1.00  0.00     0.016 A 
ATOM     31  C   UNL A   1      39.293  29.110  27.672  1.00  0.00     0.010 A 
ATOM     32  C   UNL A   1      39.431  29.444  30.075  1.00  0.00     0.010 A 
ATOM     33  C   UNL A   1      39.991  28.948  28.879  1.00  0.00    -0.014 A 
BRANCH  33  34
ATOM     34  C   UNL A   1      41.452  28.706  28.843  1.00  0.00     0.031 A 
ATOM     35  C   UNL A   1      42.500  29.777  28.843  1.00  0.00     0.074 A 
ATOM     36  C   UNL A   1      41.765  27.407  28.677  1.00  0.00     0.049 A 
ATOM     37  N   UNL A   1      43.786  29.649  28.635  1.00  0.00    -0.248 NA
ATOM     38  C   UNL A   1      42.078  31.157  29.119  1.00  0.00     0.031 C 
ATOM     39  C   UNL A   1      40.784  26.310  28.674  1.00  0.00     0.029 A 
ATOM     40  N   UNL A   1      42.950  26.790  28.403  1.00  0.00    -0.354 N 
ATOM     41  C   UNL A   1      44.335  30.921  28.760  1.00  0.00     0.074 A 
ATOM     42  C   UNL A   1      43.232  31.817  29.048  1.00  0.00     0.031 C 
ATOM     43  C   UNL A   1      41.388  25.177  28.313  1.00  0.00     0.029 A 
ATOM     44  C   UNL A   1      42.783  25.474  28.044  1.00  0.00     0.049 A 
ATOM     45  H   UNL A   1      43.826  27.236  28.456  1.00  0.00     0.167 HD
ATOM     46  C   UNL A   1      45.640  31.281  28.644  1.00  0.00     0.037 A 
ATOM     47  C   UNL A   1      43.644  24.603  27.499  1.00  0.00     0.037 A 
ATOM     48  C   UNL A   1      46.698  30.339  28.349  1.00  0.00     0.049 A 
ATOM     49  C   UNL A   1      45.056  25.036  27.319  1.00  0.00     0.074 A 
ATOM     50  C   UNL A   1      48.065  30.560  28.306  1.00  0.00     0.029 A 
ATOM     51  N   UNL A   1      46.506  29.002  28.022  1.00  0.00    -0.354 N 
ATOM     52  N   UNL A   1      45.575  26.221  27.529  1.00  0.00    -0.248 NA
ATOM     53  C   UNL A   1      46.005  24.016  26.872  1.00  0.00     0.031 C 
ATOM     54  C   UNL A   1      48.689  29.379  27.891  1.00  0.00     0.029 A 
ATOM     55  C   UNL A   1      47.722  28.401  27.728  1.00  0.00     0.049 A 
ATOM     56  H   UNL A   1      45.634  28.547  28.001  1.00  0.00     0.167 HD
ATOM     57  C   UNL A   1      46.926  26.088  27.260  1.00  0.00     0.074 A 
ATOM     58  C   UNL A   1      47.140  24.701  26.885  1.00  0.00     0.031 C 
ATOM     59  C   UNL A   1      47.901  27.027  27.326  1.00  0.00     0.037 A 
BRANCH  46  60
ATOM     60  C   UNL A   1      46.028  32.732  28.820  1.00  0.00     0.058 A 
ATOM     61  C   UNL A   1      46.465  33.243  30.052  1.00  0.00     0.135 A 
ATOM     62  C   UNL A   1      46.094  33.591  27.707  1.00  0.00     0.135 A 
ATOM     63  F   UNL A   1      46.430  32.475  31.152  1.00  0.00    -0.206 F 
ATOM     64  C   UNL A   1      46.945  34.548  30.177  1.00  0.00     0.059 A 
ATOM     65  C   UNL A   1      46.592  34.891  27.803  1.00  0.00     0.059 A 
ATOM     66  F   UNL A   1      45.700  33.160  26.498  1.00  0.00    -0.206 F 
ATOM     67  C   UNL A   1      47.010  35.363  29.045  1.00  0.00     0.060 A 
BRANCH  67  68
ATOM     68  S   UNL A   1      47.670  37.037  29.218  1.00  0.00     0.124 S 
ATOM     69  O   UNL A   1      49.081  36.770  29.480  1.00  0.00    -0.237 OA
ATOM     70  O   UNL A   1      47.369  37.628  27.918  1.00  0.00    -0.237 OA
ATOM     71  O   UNL A   1      46.917  37.588  30.341  1.00  0.00    -0.744 OA
ENDBRANCH  67  68
ENDBRANCH  46  60
BRANCH  47  72
ATOM     72  C   UNL A   1      43.147  23.259  27.131  1.00  0.00     0.058 A 
ATOM     73  C   UNL A   1      43.022  22.896  25.785  1.00  0.00     0.135 A 
ATOM     74  C   UNL A   1      42.950  22.269  28.109  1.00  0.00     0.135 A 
ATOM     75  F   UNL A   1      43.232  23.807  24.823  1.00  0.00    -0.206 F 
ATOM     76  C   UNL A   1      42.710  21.594  25.417  1.00  0.00     0.059 A 
ATOM     77  C   UNL A   1      42.658  20.955  27.762  1.00  0.00     0.059 A 
ATOM     78  F   UNL A   1      43.115  22.562  29.408  1.00  0.00    -0.206 F 
ATOM     79  C   UNL A   1      42.537  20.630  26.412  1.00  0.00     0.060 A 
BRANCH  79  80
ATOM     80  S   UNL A   1      42.207  18.929  25.909  1.00  0.00     0.124 S 
ATOM     81  O   UNL A   1      43.037  18.814  24.715  1.00  0.00    -0.237 OA
ATOM     82  O   UNL A   1      42.655  18.172  27.074  1.00  0.00    -0.237 OA
ATOM     83  O   UNL A   1      40.766  18.919  25.680  1.00  0.00    -0.744 OA
ENDBRANCH  79  80
ENDBRANCH  47  72
BRANCH  59  84
ATOM     84  C   UNL A   1      49.283  26.569  26.967  1.00  0.00     0.058 A 
ATOM     85  C   UNL A   1      49.721  26.561  25.634  1.00  0.00     0.135 A 
ATOM     86  C   UNL A   1      50.179  26.151  27.963  1.00  0.00     0.135 A 
ATOM     87  F   UNL A   1      48.891  26.930  24.647  1.00  0.00    -0.206 F 
ATOM     88  C   UNL A   1      50.998  26.134  25.298  1.00  0.00     0.059 A 
ATOM     89  C   UNL A   1      51.472  25.746  27.651  1.00  0.00     0.059 A 
ATOM     90  F   UNL A   1      49.802  26.139  29.252  1.00  0.00    -0.206 F 
ATOM     91  C   UNL A   1      51.868  25.733  26.314  1.00  0.00     0.060 A 
BRANCH  91  92
ATOM     92  S   UNL A   1      53.537  25.221  25.861  1.00  0.00     0.124 S 
ATOM     93  O   UNL A   1      54.222  25.279  27.149  1.00  0.00    -0.237 OA
ATOM     94  O   UNL A   1      53.316  23.884  25.320  1.00  0.00    -0.237 OA
ATOM     95  O   UNL A   1      53.948  26.226  24.886  1.00  0.00    -0.744 OA
ENDBRANCH  91  92
ENDBRANCH  59  84
ENDBRANCH  33  34
ENDBRANCH  26  28
ENDBRANCH  25  26
ENDBRANCH  24  25
ENDBRANCH   1  24
TORSDOF 20
ENDMDL
MODEL 2
REMARK VINA RESULT:     -10.3      6.395     11.757
REMARK SMILES C=CCN(CC(=O)OCCOC(=O)c1ccc(-c2c3nc(c(-c4c(F)cc(S(=O)(=O)[O-])cc4F)c4ccc([nH]4)c(-c4c(F)cc(S(=O)(=O)[O-])cc4F)c4nc(c(-c5c(F)cc(S(=O)(=O)[O-])cc5F)c5ccc2[nH]5)C=C4)C=C3)cc1)C(=O)N1CC[C@@H]([NH+]2CCCCC2)C1
REMARK SMILES IDX 9 1 8 2 6 3 7 4 5 5 4 6 3 7 2 8 1 9 80 10 81 11 82 12 83 13
REMARK SMILES IDX 92 14 84 15 85 16 86 17 87 18 91 19 88 21 90 22 89 23 10 24
REMARK SMILES IDX 11 25 12 26 13 27 14 28 15 29 79 30 16 31 78 32 17 33 18 34
REMARK SMILES IDX 19 35 72 36 20 37 77 38 71 39 73 40 21 41 76 42 70 43 69 44
REMARK SMILES IDX 22 46 56 47 35 48 55 49 36 50 39 51 54 52 74 53 37 54 38 55
REMARK SMILES IDX 53 57 75 58 40 59 23 60 24 61 33 62 25 63 26 64 32 65 34 66
REMARK SMILES IDX 27 67 28 68 29 69 30 70 31 71 57 72 58 73 67 74 59 75 60 76
REMARK SMILES IDX 66 77 68 78 61 79 62 80 63 81 64 82 65 83 41 84 42 85 51 86
REMARK SMILES IDX 43 87 44 88 50 89 52 90 45 91 46 92 47 93 48 94 49 95
REMARK H PARENT 86 20 73 45 39 56
REMARK Flexibility Score: inf
ROOT
ATOM      1  C   UNL A   1      37.853  22.795  25.848  1.00  0.00     0.274 C 
ENDROOT
BRANCH   1   2
ATOM      2  O   UNL A   1      37.149  21.592  25.487  1.00  0.00    -0.461 OA
BRANCH   2   3
ATOM      3  C   UNL A   1      36.088  21.756  24.653  1.00  0.00     0.325 C 
ATOM      4  O   UNL A   1      35.975  22.668  23.839  1.00  0.00    -0.250 OA
BRANCH   3   5
ATOM      5  C   UNL A   1      35.097  20.594  24.734  1.00  0.00     0.244 C 
BRANCH   5   6
ATOM      6  N   UNL A   1      33.895  20.807  25.566  1.00  0.00    -0.310 N 
BRANCH   6   7
ATOM      7  C   UNL A   1      32.863  19.804  25.305  1.00  0.00     0.149 C 
BRANCH   7   8
ATOM      8  C   UNL A   1      33.443  18.724  24.431  1.00  0.00    -0.013 C 
ATOM      9  C   UNL A   1      32.704  17.908  23.667  1.00  0.00     0.006 C 
ENDBRANCH   7   8
ENDBRANCH   6   7
BRANCH   6  10
ATOM     10  C   UNL A   1      33.610  21.698  26.593  1.00  0.00     0.321 C 
ATOM     11  O   UNL A   1      33.967  21.433  27.748  1.00  0.00    -0.248 OA
BRANCH  10  12
ATOM     12  N   UNL A   1      32.948  22.876  26.391  1.00  0.00    -0.318 N 
ATOM     13  C   UNL A   1      33.436  24.147  25.967  1.00  0.00     0.128 C 
ATOM     14  C   UNL A   1      31.474  22.917  26.422  1.00  0.00     0.186 C 
ATOM     15  C   UNL A   1      32.328  25.134  26.230  1.00  0.00     0.088 C 
ATOM     16  C   UNL A   1      31.028  24.375  26.100  1.00  0.00     0.205 C 
BRANCH  16  17
ATOM     17  N   UNL A   1      30.251  24.703  24.892  1.00  0.00    -0.331 N 
ATOM     18  C   UNL A   1      30.587  24.070  23.630  1.00  0.00     0.262 C 
ATOM     19  C   UNL A   1      29.879  26.119  24.742  1.00  0.00     0.262 C 
ATOM     20  H   UNL A   1      29.403  24.195  25.145  1.00  0.00     0.348 HD
ATOM     21  C   UNL A   1      31.668  24.798  22.849  1.00  0.00     0.062 C 
ATOM     22  C   UNL A   1      30.642  26.973  23.710  1.00  0.00     0.062 C 
ATOM     23  C   UNL A   1      31.305  26.240  22.548  1.00  0.00     0.012 C 
ENDBRANCH  16  17
ENDBRANCH  10  12
ENDBRANCH   6  10
ENDBRANCH   5   6
ENDBRANCH   3   5
ENDBRANCH   2   3
ENDBRANCH   1   2
BRANCH   1  24
ATOM     24  C   UNL A   1      39.219  22.419  26.436  1.00  0.00     0.275 C 
BRANCH  24  25
ATOM     25  O   UNL A   1      39.820  23.345  27.379  1.00  0.00    -0.458 OA
BRANCH  25  26
ATOM     26  C   UNL A   1      40.896  24.088  27.041  1.00  0.00     0.338 C 
ATOM     27  O   UNL A   1      41.830  23.752  26.331  1.00  0.00    -0.246 OA
BRANCH  26  28
ATOM     28  C   UNL A   1      40.915  25.324  27.856  1.00  0.00     0.060 A 
ATOM     29  C   UNL A   1      39.810  25.577  28.685  1.00  0.00     0.016 A 
ATOM     30  C   UNL A   1      41.941  26.268  27.753  1.00  0.00     0.016 A 
ATOM     31  C   UNL A   1      39.696  26.791  29.367  1.00  0.00     0.010 A 
ATOM     32  C   UNL A   1      41.848  27.472  28.466  1.00  0.00     0.010 A 
ATOM     33  C   UNL A   1      40.731  27.735  29.288  1.00  0.00    -0.014 A 
BRANCH  33  34
ATOM     34  C   UNL A   1      40.887  28.731  30.373  1.00  0.00     0.031 A 
ATOM     35  C   UNL A   1      41.745  28.550  31.589  1.00  0.00     0.074 A 
ATOM     36  C   UNL A   1      40.069  29.791  30.233  1.00  0.00     0.049 A 
ATOM     37  N   UNL A   1      41.793  29.299  32.661  1.00  0.00    -0.248 NA
ATOM     38  C   UNL A   1      42.671  27.411  31.617  1.00  0.00     0.031 C 
ATOM     39  C   UNL A   1      39.209  30.028  29.063  1.00  0.00     0.029 A 
ATOM     40  N   UNL A   1      39.758  30.813  31.083  1.00  0.00    -0.354 N 
ATOM     41  C   UNL A   1      42.755  28.734  33.493  1.00  0.00     0.074 A 
ATOM     42  C   UNL A   1      43.258  27.563  32.803  1.00  0.00     0.031 C 
ATOM     43  C   UNL A   1      38.399  31.060  29.310  1.00  0.00     0.029 A 
ATOM     44  C   UNL A   1      38.673  31.538  30.653  1.00  0.00     0.049 A 
ATOM     45  H   UNL A   1      40.254  31.008  31.910  1.00  0.00     0.167 HD
ATOM     46  C   UNL A   1      43.164  29.173  34.712  1.00  0.00     0.037 A 
ATOM     47  C   UNL A   1      37.930  32.454  31.288  1.00  0.00     0.037 A 
ATOM     48  C   UNL A   1      42.619  30.351  35.354  1.00  0.00     0.049 A 
ATOM     49  C   UNL A   1      38.355  32.878  32.649  1.00  0.00     0.074 A 
ATOM     50  C   UNL A   1      43.018  30.954  36.535  1.00  0.00     0.029 A 
ATOM     51  N   UNL A   1      41.541  31.089  34.881  1.00  0.00    -0.354 N 
ATOM     52  N   UNL A   1      39.326  32.392  33.384  1.00  0.00    -0.248 NA
ATOM     53  C   UNL A   1      37.622  33.990  33.252  1.00  0.00     0.031 C 
ATOM     54  C   UNL A   1      42.143  32.011  36.808  1.00  0.00     0.029 A 
ATOM     55  C   UNL A   1      41.231  32.107  35.770  1.00  0.00     0.049 A 
ATOM     56  H   UNL A   1      41.065  30.914  34.037  1.00  0.00     0.167 HD
ATOM     57  C   UNL A   1      39.339  33.157  34.537  1.00  0.00     0.074 A 
ATOM     58  C   UNL A   1      38.284  34.145  34.390  1.00  0.00     0.031 C 
ATOM     59  C   UNL A   1      40.155  33.056  35.614  1.00  0.00     0.037 A 
BRANCH  46  60
ATOM     60  C   UNL A   1      44.235  28.407  35.456  1.00  0.00     0.058 A 
ATOM     61  C   UNL A   1      43.924  27.366  36.346  1.00  0.00     0.135 A 
ATOM     62  C   UNL A   1      45.595  28.626  35.172  1.00  0.00     0.135 A 
ATOM     63  F   UNL A   1      42.645  27.104  36.659  1.00  0.00    -0.206 F 
ATOM     64  C   UNL A   1      44.918  26.579  36.930  1.00  0.00     0.059 A 
ATOM     65  C   UNL A   1      46.604  27.836  35.725  1.00  0.00     0.059 A 
ATOM     66  F   UNL A   1      45.958  29.599  34.321  1.00  0.00    -0.206 F 
ATOM     67  C   UNL A   1      46.255  26.818  36.608  1.00  0.00     0.060 A 
BRANCH  67  68
ATOM     68  S   UNL A   1      47.526  25.763  37.343  1.00  0.00     0.124 S 
ATOM     69  O   UNL A   1      48.744  26.496  37.010  1.00  0.00    -0.237 OA
ATOM     70  O   UNL A   1      47.154  25.762  38.755  1.00  0.00    -0.237 OA
ATOM     71  O   UNL A   1      47.354  24.488  36.654  1.00  0.00    -0.744 OA
ENDBRANCH  67  68
ENDBRANCH  46  60
BRANCH  47  72
ATOM     72  C   UNL A   1      36.748  33.009  30.592  1.00  0.00     0.058 A 
ATOM     73  C   UNL A   1      35.457  32.664  31.009  1.00  0.00     0.135 A 
ATOM     74  C   UNL A   1      36.887  34.011  29.616  1.00  0.00     0.135 A 
ATOM     75  F   UNL A   1      35.286  31.733  31.959  1.00  0.00    -0.206 F 
ATOM     76  C   UNL A   1      34.338  33.290  30.476  1.00  0.00     0.059 A 
ATOM     77  C   UNL A   1      35.782  34.665  29.085  1.00  0.00     0.059 A 
ATOM     78  F   UNL A   1      38.109  34.409  29.229  1.00  0.00    -0.206 F 
ATOM     79  C   UNL A   1      34.511  34.293  29.520  1.00  0.00     0.060 A 
BRANCH  79  80
ATOM     80  S   UNL A   1      33.048  35.145  28.897  1.00  0.00     0.124 S 
ATOM     81  O   UNL A   1      32.280  35.337  30.123  1.00  0.00    -0.237 OA
ATOM     82  O   UNL A   1      33.623  36.351  28.308  1.00  0.00    -0.237 OA
ATOM     83  O   UNL A   1      32.486  34.196  27.942  1.00  0.00    -0.744 OA
ENDBRANCH  79  80
ENDBRANCH  47  72
BRANCH  59  84
ATOM     84  C   UNL A   1      39.915  34.041  36.719  1.00  0.00     0.058 A 
ATOM     85  C   UNL A   1      39.076  33.729  37.800  1.00  0.00     0.135 A 
ATOM     86  C   UNL A   1      40.537  35.299  36.704  1.00  0.00     0.135 A 
ATOM     87  F   UNL A   1      38.442  32.548  37.844  1.00  0.00    -0.206 F 
ATOM     88  C   UNL A   1      38.848  34.640  38.822  1.00  0.00     0.059 A 
ATOM     89  C   UNL A   1      40.345  36.216  37.731  1.00  0.00     0.059 A 
ATOM     90  F   UNL A   1      41.344  35.643  35.687  1.00  0.00    -0.206 F 
ATOM     91  C   UNL A   1      39.491  35.879  38.781  1.00  0.00     0.060 A 
BRANCH  91  92
ATOM     92  S   UNL A   1      39.214  37.033  40.139  1.00  0.00     0.124 S 
ATOM     93  O   UNL A   1      38.407  36.228  41.049  1.00  0.00    -0.237 OA
ATOM     94  O   UNL A   1      40.574  37.322  40.582  1.00  0.00    -0.237 OA
ATOM     95  O   UNL A   1      38.519  38.148  39.502  1.00  0.00    -0.744 OA
ENDBRANCH  91  92
ENDBRANCH  59  84
ENDBRANCH  33  34
ENDBRANCH  26  28
ENDBRANCH  25  26
ENDBRANCH  24  25
ENDBRANCH   1  24
TORSDOF 20
ENDMDL
MODEL 3
REMARK VINA RESULT:     -10.2      5.222      9.271
REMARK SMILES C=CCN(CC(=O)OCCOC(=O)c1ccc(-c2c3nc(c(-c4c(F)cc(S(=O)(=O)[O-])cc4F)c4ccc([nH]4)c(-c4c(F)cc(S(=O)(=O)[O-])cc4F)c4nc(c(-c5c(F)cc(S(=O)(=O)[O-])cc5F)c5ccc2[nH]5)C=C4)C=C3)cc1)C(=O)N1CC[C@@H]([NH+]2CCCCC2)C1
REMARK SMILES IDX 9 1 8 2 6 3 7 4 5 5 4 6 3 7 2 8 1 9 80 10 81 11 82 12 83 13
REMARK SMILES IDX 92 14 84 15 85 16 86 17 87 18 91 19 88 21 90 22 89 23 10 24
REMARK SMILES IDX 11 25 12 26 13 27 14 28 15 29 79 30 16 31 78 32 17 33 18 34
REMARK SMILES IDX 19 35 72 36 20 37 77 38 71 39 73 40 21 41 76 42 70 43 69 44
REMARK SMILES IDX 22 46 56 47 35 48 55 49 36 50 39 51 54 52 74 53 37 54 38 55
REMARK SMILES IDX 53 57 75 58 40 59 23 60 24 61 33 62 25 63 26 64 32 65 34 66
REMARK SMILES IDX 27 67 28 68 29 69 30 70 31 71 57 72 58 73 67 74 59 75 60 76
REMARK SMILES IDX 66 77 68 78 61 79 62 80 63 81 64 82 65 83 41 84 42 85 51 86
REMARK SMILES IDX 43 87 44 88 50 89 52 90 45 91 46 92 47 93 48 94 49 95
REMARK H PARENT 86 20 73 45 39 56
REMARK Flexibility Score: inf
ROOT
ATOM      1  C   UNL A   1      31.804  29.638  25.761  1.00  0.00     0.274 C 
ENDROOT
BRANCH   1   2
ATOM      2  O   UNL A   1      32.969  28.944  25.275  1.00  0.00    -0.461 OA
BRANCH   2   3
ATOM      3  C   UNL A   1      32.909  27.587  25.321  1.00  0.00     0.325 C 
ATOM      4  O   UNL A   1      33.625  26.880  26.024  1.00  0.00    -0.250 OA
BRANCH   3   5
ATOM      5  C   UNL A   1      31.749  27.026  24.497  1.00  0.00     0.244 C 
BRANCH   5   6
ATOM      6  N   UNL A   1      32.078  26.523  23.148  1.00  0.00    -0.310 N 
BRANCH   6   7
ATOM      7  C   UNL A   1      31.164  27.044  22.132  1.00  0.00     0.149 C 
BRANCH   7   8
ATOM      8  C   UNL A   1      30.230  28.033  22.776  1.00  0.00    -0.013 C 
ATOM      9  C   UNL A   1      30.094  29.302  22.368  1.00  0.00     0.006 C 
ENDBRANCH   7   8
ENDBRANCH   6   7
BRANCH   6  10
ATOM     10  C   UNL A   1      33.124  25.749  22.665  1.00  0.00     0.321 C 
ATOM     11  O   UNL A   1      33.814  26.170  21.727  1.00  0.00    -0.248 OA
BRANCH  10  12
ATOM     12  N   UNL A   1      33.443  24.524  23.182  1.00  0.00    -0.318 N 
ATOM     13  C   UNL A   1      34.547  24.124  23.991  1.00  0.00     0.128 C 
ATOM     14  C   UNL A   1      32.483  23.407  23.099  1.00  0.00     0.186 C 
ATOM     15  C   UNL A   1      34.549  22.617  23.988  1.00  0.00     0.088 C 
ATOM     16  C   UNL A   1      33.112  22.180  23.824  1.00  0.00     0.205 C 
BRANCH  16  17
ATOM     17  N   UNL A   1      32.510  21.602  25.039  1.00  0.00    -0.331 N 
ATOM     18  C   UNL A   1      31.542  22.373  25.797  1.00  0.00     0.262 C 
ATOM     19  C   UNL A   1      33.428  20.833  25.897  1.00  0.00     0.262 C 
ATOM     20  H   UNL A   1      31.902  20.930  24.572  1.00  0.00     0.348 HD
ATOM     21  C   UNL A   1      32.167  23.297  26.827  1.00  0.00     0.062 C 
ATOM     22  C   UNL A   1      33.914  21.474  27.211  1.00  0.00     0.062 C 
ATOM     23  C   UNL A   1      33.037  22.559  27.827  1.00  0.00     0.012 C 
ENDBRANCH  16  17
ENDBRANCH  10  12
ENDBRANCH   6  10
ENDBRANCH   5   6
ENDBRANCH   3   5
ENDBRANCH   2   3
ENDBRANCH   1   2
BRANCH   1  24
ATOM     24  C   UNL A   1      32.226  30.618  26.863  1.00  0.00     0.275 C 
BRANCH  24  25
ATOM     25  O   UNL A   1      33.591  31.107  26.838  1.00  0.00    -0.458 OA
BRANCH  25  26
ATOM     26  C   UNL A   1      34.108  31.794  27.881  1.00  0.00     0.338 C 
ATOM     27  O   UNL A   1      33.662  32.812  28.385  1.00  0.00    -0.246 OA
BRANCH  26  28
ATOM     28  C   UNL A   1      35.457  31.270  28.195  1.00  0.00     0.060 A 
ATOM     29  C   UNL A   1      36.477  32.201  28.448  1.00  0.00     0.016 A 
ATOM     30  C   UNL A   1      35.751  29.904  28.156  1.00  0.00     0.016 A 
ATOM     31  C   UNL A   1      37.800  31.780  28.606  1.00  0.00     0.010 A 
ATOM     32  C   UNL A   1      37.072  29.476  28.351  1.00  0.00     0.010 A 
ATOM     33  C   UNL A   1      38.102  30.410  28.591  1.00  0.00    -0.014 A 
BRANCH  33  34
ATOM     34  C   UNL A   1      39.329  29.932  29.268  1.00  0.00     0.031 A 
ATOM     35  C   UNL A   1      40.244  28.868  28.740  1.00  0.00     0.074 A 
ATOM     36  C   UNL A   1      39.491  30.460  30.496  1.00  0.00     0.049 A 
ATOM     37  N   UNL A   1      41.235  28.276  29.357  1.00  0.00    -0.248 NA
ATOM     38  C   UNL A   1      40.047  28.413  27.357  1.00  0.00     0.031 C 
ATOM     39  C   UNL A   1      38.633  31.510  31.068  1.00  0.00     0.029 A 
ATOM     40  N   UNL A   1      40.353  30.153  31.507  1.00  0.00    -0.354 N 
ATOM     41  C   UNL A   1      41.789  27.383  28.445  1.00  0.00     0.074 A 
ATOM     42  C   UNL A   1      41.009  27.501  27.229  1.00  0.00     0.031 C 
ATOM     43  C   UNL A   1      38.944  31.685  32.354  1.00  0.00     0.029 A 
ATOM     44  C   UNL A   1      40.003  30.753  32.693  1.00  0.00     0.049 A 
ATOM     45  H   UNL A   1      41.137  29.567  31.401  1.00  0.00     0.167 HD
ATOM     46  C   UNL A   1      42.851  26.556  28.629  1.00  0.00     0.037 A 
ATOM     47  C   UNL A   1      40.443  30.541  33.941  1.00  0.00     0.037 A 
ATOM     48  C   UNL A   1      43.589  26.479  29.872  1.00  0.00     0.049 A 
ATOM     49  C   UNL A   1      41.565  29.583  34.133  1.00  0.00     0.074 A 
ATOM     50  C   UNL A   1      44.740  25.760  30.150  1.00  0.00     0.029 A 
ATOM     51  N   UNL A   1      43.234  27.124  31.051  1.00  0.00    -0.354 N 
ATOM     52  N   UNL A   1      42.138  28.813  33.239  1.00  0.00    -0.248 NA
ATOM     53  C   UNL A   1      42.130  29.490  35.479  1.00  0.00     0.031 C 
ATOM     54  C   UNL A   1      45.040  25.918  31.508  1.00  0.00     0.029 A 
ATOM     55  C   UNL A   1      44.112  26.781  32.068  1.00  0.00     0.049 A 
ATOM     56  H   UNL A   1      42.469  27.736  31.150  1.00  0.00     0.167 HD
ATOM     57  C   UNL A   1      43.152  28.153  33.910  1.00  0.00     0.074 A 
ATOM     58  C   UNL A   1      43.118  28.629  35.283  1.00  0.00     0.031 C 
ATOM     59  C   UNL A   1      44.035  27.244  33.432  1.00  0.00     0.037 A 
BRANCH  46  60
ATOM     60  C   UNL A   1      43.298  25.658  27.497  1.00  0.00     0.058 A 
ATOM     61  C   UNL A   1      44.248  26.070  26.549  1.00  0.00     0.135 A 
ATOM     62  C   UNL A   1      42.872  24.319  27.441  1.00  0.00     0.135 A 
ATOM     63  F   UNL A   1      44.697  27.335  26.549  1.00  0.00    -0.206 F 
ATOM     64  C   UNL A   1      44.751  25.194  25.586  1.00  0.00     0.059 A 
ATOM     65  C   UNL A   1      43.378  23.419  26.502  1.00  0.00     0.059 A 
ATOM     66  F   UNL A   1      41.972  23.860  28.325  1.00  0.00    -0.206 F 
ATOM     67  C   UNL A   1      44.314  23.868  25.574  1.00  0.00     0.060 A 
BRANCH  67  68
ATOM     68  S   UNL A   1      45.005  22.738  24.344  1.00  0.00     0.124 S 
ATOM     69  O   UNL A   1      43.862  22.530  23.461  1.00  0.00    -0.237 OA
ATOM     70  O   UNL A   1      46.104  23.519  23.784  1.00  0.00    -0.237 OA
ATOM     71  O   UNL A   1      45.406  21.577  25.133  1.00  0.00    -0.744 OA
ENDBRANCH  67  68
ENDBRANCH  46  60
BRANCH  47  72
ATOM     72  C   UNL A   1      39.807  31.286  35.049  1.00  0.00     0.058 A 
ATOM     73  C   UNL A   1      38.598  30.841  35.597  1.00  0.00     0.135 A 
ATOM     74  C   UNL A   1      40.473  32.349  35.682  1.00  0.00     0.135 A 
ATOM     75  F   UNL A   1      37.948  29.810  35.037  1.00  0.00    -0.206 F 
ATOM     76  C   UNL A   1      38.064  31.430  36.735  1.00  0.00     0.059 A 
ATOM     77  C   UNL A   1      39.968  32.939  36.834  1.00  0.00     0.059 A 
ATOM     78  F   UNL A   1      41.662  32.769  35.221  1.00  0.00    -0.206 F 
ATOM     79  C   UNL A   1      38.759  32.474  37.350  1.00  0.00     0.060 A 
BRANCH  79  80
ATOM     80  S   UNL A   1      38.085  33.175  38.870  1.00  0.00     0.124 S 
ATOM     81  O   UNL A   1      38.693  34.501  38.872  1.00  0.00    -0.237 OA
ATOM     82  O   UNL A   1      36.648  33.131  38.616  1.00  0.00    -0.237 OA
ATOM     83  O   UNL A   1      38.560  32.259  39.902  1.00  0.00    -0.744 OA
ENDBRANCH  79  80
ENDBRANCH  47  72
BRANCH  59  84
ATOM     84  C   UNL A   1      45.025  26.702  34.420  1.00  0.00     0.058 A 
ATOM     85  C   UNL A   1      46.246  27.353  34.655  1.00  0.00     0.135 A 
ATOM     86  C   UNL A   1      44.745  25.535  35.146  1.00  0.00     0.135 A 
ATOM     87  F   UNL A   1      46.566  28.460  33.967  1.00  0.00    -0.206 F 
ATOM     88  C   UNL A   1      47.166  26.853  35.565  1.00  0.00     0.059 A 
ATOM     89  C   UNL A   1      45.640  25.032  36.083  1.00  0.00     0.059 A 
ATOM     90  F   UNL A   1      43.591  24.876  34.952  1.00  0.00    -0.206 F 
ATOM     91  C   UNL A   1      46.853  25.694  36.279  1.00  0.00     0.060 A 
BRANCH  91  92
ATOM     92  S   UNL A   1      48.043  25.082  37.487  1.00  0.00     0.124 S 
ATOM     93  O   UNL A   1      48.233  23.706  37.042  1.00  0.00    -0.237 OA
ATOM     94  O   UNL A   1      49.177  25.977  37.286  1.00  0.00    -0.237 OA
ATOM     95  O   UNL A   1      47.346  25.239  38.760  1.00  0.00    -0.744 OA
ENDBRANCH  91  92
ENDBRANCH  59  84
ENDBRANCH  33  34
ENDBRANCH  26  28
ENDBRANCH  25  26
ENDBRANCH  24  25
ENDBRANCH   1  24
TORSDOF 20
ENDMDL
