MODEL 1
REMARK VINA RESULT:     -10.0      0.000      0.000
REMARK SMILES C=CCc1cccc(-c2ccc([C@@H](C)C(=O)OCCOC(=O)c3ccc(-c4c5nc(c(-c6c(F)cc(S(=O)(=O)[O-])cc6F)c6ccc([nH]6)c(-c6c(F)cc(S(=O)(=O)[O-])cc6F)c6nc(c(-c7c(F)cc(S(=O)(=O)[O-])cc7F)c7ccc4[nH]7)C=C6)C=C5)cc3)cc2)c1
REMARK SMILES IDX 18 1 17 2 15 3 16 4 13 5 14 6 12 7 9 8 10 9 90 10 11 11
REMARK SMILES IDX 89 12 8 13 4 14 5 15 91 16 6 17 7 18 3 19 2 20 1 21 19 22
REMARK SMILES IDX 20 23 21 24 22 25 23 26 24 27 88 28 25 29 87 30 26 31 27 32
REMARK SMILES IDX 28 33 81 34 29 35 86 36 80 37 82 38 30 39 85 40 79 41 78 42
REMARK SMILES IDX 31 44 65 45 44 46 64 47 45 48 48 49 63 50 83 51 46 52 47 53
REMARK SMILES IDX 62 55 84 56 49 57 32 58 33 59 42 60 34 61 35 62 41 63 43 64
REMARK SMILES IDX 36 65 37 66 38 67 39 68 40 69 66 70 67 71 76 72 68 73 69 74
REMARK SMILES IDX 75 75 77 76 70 77 71 78 72 79 73 80 74 81 50 82 51 83 60 84
REMARK SMILES IDX 52 85 53 86 59 87 61 88 54 89 55 90 56 91 57 92 58 93
REMARK H PARENT 82 43 48 54
REMARK Flexibility Score: inf
ROOT
ATOM      1  C   UNL A   1      34.202  32.929  28.664  1.00  0.00     0.274 C 
ENDROOT
BRANCH   1   2
ATOM      2  O   UNL A   1      34.019  32.862  30.090  1.00  0.00    -0.462 OA
BRANCH   2   3
ATOM      3  C   UNL A   1      34.649  33.812  30.831  1.00  0.00     0.313 C 
ATOM      4  O   UNL A   1      34.349  35.001  30.824  1.00  0.00    -0.252 OA
BRANCH   3   5
ATOM      5  C   UNL A   1      35.826  33.281  31.640  1.00  0.00     0.126 C 
ATOM      6  C   UNL A   1      35.634  33.623  33.116  1.00  0.00     0.025 C 
BRANCH   5   7
ATOM      7  C   UNL A   1      37.210  33.653  31.133  1.00  0.00    -0.034 A 
ATOM      8  C   UNL A   1      39.812  34.401  30.251  1.00  0.00    -0.018 A 
ATOM      9  C   UNL A   1      38.733  34.334  29.358  1.00  0.00     0.009 A 
ATOM     10  C   UNL A   1      39.568  34.068  31.591  1.00  0.00     0.009 A 
ATOM     11  C   UNL A   1      37.451  33.970  29.790  1.00  0.00     0.005 A 
ATOM     12  C   UNL A   1      38.289  33.701  32.026  1.00  0.00     0.005 A 
BRANCH   8  13
ATOM     13  C   UNL A   1      41.149  34.836  29.809  1.00  0.00    -0.018 A 
ATOM     14  C   UNL A   1      42.707  35.469  28.022  1.00  0.00    -0.044 A 
ATOM     15  C   UNL A   1      43.736  35.581  28.964  1.00  0.00     0.004 A 
ATOM     16  C   UNL A   1      41.422  35.100  28.455  1.00  0.00     0.012 A 
ATOM     17  C   UNL A   1      43.484  35.335  30.311  1.00  0.00     0.001 A 
ATOM     18  C   UNL A   1      42.204  34.965  30.727  1.00  0.00     0.009 A 
BRANCH  14  19
ATOM     19  C   UNL A   1      42.977  35.696  26.553  1.00  0.00     0.062 C 
BRANCH  19  20
ATOM     20  C   UNL A   1      43.606  34.498  25.901  1.00  0.00    -0.030 C 
ATOM     21  C   UNL A   1      43.465  34.181  24.607  1.00  0.00     0.004 C 
ENDBRANCH  19  20
ENDBRANCH  14  19
ENDBRANCH   8  13
ENDBRANCH   5   7
ENDBRANCH   3   5
ENDBRANCH   2   3
ENDBRANCH   1   2
BRANCH   1  22
ATOM     22  C   UNL A   1      34.570  31.559  28.091  1.00  0.00     0.275 C 
BRANCH  22  23
ATOM     23  O   UNL A   1      35.995  31.358  28.106  1.00  0.00    -0.458 OA
BRANCH  23  24
ATOM     24  C   UNL A   1      36.463  30.622  29.141  1.00  0.00     0.338 C 
ATOM     25  O   UNL A   1      35.834  30.192  30.090  1.00  0.00    -0.246 OA
BRANCH  24  26
ATOM     26  C   UNL A   1      37.881  30.317  28.914  1.00  0.00     0.060 A 
ATOM     27  C   UNL A   1      38.258  29.793  27.676  1.00  0.00     0.016 A 
ATOM     28  C   UNL A   1      38.816  30.467  29.939  1.00  0.00     0.016 A 
ATOM     29  C   UNL A   1      39.576  29.399  27.458  1.00  0.00     0.010 A 
ATOM     30  C   UNL A   1      40.141  30.083  29.715  1.00  0.00     0.010 A 
ATOM     31  C   UNL A   1      40.525  29.534  28.479  1.00  0.00    -0.014 A 
BRANCH  31  32
ATOM     32  C   UNL A   1      41.915  29.060  28.265  1.00  0.00     0.031 A 
ATOM     33  C   UNL A   1      43.056  30.033  28.352  1.00  0.00     0.074 A 
ATOM     34  C   UNL A   1      42.146  27.761  28.003  1.00  0.00     0.049 A 
ATOM     35  N   UNL A   1      44.327  29.838  28.115  1.00  0.00    -0.248 NA
ATOM     36  C   UNL A   1      42.723  31.409  28.755  1.00  0.00     0.031 C 
ATOM     37  C   UNL A   1      41.122  26.719  27.931  1.00  0.00     0.029 A 
ATOM     38  N   UNL A   1      43.318  27.098  27.742  1.00  0.00    -0.354 N 
ATOM     39  C   UNL A   1      44.944  31.068  28.313  1.00  0.00     0.074 A 
ATOM     40  C   UNL A   1      43.905  32.005  28.684  1.00  0.00     0.031 C 
ATOM     41  C   UNL A   1      41.710  25.545  27.645  1.00  0.00     0.029 A 
ATOM     42  C   UNL A   1      43.145  25.760  27.473  1.00  0.00     0.049 A 
ATOM     43  H   UNL A   1      44.199  27.537  27.746  1.00  0.00     0.167 HD
ATOM     44  C   UNL A   1      46.255  31.382  28.197  1.00  0.00     0.037 A 
ATOM     45  C   UNL A   1      44.038  24.823  27.103  1.00  0.00     0.037 A 
ATOM     46  C   UNL A   1      47.286  30.437  27.851  1.00  0.00     0.049 A 
ATOM     47  C   UNL A   1      45.483  25.208  26.941  1.00  0.00     0.074 A 
ATOM     48  C   UNL A   1      48.649  30.653  27.737  1.00  0.00     0.029 A 
ATOM     49  N   UNL A   1      47.068  29.098  27.564  1.00  0.00    -0.354 N 
ATOM     50  N   UNL A   1      46.052  26.374  27.134  1.00  0.00    -0.248 NA
ATOM     51  C   UNL A   1      46.407  24.152  26.503  1.00  0.00     0.031 C 
ATOM     52  C   UNL A   1      49.252  29.451  27.349  1.00  0.00     0.029 A 
ATOM     53  C   UNL A   1      48.268  28.479  27.255  1.00  0.00     0.049 A 
ATOM     54  H   UNL A   1      46.191  28.653  27.579  1.00  0.00     0.167 HD
ATOM     55  C   UNL A   1      47.401  26.189  26.858  1.00  0.00     0.074 A 
ATOM     56  C   UNL A   1      47.566  24.795  26.494  1.00  0.00     0.031 C 
ATOM     57  C   UNL A   1      48.413  27.090  26.901  1.00  0.00     0.037 A 
BRANCH  44  58
ATOM     58  C   UNL A   1      46.650  32.814  28.416  1.00  0.00     0.058 A 
ATOM     59  C   UNL A   1      46.783  33.715  27.349  1.00  0.00     0.135 A 
ATOM     60  C   UNL A   1      46.864  33.299  29.716  1.00  0.00     0.135 A 
ATOM     61  F   UNL A   1      46.606  33.298  26.086  1.00  0.00    -0.206 F 
ATOM     62  C   UNL A   1      47.136  35.044  27.562  1.00  0.00     0.059 A 
ATOM     63  C   UNL A   1      47.199  34.627  29.954  1.00  0.00     0.059 A 
ATOM     64  F   UNL A   1      46.752  32.475  30.771  1.00  0.00    -0.206 F 
ATOM     65  C   UNL A   1      47.346  35.490  28.868  1.00  0.00     0.060 A 
BRANCH  65  66
ATOM     66  S   UNL A   1      47.801  37.217  29.134  1.00  0.00     0.124 S 
ATOM     67  O   UNL A   1      48.846  37.089  30.145  1.00  0.00    -0.237 OA
ATOM     68  O   UNL A   1      48.250  37.632  27.808  1.00  0.00    -0.237 OA
ATOM     69  O   UNL A   1      46.558  37.831  29.590  1.00  0.00    -0.744 OA
ENDBRANCH  65  66
ENDBRANCH  44  58
BRANCH  45  70
ATOM     70  C   UNL A   1      43.589  23.431  26.841  1.00  0.00     0.058 A 
ATOM     71  C   UNL A   1      43.502  22.935  25.533  1.00  0.00     0.135 A 
ATOM     72  C   UNL A   1      43.243  22.569  27.894  1.00  0.00     0.135 A 
ATOM     73  F   UNL A   1      43.813  23.725  24.494  1.00  0.00    -0.206 F 
ATOM     74  C   UNL A   1      43.075  21.636  25.274  1.00  0.00     0.059 A 
ATOM     75  C   UNL A   1      42.835  21.261  27.662  1.00  0.00     0.059 A 
ATOM     76  F   UNL A   1      43.320  22.995  29.165  1.00  0.00    -0.206 F 
ATOM     77  C   UNL A   1      42.743  20.807  26.347  1.00  0.00     0.060 A 
BRANCH  77  78
ATOM     78  S   UNL A   1      42.234  19.107  26.008  1.00  0.00     0.124 S 
ATOM     79  O   UNL A   1      40.794  19.262  25.838  1.00  0.00    -0.237 OA
ATOM     80  O   UNL A   1      42.989  18.791  24.800  1.00  0.00    -0.237 OA
ATOM     81  O   UNL A   1      42.656  18.388  27.207  1.00  0.00    -0.744 OA
ENDBRANCH  77  78
ENDBRANCH  45  70
BRANCH  57  82
ATOM     82  C   UNL A   1      49.791  26.592  26.572  1.00  0.00     0.058 A 
ATOM     83  C   UNL A   1      50.587  25.950  27.532  1.00  0.00     0.135 A 
ATOM     84  C   UNL A   1      50.300  26.718  25.270  1.00  0.00     0.135 A 
ATOM     85  F   UNL A   1      50.146  25.812  28.793  1.00  0.00    -0.206 F 
ATOM     86  C   UNL A   1      51.851  25.463  27.217  1.00  0.00     0.059 A 
ATOM     87  C   UNL A   1      51.554  26.221  24.928  1.00  0.00     0.059 A 
ATOM     88  F   UNL A   1      49.573  27.318  24.315  1.00  0.00    -0.206 F 
ATOM     89  C   UNL A   1      52.327  25.605  25.912  1.00  0.00     0.060 A 
BRANCH  89  90
ATOM     90  S   UNL A   1      53.955  24.940  25.500  1.00  0.00     0.124 S 
ATOM     91  O   UNL A   1      53.666  23.514  25.384  1.00  0.00    -0.237 OA
ATOM     92  O   UNL A   1      54.270  25.625  24.251  1.00  0.00    -0.237 OA
ATOM     93  O   UNL A   1      54.775  25.325  26.644  1.00  0.00    -0.744 OA
ENDBRANCH  89  90
ENDBRANCH  57  82
ENDBRANCH  31  32
ENDBRANCH  24  26
ENDBRANCH  23  24
ENDBRANCH  22  23
ENDBRANCH   1  22
TORSDOF 18
ENDMDL
MODEL 2
REMARK VINA RESULT:      -9.7      2.704      4.189
REMARK SMILES C=CCc1cccc(-c2ccc([C@@H](C)C(=O)OCCOC(=O)c3ccc(-c4c5nc(c(-c6c(F)cc(S(=O)(=O)[O-])cc6F)c6ccc([nH]6)c(-c6c(F)cc(S(=O)(=O)[O-])cc6F)c6nc(c(-c7c(F)cc(S(=O)(=O)[O-])cc7F)c7ccc4[nH]7)C=C6)C=C5)cc3)cc2)c1
REMARK SMILES IDX 18 1 17 2 15 3 16 4 13 5 14 6 12 7 9 8 10 9 90 10 11 11
REMARK SMILES IDX 89 12 8 13 4 14 5 15 91 16 6 17 7 18 3 19 2 20 1 21 19 22
REMARK SMILES IDX 20 23 21 24 22 25 23 26 24 27 88 28 25 29 87 30 26 31 27 32
REMARK SMILES IDX 28 33 81 34 29 35 86 36 80 37 82 38 30 39 85 40 79 41 78 42
REMARK SMILES IDX 31 44 65 45 44 46 64 47 45 48 48 49 63 50 83 51 46 52 47 53
REMARK SMILES IDX 62 55 84 56 49 57 32 58 33 59 42 60 34 61 35 62 41 63 43 64
REMARK SMILES IDX 36 65 37 66 38 67 39 68 40 69 66 70 67 71 76 72 68 73 69 74
REMARK SMILES IDX 75 75 77 76 70 77 71 78 72 79 73 80 74 81 50 82 51 83 60 84
REMARK SMILES IDX 52 85 53 86 59 87 61 88 54 89 55 90 56 91 57 92 58 93
REMARK H PARENT 82 43 48 54
REMARK Flexibility Score: inf
ROOT
ATOM      1  C   UNL A   1      34.478  34.138  29.033  1.00  0.00     0.274 C 
ENDROOT
BRANCH   1   2
ATOM      2  O   UNL A   1      33.581  34.102  30.159  1.00  0.00    -0.462 OA
BRANCH   2   3
ATOM      3  C   UNL A   1      33.440  35.256  30.863  1.00  0.00     0.313 C 
ATOM      4  O   UNL A   1      33.100  36.326  30.368  1.00  0.00    -0.252 OA
BRANCH   3   5
ATOM      5  C   UNL A   1      33.805  35.127  32.336  1.00  0.00     0.126 C 
ATOM      6  C   UNL A   1      33.810  36.508  32.990  1.00  0.00     0.025 C 
BRANCH   5   7
ATOM      7  C   UNL A   1      35.065  34.333  32.647  1.00  0.00    -0.034 A 
ATOM      8  C   UNL A   1      37.456  32.874  33.154  1.00  0.00    -0.018 A 
ATOM      9  C   UNL A   1      36.195  32.320  33.423  1.00  0.00     0.009 A 
ATOM     10  C   UNL A   1      37.498  34.179  32.645  1.00  0.00     0.009 A 
ATOM     11  C   UNL A   1      35.018  33.036  33.170  1.00  0.00     0.005 A 
ATOM     12  C   UNL A   1      36.323  34.897  32.394  1.00  0.00     0.005 A 
BRANCH   8  13
ATOM     13  C   UNL A   1      38.694  32.102  33.369  1.00  0.00    -0.018 A 
ATOM     14  C   UNL A   1      39.945  29.995  33.254  1.00  0.00    -0.044 A 
ATOM     15  C   UNL A   1      41.039  30.616  33.867  1.00  0.00     0.004 A 
ATOM     16  C   UNL A   1      38.783  30.747  33.009  1.00  0.00     0.012 A 
ATOM     17  C   UNL A   1      40.975  31.961  34.221  1.00  0.00     0.001 A 
ATOM     18  C   UNL A   1      39.813  32.695  33.976  1.00  0.00     0.009 A 
BRANCH  14  19
ATOM     19  C   UNL A   1      39.988  28.527  32.900  1.00  0.00     0.062 C 
BRANCH  19  20
ATOM     20  C   UNL A   1      41.351  27.932  33.117  1.00  0.00    -0.030 C 
ATOM     21  C   UNL A   1      41.780  27.434  34.285  1.00  0.00     0.004 C 
ENDBRANCH  19  20
ENDBRANCH  14  19
ENDBRANCH   8  13
ENDBRANCH   5   7
ENDBRANCH   3   5
ENDBRANCH   2   3
ENDBRANCH   1   2
BRANCH   1  22
ATOM     22  C   UNL A   1      34.299  32.904  28.147  1.00  0.00     0.275 C 
BRANCH  22  23
ATOM     23  O   UNL A   1      34.300  31.698  28.932  1.00  0.00    -0.458 OA
BRANCH  23  24
ATOM     24  C   UNL A   1      34.457  30.553  28.229  1.00  0.00     0.338 C 
ATOM     25  O   UNL A   1      33.642  30.005  27.510  1.00  0.00    -0.246 OA
BRANCH  24  26
ATOM     26  C   UNL A   1      35.837  30.078  28.383  1.00  0.00     0.060 A 
ATOM     27  C   UNL A   1      36.272  29.697  29.654  1.00  0.00     0.016 A 
ATOM     28  C   UNL A   1      36.720  30.086  27.301  1.00  0.00     0.016 A 
ATOM     29  C   UNL A   1      37.601  29.335  29.857  1.00  0.00     0.010 A 
ATOM     30  C   UNL A   1      38.051  29.712  27.504  1.00  0.00     0.010 A 
ATOM     31  C   UNL A   1      38.503  29.348  28.785  1.00  0.00    -0.014 A 
BRANCH  31  32
ATOM     32  C   UNL A   1      39.931  29.019  29.014  1.00  0.00     0.031 A 
ATOM     33  C   UNL A   1      40.854  30.058  29.582  1.00  0.00     0.074 A 
ATOM     34  C   UNL A   1      40.389  27.789  28.718  1.00  0.00     0.049 A 
ATOM     35  N   UNL A   1      42.146  29.997  29.776  1.00  0.00    -0.248 NA
ATOM     36  C   UNL A   1      40.245  31.337  29.982  1.00  0.00     0.031 C 
ATOM     37  C   UNL A   1      39.578  26.688  28.197  1.00  0.00     0.029 A 
ATOM     38  N   UNL A   1      41.651  27.260  28.810  1.00  0.00    -0.354 N 
ATOM     39  C   UNL A   1      42.511  31.234  30.295  1.00  0.00     0.074 A 
ATOM     40  C   UNL A   1      41.304  32.028  30.379  1.00  0.00     0.031 C 
ATOM     41  C   UNL A   1      40.364  25.613  28.015  1.00  0.00     0.029 A 
ATOM     42  C   UNL A   1      41.738  25.962  28.366  1.00  0.00     0.049 A 
ATOM     43  H   UNL A   1      42.422  27.763  29.159  1.00  0.00     0.167 HD
ATOM     44  C   UNL A   1      43.740  31.663  30.667  1.00  0.00     0.037 A 
ATOM     45  C   UNL A   1      42.808  25.156  28.233  1.00  0.00     0.037 A 
ATOM     46  C   UNL A   1      44.932  30.858  30.602  1.00  0.00     0.049 A 
ATOM     47  C   UNL A   1      44.169  25.672  28.615  1.00  0.00     0.074 A 
ATOM     48  C   UNL A   1      46.220  31.193  30.984  1.00  0.00     0.029 A 
ATOM     49  N   UNL A   1      44.983  29.555  30.127  1.00  0.00    -0.354 N 
ATOM     50  N   UNL A   1      44.499  26.843  29.106  1.00  0.00    -0.248 NA
ATOM     51  C   UNL A   1      45.305  24.760  28.416  1.00  0.00     0.031 C 
ATOM     52  C   UNL A   1      47.056  30.105  30.708  1.00  0.00     0.029 A 
ATOM     53  C   UNL A   1      46.283  29.080  30.187  1.00  0.00     0.049 A 
ATOM     54  H   UNL A   1      44.210  29.045  29.796  1.00  0.00     0.167 HD
ATOM     55  C   UNL A   1      45.875  26.803  29.291  1.00  0.00     0.074 A 
ATOM     56  C   UNL A   1      46.317  25.488  28.869  1.00  0.00     0.031 C 
ATOM     57  C   UNL A   1      46.701  27.767  29.767  1.00  0.00     0.037 A 
BRANCH  44  58
ATOM     58  C   UNL A   1      43.865  33.079  31.149  1.00  0.00     0.058 A 
ATOM     59  C   UNL A   1      43.867  34.165  30.260  1.00  0.00     0.135 A 
ATOM     60  C   UNL A   1      43.952  33.355  32.523  1.00  0.00     0.135 A 
ATOM     61  F   UNL A   1      43.803  33.955  28.936  1.00  0.00    -0.206 F 
ATOM     62  C   UNL A   1      43.970  35.475  30.716  1.00  0.00     0.059 A 
ATOM     63  C   UNL A   1      44.037  34.658  33.003  1.00  0.00     0.059 A 
ATOM     64  F   UNL A   1      43.959  32.350  33.414  1.00  0.00    -0.206 F 
ATOM     65  C   UNL A   1      44.058  35.712  32.090  1.00  0.00     0.060 A 
BRANCH  65  66
ATOM     66  S   UNL A   1      44.190  37.416  32.671  1.00  0.00     0.124 S 
ATOM     67  O   UNL A   1      44.152  38.155  31.413  1.00  0.00    -0.237 OA
ATOM     68  O   UNL A   1      43.011  37.551  33.521  1.00  0.00    -0.237 OA
ATOM     69  O   UNL A   1      45.469  37.438  33.373  1.00  0.00    -0.744 OA
ENDBRANCH  65  66
ENDBRANCH  44  58
BRANCH  45  70
ATOM     70  C   UNL A   1      42.641  23.780  27.697  1.00  0.00     0.058 A 
ATOM     71  C   UNL A   1      42.667  23.537  26.316  1.00  0.00     0.135 A 
ATOM     72  C   UNL A   1      42.456  22.684  28.553  1.00  0.00     0.135 A 
ATOM     73  F   UNL A   1      42.831  24.555  25.458  1.00  0.00    -0.206 F 
ATOM     74  C   UNL A   1      42.503  22.255  25.801  1.00  0.00     0.059 A 
ATOM     75  C   UNL A   1      42.313  21.391  28.063  1.00  0.00     0.059 A 
ATOM     76  F   UNL A   1      42.435  22.866  29.883  1.00  0.00    -0.206 F 
ATOM     77  C   UNL A   1      42.326  21.188  26.684  1.00  0.00     0.060 A 
BRANCH  77  78
ATOM     78  S   UNL A   1      42.160  19.520  26.012  1.00  0.00     0.124 S 
ATOM     79  O   UNL A   1      42.624  18.707  27.130  1.00  0.00    -0.237 OA
ATOM     80  O   UNL A   1      40.733  19.444  25.717  1.00  0.00    -0.237 OA
ATOM     81  O   UNL A   1      43.032  19.543  24.842  1.00  0.00    -0.744 OA
ENDBRANCH  77  78
ENDBRANCH  45  70
BRANCH  57  82
ATOM     82  C   UNL A   1      48.159  27.428  29.882  1.00  0.00     0.058 A 
ATOM     83  C   UNL A   1      49.067  27.737  28.859  1.00  0.00     0.135 A 
ATOM     84  C   UNL A   1      48.659  26.827  31.049  1.00  0.00     0.135 A 
ATOM     85  F   UNL A   1      48.635  28.305  27.722  1.00  0.00    -0.206 F 
ATOM     86  C   UNL A   1      50.422  27.448  28.980  1.00  0.00     0.059 A 
ATOM     87  C   UNL A   1      50.013  26.547  31.200  1.00  0.00     0.059 A 
ATOM     88  F   UNL A   1      47.831  26.519  32.059  1.00  0.00    -0.206 F 
ATOM     89  C   UNL A   1      50.886  26.851  30.155  1.00  0.00     0.060 A 
BRANCH  89  90
ATOM     90  S   UNL A   1      52.651  26.510  30.321  1.00  0.00     0.124 S 
ATOM     91  O   UNL A   1      53.159  27.807  30.757  1.00  0.00    -0.237 OA
ATOM     92  O   UNL A   1      52.676  25.451  31.325  1.00  0.00    -0.237 OA
ATOM     93  O   UNL A   1      53.044  26.101  28.977  1.00  0.00    -0.744 OA
ENDBRANCH  89  90
ENDBRANCH  57  82
ENDBRANCH  31  32
ENDBRANCH  24  26
ENDBRANCH  23  24
ENDBRANCH  22  23
ENDBRANCH   1  22
TORSDOF 18
ENDMDL
MODEL 3
REMARK VINA RESULT:      -9.5      2.423      9.818
REMARK SMILES C=CCc1cccc(-c2ccc([C@@H](C)C(=O)OCCOC(=O)c3ccc(-c4c5nc(c(-c6c(F)cc(S(=O)(=O)[O-])cc6F)c6ccc([nH]6)c(-c6c(F)cc(S(=O)(=O)[O-])cc6F)c6nc(c(-c7c(F)cc(S(=O)(=O)[O-])cc7F)c7ccc4[nH]7)C=C6)C=C5)cc3)cc2)c1
REMARK SMILES IDX 18 1 17 2 15 3 16 4 13 5 14 6 12 7 9 8 10 9 90 10 11 11
REMARK SMILES IDX 89 12 8 13 4 14 5 15 91 16 6 17 7 18 3 19 2 20 1 21 19 22
REMARK SMILES IDX 20 23 21 24 22 25 23 26 24 27 88 28 25 29 87 30 26 31 27 32
REMARK SMILES IDX 28 33 81 34 29 35 86 36 80 37 82 38 30 39 85 40 79 41 78 42
REMARK SMILES IDX 31 44 65 45 44 46 64 47 45 48 48 49 63 50 83 51 46 52 47 53
REMARK SMILES IDX 62 55 84 56 49 57 32 58 33 59 42 60 34 61 35 62 41 63 43 64
REMARK SMILES IDX 36 65 37 66 38 67 39 68 40 69 66 70 67 71 76 72 68 73 69 74
REMARK SMILES IDX 75 75 77 76 70 77 71 78 72 79 73 80 74 81 50 82 51 83 60 84
REMARK SMILES IDX 52 85 53 86 59 87 61 88 54 89 55 90 56 91 57 92 58 93
REMARK H PARENT 82 43 48 54
REMARK Flexibility Score: inf
ROOT
ATOM      1  C   UNL A   1      35.392  33.465  32.022  1.00  0.00     0.274 C 
ENDROOT
BRANCH   1   2
ATOM      2  O   UNL A   1      34.471  32.843  31.108  1.00  0.00    -0.462 OA
BRANCH   2   3
ATOM      3  C   UNL A   1      34.561  33.215  29.804  1.00  0.00     0.313 C 
ATOM      4  O   UNL A   1      34.084  34.249  29.349  1.00  0.00    -0.252 OA
BRANCH   3   5
ATOM      5  C   UNL A   1      35.262  32.192  28.920  1.00  0.00     0.126 C 
ATOM      6  C   UNL A   1      36.254  32.899  27.998  1.00  0.00     0.025 C 
BRANCH   5   7
ATOM      7  C   UNL A   1      34.360  31.225  28.169  1.00  0.00    -0.034 A 
ATOM      8  C   UNL A   1      32.740  29.384  26.723  1.00  0.00    -0.018 A 
ATOM      9  C   UNL A   1      32.345  30.718  26.900  1.00  0.00     0.009 A 
ATOM     10  C   UNL A   1      33.953  28.984  27.300  1.00  0.00     0.009 A 
ATOM     11  C   UNL A   1      33.142  31.626  27.607  1.00  0.00     0.005 A 
ATOM     12  C   UNL A   1      34.751  29.888  28.010  1.00  0.00     0.005 A 
BRANCH   8  13
ATOM     13  C   UNL A   1      31.928  28.441  25.933  1.00  0.00    -0.018 A 
ATOM     14  C   UNL A   1      30.761  27.844  23.858  1.00  0.00    -0.044 A 
ATOM     15  C   UNL A   1      30.299  26.669  24.461  1.00  0.00     0.004 A 
ATOM     16  C   UNL A   1      31.574  28.718  24.601  1.00  0.00     0.012 A 
ATOM     17  C   UNL A   1      30.648  26.370  25.776  1.00  0.00     0.001 A 
ATOM     18  C   UNL A   1      31.453  27.249  26.503  1.00  0.00     0.009 A 
BRANCH  14  19
ATOM     19  C   UNL A   1      30.359  28.198  22.446  1.00  0.00     0.062 C 
BRANCH  19  20
ATOM     20  C   UNL A   1      29.301  29.264  22.408  1.00  0.00    -0.030 C 
ATOM     21  C   UNL A   1      28.104  29.161  23.002  1.00  0.00     0.004 C 
ENDBRANCH  19  20
ENDBRANCH  14  19
ENDBRANCH   8  13
ENDBRANCH   5   7
ENDBRANCH   3   5
ENDBRANCH   2   3
ENDBRANCH   1   2
BRANCH   1  22
ATOM     22  C   UNL A   1      36.275  32.423  32.710  1.00  0.00     0.275 C 
BRANCH  22  23
ATOM     23  O   UNL A   1      37.269  31.910  31.805  1.00  0.00    -0.458 OA
BRANCH  23  24
ATOM     24  C   UNL A   1      37.180  30.586  31.540  1.00  0.00     0.338 C 
ATOM     25  O   UNL A   1      36.233  29.850  31.748  1.00  0.00    -0.246 OA
BRANCH  24  26
ATOM     26  C   UNL A   1      38.401  30.147  30.854  1.00  0.00     0.060 A 
ATOM     27  C   UNL A   1      39.474  29.699  31.627  1.00  0.00     0.016 A 
ATOM     28  C   UNL A   1      38.518  30.254  29.467  1.00  0.00     0.016 A 
ATOM     29  C   UNL A   1      40.681  29.368  31.018  1.00  0.00     0.010 A 
ATOM     30  C   UNL A   1      39.727  29.910  28.856  1.00  0.00     0.010 A 
ATOM     31  C   UNL A   1      40.820  29.479  29.629  1.00  0.00    -0.014 A 
BRANCH  31  32
ATOM     32  C   UNL A   1      42.124  29.182  28.988  1.00  0.00     0.031 A 
ATOM     33  C   UNL A   1      42.397  27.806  28.452  1.00  0.00     0.074 A 
ATOM     34  C   UNL A   1      43.054  30.150  28.884  1.00  0.00     0.049 A 
ATOM     35  N   UNL A   1      43.496  27.323  27.937  1.00  0.00    -0.248 NA
ATOM     36  C   UNL A   1      41.284  26.843  28.507  1.00  0.00     0.031 C 
ATOM     37  C   UNL A   1      42.888  31.532  29.333  1.00  0.00     0.029 A 
ATOM     38  N   UNL A   1      44.324  30.115  28.370  1.00  0.00    -0.354 N 
ATOM     39  C   UNL A   1      43.222  25.996  27.629  1.00  0.00     0.074 A 
ATOM     40  C   UNL A   1      41.851  25.747  28.022  1.00  0.00     0.031 C 
ATOM     41  C   UNL A   1      44.016  32.215  29.075  1.00  0.00     0.029 A 
ATOM     42  C   UNL A   1      44.996  31.310  28.482  1.00  0.00     0.049 A 
ATOM     43  H   UNL A   1      44.719  29.312  27.960  1.00  0.00     0.167 HD
ATOM     44  C   UNL A   1      44.039  25.073  27.070  1.00  0.00     0.037 A 
ATOM     45  C   UNL A   1      46.265  31.629  28.166  1.00  0.00     0.037 A 
ATOM     46  C   UNL A   1      45.395  25.336  26.659  1.00  0.00     0.049 A 
ATOM     47  C   UNL A   1      47.165  30.574  27.583  1.00  0.00     0.074 A 
ATOM     48  C   UNL A   1      46.294  24.473  26.055  1.00  0.00     0.029 A 
ATOM     49  N   UNL A   1      46.046  26.551  26.809  1.00  0.00    -0.354 N 
ATOM     50  N   UNL A   1      46.892  29.323  27.296  1.00  0.00    -0.248 NA
ATOM     51  C   UNL A   1      48.551  30.970  27.290  1.00  0.00     0.031 C 
ATOM     52  C   UNL A   1      47.501  25.158  25.870  1.00  0.00     0.029 A 
ATOM     53  C   UNL A   1      47.341  26.457  26.328  1.00  0.00     0.049 A 
ATOM     54  H   UNL A   1      45.647  27.361  27.200  1.00  0.00     0.167 HD
ATOM     55  C   UNL A   1      48.062  28.788  26.773  1.00  0.00     0.074 A 
ATOM     56  C   UNL A   1      49.046  29.853  26.773  1.00  0.00     0.031 C 
ATOM     57  C   UNL A   1      48.303  27.529  26.332  1.00  0.00     0.037 A 
BRANCH  44  58
ATOM     58  C   UNL A   1      43.502  23.683  26.895  1.00  0.00     0.058 A 
ATOM     59  C   UNL A   1      43.340  22.811  27.983  1.00  0.00     0.135 A 
ATOM     60  C   UNL A   1      43.112  23.228  25.625  1.00  0.00     0.135 A 
ATOM     61  F   UNL A   1      43.712  23.190  29.215  1.00  0.00    -0.206 F 
ATOM     62  C   UNL A   1      42.828  21.528  27.814  1.00  0.00     0.059 A 
ATOM     63  C   UNL A   1      42.580  21.957  25.436  1.00  0.00     0.059 A 
ATOM     64  F   UNL A   1      43.250  24.023  24.551  1.00  0.00    -0.206 F 
ATOM     65  C   UNL A   1      42.454  21.108  26.536  1.00  0.00     0.060 A 
BRANCH  65  66
ATOM     66  S   UNL A   1      41.790  19.443  26.328  1.00  0.00     0.124 S 
ATOM     67  O   UNL A   1      42.144  18.828  27.604  1.00  0.00    -0.237 OA
ATOM     68  O   UNL A   1      40.367  19.695  26.120  1.00  0.00    -0.237 OA
ATOM     69  O   UNL A   1      42.508  18.932  25.165  1.00  0.00    -0.744 OA
ENDBRANCH  65  66
ENDBRANCH  44  58
BRANCH  45  70
ATOM     70  C   UNL A   1      46.769  33.005  28.411  1.00  0.00     0.058 A 
ATOM     71  C   UNL A   1      47.338  33.356  29.644  1.00  0.00     0.135 A 
ATOM     72  C   UNL A   1      46.695  33.993  27.418  1.00  0.00     0.135 A 
ATOM     73  F   UNL A   1      47.421  32.447  30.627  1.00  0.00    -0.206 F 
ATOM     74  C   UNL A   1      47.805  34.643  29.889  1.00  0.00     0.059 A 
ATOM     75  C   UNL A   1      47.175  35.281  27.631  1.00  0.00     0.059 A 
ATOM     76  F   UNL A   1      46.169  33.703  26.217  1.00  0.00    -0.206 F 
ATOM     77  C   UNL A   1      47.719  35.599  28.875  1.00  0.00     0.060 A 
BRANCH  77  78
ATOM     78  S   UNL A   1      48.369  37.256  29.182  1.00  0.00     0.124 S 
ATOM     79  O   UNL A   1      49.675  36.956  29.757  1.00  0.00    -0.237 OA
ATOM     80  O   UNL A   1      48.380  37.839  27.844  1.00  0.00    -0.237 OA
ATOM     81  O   UNL A   1      47.391  37.833  30.099  1.00  0.00    -0.744 OA
ENDBRANCH  77  78
ENDBRANCH  45  70
BRANCH  57  82
ATOM     82  C   UNL A   1      49.673  27.242  25.789  1.00  0.00     0.058 A 
ATOM     83  C   UNL A   1      50.719  26.819  26.623  1.00  0.00     0.135 A 
ATOM     84  C   UNL A   1      49.929  27.347  24.412  1.00  0.00     0.135 A 
ATOM     85  F   UNL A   1      50.525  26.711  27.947  1.00  0.00    -0.206 F 
ATOM     86  C   UNL A   1      51.979  26.526  26.113  1.00  0.00     0.059 A 
ATOM     87  C   UNL A   1      51.176  27.039  23.878  1.00  0.00     0.059 A 
ATOM     88  F   UNL A   1      48.958  27.740  23.572  1.00  0.00    -0.206 F 
ATOM     89  C   UNL A   1      52.198  26.640  24.738  1.00  0.00     0.060 A 
BRANCH  89  90
ATOM     90  S   UNL A   1      53.827  26.224  24.078  1.00  0.00     0.124 S 
ATOM     91  O   UNL A   1      54.592  27.421  24.410  1.00  0.00    -0.237 OA
ATOM     92  O   UNL A   1      54.175  25.022  24.830  1.00  0.00    -0.237 OA
ATOM     93  O   UNL A   1      53.571  26.014  22.657  1.00  0.00    -0.744 OA
ENDBRANCH  89  90
ENDBRANCH  57  82
ENDBRANCH  31  32
ENDBRANCH  24  26
ENDBRANCH  23  24
ENDBRANCH  22  23
ENDBRANCH   1  22
TORSDOF 18
ENDMDL
