MODEL 1
REMARK VINA RESULT:     -12.5      0.000      0.000
REMARK SMILES Cc1ccc(OCC(=O)NNC(=O)[C@H]2CCCC[C@@H]2C(=O)OCCOC(=O)c2ccc(-c3c4nc(c(-c5c(F)cc(S(=O)(=O)[O-])cc5F)c5ccc([nH]5)c(-c5c(F)cc(S(=O)(=O)[O-])cc5F)c5nc(c(-c6c(F)cc(S(=O)(=O)[O-])cc6F)c6ccc3[nH]6)C=C5)C=C4)cc2)cc1
REMARK SMILES IDX 23 1 22 2 20 3 21 4 19 5 14 6 15 7 16 8 18 9 17 10 12 11
REMARK SMILES IDX 11 12 13 14 10 15 8 16 9 17 7 19 6 20 5 21 1 22 2 23 3 24
REMARK SMILES IDX 95 25 4 26 94 27 24 28 25 29 26 30 27 31 28 32 29 33 93 34
REMARK SMILES IDX 30 35 92 36 31 37 32 38 33 39 86 40 34 41 91 42 85 43 87 44
REMARK SMILES IDX 35 45 90 46 84 47 83 48 36 50 70 51 49 52 69 53 50 54 53 55
REMARK SMILES IDX 68 56 88 57 51 58 52 59 67 61 89 62 54 63 37 64 38 65 47 66
REMARK SMILES IDX 39 67 40 68 46 69 48 70 41 71 42 72 43 73 44 74 45 75 71 76
REMARK SMILES IDX 72 77 81 78 73 79 74 80 80 81 82 82 75 83 76 84 77 85 78 86
REMARK SMILES IDX 79 87 55 88 56 89 65 90 57 91 58 92 64 93 66 94 59 95 60 96
REMARK SMILES IDX 61 97 62 98 63 99
REMARK H PARENT 11 13 10 18 87 49 53 60
REMARK Flexibility Score: inf
ROOT
ATOM      1  C   UNL A   1      37.528  23.066  25.885  1.00  0.00     0.274 C 
ENDROOT
BRANCH   1   2
ATOM      2  O   UNL A   1      36.410  22.153  25.865  1.00  0.00    -0.462 OA
BRANCH   2   3
ATOM      3  C   UNL A   1      35.188  22.756  25.815  1.00  0.00     0.309 C 
ATOM      4  O   UNL A   1      34.683  23.322  26.776  1.00  0.00    -0.252 OA
BRANCH   3   5
ATOM      5  C   UNL A   1      34.469  22.524  24.485  1.00  0.00     0.111 C 
ATOM      6  C   UNL A   1      32.999  22.992  24.510  1.00  0.00     0.094 C 
ATOM      7  C   UNL A   1      32.118  22.111  25.426  1.00  0.00     0.014 C 
ATOM      8  C   UNL A   1      32.296  20.602  25.231  1.00  0.00     0.001 C 
ATOM      9  C   UNL A   1      34.580  21.025  24.171  1.00  0.00     0.016 C 
ATOM     10  C   UNL A   1      33.747  20.152  25.113  1.00  0.00     0.001 C 
BRANCH   6  11
ATOM     11  C   UNL A   1      32.371  23.015  23.114  1.00  0.00     0.242 C 
ATOM     12  N   UNL A   1      31.084  23.423  22.911  1.00  0.00    -0.267 N 
ATOM     13  H   UNL A   1      30.650  23.103  22.087  1.00  0.00     0.191 HD
ATOM     14  O   UNL A   1      32.987  22.626  22.115  1.00  0.00    -0.273 OA
BRANCH  12  15
ATOM     15  N   UNL A   1      30.313  24.240  23.738  1.00  0.00    -0.265 N 
ATOM     16  C   UNL A   1      30.336  25.617  23.604  1.00  0.00     0.276 C 
ATOM     17  O   UNL A   1      29.620  26.365  24.272  1.00  0.00    -0.269 OA
ATOM     18  H   UNL A   1      29.743  23.830  24.427  1.00  0.00     0.191 HD
BRANCH  16  19
ATOM     19  C   UNL A   1      31.251  26.223  22.525  1.00  0.00     0.331 C 
BRANCH  19  20
ATOM     20  O   UNL A   1      32.631  26.357  22.819  1.00  0.00    -0.484 OA
BRANCH  20  21
ATOM     21  C   UNL A   1      32.971  27.090  23.922  1.00  0.00     0.120 A 
ATOM     22  C   UNL A   1      33.920  29.761  27.172  1.00  0.00     0.044 C 
ATOM     23  C   UNL A   1      33.590  28.831  26.045  1.00  0.00    -0.051 A 
ATOM     24  C   UNL A   1      32.999  29.322  24.876  1.00  0.00     0.007 A 
ATOM     25  C   UNL A   1      33.860  27.464  26.143  1.00  0.00     0.007 A 
ATOM     26  C   UNL A   1      32.697  28.455  23.821  1.00  0.00     0.047 A 
ATOM     27  C   UNL A   1      33.550  26.599  25.091  1.00  0.00     0.047 A 
ENDBRANCH  20  21
ENDBRANCH  19  20
ENDBRANCH  16  19
ENDBRANCH  12  15
ENDBRANCH   6  11
ENDBRANCH   3   5
ENDBRANCH   2   3
ENDBRANCH   1   2
BRANCH   1  28
ATOM     28  C   UNL A   1      38.858  22.328  26.115  1.00  0.00     0.275 C 
BRANCH  28  29
ATOM     29  O   UNL A   1      39.659  22.774  27.231  1.00  0.00    -0.458 OA
BRANCH  29  30
ATOM     30  C   UNL A   1      40.595  23.722  26.946  1.00  0.00     0.338 C 
ATOM     31  O   UNL A   1      41.525  23.552  26.182  1.00  0.00    -0.246 OA
BRANCH  30  32
ATOM     32  C   UNL A   1      40.044  25.025  27.419  1.00  0.00     0.060 A 
ATOM     33  C   UNL A   1      39.296  25.033  28.598  1.00  0.00     0.016 A 
ATOM     34  C   UNL A   1      40.564  26.221  26.911  1.00  0.00     0.016 A 
ATOM     35  C   UNL A   1      39.220  26.196  29.366  1.00  0.00     0.010 A 
ATOM     36  C   UNL A   1      40.526  27.364  27.690  1.00  0.00     0.010 A 
ATOM     37  C   UNL A   1      39.907  27.338  28.945  1.00  0.00    -0.014 A 
BRANCH  37  38
ATOM     38  C   UNL A   1      39.845  28.609  29.661  1.00  0.00     0.031 A 
ATOM     39  C   UNL A   1      38.807  29.644  29.431  1.00  0.00     0.074 A 
ATOM     40  C   UNL A   1      40.884  28.838  30.492  1.00  0.00     0.049 A 
ATOM     41  N   UNL A   1      39.037  30.916  29.518  1.00  0.00    -0.248 NA
ATOM     42  C   UNL A   1      37.426  29.346  29.053  1.00  0.00     0.031 C 
ATOM     43  C   UNL A   1      41.091  29.939  31.416  1.00  0.00     0.029 A 
ATOM     44  N   UNL A   1      42.127  28.198  30.431  1.00  0.00    -0.354 N 
ATOM     45  C   UNL A   1      37.827  31.574  29.434  1.00  0.00     0.074 A 
ATOM     46  C   UNL A   1      36.867  30.565  29.048  1.00  0.00     0.031 C 
ATOM     47  C   UNL A   1      42.418  30.091  31.582  1.00  0.00     0.029 A 
ATOM     48  C   UNL A   1      43.075  29.200  30.626  1.00  0.00     0.049 A 
ATOM     49  H   UNL A   1      42.296  27.239  30.283  1.00  0.00     0.167 HD
ATOM     50  C   UNL A   1      37.713  32.868  29.848  1.00  0.00     0.037 A 
ATOM     51  C   UNL A   1      43.975  29.573  29.668  1.00  0.00     0.037 A 
ATOM     52  C   UNL A   1      38.966  33.357  30.396  1.00  0.00     0.049 A 
ATOM     53  C   UNL A   1      43.955  31.060  29.407  1.00  0.00     0.074 A 
ATOM     54  C   UNL A   1      39.478  33.350  31.683  1.00  0.00     0.029 A 
ATOM     55  N   UNL A   1      40.020  33.653  29.555  1.00  0.00    -0.354 N 
ATOM     56  N   UNL A   1      42.925  31.823  29.648  1.00  0.00    -0.248 NA
ATOM     57  C   UNL A   1      45.059  31.783  28.781  1.00  0.00     0.031 C 
ATOM     58  C   UNL A   1      40.859  33.651  31.613  1.00  0.00     0.029 A 
ATOM     59  C   UNL A   1      41.180  33.837  30.283  1.00  0.00     0.049 A 
ATOM     60  H   UNL A   1      39.955  33.722  28.575  1.00  0.00     0.167 HD
ATOM     61  C   UNL A   1      43.244  33.112  29.324  1.00  0.00     0.074 A 
ATOM     62  C   UNL A   1      44.562  33.031  28.725  1.00  0.00     0.031 C 
ATOM     63  C   UNL A   1      42.412  34.153  29.596  1.00  0.00     0.037 A 
BRANCH  50  64
ATOM     64  C   UNL A   1      36.396  33.583  30.044  1.00  0.00     0.058 A 
ATOM     65  C   UNL A   1      35.659  34.046  28.932  1.00  0.00     0.135 A 
ATOM     66  C   UNL A   1      35.821  33.854  31.301  1.00  0.00     0.135 A 
ATOM     67  F   UNL A   1      36.062  33.816  27.676  1.00  0.00    -0.206 F 
ATOM     68  C   UNL A   1      34.495  34.801  29.053  1.00  0.00     0.059 A 
ATOM     69  C   UNL A   1      34.661  34.631  31.449  1.00  0.00     0.059 A 
ATOM     70  F   UNL A   1      36.377  33.373  32.424  1.00  0.00    -0.206 F 
ATOM     71  C   UNL A   1      34.019  35.122  30.316  1.00  0.00     0.060 A 
BRANCH  71  72
ATOM     72  S   UNL A   1      32.596  36.229  30.424  1.00  0.00     0.124 S 
ATOM     73  O   UNL A   1      31.699  35.483  31.303  1.00  0.00    -0.237 OA
ATOM     74  O   UNL A   1      33.184  37.434  30.997  1.00  0.00    -0.237 OA
ATOM     75  O   UNL A   1      32.148  36.345  29.039  1.00  0.00    -0.744 OA
ENDBRANCH  71  72
ENDBRANCH  50  64
BRANCH  51  76
ATOM     76  C   UNL A   1      44.276  28.579  28.592  1.00  0.00     0.058 A 
ATOM     77  C   UNL A   1      43.831  28.794  27.273  1.00  0.00     0.135 A 
ATOM     78  C   UNL A   1      45.214  27.555  28.791  1.00  0.00     0.135 A 
ATOM     79  F   UNL A   1      42.927  29.755  27.015  1.00  0.00    -0.206 F 
ATOM     80  C   UNL A   1      44.384  28.116  26.188  1.00  0.00     0.059 A 
ATOM     81  C   UNL A   1      45.759  26.845  27.726  1.00  0.00     0.059 A 
ATOM     82  F   UNL A   1      45.691  27.290  30.014  1.00  0.00    -0.206 F 
ATOM     83  C   UNL A   1      45.373  27.164  26.426  1.00  0.00     0.060 A 
BRANCH  83  84
ATOM     84  S   UNL A   1      46.307  26.484  25.034  1.00  0.00     0.124 S 
ATOM     85  O   UNL A   1      46.284  27.600  24.098  1.00  0.00    -0.237 OA
ATOM     86  O   UNL A   1      47.593  26.188  25.656  1.00  0.00    -0.237 OA
ATOM     87  O   UNL A   1      45.506  25.313  24.666  1.00  0.00    -0.744 OA
ENDBRANCH  83  84
ENDBRANCH  51  76
BRANCH  63  88
ATOM     88  C   UNL A   1      42.725  35.585  29.312  1.00  0.00     0.058 A 
ATOM     89  C   UNL A   1      43.484  36.385  30.177  1.00  0.00     0.135 A 
ATOM     90  C   UNL A   1      42.136  36.230  28.203  1.00  0.00     0.135 A 
ATOM     91  F   UNL A   1      44.014  35.874  31.300  1.00  0.00    -0.206 F 
ATOM     92  C   UNL A   1      43.701  37.737  29.924  1.00  0.00     0.059 A 
ATOM     93  C   UNL A   1      42.299  37.588  27.958  1.00  0.00     0.059 A 
ATOM     94  F   UNL A   1      41.398  35.548  27.314  1.00  0.00    -0.206 F 
ATOM     95  C   UNL A   1      43.110  38.328  28.808  1.00  0.00     0.060 A 
BRANCH  95  96
ATOM     96  S   UNL A   1      43.397  40.074  28.478  1.00  0.00     0.124 S 
ATOM     97  O   UNL A   1      43.280  40.148  27.025  1.00  0.00    -0.237 OA
ATOM     98  O   UNL A   1      42.309  40.691  29.230  1.00  0.00    -0.237 OA
ATOM     99  O   UNL A   1      44.738  40.305  29.005  1.00  0.00    -0.744 OA
ENDBRANCH  95  96
ENDBRANCH  63  88
ENDBRANCH  37  38
ENDBRANCH  30  32
ENDBRANCH  29  30
ENDBRANCH  28  29
ENDBRANCH   1  28
TORSDOF 19
ENDMDL
MODEL 2
REMARK VINA RESULT:     -12.5      4.590     11.243
REMARK SMILES Cc1ccc(OCC(=O)NNC(=O)[C@H]2CCCC[C@@H]2C(=O)OCCOC(=O)c2ccc(-c3c4nc(c(-c5c(F)cc(S(=O)(=O)[O-])cc5F)c5ccc([nH]5)c(-c5c(F)cc(S(=O)(=O)[O-])cc5F)c5nc(c(-c6c(F)cc(S(=O)(=O)[O-])cc6F)c6ccc3[nH]6)C=C5)C=C4)cc2)cc1
REMARK SMILES IDX 23 1 22 2 20 3 21 4 19 5 14 6 15 7 16 8 18 9 17 10 12 11
REMARK SMILES IDX 11 12 13 14 10 15 8 16 9 17 7 19 6 20 5 21 1 22 2 23 3 24
REMARK SMILES IDX 95 25 4 26 94 27 24 28 25 29 26 30 27 31 28 32 29 33 93 34
REMARK SMILES IDX 30 35 92 36 31 37 32 38 33 39 86 40 34 41 91 42 85 43 87 44
REMARK SMILES IDX 35 45 90 46 84 47 83 48 36 50 70 51 49 52 69 53 50 54 53 55
REMARK SMILES IDX 68 56 88 57 51 58 52 59 67 61 89 62 54 63 37 64 38 65 47 66
REMARK SMILES IDX 39 67 40 68 46 69 48 70 41 71 42 72 43 73 44 74 45 75 71 76
REMARK SMILES IDX 72 77 81 78 73 79 74 80 80 81 82 82 75 83 76 84 77 85 78 86
REMARK SMILES IDX 79 87 55 88 56 89 65 90 57 91 58 92 64 93 66 94 59 95 60 96
REMARK SMILES IDX 61 97 62 98 63 99
REMARK H PARENT 11 13 10 18 87 49 53 60
REMARK Flexibility Score: inf
ROOT
ATOM      1  C   UNL A   1      32.796  29.847  27.218  1.00  0.00     0.274 C 
ENDROOT
BRANCH   1   2
ATOM      2  O   UNL A   1      32.544  29.526  25.834  1.00  0.00    -0.462 OA
BRANCH   2   3
ATOM      3  C   UNL A   1      33.269  28.476  25.355  1.00  0.00     0.309 C 
ATOM      4  O   UNL A   1      34.133  28.597  24.496  1.00  0.00    -0.252 OA
BRANCH   3   5
ATOM      5  C   UNL A   1      32.790  27.130  25.901  1.00  0.00     0.111 C 
ATOM      6  C   UNL A   1      33.424  25.928  25.170  1.00  0.00     0.094 C 
ATOM      7  C   UNL A   1      32.924  25.797  23.712  1.00  0.00     0.014 C 
ATOM      8  C   UNL A   1      31.406  25.910  23.541  1.00  0.00     0.001 C 
ATOM      9  C   UNL A   1      31.259  27.119  25.786  1.00  0.00     0.016 C 
ATOM     10  C   UNL A   1      30.767  27.042  24.337  1.00  0.00     0.001 C 
BRANCH   6  11
ATOM     11  C   UNL A   1      33.161  24.603  25.890  1.00  0.00     0.242 C 
ATOM     12  N   UNL A   1      33.980  23.522  25.729  1.00  0.00    -0.267 N 
ATOM     13  H   UNL A   1      33.587  22.643  25.934  1.00  0.00     0.191 HD
ATOM     14  O   UNL A   1      32.173  24.439  26.615  1.00  0.00    -0.273 OA
BRANCH  12  15
ATOM     15  N   UNL A   1      35.310  23.521  25.310  1.00  0.00    -0.265 N 
ATOM     16  C   UNL A   1      36.025  22.341  25.200  1.00  0.00     0.276 C 
ATOM     17  O   UNL A   1      37.179  22.298  24.772  1.00  0.00    -0.269 OA
ATOM     18  H   UNL A   1      35.747  24.375  25.088  1.00  0.00     0.191 HD
BRANCH  16  19
ATOM     19  C   UNL A   1      35.314  21.029  25.572  1.00  0.00     0.331 C 
BRANCH  19  20
ATOM     20  O   UNL A   1      34.401  20.476  24.639  1.00  0.00    -0.484 OA
BRANCH  20  21
ATOM     21  C   UNL A   1      34.099  19.149  24.766  1.00  0.00     0.120 A 
ATOM     22  C   UNL A   1      32.792  15.090  25.409  1.00  0.00     0.044 C 
ATOM     23  C   UNL A   1      33.247  16.499  25.183  1.00  0.00    -0.051 A 
ATOM     24  C   UNL A   1      32.474  17.571  25.639  1.00  0.00     0.007 A 
ATOM     25  C   UNL A   1      34.443  16.766  24.513  1.00  0.00     0.007 A 
ATOM     26  C   UNL A   1      32.902  18.886  25.434  1.00  0.00     0.047 A 
ATOM     27  C   UNL A   1      34.865  18.081  24.302  1.00  0.00     0.047 A 
ENDBRANCH  20  21
ENDBRANCH  19  20
ENDBRANCH  16  19
ENDBRANCH  12  15
ENDBRANCH   6  11
ENDBRANCH   3   5
ENDBRANCH   2   3
ENDBRANCH   1   2
BRANCH   1  28
ATOM     28  C   UNL A   1      33.964  30.837  27.367  1.00  0.00     0.275 C 
BRANCH  28  29
ATOM     29  O   UNL A   1      35.105  30.379  28.126  1.00  0.00    -0.458 OA
BRANCH  29  30
ATOM     30  C   UNL A   1      36.170  31.228  28.162  1.00  0.00     0.338 C 
ATOM     31  O   UNL A   1      36.084  32.433  28.023  1.00  0.00    -0.246 OA
BRANCH  30  32
ATOM     32  C   UNL A   1      37.305  30.467  28.762  1.00  0.00     0.060 A 
ATOM     33  C   UNL A   1      37.211  29.075  28.808  1.00  0.00     0.016 A 
ATOM     34  C   UNL A   1      38.547  31.092  28.923  1.00  0.00     0.016 A 
ATOM     35  C   UNL A   1      38.371  28.300  28.832  1.00  0.00     0.010 A 
ATOM     36  C   UNL A   1      39.699  30.327  28.904  1.00  0.00     0.010 A 
ATOM     37  C   UNL A   1      39.616  28.934  28.798  1.00  0.00    -0.014 A 
BRANCH  37  38
ATOM     38  C   UNL A   1      40.879  28.204  28.866  1.00  0.00     0.031 A 
ATOM     39  C   UNL A   1      41.060  26.808  28.395  1.00  0.00     0.074 A 
ATOM     40  C   UNL A   1      41.873  28.858  29.502  1.00  0.00     0.049 A 
ATOM     41  N   UNL A   1      41.858  25.962  28.965  1.00  0.00    -0.248 NA
ATOM     42  C   UNL A   1      40.339  26.228  27.263  1.00  0.00     0.031 C 
ATOM     43  C   UNL A   1      43.264  28.474  29.665  1.00  0.00     0.029 A 
ATOM     44  N   UNL A   1      41.703  29.926  30.390  1.00  0.00    -0.354 N 
ATOM     45  C   UNL A   1      41.925  24.838  28.169  1.00  0.00     0.074 A 
ATOM     46  C   UNL A   1      40.891  25.009  27.174  1.00  0.00     0.031 C 
ATOM     47  C   UNL A   1      43.722  29.056  30.789  1.00  0.00     0.029 A 
ATOM     48  C   UNL A   1      42.574  29.677  31.449  1.00  0.00     0.049 A 
ATOM     49  H   UNL A   1      41.095  30.694  30.288  1.00  0.00     0.167 HD
ATOM     50  C   UNL A   1      42.941  23.942  28.319  1.00  0.00     0.037 A 
ATOM     51  C   UNL A   1      42.148  29.427  32.723  1.00  0.00     0.037 A 
ATOM     52  C   UNL A   1      43.882  24.381  29.336  1.00  0.00     0.049 A 
ATOM     53  C   UNL A   1      42.731  28.152  33.285  1.00  0.00     0.074 A 
ATOM     54  C   UNL A   1      45.030  25.152  29.262  1.00  0.00     0.029 A 
ATOM     55  N   UNL A   1      43.540  24.313  30.672  1.00  0.00    -0.354 N 
ATOM     56  N   UNL A   1      43.154  27.164  32.548  1.00  0.00    -0.248 NA
ATOM     57  C   UNL A   1      42.805  27.862  34.715  1.00  0.00     0.031 C 
ATOM     58  C   UNL A   1      45.384  25.549  30.573  1.00  0.00     0.029 A 
ATOM     59  C   UNL A   1      44.447  25.018  31.438  1.00  0.00     0.049 A 
ATOM     60  H   UNL A   1      42.759  23.830  31.027  1.00  0.00     0.167 HD
ATOM     61  C   UNL A   1      43.640  26.180  33.363  1.00  0.00     0.074 A 
ATOM     62  C   UNL A   1      43.341  26.629  34.709  1.00  0.00     0.031 C 
ATOM     63  C   UNL A   1      44.274  25.081  32.873  1.00  0.00     0.037 A 
BRANCH  50  64
ATOM     64  C   UNL A   1      43.251  22.836  27.338  1.00  0.00     0.058 A 
ATOM     65  C   UNL A   1      42.474  21.656  27.319  1.00  0.00     0.135 A 
ATOM     66  C   UNL A   1      44.306  22.874  26.406  1.00  0.00     0.135 A 
ATOM     67  F   UNL A   1      41.410  21.502  28.117  1.00  0.00    -0.206 F 
ATOM     68  C   UNL A   1      42.774  20.561  26.512  1.00  0.00     0.059 A 
ATOM     69  C   UNL A   1      44.641  21.777  25.598  1.00  0.00     0.059 A 
ATOM     70  F   UNL A   1      45.046  23.985  26.260  1.00  0.00    -0.206 F 
ATOM     71  C   UNL A   1      43.881  20.613  25.677  1.00  0.00     0.060 A 
BRANCH  71  72
ATOM     72  S   UNL A   1      44.319  19.118  24.765  1.00  0.00     0.124 S 
ATOM     73  O   UNL A   1      45.633  18.800  25.318  1.00  0.00    -0.237 OA
ATOM     74  O   UNL A   1      43.242  18.205  25.130  1.00  0.00    -0.237 OA
ATOM     75  O   UNL A   1      44.325  19.558  23.373  1.00  0.00    -0.744 OA
ENDBRANCH  71  72
ENDBRANCH  50  64
BRANCH  51  76
ATOM     76  C   UNL A   1      40.783  29.909  33.092  1.00  0.00     0.058 A 
ATOM     77  C   UNL A   1      40.601  31.187  33.657  1.00  0.00     0.135 A 
ATOM     78  C   UNL A   1      39.632  29.234  32.656  1.00  0.00     0.135 A 
ATOM     79  F   UNL A   1      41.660  31.883  34.100  1.00  0.00    -0.206 F 
ATOM     80  C   UNL A   1      39.358  31.817  33.670  1.00  0.00     0.059 A 
ATOM     81  C   UNL A   1      38.376  29.832  32.687  1.00  0.00     0.059 A 
ATOM     82  F   UNL A   1      39.719  28.017  32.103  1.00  0.00    -0.206 F 
ATOM     83  C   UNL A   1      38.256  31.140  33.152  1.00  0.00     0.060 A 
BRANCH  83  84
ATOM     84  S   UNL A   1      36.704  32.032  32.892  1.00  0.00     0.124 S 
ATOM     85  O   UNL A   1      36.342  32.388  34.257  1.00  0.00    -0.237 OA
ATOM     86  O   UNL A   1      37.135  33.129  32.030  1.00  0.00    -0.237 OA
ATOM     87  O   UNL A   1      35.869  31.019  32.242  1.00  0.00    -0.744 OA
ENDBRANCH  83  84
ENDBRANCH  51  76
BRANCH  63  88
ATOM     88  C   UNL A   1      44.868  23.999  33.712  1.00  0.00     0.058 A 
ATOM     89  C   UNL A   1      46.245  23.886  33.947  1.00  0.00     0.135 A 
ATOM     90  C   UNL A   1      44.054  22.952  34.194  1.00  0.00     0.135 A 
ATOM     91  F   UNL A   1      47.104  24.793  33.454  1.00  0.00    -0.206 F 
ATOM     92  C   UNL A   1      46.781  22.826  34.674  1.00  0.00     0.059 A 
ATOM     93  C   UNL A   1      44.572  21.861  34.880  1.00  0.00     0.059 A 
ATOM     94  F   UNL A   1      42.723  22.973  34.026  1.00  0.00    -0.206 F 
ATOM     95  C   UNL A   1      45.935  21.822  35.143  1.00  0.00     0.060 A 
BRANCH  95  96
ATOM     96  S   UNL A   1      46.627  20.456  36.090  1.00  0.00     0.124 S 
ATOM     97  O   UNL A   1      46.226  19.291  35.309  1.00  0.00    -0.237 OA
ATOM     98  O   UNL A   1      48.051  20.777  36.057  1.00  0.00    -0.237 OA
ATOM     99  O   UNL A   1      45.981  20.583  37.392  1.00  0.00    -0.744 OA
ENDBRANCH  95  96
ENDBRANCH  63  88
ENDBRANCH  37  38
ENDBRANCH  30  32
ENDBRANCH  29  30
ENDBRANCH  28  29
ENDBRANCH   1  28
TORSDOF 19
ENDMDL
MODEL 3
REMARK VINA RESULT:     -12.3      4.447     10.917
REMARK SMILES Cc1ccc(OCC(=O)NNC(=O)[C@H]2CCCC[C@@H]2C(=O)OCCOC(=O)c2ccc(-c3c4nc(c(-c5c(F)cc(S(=O)(=O)[O-])cc5F)c5ccc([nH]5)c(-c5c(F)cc(S(=O)(=O)[O-])cc5F)c5nc(c(-c6c(F)cc(S(=O)(=O)[O-])cc6F)c6ccc3[nH]6)C=C5)C=C4)cc2)cc1
REMARK SMILES IDX 23 1 22 2 20 3 21 4 19 5 14 6 15 7 16 8 18 9 17 10 12 11
REMARK SMILES IDX 11 12 13 14 10 15 8 16 9 17 7 19 6 20 5 21 1 22 2 23 3 24
REMARK SMILES IDX 95 25 4 26 94 27 24 28 25 29 26 30 27 31 28 32 29 33 93 34
REMARK SMILES IDX 30 35 92 36 31 37 32 38 33 39 86 40 34 41 91 42 85 43 87 44
REMARK SMILES IDX 35 45 90 46 84 47 83 48 36 50 70 51 49 52 69 53 50 54 53 55
REMARK SMILES IDX 68 56 88 57 51 58 52 59 67 61 89 62 54 63 37 64 38 65 47 66
REMARK SMILES IDX 39 67 40 68 46 69 48 70 41 71 42 72 43 73 44 74 45 75 71 76
REMARK SMILES IDX 72 77 81 78 73 79 74 80 80 81 82 82 75 83 76 84 77 85 78 86
REMARK SMILES IDX 79 87 55 88 56 89 65 90 57 91 58 92 64 93 66 94 59 95 60 96
REMARK SMILES IDX 61 97 62 98 63 99
REMARK H PARENT 11 13 10 18 87 49 53 60
REMARK Flexibility Score: inf
ROOT
ATOM      1  C   UNL A   1      32.685  30.029  27.258  1.00  0.00     0.274 C 
ENDROOT
BRANCH   1   2
ATOM      2  O   UNL A   1      32.698  29.081  26.168  1.00  0.00    -0.462 OA
BRANCH   2   3
ATOM      3  C   UNL A   1      31.774  28.084  26.275  1.00  0.00     0.309 C 
ATOM      4  O   UNL A   1      31.451  27.585  27.346  1.00  0.00    -0.252 OA
BRANCH   3   5
ATOM      5  C   UNL A   1      31.302  27.569  24.915  1.00  0.00     0.111 C 
ATOM      6  C   UNL A   1      32.055  26.301  24.462  1.00  0.00     0.094 C 
ATOM      7  C   UNL A   1      33.535  26.589  24.117  1.00  0.00     0.014 C 
ATOM      8  C   UNL A   1      33.760  27.811  23.221  1.00  0.00     0.001 C 
ATOM      9  C   UNL A   1      31.476  28.719  23.914  1.00  0.00     0.016 C 
ATOM     10  C   UNL A   1      32.944  29.036  23.616  1.00  0.00     0.001 C 
BRANCH   6  11
ATOM     11  C   UNL A   1      31.399  25.636  23.249  1.00  0.00     0.242 C 
ATOM     12  N   UNL A   1      31.061  24.312  23.249  1.00  0.00    -0.267 N 
ATOM     13  H   UNL A   1      30.967  23.886  22.367  1.00  0.00     0.191 HD
ATOM     14  O   UNL A   1      31.183  26.256  22.201  1.00  0.00    -0.273 OA
BRANCH  12  15
ATOM     15  N   UNL A   1      30.834  23.496  24.357  1.00  0.00    -0.265 N 
ATOM     16  C   UNL A   1      31.740  22.514  24.719  1.00  0.00     0.276 C 
ATOM     17  O   UNL A   1      31.603  21.819  25.727  1.00  0.00    -0.269 OA
ATOM     18  H   UNL A   1      30.016  23.620  24.889  1.00  0.00     0.191 HD
BRANCH  16  19
ATOM     19  C   UNL A   1      32.999  22.338  23.854  1.00  0.00     0.331 C 
BRANCH  19  20
ATOM     20  O   UNL A   1      33.956  23.383  23.846  1.00  0.00    -0.484 OA
BRANCH  20  21
ATOM     21  C   UNL A   1      35.174  23.124  24.411  1.00  0.00     0.120 A 
ATOM     22  C   UNL A   1      38.965  21.888  26.053  1.00  0.00     0.044 C 
ATOM     23  C   UNL A   1      37.649  22.320  25.483  1.00  0.00    -0.051 A 
ATOM     24  C   UNL A   1      36.882  21.429  24.725  1.00  0.00     0.007 A 
ATOM     25  C   UNL A   1      37.169  23.615  25.692  1.00  0.00     0.007 A 
ATOM     26  C   UNL A   1      35.651  21.830  24.198  1.00  0.00     0.047 A 
ATOM     27  C   UNL A   1      35.942  24.016  25.158  1.00  0.00     0.047 A 
ENDBRANCH  20  21
ENDBRANCH  19  20
ENDBRANCH  16  19
ENDBRANCH  12  15
ENDBRANCH   6  11
ENDBRANCH   3   5
ENDBRANCH   2   3
ENDBRANCH   1   2
BRANCH   1  28
ATOM     28  C   UNL A   1      33.953  30.901  27.265  1.00  0.00     0.275 C 
BRANCH  28  29
ATOM     29  O   UNL A   1      35.149  30.297  27.804  1.00  0.00    -0.458 OA
BRANCH  29  30
ATOM     30  C   UNL A   1      36.198  31.141  28.006  1.00  0.00     0.338 C 
ATOM     31  O   UNL A   1      36.103  32.353  28.021  1.00  0.00    -0.246 OA
BRANCH  30  32
ATOM     32  C   UNL A   1      37.312  30.317  28.561  1.00  0.00     0.060 A 
ATOM     33  C   UNL A   1      37.274  28.937  28.352  1.00  0.00     0.016 A 
ATOM     34  C   UNL A   1      38.508  30.937  28.939  1.00  0.00     0.016 A 
ATOM     35  C   UNL A   1      38.461  28.203  28.343  1.00  0.00     0.010 A 
ATOM     36  C   UNL A   1      39.690  30.220  28.888  1.00  0.00     0.010 A 
ATOM     37  C   UNL A   1      39.676  28.867  28.532  1.00  0.00    -0.014 A 
BRANCH  37  38
ATOM     38  C   UNL A   1      40.959  28.172  28.582  1.00  0.00     0.031 A 
ATOM     39  C   UNL A   1      41.175  26.787  28.094  1.00  0.00     0.074 A 
ATOM     40  C   UNL A   1      41.940  28.846  29.219  1.00  0.00     0.049 A 
ATOM     41  N   UNL A   1      42.001  25.957  28.648  1.00  0.00    -0.248 NA
ATOM     42  C   UNL A   1      40.462  26.200  26.960  1.00  0.00     0.031 C 
ATOM     43  C   UNL A   1      43.341  28.498  29.367  1.00  0.00     0.029 A 
ATOM     44  N   UNL A   1      41.746  29.898  30.121  1.00  0.00    -0.354 N 
ATOM     45  C   UNL A   1      42.093  24.844  27.838  1.00  0.00     0.074 A 
ATOM     46  C   UNL A   1      41.047  24.998  26.852  1.00  0.00     0.031 C 
ATOM     47  C   UNL A   1      43.791  29.080  30.495  1.00  0.00     0.029 A 
ATOM     48  C   UNL A   1      42.632  29.661  31.170  1.00  0.00     0.049 A 
ATOM     49  H   UNL A   1      41.116  30.650  30.032  1.00  0.00     0.167 HD
ATOM     50  C   UNL A   1      43.136  23.975  27.971  1.00  0.00     0.037 A 
ATOM     51  C   UNL A   1      42.223  29.385  32.444  1.00  0.00     0.037 A 
ATOM     52  C   UNL A   1      44.072  24.429  28.985  1.00  0.00     0.049 A 
ATOM     53  C   UNL A   1      42.845  28.120  32.987  1.00  0.00     0.074 A 
ATOM     54  C   UNL A   1      45.197  25.233  28.912  1.00  0.00     0.029 A 
ATOM     55  N   UNL A   1      43.741  24.335  30.323  1.00  0.00    -0.354 N 
ATOM     56  N   UNL A   1      43.290  27.153  32.235  1.00  0.00    -0.248 NA
ATOM     57  C   UNL A   1      42.937  27.816  34.412  1.00  0.00     0.031 C 
ATOM     58  C   UNL A   1      45.549  25.624  30.226  1.00  0.00     0.029 A 
ATOM     59  C   UNL A   1      44.634  25.057  31.091  1.00  0.00     0.049 A 
ATOM     60  H   UNL A   1      42.976  23.827  30.678  1.00  0.00     0.167 HD
ATOM     61  C   UNL A   1      43.809  26.173  33.035  1.00  0.00     0.074 A 
ATOM     62  C   UNL A   1      43.508  26.598  34.388  1.00  0.00     0.031 C 
ATOM     63  C   UNL A   1      44.470  25.098  32.527  1.00  0.00     0.037 A 
BRANCH  50  64
ATOM     64  C   UNL A   1      43.468  22.890  26.974  1.00  0.00     0.058 A 
ATOM     65  C   UNL A   1      42.767  21.664  26.989  1.00  0.00     0.135 A 
ATOM     66  C   UNL A   1      44.475  22.993  25.995  1.00  0.00     0.135 A 
ATOM     67  F   UNL A   1      41.752  21.444  27.834  1.00  0.00    -0.206 F 
ATOM     68  C   UNL A   1      43.098  20.589  26.166  1.00  0.00     0.059 A 
ATOM     69  C   UNL A   1      44.840  21.918  25.170  1.00  0.00     0.059 A 
ATOM     70  F   UNL A   1      45.137  24.148  25.817  1.00  0.00    -0.206 F 
ATOM     71  C   UNL A   1      44.160  20.709  25.282  1.00  0.00     0.060 A 
BRANCH  71  72
ATOM     72  S   UNL A   1      44.648  19.244  24.348  1.00  0.00     0.124 S 
ATOM     73  O   UNL A   1      46.034  19.062  24.773  1.00  0.00    -0.237 OA
ATOM     74  O   UNL A   1      43.704  18.241  24.827  1.00  0.00    -0.237 OA
ATOM     75  O   UNL A   1      44.477  19.654  22.957  1.00  0.00    -0.744 OA
ENDBRANCH  71  72
ENDBRANCH  50  64
BRANCH  51  76
ATOM     76  C   UNL A   1      40.847  29.824  32.829  1.00  0.00     0.058 A 
ATOM     77  C   UNL A   1      40.627  31.107  33.368  1.00  0.00     0.135 A 
ATOM     78  C   UNL A   1      39.715  29.097  32.431  1.00  0.00     0.135 A 
ATOM     79  F   UNL A   1      41.668  31.853  33.774  1.00  0.00    -0.206 F 
ATOM     80  C   UNL A   1      39.362  31.691  33.391  1.00  0.00     0.059 A 
ATOM     81  C   UNL A   1      38.438  29.648  32.472  1.00  0.00     0.059 A 
ATOM     82  F   UNL A   1      39.837  27.871  31.904  1.00  0.00    -0.206 F 
ATOM     83  C   UNL A   1      38.277  30.961  32.910  1.00  0.00     0.060 A 
BRANCH  83  84
ATOM     84  S   UNL A   1      36.689  31.789  32.659  1.00  0.00     0.124 S 
ATOM     85  O   UNL A   1      35.857  30.685  32.197  1.00  0.00    -0.237 OA
ATOM     86  O   UNL A   1      36.404  32.296  33.998  1.00  0.00    -0.237 OA
ATOM     87  O   UNL A   1      37.025  32.810  31.663  1.00  0.00    -0.744 OA
ENDBRANCH  83  84
ENDBRANCH  51  76
BRANCH  63  88
ATOM     88  C   UNL A   1      45.100  24.024  33.349  1.00  0.00     0.058 A 
ATOM     89  C   UNL A   1      44.409  22.876  33.761  1.00  0.00     0.135 A 
ATOM     90  C   UNL A   1      46.402  24.200  33.865  1.00  0.00     0.135 A 
ATOM     91  F   UNL A   1      43.137  22.667  33.386  1.00  0.00    -0.206 F 
ATOM     92  C   UNL A   1      44.998  21.922  34.588  1.00  0.00     0.059 A 
ATOM     93  C   UNL A   1      46.991  23.286  34.730  1.00  0.00     0.059 A 
ATOM     94  F   UNL A   1      47.146  25.263  33.524  1.00  0.00    -0.206 F 
ATOM     95  C   UNL A   1      46.293  22.133  35.061  1.00  0.00     0.060 A 
BRANCH  95  96
ATOM     96  S   UNL A   1      47.056  20.896  36.123  1.00  0.00     0.124 S 
ATOM     97  O   UNL A   1      48.376  21.464  36.376  1.00  0.00    -0.237 OA
ATOM     98  O   UNL A   1      46.142  20.893  37.262  1.00  0.00    -0.237 OA
ATOM     99  O   UNL A   1      47.046  19.689  35.303  1.00  0.00    -0.744 OA
ENDBRANCH  95  96
ENDBRANCH  63  88
ENDBRANCH  37  38
ENDBRANCH  30  32
ENDBRANCH  29  30
ENDBRANCH  28  29
ENDBRANCH   1  28
TORSDOF 19
ENDMDL
