MODEL 1
REMARK VINA RESULT:     -11.7      0.000      0.000
REMARK SMILES Cc1ccc(C#N)cc1Nc1cc(C)c(N)c(C(=O)OCCOC(=O)c2ccc(-c3c4nc(c(-c5c(F)cc(S(=O)(=O)[O-])cc5F)c5ccc([nH]5)c(-c5c(F)cc(S(=O)(=O)[O-])cc5F)c5nc(c(-c6c(F)cc(S(=O)(=O)[O-])cc6F)c6ccc3[nH]6)C=C5)C=C4)cc2)c1
REMARK SMILES IDX 21 1 20 2 18 3 19 4 17 5 11 6 12 7 92 8 13 9 14 10 15 11
REMARK SMILES IDX 10 12 9 14 1 15 2 16 3 17 4 18 8 19 5 20 6 21 7 22 16 23
REMARK SMILES IDX 22 26 23 27 24 28 25 29 26 30 27 31 91 32 28 33 90 34 29 35
REMARK SMILES IDX 30 36 31 37 84 38 32 39 89 40 83 41 85 42 33 43 88 44 82 45
REMARK SMILES IDX 81 46 34 48 68 49 47 50 67 51 48 52 51 53 66 54 86 55 49 56
REMARK SMILES IDX 50 57 65 59 87 60 52 61 35 62 36 63 45 64 37 65 38 66 44 67
REMARK SMILES IDX 46 68 39 69 40 70 41 71 42 72 43 73 69 74 70 75 79 76 71 77
REMARK SMILES IDX 72 78 78 79 80 80 73 81 74 82 75 83 76 84 77 85 53 86 54 87
REMARK SMILES IDX 63 88 55 89 56 90 62 91 64 92 57 93 58 94 59 95 60 96 61 97
REMARK H PARENT 10 13 16 24 16 25 85 47 51 58
REMARK Flexibility Score: inf
ROOT
ATOM      1  C   UNL A   1      38.406  22.519  25.796  1.00  0.00     0.275 C 
ENDROOT
BRANCH   1   2
ATOM      2  O   UNL A   1      36.978  22.292  25.766  1.00  0.00    -0.458 OA
BRANCH   2   3
ATOM      3  C   UNL A   1      36.585  21.083  25.284  1.00  0.00     0.340 C 
ATOM      4  O   UNL A   1      37.344  20.192  24.936  1.00  0.00    -0.246 OA
BRANCH   3   5
ATOM      5  C   UNL A   1      35.098  20.983  25.200  1.00  0.00     0.085 A 
ATOM      6  C   UNL A   1      32.980  22.134  25.046  1.00  0.00     0.040 A 
ATOM      7  C   UNL A   1      32.360  20.943  24.661  1.00  0.00     0.031 A 
ATOM      8  C   UNL A   1      34.346  22.147  25.345  1.00  0.00     0.044 A 
ATOM      9  C   UNL A   1      33.084  19.757  24.539  1.00  0.00    -0.025 A 
ATOM     10  C   UNL A   1      32.348  18.530  24.067  1.00  0.00     0.047 C 
ATOM     11  C   UNL A   1      34.466  19.783  24.794  1.00  0.00     0.049 A 
BRANCH   6  12
ATOM     12  N   UNL A   1      32.259  23.333  24.904  1.00  0.00    -0.355 N 
ATOM     13  H   UNL A   1      31.283  23.278  25.018  1.00  0.00     0.167 HD
BRANCH  12  14
ATOM     14  C   UNL A   1      32.794  24.608  24.614  1.00  0.00     0.043 A 
ATOM     15  C   UNL A   1      32.931  24.031  22.126  1.00  0.00     0.046 C 
ATOM     16  C   UNL A   1      33.102  24.971  23.290  1.00  0.00    -0.027 A 
ATOM     17  C   UNL A   1      33.547  26.279  23.021  1.00  0.00     0.007 A 
ATOM     18  C   UNL A   1      33.714  27.211  24.046  1.00  0.00     0.020 A 
ATOM     19  C   UNL A   1      32.979  25.563  25.635  1.00  0.00     0.045 A 
ATOM     20  C   UNL A   1      33.438  26.851  25.362  1.00  0.00     0.054 A 
BRANCH  20  21
ATOM     21  C   UNL A   1      33.613  27.791  26.426  1.00  0.00     0.099 C 
ATOM     22  N   UNL A   1      33.738  28.565  27.286  1.00  0.00    -0.192 NA
ENDBRANCH  20  21
ENDBRANCH  12  14
ENDBRANCH   6  12
BRANCH  11  23
ATOM     23  N   UNL A   1      35.171  18.594  24.761  1.00  0.00    -0.398 N 
ATOM     24  H   UNL A   1      34.689  17.737  24.706  1.00  0.00     0.156 HD
ATOM     25  H   UNL A   1      36.155  18.604  24.793  1.00  0.00     0.156 HD
ENDBRANCH  11  23
ENDBRANCH   3   5
ENDBRANCH   2   3
ENDBRANCH   1   2
BRANCH   1  26
ATOM     26  C   UNL A   1      38.727  23.975  26.139  1.00  0.00     0.275 C 
BRANCH  26  27
ATOM     27  O   UNL A   1      40.083  24.116  26.600  1.00  0.00    -0.458 OA
BRANCH  27  28
ATOM     28  C   UNL A   1      40.613  25.344  26.425  1.00  0.00     0.338 C 
ATOM     29  O   UNL A   1      40.845  25.909  25.367  1.00  0.00    -0.246 OA
BRANCH  28  30
ATOM     30  C   UNL A   1      40.801  26.018  27.714  1.00  0.00     0.060 A 
ATOM     31  C   UNL A   1      41.584  27.163  27.819  1.00  0.00     0.016 A 
ATOM     32  C   UNL A   1      39.916  25.694  28.727  1.00  0.00     0.016 A 
ATOM     33  C   UNL A   1      41.465  27.973  28.958  1.00  0.00     0.010 A 
ATOM     34  C   UNL A   1      39.619  26.651  29.690  1.00  0.00     0.010 A 
ATOM     35  C   UNL A   1      40.430  27.768  29.889  1.00  0.00    -0.014 A 
BRANCH  35  36
ATOM     36  C   UNL A   1      40.202  28.654  31.078  1.00  0.00     0.031 A 
ATOM     37  C   UNL A   1      41.082  28.527  32.320  1.00  0.00     0.074 A 
ATOM     38  C   UNL A   1      39.199  29.561  31.076  1.00  0.00     0.049 A 
ATOM     39  N   UNL A   1      41.049  29.224  33.429  1.00  0.00    -0.248 NA
ATOM     40  C   UNL A   1      42.080  27.440  32.362  1.00  0.00     0.031 C 
ATOM     41  C   UNL A   1      38.181  29.708  30.029  1.00  0.00     0.029 A 
ATOM     42  N   UNL A   1      38.883  30.561  31.967  1.00  0.00    -0.354 N 
ATOM     43  C   UNL A   1      41.992  28.639  34.274  1.00  0.00     0.074 A 
ATOM     44  C   UNL A   1      42.465  27.448  33.625  1.00  0.00     0.031 C 
ATOM     45  C   UNL A   1      37.440  30.800  30.274  1.00  0.00     0.029 A 
ATOM     46  C   UNL A   1      37.883  31.402  31.526  1.00  0.00     0.049 A 
ATOM     47  H   UNL A   1      39.329  30.666  32.837  1.00  0.00     0.167 HD
ATOM     48  C   UNL A   1      42.503  29.091  35.442  1.00  0.00     0.037 A 
ATOM     49  C   UNL A   1      37.394  32.543  32.054  1.00  0.00     0.037 A 
ATOM     50  C   UNL A   1      42.097  30.325  36.049  1.00  0.00     0.049 A 
ATOM     51  C   UNL A   1      37.991  33.056  33.338  1.00  0.00     0.074 A 
ATOM     52  C   UNL A   1      42.595  30.927  37.188  1.00  0.00     0.029 A 
ATOM     53  N   UNL A   1      41.100  31.150  35.553  1.00  0.00    -0.354 N 
ATOM     54  N   UNL A   1      38.961  32.541  34.057  1.00  0.00    -0.248 NA
ATOM     55  C   UNL A   1      37.436  34.302  33.881  1.00  0.00     0.031 C 
ATOM     56  C   UNL A   1      41.857  32.089  37.416  1.00  0.00     0.029 A 
ATOM     57  C   UNL A   1      40.946  32.244  36.382  1.00  0.00     0.049 A 
ATOM     58  H   UNL A   1      40.580  30.981  34.734  1.00  0.00     0.167 HD
ATOM     59  C   UNL A   1      39.144  33.409  35.128  1.00  0.00     0.074 A 
ATOM     60  C   UNL A   1      38.202  34.495  34.946  1.00  0.00     0.031 C 
ATOM     61  C   UNL A   1      40.005  33.315  36.171  1.00  0.00     0.037 A 
BRANCH  48  62
ATOM     62  C   UNL A   1      43.597  28.287  36.100  1.00  0.00     0.058 A 
ATOM     63  C   UNL A   1      43.308  27.179  36.918  1.00  0.00     0.135 A 
ATOM     64  C   UNL A   1      44.949  28.592  35.878  1.00  0.00     0.135 A 
ATOM     65  F   UNL A   1      42.034  26.848  37.186  1.00  0.00    -0.206 F 
ATOM     66  C   UNL A   1      44.314  26.424  37.511  1.00  0.00     0.059 A 
ATOM     67  C   UNL A   1      45.974  27.826  36.430  1.00  0.00     0.059 A 
ATOM     68  F   UNL A   1      45.287  29.640  35.110  1.00  0.00    -0.206 F 
ATOM     69  C   UNL A   1      45.646  26.749  37.252  1.00  0.00     0.060 A 
BRANCH  69  70
ATOM     70  S   UNL A   1      46.935  25.728  37.994  1.00  0.00     0.124 S 
ATOM     71  O   UNL A   1      48.119  26.560  37.799  1.00  0.00    -0.237 OA
ATOM     72  O   UNL A   1      46.471  25.602  39.372  1.00  0.00    -0.237 OA
ATOM     73  O   UNL A   1      46.895  24.500  37.207  1.00  0.00    -0.744 OA
ENDBRANCH  69  70
ENDBRANCH  48  62
BRANCH  49  74
ATOM     74  C   UNL A   1      36.336  33.309  31.332  1.00  0.00     0.058 A 
ATOM     75  C   UNL A   1      36.618  33.980  30.131  1.00  0.00     0.135 A 
ATOM     76  C   UNL A   1      35.014  33.357  31.803  1.00  0.00     0.135 A 
ATOM     77  F   UNL A   1      37.866  33.974  29.636  1.00  0.00    -0.206 F 
ATOM     78  C   UNL A   1      35.636  34.674  29.430  1.00  0.00     0.059 A 
ATOM     79  C   UNL A   1      34.008  34.018  31.104  1.00  0.00     0.059 A 
ATOM     80  F   UNL A   1      34.682  32.721  32.938  1.00  0.00    -0.206 F 
ATOM     81  C   UNL A   1      34.330  34.680  29.920  1.00  0.00     0.060 A 
BRANCH  81  82
ATOM     82  S   UNL A   1      33.053  35.538  28.971  1.00  0.00     0.124 S 
ATOM     83  O   UNL A   1      32.519  34.458  28.150  1.00  0.00    -0.237 OA
ATOM     84  O   UNL A   1      32.174  36.033  30.027  1.00  0.00    -0.237 OA
ATOM     85  O   UNL A   1      33.800  36.565  28.253  1.00  0.00    -0.744 OA
ENDBRANCH  81  82
ENDBRANCH  49  74
BRANCH  61  86
ATOM     86  C   UNL A   1      39.986  34.412  37.195  1.00  0.00     0.058 A 
ATOM     87  C   UNL A   1      40.659  35.624  36.981  1.00  0.00     0.135 A 
ATOM     88  C   UNL A   1      39.205  34.287  38.356  1.00  0.00     0.135 A 
ATOM     89  F   UNL A   1      41.416  35.793  35.885  1.00  0.00    -0.206 F 
ATOM     90  C   UNL A   1      40.575  36.668  37.893  1.00  0.00     0.059 A 
ATOM     91  C   UNL A   1      39.078  35.331  39.263  1.00  0.00     0.059 A 
ATOM     92  F   UNL A   1      38.527  33.153  38.597  1.00  0.00    -0.206 F 
ATOM     93  C   UNL A   1      39.776  36.514  39.027  1.00  0.00     0.060 A 
BRANCH  93  94
ATOM     94  S   UNL A   1      39.651  37.896  40.180  1.00  0.00     0.124 S 
ATOM     95  O   UNL A   1      38.580  38.684  39.578  1.00  0.00    -0.237 OA
ATOM     96  O   UNL A   1      39.318  37.224  41.432  1.00  0.00    -0.237 OA
ATOM     97  O   UNL A   1      40.978  38.502  40.131  1.00  0.00    -0.744 OA
ENDBRANCH  93  94
ENDBRANCH  61  86
ENDBRANCH  35  36
ENDBRANCH  28  30
ENDBRANCH  27  28
ENDBRANCH  26  27
ENDBRANCH   1  26
TORSDOF 18
ENDMDL
MODEL 2
REMARK VINA RESULT:     -11.7      5.640     10.286
REMARK SMILES Cc1ccc(C#N)cc1Nc1cc(C)c(N)c(C(=O)OCCOC(=O)c2ccc(-c3c4nc(c(-c5c(F)cc(S(=O)(=O)[O-])cc5F)c5ccc([nH]5)c(-c5c(F)cc(S(=O)(=O)[O-])cc5F)c5nc(c(-c6c(F)cc(S(=O)(=O)[O-])cc6F)c6ccc3[nH]6)C=C5)C=C4)cc2)c1
REMARK SMILES IDX 21 1 20 2 18 3 19 4 17 5 11 6 12 7 92 8 13 9 14 10 15 11
REMARK SMILES IDX 10 12 9 14 1 15 2 16 3 17 4 18 8 19 5 20 6 21 7 22 16 23
REMARK SMILES IDX 22 26 23 27 24 28 25 29 26 30 27 31 91 32 28 33 90 34 29 35
REMARK SMILES IDX 30 36 31 37 84 38 32 39 89 40 83 41 85 42 33 43 88 44 82 45
REMARK SMILES IDX 81 46 34 48 68 49 47 50 67 51 48 52 51 53 66 54 86 55 49 56
REMARK SMILES IDX 50 57 65 59 87 60 52 61 35 62 36 63 45 64 37 65 38 66 44 67
REMARK SMILES IDX 46 68 39 69 40 70 41 71 42 72 43 73 69 74 70 75 79 76 71 77
REMARK SMILES IDX 72 78 78 79 80 80 73 81 74 82 75 83 76 84 77 85 53 86 54 87
REMARK SMILES IDX 63 88 55 89 56 90 62 91 64 92 57 93 58 94 59 95 60 96 61 97
REMARK H PARENT 10 13 16 24 16 25 85 47 51 58
REMARK Flexibility Score: inf
ROOT
ATOM      1  C   UNL A   1      34.331  28.462  24.466  1.00  0.00     0.275 C 
ENDROOT
BRANCH   1   2
ATOM      2  O   UNL A   1      33.667  28.949  23.276  1.00  0.00    -0.458 OA
BRANCH   2   3
ATOM      3  C   UNL A   1      33.226  27.991  22.416  1.00  0.00     0.340 C 
ATOM      4  O   UNL A   1      33.904  27.474  21.542  1.00  0.00    -0.246 OA
BRANCH   3   5
ATOM      5  C   UNL A   1      31.789  27.665  22.651  1.00  0.00     0.085 A 
ATOM      6  C   UNL A   1      30.170  26.196  23.676  1.00  0.00     0.040 A 
ATOM      7  C   UNL A   1      29.173  27.156  23.481  1.00  0.00     0.031 A 
ATOM      8  C   UNL A   1      31.472  26.439  23.233  1.00  0.00     0.044 A 
ATOM      9  C   UNL A   1      29.457  28.378  22.871  1.00  0.00    -0.025 A 
ATOM     10  C   UNL A   1      28.335  29.378  22.748  1.00  0.00     0.047 C 
ATOM     11  C   UNL A   1      30.777  28.640  22.469  1.00  0.00     0.049 A 
BRANCH   6  12
ATOM     12  N   UNL A   1      29.882  25.104  24.516  1.00  0.00    -0.355 N 
ATOM     13  H   UNL A   1      28.933  24.876  24.633  1.00  0.00     0.167 HD
BRANCH  12  14
ATOM     14  C   UNL A   1      30.819  24.304  25.205  1.00  0.00     0.043 A 
ATOM     15  C   UNL A   1      31.349  26.227  26.806  1.00  0.00     0.046 C 
ATOM     16  C   UNL A   1      31.516  24.813  26.317  1.00  0.00    -0.027 A 
ATOM     17  C   UNL A   1      32.375  23.963  27.039  1.00  0.00     0.007 A 
ATOM     18  C   UNL A   1      32.568  22.634  26.656  1.00  0.00     0.020 A 
ATOM     19  C   UNL A   1      31.037  22.961  24.830  1.00  0.00     0.045 A 
ATOM     20  C   UNL A   1      31.904  22.132  25.541  1.00  0.00     0.054 A 
BRANCH  20  21
ATOM     21  C   UNL A   1      32.098  20.775  25.129  1.00  0.00     0.099 C 
ATOM     22  N   UNL A   1      32.256  19.678  24.773  1.00  0.00    -0.192 NA
ENDBRANCH  20  21
ENDBRANCH  12  14
ENDBRANCH   6  12
BRANCH  11  23
ATOM     23  N   UNL A   1      31.046  29.811  21.786  1.00  0.00    -0.398 N 
ATOM     24  H   UNL A   1      31.114  30.663  22.277  1.00  0.00     0.156 HD
ATOM     25  H   UNL A   1      31.168  29.795  20.810  1.00  0.00     0.156 HD
ENDBRANCH  11  23
ENDBRANCH   3   5
ENDBRANCH   2   3
ENDBRANCH   1   2
BRANCH   1  26
ATOM     26  C   UNL A   1      33.553  28.844  25.726  1.00  0.00     0.275 C 
BRANCH  26  27
ATOM     27  O   UNL A   1      34.360  28.683  26.907  1.00  0.00    -0.458 OA
BRANCH  27  28
ATOM     28  C   UNL A   1      34.490  29.796  27.657  1.00  0.00     0.338 C 
ATOM     29  O   UNL A   1      33.615  30.589  27.970  1.00  0.00    -0.246 OA
BRANCH  28  30
ATOM     30  C   UNL A   1      35.856  29.914  28.180  1.00  0.00     0.060 A 
ATOM     31  C   UNL A   1      36.205  29.358  29.407  1.00  0.00     0.016 A 
ATOM     32  C   UNL A   1      36.844  30.274  27.282  1.00  0.00     0.016 A 
ATOM     33  C   UNL A   1      37.561  29.176  29.716  1.00  0.00     0.010 A 
ATOM     34  C   UNL A   1      38.142  29.825  27.495  1.00  0.00     0.010 A 
ATOM     35  C   UNL A   1      38.557  29.346  28.737  1.00  0.00    -0.014 A 
BRANCH  35  36
ATOM     36  C   UNL A   1      40.013  29.082  28.986  1.00  0.00     0.031 A 
ATOM     37  C   UNL A   1      40.630  27.733  28.624  1.00  0.00     0.074 A 
ATOM     38  C   UNL A   1      40.794  30.028  29.557  1.00  0.00     0.049 A 
ATOM     39  N   UNL A   1      41.874  27.336  28.743  1.00  0.00    -0.248 NA
ATOM     40  C   UNL A   1      39.738  26.665  28.133  1.00  0.00     0.031 C 
ATOM     41  C   UNL A   1      40.328  31.312  30.095  1.00  0.00     0.029 A 
ATOM     42  N   UNL A   1      42.155  30.077  29.756  1.00  0.00    -0.354 N 
ATOM     43  C   UNL A   1      41.882  25.993  28.365  1.00  0.00     0.074 A 
ATOM     44  C   UNL A   1      40.515  25.598  28.168  1.00  0.00     0.031 C 
ATOM     45  C   UNL A   1      41.385  32.062  30.442  1.00  0.00     0.029 A 
ATOM     46  C   UNL A   1      42.605  31.297  30.215  1.00  0.00     0.049 A 
ATOM     47  H   UNL A   1      42.751  29.313  29.585  1.00  0.00     0.167 HD
ATOM     48  C   UNL A   1      42.927  25.176  28.105  1.00  0.00     0.037 A 
ATOM     49  C   UNL A   1      43.858  31.759  30.407  1.00  0.00     0.037 A 
ATOM     50  C   UNL A   1      44.294  25.593  28.216  1.00  0.00     0.049 A 
ATOM     51  C   UNL A   1      45.017  30.852  30.085  1.00  0.00     0.074 A 
ATOM     52  C   UNL A   1      45.437  24.884  27.905  1.00  0.00     0.029 A 
ATOM     53  N   UNL A   1      44.697  26.842  28.661  1.00  0.00    -0.354 N 
ATOM     54  N   UNL A   1      44.996  29.624  29.621  1.00  0.00    -0.248 NA
ATOM     55  C   UNL A   1      46.366  31.390  30.304  1.00  0.00     0.031 C 
ATOM     56  C   UNL A   1      46.538  25.683  28.221  1.00  0.00     0.029 A 
ATOM     57  C   UNL A   1      46.077  26.914  28.664  1.00  0.00     0.049 A 
ATOM     58  H   UNL A   1      44.092  27.569  28.935  1.00  0.00     0.167 HD
ATOM     59  C   UNL A   1      46.327  29.249  29.477  1.00  0.00     0.074 A 
ATOM     60  C   UNL A   1      47.125  30.390  29.877  1.00  0.00     0.031 C 
ATOM     61  C   UNL A   1      46.844  28.067  29.060  1.00  0.00     0.037 A 
BRANCH  48  62
ATOM     62  C   UNL A   1      42.635  23.779  27.615  1.00  0.00     0.058 A 
ATOM     63  C   UNL A   1      42.554  23.480  26.242  1.00  0.00     0.135 A 
ATOM     64  C   UNL A   1      42.480  22.716  28.518  1.00  0.00     0.135 A 
ATOM     65  F   UNL A   1      42.673  24.457  25.327  1.00  0.00    -0.206 F 
ATOM     66  C   UNL A   1      42.304  22.190  25.787  1.00  0.00     0.059 A 
ATOM     67  C   UNL A   1      42.269  21.409  28.084  1.00  0.00     0.059 A 
ATOM     68  F   UNL A   1      42.544  22.940  29.841  1.00  0.00    -0.206 F 
ATOM     69  C   UNL A   1      42.174  21.158  26.717  1.00  0.00     0.060 A 
BRANCH  69  70
ATOM     70  S   UNL A   1      41.896  19.485  26.102  1.00  0.00     0.124 S 
ATOM     71  O   UNL A   1      42.775  19.449  24.936  1.00  0.00    -0.237 OA
ATOM     72  O   UNL A   1      42.316  18.667  27.236  1.00  0.00    -0.237 OA
ATOM     73  O   UNL A   1      40.466  19.460  25.809  1.00  0.00    -0.744 OA
ENDBRANCH  69  70
ENDBRANCH  48  62
BRANCH  49  74
ATOM     74  C   UNL A   1      44.077  33.163  30.860  1.00  0.00     0.058 A 
ATOM     75  C   UNL A   1      44.244  33.468  32.221  1.00  0.00     0.135 A 
ATOM     76  C   UNL A   1      44.162  34.226  29.946  1.00  0.00     0.135 A 
ATOM     77  F   UNL A   1      44.166  32.495  33.141  1.00  0.00    -0.206 F 
ATOM     78  C   UNL A   1      44.479  34.769  32.658  1.00  0.00     0.059 A 
ATOM     79  C   UNL A   1      44.427  35.529  30.355  1.00  0.00     0.059 A 
ATOM     80  F   UNL A   1      44.026  33.992  28.630  1.00  0.00    -0.206 F 
ATOM     81  C   UNL A   1      44.578  35.793  31.716  1.00  0.00     0.060 A 
BRANCH  81  82
ATOM     82  S   UNL A   1      44.938  37.468  32.292  1.00  0.00     0.124 S 
ATOM     83  O   UNL A   1      45.176  38.168  31.035  1.00  0.00    -0.237 OA
ATOM     84  O   UNL A   1      43.707  37.816  32.996  1.00  0.00    -0.237 OA
ATOM     85  O   UNL A   1      46.110  37.287  33.143  1.00  0.00    -0.744 OA
ENDBRANCH  81  82
ENDBRANCH  49  74
BRANCH  61  86
ATOM     86  C   UNL A   1      48.339  27.940  29.000  1.00  0.00     0.058 A 
ATOM     87  C   UNL A   1      49.067  28.390  27.889  1.00  0.00     0.135 A 
ATOM     88  C   UNL A   1      49.056  27.453  30.106  1.00  0.00     0.135 A 
ATOM     89  F   UNL A   1      48.428  28.866  26.808  1.00  0.00    -0.206 F 
ATOM     90  C   UNL A   1      50.455  28.345  27.868  1.00  0.00     0.059 A 
ATOM     91  C   UNL A   1      50.444  27.433  30.122  1.00  0.00     0.059 A 
ATOM     92  F   UNL A   1      48.404  27.028  31.201  1.00  0.00    -0.206 F 
ATOM     93  C   UNL A   1      51.134  27.871  28.993  1.00  0.00     0.060 A 
BRANCH  93  94
ATOM     94  S   UNL A   1      52.938  27.857  28.960  1.00  0.00     0.124 S 
ATOM     95  O   UNL A   1      53.225  26.450  29.221  1.00  0.00    -0.237 OA
ATOM     96  O   UNL A   1      53.224  28.322  27.606  1.00  0.00    -0.237 OA
ATOM     97  O   UNL A   1      53.307  28.780  30.028  1.00  0.00    -0.744 OA
ENDBRANCH  93  94
ENDBRANCH  61  86
ENDBRANCH  35  36
ENDBRANCH  28  30
ENDBRANCH  27  28
ENDBRANCH  26  27
ENDBRANCH   1  26
TORSDOF 18
ENDMDL
MODEL 3
REMARK VINA RESULT:     -11.7      1.271      2.070
REMARK SMILES Cc1ccc(C#N)cc1Nc1cc(C)c(N)c(C(=O)OCCOC(=O)c2ccc(-c3c4nc(c(-c5c(F)cc(S(=O)(=O)[O-])cc5F)c5ccc([nH]5)c(-c5c(F)cc(S(=O)(=O)[O-])cc5F)c5nc(c(-c6c(F)cc(S(=O)(=O)[O-])cc6F)c6ccc3[nH]6)C=C5)C=C4)cc2)c1
REMARK SMILES IDX 21 1 20 2 18 3 19 4 17 5 11 6 12 7 92 8 13 9 14 10 15 11
REMARK SMILES IDX 10 12 9 14 1 15 2 16 3 17 4 18 8 19 5 20 6 21 7 22 16 23
REMARK SMILES IDX 22 26 23 27 24 28 25 29 26 30 27 31 91 32 28 33 90 34 29 35
REMARK SMILES IDX 30 36 31 37 84 38 32 39 89 40 83 41 85 42 33 43 88 44 82 45
REMARK SMILES IDX 81 46 34 48 68 49 47 50 67 51 48 52 51 53 66 54 86 55 49 56
REMARK SMILES IDX 50 57 65 59 87 60 52 61 35 62 36 63 45 64 37 65 38 66 44 67
REMARK SMILES IDX 46 68 39 69 40 70 41 71 42 72 43 73 69 74 70 75 79 76 71 77
REMARK SMILES IDX 72 78 78 79 80 80 73 81 74 82 75 83 76 84 77 85 53 86 54 87
REMARK SMILES IDX 63 88 55 89 56 90 62 91 64 92 57 93 58 94 59 95 60 96 61 97
REMARK H PARENT 10 13 16 24 16 25 85 47 51 58
REMARK Flexibility Score: inf
ROOT
ATOM      1  C   UNL A   1      38.974  22.329  25.988  1.00  0.00     0.275 C 
ENDROOT
BRANCH   1   2
ATOM      2  O   UNL A   1      37.578  21.972  26.115  1.00  0.00    -0.458 OA
BRANCH   2   3
ATOM      3  C   UNL A   1      36.778  22.350  25.081  1.00  0.00     0.340 C 
ATOM      4  O   UNL A   1      36.976  22.071  23.910  1.00  0.00    -0.246 OA
BRANCH   3   5
ATOM      5  C   UNL A   1      35.633  23.183  25.552  1.00  0.00     0.085 A 
ATOM      6  C   UNL A   1      34.287  25.164  25.244  1.00  0.00     0.040 A 
ATOM      7  C   UNL A   1      33.306  24.629  26.084  1.00  0.00     0.031 A 
ATOM      8  C   UNL A   1      35.465  24.453  25.003  1.00  0.00     0.044 A 
ATOM      9  C   UNL A   1      33.464  23.375  26.672  1.00  0.00    -0.025 A 
ATOM     10  C   UNL A   1      32.334  22.849  27.520  1.00  0.00     0.047 C 
ATOM     11  C   UNL A   1      34.628  22.640  26.390  1.00  0.00     0.049 A 
BRANCH   6  12
ATOM     12  N   UNL A   1      33.961  26.304  24.487  1.00  0.00    -0.355 N 
ATOM     13  H   UNL A   1      34.213  26.290  23.537  1.00  0.00     0.167 HD
BRANCH  12  14
ATOM     14  C   UNL A   1      33.308  27.466  24.955  1.00  0.00     0.043 A 
ATOM     15  C   UNL A   1      31.154  26.791  23.751  1.00  0.00     0.046 C 
ATOM     16  C   UNL A   1      31.959  27.708  24.633  1.00  0.00    -0.027 A 
ATOM     17  C   UNL A   1      31.309  28.826  25.189  1.00  0.00     0.007 A 
ATOM     18  C   UNL A   1      31.986  29.712  26.028  1.00  0.00     0.020 A 
ATOM     19  C   UNL A   1      33.974  28.380  25.798  1.00  0.00     0.045 A 
ATOM     20  C   UNL A   1      33.327  29.495  26.329  1.00  0.00     0.054 A 
BRANCH  20  21
ATOM     21  C   UNL A   1      34.038  30.399  27.180  1.00  0.00     0.099 C 
ATOM     22  N   UNL A   1      34.617  31.148  27.857  1.00  0.00    -0.192 NA
ENDBRANCH  20  21
ENDBRANCH  12  14
ENDBRANCH   6  12
BRANCH  11  23
ATOM     23  N   UNL A   1      34.830  21.436  27.039  1.00  0.00    -0.398 N 
ATOM     24  H   UNL A   1      35.569  21.342  27.683  1.00  0.00     0.156 HD
ATOM     25  H   UNL A   1      34.235  20.673  26.857  1.00  0.00     0.156 HD
ENDBRANCH  11  23
ENDBRANCH   3   5
ENDBRANCH   2   3
ENDBRANCH   1   2
BRANCH   1  26
ATOM     26  C   UNL A   1      39.195  23.810  26.297  1.00  0.00     0.275 C 
BRANCH  26  27
ATOM     27  O   UNL A   1      40.587  24.093  26.530  1.00  0.00    -0.458 OA
BRANCH  27  28
ATOM     28  C   UNL A   1      40.941  25.380  26.334  1.00  0.00     0.338 C 
ATOM     29  O   UNL A   1      41.053  25.967  25.269  1.00  0.00    -0.246 OA
BRANCH  28  30
ATOM     30  C   UNL A   1      41.088  26.079  27.616  1.00  0.00     0.060 A 
ATOM     31  C   UNL A   1      41.787  27.278  27.704  1.00  0.00     0.016 A 
ATOM     32  C   UNL A   1      40.234  25.703  28.638  1.00  0.00     0.016 A 
ATOM     33  C   UNL A   1      41.617  28.089  28.836  1.00  0.00     0.010 A 
ATOM     34  C   UNL A   1      39.875  26.646  29.593  1.00  0.00     0.010 A 
ATOM     35  C   UNL A   1      40.605  27.820  29.776  1.00  0.00    -0.014 A 
BRANCH  35  36
ATOM     36  C   UNL A   1      40.321  28.699  30.958  1.00  0.00     0.031 A 
ATOM     37  C   UNL A   1      41.174  28.600  32.221  1.00  0.00     0.074 A 
ATOM     38  C   UNL A   1      39.291  29.576  30.930  1.00  0.00     0.049 A 
ATOM     39  N   UNL A   1      41.093  29.297  33.328  1.00  0.00    -0.248 NA
ATOM     40  C   UNL A   1      42.203  27.545  32.289  1.00  0.00     0.031 C 
ATOM     41  C   UNL A   1      38.294  29.690  29.858  1.00  0.00     0.029 A 
ATOM     42  N   UNL A   1      38.923  30.566  31.812  1.00  0.00    -0.354 N 
ATOM     43  C   UNL A   1      42.032  28.742  34.197  1.00  0.00     0.074 A 
ATOM     44  C   UNL A   1      42.558  27.565  33.561  1.00  0.00     0.031 C 
ATOM     45  C   UNL A   1      37.515  30.759  30.084  1.00  0.00     0.029 A 
ATOM     46  C   UNL A   1      37.909  31.375  31.345  1.00  0.00     0.049 A 
ATOM     47  H   UNL A   1      39.344  30.685  32.693  1.00  0.00     0.167 HD
ATOM     48  C   UNL A   1      42.501  29.210  35.376  1.00  0.00     0.037 A 
ATOM     49  C   UNL A   1      37.373  32.502  31.859  1.00  0.00     0.037 A 
ATOM     50  C   UNL A   1      42.042  30.431  35.971  1.00  0.00     0.049 A 
ATOM     51  C   UNL A   1      37.922  33.033  33.157  1.00  0.00     0.074 A 
ATOM     52  C   UNL A   1      42.494  31.049  37.121  1.00  0.00     0.029 A 
ATOM     53  N   UNL A   1      41.033  31.225  35.450  1.00  0.00    -0.354 N 
ATOM     54  N   UNL A   1      38.889  32.549  33.900  1.00  0.00    -0.248 NA
ATOM     55  C   UNL A   1      37.316  34.262  33.685  1.00  0.00     0.031 C 
ATOM     56  C   UNL A   1      41.715  32.189  37.329  1.00  0.00     0.029 A 
ATOM     57  C   UNL A   1      40.825  32.315  36.273  1.00  0.00     0.049 A 
ATOM     58  H   UNL A   1      40.539  31.040  34.619  1.00  0.00     0.167 HD
ATOM     59  C   UNL A   1      39.019  33.423  34.974  1.00  0.00     0.074 A 
ATOM     60  C   UNL A   1      38.050  34.480  34.768  1.00  0.00     0.031 C 
ATOM     61  C   UNL A   1      39.857  33.356  36.037  1.00  0.00     0.037 A 
BRANCH  48  62
ATOM     62  C   UNL A   1      43.602  28.440  36.062  1.00  0.00     0.058 A 
ATOM     63  C   UNL A   1      43.326  27.333  36.885  1.00  0.00     0.135 A 
ATOM     64  C   UNL A   1      44.950  28.778  35.862  1.00  0.00     0.135 A 
ATOM     65  F   UNL A   1      42.056  26.971  37.133  1.00  0.00    -0.206 F 
ATOM     66  C   UNL A   1      44.341  26.610  37.504  1.00  0.00     0.059 A 
ATOM     67  C   UNL A   1      45.983  28.043  36.439  1.00  0.00     0.059 A 
ATOM     68  F   UNL A   1      45.275  29.827  35.090  1.00  0.00    -0.206 F 
ATOM     69  C   UNL A   1      45.668  26.966  37.265  1.00  0.00     0.060 A 
BRANCH  69  70
ATOM     70  S   UNL A   1      46.969  25.985  38.041  1.00  0.00     0.124 S 
ATOM     71  O   UNL A   1      46.751  26.272  39.456  1.00  0.00    -0.237 OA
ATOM     72  O   UNL A   1      46.631  24.632  37.611  1.00  0.00    -0.237 OA
ATOM     73  O   UNL A   1      48.196  26.534  37.473  1.00  0.00    -0.744 OA
ENDBRANCH  69  70
ENDBRANCH  48  62
BRANCH  49  74
ATOM     74  C   UNL A   1      36.310  33.234  31.111  1.00  0.00     0.058 A 
ATOM     75  C   UNL A   1      34.987  33.271  31.581  1.00  0.00     0.135 A 
ATOM     76  C   UNL A   1      36.596  33.944  29.934  1.00  0.00     0.135 A 
ATOM     77  F   UNL A   1      34.653  32.606  32.698  1.00  0.00    -0.206 F 
ATOM     78  C   UNL A   1      33.988  33.974  30.912  1.00  0.00     0.059 A 
ATOM     79  C   UNL A   1      35.623  34.680  29.263  1.00  0.00     0.059 A 
ATOM     80  F   UNL A   1      37.847  33.958  29.445  1.00  0.00    -0.206 F 
ATOM     81  C   UNL A   1      34.319  34.684  29.757  1.00  0.00     0.060 A 
BRANCH  81  82
ATOM     82  S   UNL A   1      33.027  35.638  28.928  1.00  0.00     0.124 S 
ATOM     83  O   UNL A   1      32.390  34.619  28.102  1.00  0.00    -0.237 OA
ATOM     84  O   UNL A   1      32.242  36.127  30.058  1.00  0.00    -0.237 OA
ATOM     85  O   UNL A   1      33.774  36.660  28.203  1.00  0.00    -0.744 OA
ENDBRANCH  81  82
ENDBRANCH  49  74
BRANCH  61  86
ATOM     86  C   UNL A   1      39.780  34.453  37.060  1.00  0.00     0.058 A 
ATOM     87  C   UNL A   1      39.016  34.312  38.227  1.00  0.00     0.135 A 
ATOM     88  C   UNL A   1      40.557  35.614  36.915  1.00  0.00     0.135 A 
ATOM     89  F   UNL A   1      38.258  33.219  38.412  1.00  0.00    -0.206 F 
ATOM     90  C   UNL A   1      39.009  35.294  39.209  1.00  0.00     0.059 A 
ATOM     91  C   UNL A   1      40.594  36.593  37.901  1.00  0.00     0.059 A 
ATOM     92  F   UNL A   1      41.321  35.787  35.824  1.00  0.00    -0.206 F 
ATOM     93  C   UNL A   1      39.807  36.428  39.039  1.00  0.00     0.060 A 
BRANCH  93  94
ATOM     94  S   UNL A   1      39.812  37.673  40.344  1.00  0.00     0.124 S 
ATOM     95  O   UNL A   1      38.989  37.033  41.364  1.00  0.00    -0.237 OA
ATOM     96  O   UNL A   1      41.234  37.788  40.654  1.00  0.00    -0.237 OA
ATOM     97  O   UNL A   1      39.218  38.842  39.702  1.00  0.00    -0.744 OA
ENDBRANCH  93  94
ENDBRANCH  61  86
ENDBRANCH  35  36
ENDBRANCH  28  30
ENDBRANCH  27  28
ENDBRANCH  26  27
ENDBRANCH   1  26
TORSDOF 18
ENDMDL
