MODEL 1
REMARK VINA RESULT:     -11.1      0.000      0.000
REMARK SMILES O=C(OCCOC(=O)[C@H]1C[C@H]1c1ccc(C2CC2)cc1)c1ccc(-c2c3nc(c(-c4c(F)cc(S(=O)(=O)[O-])cc4F)c4ccc([nH]4)c(-c4c(F)cc(S(=O)(=O)[O-])cc4F)c4nc(c(-c5c(F)cc(S(=O)(=O)[O-])cc5F)c5ccc2[nH]5)C=C4)C=C3)cc1
REMARK SMILES IDX 4 1 3 2 2 3 1 4 21 5 22 6 86 7 23 8 85 9 24 10 25 11 26 12
REMARK SMILES IDX 79 13 27 14 84 15 78 16 80 17 28 18 83 19 77 20 76 21 29 23
REMARK SMILES IDX 63 24 42 25 62 26 43 27 46 28 61 29 81 30 44 31 45 32 60 34
REMARK SMILES IDX 82 35 47 36 30 37 31 38 40 39 32 40 33 41 39 42 41 43 34 44
REMARK SMILES IDX 35 45 36 46 37 47 38 48 64 49 65 50 74 51 66 52 67 53 73 54
REMARK SMILES IDX 75 55 68 56 69 57 70 58 71 59 72 60 48 61 49 62 58 63 50 64
REMARK SMILES IDX 51 65 57 66 59 67 52 68 53 69 54 70 55 71 56 72 5 73 6 74
REMARK SMILES IDX 7 75 8 76 9 77 10 78 11 79 12 80 13 81 20 82 14 83 19 84
REMARK SMILES IDX 15 85 16 86 17 87 18 88
REMARK H PARENT 80 22 46 33
REMARK Flexibility Score: inf
ROOT
ATOM      1  C   UNL A   1      39.273  23.113  26.592  1.00  0.00     0.275 C 
ENDROOT
BRANCH   1   2
ATOM      2  O   UNL A   1      40.488  23.873  26.467  1.00  0.00    -0.458 OA
BRANCH   2   3
ATOM      3  C   UNL A   1      40.680  25.214  26.433  1.00  0.00     0.338 C 
ATOM      4  O   UNL A   1      41.042  25.723  25.372  1.00  0.00    -0.246 OA
BRANCH   3   5
ATOM      5  C   UNL A   1      40.583  26.108  27.631  1.00  0.00     0.060 A 
ATOM      6  C   UNL A   1      39.571  26.080  28.595  1.00  0.00     0.016 A 
ATOM      7  C   UNL A   1      41.596  27.074  27.771  1.00  0.00     0.016 A 
ATOM      8  C   UNL A   1      39.615  26.920  29.714  1.00  0.00     0.010 A 
ATOM      9  C   UNL A   1      41.638  27.928  28.881  1.00  0.00     0.010 A 
ATOM     10  C   UNL A   1      40.650  27.844  29.867  1.00  0.00    -0.014 A 
BRANCH  10  11
ATOM     11  C   UNL A   1      40.618  28.803  30.993  1.00  0.00     0.031 A 
ATOM     12  C   UNL A   1      39.667  29.959  30.919  1.00  0.00     0.074 A 
ATOM     13  C   UNL A   1      41.389  28.624  32.082  1.00  0.00     0.049 A 
ATOM     14  N   UNL A   1      39.390  30.858  31.826  1.00  0.00    -0.248 NA
ATOM     15  C   UNL A   1      38.907  30.106  29.667  1.00  0.00     0.031 C 
ATOM     16  C   UNL A   1      42.301  27.504  32.300  1.00  0.00     0.029 A 
ATOM     17  N   UNL A   1      41.528  29.387  33.214  1.00  0.00    -0.354 N 
ATOM     18  C   UNL A   1      38.382  31.639  31.279  1.00  0.00     0.074 A 
ATOM     19  C   UNL A   1      38.158  31.165  29.930  1.00  0.00     0.031 C 
ATOM     20  C   UNL A   1      42.938  27.677  33.471  1.00  0.00     0.029 A 
ATOM     21  C   UNL A   1      42.481  28.916  34.085  1.00  0.00     0.049 A 
ATOM     22  H   UNL A   1      40.995  30.198  33.387  1.00  0.00     0.167 HD
ATOM     23  C   UNL A   1      37.675  32.632  31.865  1.00  0.00     0.037 A 
ATOM     24  C   UNL A   1      42.931  29.419  35.250  1.00  0.00     0.037 A 
ATOM     25  C   UNL A   1      37.939  33.129  33.187  1.00  0.00     0.049 A 
ATOM     26  C   UNL A   1      42.247  30.632  35.817  1.00  0.00     0.074 A 
ATOM     27  C   UNL A   1      37.292  34.133  33.881  1.00  0.00     0.029 A 
ATOM     28  N   UNL A   1      38.959  32.665  34.009  1.00  0.00    -0.354 N 
ATOM     29  N   UNL A   1      41.242  31.313  35.322  1.00  0.00    -0.248 NA
ATOM     30  C   UNL A   1      42.721  31.116  37.120  1.00  0.00     0.031 C 
ATOM     31  C   UNL A   1      37.948  34.307  35.107  1.00  0.00     0.029 A 
ATOM     32  C   UNL A   1      38.976  33.380  35.193  1.00  0.00     0.049 A 
ATOM     33  H   UNL A   1      39.578  31.934  33.781  1.00  0.00     0.167 HD
ATOM     34  C   UNL A   1      40.912  32.260  36.284  1.00  0.00     0.074 A 
ATOM     35  C   UNL A   1      41.850  32.084  37.376  1.00  0.00     0.031 C 
ATOM     36  C   UNL A   1      39.906  33.170  36.276  1.00  0.00     0.037 A 
BRANCH  23  37
ATOM     37  C   UNL A   1      36.568  33.229  31.047  1.00  0.00     0.058 A 
ATOM     38  C   UNL A   1      36.843  34.108  29.985  1.00  0.00     0.135 A 
ATOM     39  C   UNL A   1      35.225  32.992  31.374  1.00  0.00     0.135 A 
ATOM     40  F   UNL A   1      38.113  34.387  29.649  1.00  0.00    -0.206 F 
ATOM     41  C   UNL A   1      35.825  34.777  29.314  1.00  0.00     0.059 A 
ATOM     42  C   UNL A   1      34.190  33.634  30.701  1.00  0.00     0.059 A 
ATOM     43  F   UNL A   1      34.911  32.166  32.383  1.00  0.00    -0.206 F 
ATOM     44  C   UNL A   1      34.502  34.546  29.692  1.00  0.00     0.060 A 
BRANCH  44  45
ATOM     45  S   UNL A   1      33.194  35.480  28.869  1.00  0.00     0.124 S 
ATOM     46  O   UNL A   1      33.972  36.455  28.108  1.00  0.00    -0.237 OA
ATOM     47  O   UNL A   1      32.523  34.453  28.080  1.00  0.00    -0.237 OA
ATOM     48  O   UNL A   1      32.418  36.024  29.978  1.00  0.00    -0.744 OA
ENDBRANCH  44  45
ENDBRANCH  23  37
BRANCH  24  49
ATOM     49  C   UNL A   1      44.052  28.757  35.969  1.00  0.00     0.058 A 
ATOM     50  C   UNL A   1      43.825  27.699  36.861  1.00  0.00     0.135 A 
ATOM     51  C   UNL A   1      45.380  29.169  35.771  1.00  0.00     0.135 A 
ATOM     52  F   UNL A   1      42.574  27.270  37.085  1.00  0.00    -0.206 F 
ATOM     53  C   UNL A   1      44.869  27.085  37.545  1.00  0.00     0.059 A 
ATOM     54  C   UNL A   1      46.443  28.561  36.433  1.00  0.00     0.059 A 
ATOM     55  F   UNL A   1      45.654  30.166  34.916  1.00  0.00    -0.206 F 
ATOM     56  C   UNL A   1      46.177  27.524  37.326  1.00  0.00     0.060 A 
BRANCH  56  57
ATOM     57  S   UNL A   1      47.524  26.700  38.202  1.00  0.00     0.124 S 
ATOM     58  O   UNL A   1      48.219  26.028  37.111  1.00  0.00    -0.237 OA
ATOM     59  O   UNL A   1      48.228  27.826  38.809  1.00  0.00    -0.237 OA
ATOM     60  O   UNL A   1      46.828  25.827  39.142  1.00  0.00    -0.744 OA
ENDBRANCH  56  57
ENDBRANCH  24  49
BRANCH  36  61
ATOM     61  C   UNL A   1      39.716  33.988  37.520  1.00  0.00     0.058 A 
ATOM     62  C   UNL A   1      38.923  33.544  38.588  1.00  0.00     0.135 A 
ATOM     63  C   UNL A   1      40.380  35.217  37.656  1.00  0.00     0.135 A 
ATOM     64  F   UNL A   1      38.260  32.381  38.501  1.00  0.00    -0.206 F 
ATOM     65  C   UNL A   1      38.779  34.303  39.744  1.00  0.00     0.059 A 
ATOM     66  C   UNL A   1      40.272  35.979  38.813  1.00  0.00     0.059 A 
ATOM     67  F   UNL A   1      41.157  35.680  36.663  1.00  0.00    -0.206 F 
ATOM     68  C   UNL A   1      39.459  35.519  39.847  1.00  0.00     0.060 A 
BRANCH  68  69
ATOM     69  S   UNL A   1      39.301  36.479  41.368  1.00  0.00     0.124 S 
ATOM     70  O   UNL A   1      40.647  36.371  41.922  1.00  0.00    -0.237 OA
ATOM     71  O   UNL A   1      38.923  37.798  40.872  1.00  0.00    -0.237 OA
ATOM     72  O   UNL A   1      38.258  35.772  42.106  1.00  0.00    -0.744 OA
ENDBRANCH  68  69
ENDBRANCH  36  61
ENDBRANCH  10  11
ENDBRANCH   3   5
ENDBRANCH   2   3
ENDBRANCH   1   2
BRANCH   1  73
ATOM     73  C   UNL A   1      38.065  23.706  25.868  1.00  0.00     0.274 C 
BRANCH  73  74
ATOM     74  O   UNL A   1      37.520  22.805  24.896  1.00  0.00    -0.462 OA
BRANCH  74  75
ATOM     75  C   UNL A   1      36.645  23.354  24.011  1.00  0.00     0.309 C 
ATOM     76  O   UNL A   1      36.711  23.265  22.792  1.00  0.00    -0.252 OA
BRANCH  75  77
ATOM     77  C   UNL A   1      35.505  24.038  24.653  1.00  0.00     0.107 C 
ATOM     78  C   UNL A   1      34.203  24.336  23.978  1.00  0.00     0.025 C 
ATOM     79  C   UNL A   1      34.247  23.309  25.084  1.00  0.00     0.034 C 
BRANCH  79  80
ATOM     80  C   UNL A   1      33.803  21.921  24.683  1.00  0.00    -0.044 A 
ATOM     81  C   UNL A   1      34.415  20.805  25.278  1.00  0.00     0.004 A 
ATOM     82  C   UNL A   1      32.816  21.662  23.728  1.00  0.00     0.004 A 
ATOM     83  C   UNL A   1      34.043  19.498  24.948  1.00  0.00     0.004 A 
ATOM     84  C   UNL A   1      32.417  20.353  23.426  1.00  0.00     0.004 A 
ATOM     85  C   UNL A   1      33.022  19.241  24.027  1.00  0.00    -0.045 A 
BRANCH  85  86
ATOM     86  C   UNL A   1      32.600  17.823  23.738  1.00  0.00     0.019 C 
ATOM     87  C   UNL A   1      33.570  16.795  23.206  1.00  0.00     0.009 C 
ATOM     88  C   UNL A   1      33.111  16.716  24.630  1.00  0.00     0.009 C 
ENDBRANCH  85  86
ENDBRANCH  79  80
ENDBRANCH  75  77
ENDBRANCH  74  75
ENDBRANCH  73  74
ENDBRANCH   1  73
TORSDOF 16
ENDMDL
MODEL 2
REMARK VINA RESULT:     -11.1      4.540      9.680
REMARK SMILES O=C(OCCOC(=O)[C@H]1C[C@H]1c1ccc(C2CC2)cc1)c1ccc(-c2c3nc(c(-c4c(F)cc(S(=O)(=O)[O-])cc4F)c4ccc([nH]4)c(-c4c(F)cc(S(=O)(=O)[O-])cc4F)c4nc(c(-c5c(F)cc(S(=O)(=O)[O-])cc5F)c5ccc2[nH]5)C=C4)C=C3)cc1
REMARK SMILES IDX 4 1 3 2 2 3 1 4 21 5 22 6 86 7 23 8 85 9 24 10 25 11 26 12
REMARK SMILES IDX 79 13 27 14 84 15 78 16 80 17 28 18 83 19 77 20 76 21 29 23
REMARK SMILES IDX 63 24 42 25 62 26 43 27 46 28 61 29 81 30 44 31 45 32 60 34
REMARK SMILES IDX 82 35 47 36 30 37 31 38 40 39 32 40 33 41 39 42 41 43 34 44
REMARK SMILES IDX 35 45 36 46 37 47 38 48 64 49 65 50 74 51 66 52 67 53 73 54
REMARK SMILES IDX 75 55 68 56 69 57 70 58 71 59 72 60 48 61 49 62 58 63 50 64
REMARK SMILES IDX 51 65 57 66 59 67 52 68 53 69 54 70 55 71 56 72 5 73 6 74
REMARK SMILES IDX 7 75 8 76 9 77 10 78 11 79 12 80 13 81 20 82 14 83 19 84
REMARK SMILES IDX 15 85 16 86 17 87 18 88
REMARK H PARENT 80 22 46 33
REMARK Flexibility Score: inf
ROOT
ATOM      1  C   UNL A   1      33.800  28.412  26.433  1.00  0.00     0.275 C 
ENDROOT
BRANCH   1   2
ATOM      2  O   UNL A   1      33.876  29.838  26.613  1.00  0.00    -0.458 OA
BRANCH   2   3
ATOM      3  C   UNL A   1      34.504  30.564  27.569  1.00  0.00     0.338 C 
ATOM      4  O   UNL A   1      34.041  31.666  27.861  1.00  0.00    -0.246 OA
BRANCH   3   5
ATOM      5  C   UNL A   1      35.791  30.161  28.221  1.00  0.00     0.060 A 
ATOM      6  C   UNL A   1      35.923  29.590  29.490  1.00  0.00     0.016 A 
ATOM      7  C   UNL A   1      36.967  30.409  27.488  1.00  0.00     0.016 A 
ATOM      8  C   UNL A   1      37.174  29.190  29.977  1.00  0.00     0.010 A 
ATOM      9  C   UNL A   1      38.222  30.024  27.975  1.00  0.00     0.010 A 
ATOM     10  C   UNL A   1      38.329  29.398  29.221  1.00  0.00    -0.014 A 
BRANCH  10  11
ATOM     11  C   UNL A   1      39.653  29.078  29.799  1.00  0.00     0.031 A 
ATOM     12  C   UNL A   1      40.169  29.929  30.918  1.00  0.00     0.074 A 
ATOM     13  C   UNL A   1      40.363  28.020  29.364  1.00  0.00     0.049 A 
ATOM     14  N   UNL A   1      41.243  29.773  31.645  1.00  0.00    -0.248 NA
ATOM     15  C   UNL A   1      39.350  31.096  31.287  1.00  0.00     0.031 C 
ATOM     16  C   UNL A   1      39.937  27.079  28.331  1.00  0.00     0.029 A 
ATOM     17  N   UNL A   1      41.599  27.558  29.741  1.00  0.00    -0.354 N 
ATOM     18  C   UNL A   1      41.199  30.784  32.594  1.00  0.00     0.074 A 
ATOM     19  C   UNL A   1      40.042  31.600  32.297  1.00  0.00     0.031 C 
ATOM     20  C   UNL A   1      40.915  26.180  28.124  1.00  0.00     0.029 A 
ATOM     21  C   UNL A   1      42.034  26.479  29.008  1.00  0.00     0.049 A 
ATOM     22  H   UNL A   1      42.127  27.962  30.468  1.00  0.00     0.167 HD
ATOM     23  C   UNL A   1      42.025  30.987  33.646  1.00  0.00     0.037 A 
ATOM     24  C   UNL A   1      43.197  25.803  29.047  1.00  0.00     0.037 A 
ATOM     25  C   UNL A   1      43.200  30.202  33.903  1.00  0.00     0.049 A 
ATOM     26  C   UNL A   1      44.190  26.149  30.121  1.00  0.00     0.074 A 
ATOM     27  C   UNL A   1      44.113  30.319  34.934  1.00  0.00     0.029 A 
ATOM     28  N   UNL A   1      43.638  29.160  33.095  1.00  0.00    -0.354 N 
ATOM     29  N   UNL A   1      44.098  27.060  31.061  1.00  0.00    -0.248 NA
ATOM     30  C   UNL A   1      45.420  25.349  30.174  1.00  0.00     0.031 C 
ATOM     31  C   UNL A   1      45.127  29.375  34.727  1.00  0.00     0.029 A 
ATOM     32  C   UNL A   1      44.822  28.642  33.590  1.00  0.00     0.049 A 
ATOM     33  H   UNL A   1      43.173  28.837  32.289  1.00  0.00     0.167 HD
ATOM     34  C   UNL A   1      45.220  26.894  31.863  1.00  0.00     0.074 A 
ATOM     35  C   UNL A   1      45.993  25.817  31.276  1.00  0.00     0.031 C 
ATOM     36  C   UNL A   1      45.562  27.552  32.999  1.00  0.00     0.037 A 
BRANCH  23  37
ATOM     37  C   UNL A   1      41.661  32.115  34.566  1.00  0.00     0.058 A 
ATOM     38  C   UNL A   1      40.786  31.916  35.649  1.00  0.00     0.135 A 
ATOM     39  C   UNL A   1      42.117  33.418  34.321  1.00  0.00     0.135 A 
ATOM     40  F   UNL A   1      40.302  30.691  35.910  1.00  0.00    -0.206 F 
ATOM     41  C   UNL A   1      40.331  32.979  36.420  1.00  0.00     0.059 A 
ATOM     42  C   UNL A   1      41.691  34.494  35.094  1.00  0.00     0.059 A 
ATOM     43  F   UNL A   1      42.948  33.661  33.296  1.00  0.00    -0.206 F 
ATOM     44  C   UNL A   1      40.776  34.267  36.123  1.00  0.00     0.060 A 
BRANCH  44  45
ATOM     45  S   UNL A   1      40.116  35.650  37.079  1.00  0.00     0.124 S 
ATOM     46  O   UNL A   1      39.030  35.002  37.810  1.00  0.00    -0.237 OA
ATOM     47  O   UNL A   1      41.265  36.055  37.881  1.00  0.00    -0.237 OA
ATOM     48  O   UNL A   1      39.703  36.602  36.054  1.00  0.00    -0.744 OA
ENDBRANCH  44  45
ENDBRANCH  23  37
BRANCH  24  49
ATOM     49  C   UNL A   1      43.463  24.714  28.069  1.00  0.00     0.058 A 
ATOM     50  C   UNL A   1      44.128  24.963  26.860  1.00  0.00     0.135 A 
ATOM     51  C   UNL A   1      43.059  23.395  28.332  1.00  0.00     0.135 A 
ATOM     52  F   UNL A   1      44.532  26.206  26.563  1.00  0.00    -0.206 F 
ATOM     53  C   UNL A   1      44.368  23.949  25.937  1.00  0.00     0.059 A 
ATOM     54  C   UNL A   1      43.300  22.361  27.431  1.00  0.00     0.059 A 
ATOM     55  F   UNL A   1      42.434  23.100  29.481  1.00  0.00    -0.206 F 
ATOM     56  C   UNL A   1      43.948  22.650  26.231  1.00  0.00     0.060 A 
BRANCH  56  57
ATOM     57  S   UNL A   1      44.289  21.340  25.035  1.00  0.00     0.124 S 
ATOM     58  O   UNL A   1      45.626  20.918  25.432  1.00  0.00    -0.237 OA
ATOM     59  O   UNL A   1      43.213  20.391  25.306  1.00  0.00    -0.237 OA
ATOM     60  O   UNL A   1      44.199  22.028  23.750  1.00  0.00    -0.744 OA
ENDBRANCH  56  57
ENDBRANCH  24  49
BRANCH  36  61
ATOM     61  C   UNL A   1      46.782  27.070  33.727  1.00  0.00     0.058 A 
ATOM     62  C   UNL A   1      48.053  27.615  33.490  1.00  0.00     0.135 A 
ATOM     63  C   UNL A   1      46.663  26.077  34.711  1.00  0.00     0.135 A 
ATOM     64  F   UNL A   1      48.220  28.560  32.552  1.00  0.00    -0.206 F 
ATOM     65  C   UNL A   1      49.169  27.175  34.193  1.00  0.00     0.059 A 
ATOM     66  C   UNL A   1      47.759  25.641  35.444  1.00  0.00     0.059 A 
ATOM     67  F   UNL A   1      45.465  25.531  34.979  1.00  0.00    -0.206 F 
ATOM     68  C   UNL A   1      49.011  26.188  35.169  1.00  0.00     0.060 A 
BRANCH  68  69
ATOM     69  S   UNL A   1      50.458  25.653  36.107  1.00  0.00     0.124 S 
ATOM     70  O   UNL A   1      51.216  24.931  35.090  1.00  0.00    -0.237 OA
ATOM     71  O   UNL A   1      51.035  26.920  36.548  1.00  0.00    -0.237 OA
ATOM     72  O   UNL A   1      49.886  24.831  37.169  1.00  0.00    -0.744 OA
ENDBRANCH  68  69
ENDBRANCH  36  61
ENDBRANCH  10  11
ENDBRANCH   3   5
ENDBRANCH   2   3
ENDBRANCH   1   2
BRANCH   1  73
ATOM     73  C   UNL A   1      32.464  27.784  26.829  1.00  0.00     0.274 C 
BRANCH  73  74
ATOM     74  O   UNL A   1      32.418  26.381  26.543  1.00  0.00    -0.462 OA
BRANCH  74  75
ATOM     75  C   UNL A   1      31.238  25.919  26.050  1.00  0.00     0.309 C 
ATOM     76  O   UNL A   1      30.158  25.960  26.625  1.00  0.00    -0.252 OA
BRANCH  75  77
ATOM     77  C   UNL A   1      31.334  25.405  24.669  1.00  0.00     0.107 C 
ATOM     78  C   UNL A   1      30.161  25.094  23.794  1.00  0.00     0.025 C 
ATOM     79  C   UNL A   1      31.052  26.264  23.451  1.00  0.00     0.034 C 
BRANCH  79  80
ATOM     80  C   UNL A   1      30.357  27.604  23.411  1.00  0.00    -0.044 A 
ATOM     81  C   UNL A   1      29.003  27.665  23.040  1.00  0.00     0.004 A 
ATOM     82  C   UNL A   1      30.983  28.819  23.707  1.00  0.00     0.004 A 
ATOM     83  C   UNL A   1      28.307  28.878  22.989  1.00  0.00     0.004 A 
ATOM     84  C   UNL A   1      30.275  30.028  23.693  1.00  0.00     0.004 A 
ATOM     85  C   UNL A   1      28.922  30.086  23.332  1.00  0.00    -0.045 A 
BRANCH  85  86
ATOM     86  C   UNL A   1      28.130  31.368  23.327  1.00  0.00     0.019 C 
ATOM     87  C   UNL A   1      28.800  32.720  23.249  1.00  0.00     0.009 C 
ATOM     88  C   UNL A   1      28.071  32.182  22.055  1.00  0.00     0.009 C 
ENDBRANCH  85  86
ENDBRANCH  79  80
ENDBRANCH  75  77
ENDBRANCH  74  75
ENDBRANCH  73  74
ENDBRANCH   1  73
TORSDOF 16
ENDMDL
MODEL 3
REMARK VINA RESULT:     -11.1      5.571     10.799
REMARK SMILES O=C(OCCOC(=O)[C@H]1C[C@H]1c1ccc(C2CC2)cc1)c1ccc(-c2c3nc(c(-c4c(F)cc(S(=O)(=O)[O-])cc4F)c4ccc([nH]4)c(-c4c(F)cc(S(=O)(=O)[O-])cc4F)c4nc(c(-c5c(F)cc(S(=O)(=O)[O-])cc5F)c5ccc2[nH]5)C=C4)C=C3)cc1
REMARK SMILES IDX 4 1 3 2 2 3 1 4 21 5 22 6 86 7 23 8 85 9 24 10 25 11 26 12
REMARK SMILES IDX 79 13 27 14 84 15 78 16 80 17 28 18 83 19 77 20 76 21 29 23
REMARK SMILES IDX 63 24 42 25 62 26 43 27 46 28 61 29 81 30 44 31 45 32 60 34
REMARK SMILES IDX 82 35 47 36 30 37 31 38 40 39 32 40 33 41 39 42 41 43 34 44
REMARK SMILES IDX 35 45 36 46 37 47 38 48 64 49 65 50 74 51 66 52 67 53 73 54
REMARK SMILES IDX 75 55 68 56 69 57 70 58 71 59 72 60 48 61 49 62 58 63 50 64
REMARK SMILES IDX 51 65 57 66 59 67 52 68 53 69 54 70 55 71 56 72 5 73 6 74
REMARK SMILES IDX 7 75 8 76 9 77 10 78 11 79 12 80 13 81 20 82 14 83 19 84
REMARK SMILES IDX 15 85 16 86 17 87 18 88
REMARK H PARENT 80 22 46 33
REMARK Flexibility Score: inf
ROOT
ATOM      1  C   UNL A   1      40.638  21.142  27.326  1.00  0.00     0.275 C 
ENDROOT
BRANCH   1   2
ATOM      2  O   UNL A   1      39.750  21.744  26.366  1.00  0.00    -0.458 OA
BRANCH   2   3
ATOM      3  C   UNL A   1      39.035  22.893  26.439  1.00  0.00     0.338 C 
ATOM      4  O   UNL A   1      37.865  22.875  26.057  1.00  0.00    -0.246 OA
BRANCH   3   5
ATOM      5  C   UNL A   1      39.606  24.213  26.855  1.00  0.00     0.060 A 
ATOM      6  C   UNL A   1      40.289  25.109  26.027  1.00  0.00     0.016 A 
ATOM      7  C   UNL A   1      39.455  24.559  28.211  1.00  0.00     0.016 A 
ATOM      8  C   UNL A   1      40.725  26.349  26.507  1.00  0.00     0.010 A 
ATOM      9  C   UNL A   1      39.901  25.792  28.701  1.00  0.00     0.010 A 
ATOM     10  C   UNL A   1      40.529  26.702  27.843  1.00  0.00    -0.014 A 
BRANCH  10  11
ATOM     11  C   UNL A   1      41.099  27.965  28.362  1.00  0.00     0.031 A 
ATOM     12  C   UNL A   1      42.586  28.144  28.328  1.00  0.00     0.074 A 
ATOM     13  C   UNL A   1      40.304  28.953  28.812  1.00  0.00     0.049 A 
ATOM     14  N   UNL A   1      43.296  29.200  28.625  1.00  0.00    -0.248 NA
ATOM     15  C   UNL A   1      43.377  26.989  27.872  1.00  0.00     0.031 C 
ATOM     16  C   UNL A   1      38.843  28.925  28.832  1.00  0.00     0.029 A 
ATOM     17  N   UNL A   1      40.617  30.179  29.344  1.00  0.00    -0.354 N 
ATOM     18  C   UNL A   1      44.610  28.857  28.335  1.00  0.00     0.074 A 
ATOM     19  C   UNL A   1      44.609  27.470  27.924  1.00  0.00     0.031 C 
ATOM     20  C   UNL A   1      38.389  30.060  29.390  1.00  0.00     0.029 A 
ATOM     21  C   UNL A   1      39.522  30.894  29.767  1.00  0.00     0.049 A 
ATOM     22  H   UNL A   1      41.539  30.516  29.417  1.00  0.00     0.167 HD
ATOM     23  C   UNL A   1      45.710  29.642  28.366  1.00  0.00     0.037 A 
ATOM     24  C   UNL A   1      39.437  32.088  30.383  1.00  0.00     0.037 A 
ATOM     25  C   UNL A   1      45.709  31.004  28.824  1.00  0.00     0.049 A 
ATOM     26  C   UNL A   1      40.697  32.888  30.568  1.00  0.00     0.074 A 
ATOM     27  C   UNL A   1      46.763  31.893  28.904  1.00  0.00     0.029 A 
ATOM     28  N   UNL A   1      44.587  31.667  29.306  1.00  0.00    -0.354 N 
ATOM     29  N   UNL A   1      41.923  32.581  30.217  1.00  0.00    -0.248 NA
ATOM     30  C   UNL A   1      40.560  34.214  31.184  1.00  0.00     0.031 C 
ATOM     31  C   UNL A   1      46.288  33.081  29.476  1.00  0.00     0.029 A 
ATOM     32  C   UNL A   1      44.928  32.945  29.711  1.00  0.00     0.049 A 
ATOM     33  H   UNL A   1      43.681  31.282  29.353  1.00  0.00     0.167 HD
ATOM     34  C   UNL A   1      42.693  33.702  30.500  1.00  0.00     0.074 A 
ATOM     35  C   UNL A   1      41.797  34.682  31.083  1.00  0.00     0.031 C 
ATOM     36  C   UNL A   1      44.012  33.912  30.268  1.00  0.00     0.037 A 
BRANCH  23  37
ATOM     37  C   UNL A   1      46.988  29.011  27.896  1.00  0.00     0.058 A 
ATOM     38  C   UNL A   1      47.359  29.045  26.541  1.00  0.00     0.135 A 
ATOM     39  C   UNL A   1      47.805  28.297  28.784  1.00  0.00     0.135 A 
ATOM     40  F   UNL A   1      46.597  29.695  25.647  1.00  0.00    -0.206 F 
ATOM     41  C   UNL A   1      48.464  28.344  26.073  1.00  0.00     0.059 A 
ATOM     42  C   UNL A   1      48.928  27.605  28.341  1.00  0.00     0.059 A 
ATOM     43  F   UNL A   1      47.491  28.229  30.086  1.00  0.00    -0.206 F 
ATOM     44  C   UNL A   1      49.233  27.612  26.979  1.00  0.00     0.060 A 
BRANCH  44  45
ATOM     45  S   UNL A   1      50.617  26.640  26.348  1.00  0.00     0.124 S 
ATOM     46  O   UNL A   1      51.711  27.603  26.442  1.00  0.00    -0.237 OA
ATOM     47  O   UNL A   1      50.674  25.525  27.287  1.00  0.00    -0.237 OA
ATOM     48  O   UNL A   1      50.199  26.295  24.993  1.00  0.00    -0.744 OA
ENDBRANCH  44  45
ENDBRANCH  23  37
BRANCH  24  49
ATOM     49  C   UNL A   1      38.117  32.610  30.828  1.00  0.00     0.058 A 
ATOM     50  C   UNL A   1      37.297  33.352  29.965  1.00  0.00     0.135 A 
ATOM     51  C   UNL A   1      37.648  32.371  32.129  1.00  0.00     0.135 A 
ATOM     52  F   UNL A   1      37.702  33.609  28.713  1.00  0.00    -0.206 F 
ATOM     53  C   UNL A   1      36.067  33.854  30.381  1.00  0.00     0.059 A 
ATOM     54  C   UNL A   1      36.415  32.849  32.564  1.00  0.00     0.059 A 
ATOM     55  F   UNL A   1      38.386  31.653  32.988  1.00  0.00    -0.206 F 
ATOM     56  C   UNL A   1      35.634  33.598  31.684  1.00  0.00     0.060 A 
BRANCH  56  57
ATOM     57  S   UNL A   1      34.024  34.234  32.200  1.00  0.00     0.124 S 
ATOM     58  O   UNL A   1      33.459  33.081  32.890  1.00  0.00    -0.237 OA
ATOM     59  O   UNL A   1      34.399  35.364  33.046  1.00  0.00    -0.237 OA
ATOM     60  O   UNL A   1      33.385  34.592  30.938  1.00  0.00    -0.744 OA
ENDBRANCH  56  57
ENDBRANCH  24  49
BRANCH  36  61
ATOM     61  C   UNL A   1      44.550  35.280  30.570  1.00  0.00     0.058 A 
ATOM     62  C   UNL A   1      44.533  36.312  29.621  1.00  0.00     0.135 A 
ATOM     63  C   UNL A   1      45.049  35.568  31.850  1.00  0.00     0.135 A 
ATOM     64  F   UNL A   1      44.076  36.083  28.380  1.00  0.00    -0.206 F 
ATOM     65  C   UNL A   1      45.011  37.582  29.926  1.00  0.00     0.059 A 
ATOM     66  C   UNL A   1      45.507  36.836  32.186  1.00  0.00     0.059 A 
ATOM     67  F   UNL A   1      45.079  34.614  32.795  1.00  0.00    -0.206 F 
ATOM     68  C   UNL A   1      45.495  37.834  31.212  1.00  0.00     0.060 A 
BRANCH  68  69
ATOM     69  S   UNL A   1      46.075  39.496  31.614  1.00  0.00     0.124 S 
ATOM     70  O   UNL A   1      44.927  40.040  32.332  1.00  0.00    -0.237 OA
ATOM     71  O   UNL A   1      47.261  39.230  32.422  1.00  0.00    -0.237 OA
ATOM     72  O   UNL A   1      46.337  40.086  30.305  1.00  0.00    -0.744 OA
ENDBRANCH  68  69
ENDBRANCH  36  61
ENDBRANCH  10  11
ENDBRANCH   3   5
ENDBRANCH   2   3
ENDBRANCH   1   2
BRANCH   1  73
ATOM     73  C   UNL A   1      41.727  20.253  26.727  1.00  0.00     0.274 C 
BRANCH  73  74
ATOM     74  O   UNL A   1      42.232  20.772  25.491  1.00  0.00    -0.462 OA
BRANCH  74  75
ATOM     75  C   UNL A   1      43.586  20.782  25.367  1.00  0.00     0.309 C 
ATOM     76  O   UNL A   1      44.342  19.879  25.701  1.00  0.00    -0.252 OA
BRANCH  75  77
ATOM     77  C   UNL A   1      44.110  21.988  24.694  1.00  0.00     0.107 C 
ATOM     78  C   UNL A   1      43.399  23.303  24.633  1.00  0.00     0.025 C 
ATOM     79  C   UNL A   1      44.660  23.179  25.455  1.00  0.00     0.034 C 
BRANCH  79  80
ATOM     80  C   UNL A   1      44.496  23.489  26.924  1.00  0.00    -0.044 A 
ATOM     81  C   UNL A   1      45.627  23.829  27.685  1.00  0.00     0.004 A 
ATOM     82  C   UNL A   1      43.274  23.444  27.601  1.00  0.00     0.004 A 
ATOM     83  C   UNL A   1      45.535  24.128  29.049  1.00  0.00     0.004 A 
ATOM     84  C   UNL A   1      43.176  23.781  28.957  1.00  0.00     0.004 A 
ATOM     85  C   UNL A   1      44.304  24.130  29.712  1.00  0.00    -0.045 A 
BRANCH  85  86
ATOM     86  C   UNL A   1      44.227  24.518  31.167  1.00  0.00     0.019 C 
ATOM     87  C   UNL A   1      45.378  25.194  31.875  1.00  0.00     0.009 C 
ATOM     88  C   UNL A   1      44.153  25.984  31.526  1.00  0.00     0.009 C 
ENDBRANCH  85  86
ENDBRANCH  79  80
ENDBRANCH  75  77
ENDBRANCH  74  75
ENDBRANCH  73  74
ENDBRANCH   1  73
TORSDOF 16
ENDMDL
