MODEL 1
REMARK VINA RESULT:     -11.3      0.000      0.000
REMARK SMILES C[C@H]1[C@H](C(=O)OCCOC(=O)c2ccc(-c3c4nc(c(-c5c(F)cc(S(=O)(=O)[O-])cc5F)c5ccc([nH]5)c(-c5c(F)cc(S(=O)(=O)[O-])cc5F)c5nc(c(-c6c(F)cc(S(=O)(=O)[O-])cc6F)c6ccc3[nH]6)C=C5)C=C4)cc2)CCN1C(=O)COc1ccccc1F
REMARK SMILES IDX 7 1 6 2 4 3 5 4 3 5 1 6 2 7 80 8 78 9 79 10 81 11 82 12
REMARK SMILES IDX 83 13 84 14 85 15 86 16 90 17 87 18 89 19 91 20 88 21 8 22
REMARK SMILES IDX 9 23 10 24 11 25 12 26 13 27 77 28 14 29 76 30 15 31 16 32
REMARK SMILES IDX 17 33 70 34 18 35 75 36 69 37 71 38 19 39 74 40 68 41 67 42
REMARK SMILES IDX 20 44 54 45 33 46 53 47 34 48 37 49 52 50 72 51 35 52 36 53
REMARK SMILES IDX 51 55 73 56 38 57 21 58 22 59 31 60 23 61 24 62 30 63 32 64
REMARK SMILES IDX 25 65 26 66 27 67 28 68 29 69 55 70 56 71 65 72 57 73 58 74
REMARK SMILES IDX 64 75 66 76 59 77 60 78 61 79 62 80 63 81 39 82 40 83 49 84
REMARK SMILES IDX 41 85 42 86 48 87 50 88 43 89 44 90 45 91 46 92 47 93
REMARK H PARENT 71 43 37 54
REMARK Flexibility Score: inf
ROOT
ATOM      1  C   UNL A   1      33.070  29.966  27.175  1.00  0.00     0.274 C 
ENDROOT
BRANCH   1   2
ATOM      2  O   UNL A   1      33.177  28.556  26.895  1.00  0.00    -0.462 OA
BRANCH   2   3
ATOM      3  C   UNL A   1      32.024  27.927  26.558  1.00  0.00     0.311 C 
ATOM      4  O   UNL A   1      31.296  27.341  27.351  1.00  0.00    -0.252 OA
BRANCH   3   5
ATOM      5  C   UNL A   1      31.735  27.942  25.076  1.00  0.00     0.123 C 
ATOM      6  C   UNL A   1      33.418  28.898  23.477  1.00  0.00     0.032 C 
ATOM      7  C   UNL A   1      32.916  27.609  24.133  1.00  0.00     0.096 C 
ATOM      8  N   UNL A   1      32.338  26.654  23.170  1.00  0.00    -0.336 N 
ATOM      9  C   UNL A   1      30.646  26.923  24.757  1.00  0.00     0.039 C 
ATOM     10  C   UNL A   1      30.896  26.594  23.306  1.00  0.00     0.121 C 
BRANCH   8  11
ATOM     11  C   UNL A   1      32.969  25.797  22.293  1.00  0.00     0.260 C 
ATOM     12  O   UNL A   1      33.604  26.225  21.321  1.00  0.00    -0.271 OA
BRANCH  11  13
ATOM     13  C   UNL A   1      32.870  24.281  22.503  1.00  0.00     0.329 C 
BRANCH  13  14
ATOM     14  O   UNL A   1      33.206  23.636  23.713  1.00  0.00    -0.481 OA
BRANCH  14  15
ATOM     15  C   UNL A   1      34.494  23.646  24.168  1.00  0.00     0.155 A 
ATOM     16  C   UNL A   1      35.413  23.050  23.297  1.00  0.00     0.049 A 
ATOM     17  C   UNL A   1      34.944  24.041  25.427  1.00  0.00     0.165 A 
ATOM     18  C   UNL A   1      36.749  22.873  23.670  1.00  0.00     0.004 A 
ATOM     19  C   UNL A   1      36.274  23.864  25.808  1.00  0.00     0.043 A 
ATOM     20  F   UNL A   1      34.121  24.535  26.356  1.00  0.00    -0.203 F 
ATOM     21  C   UNL A   1      37.180  23.278  24.930  1.00  0.00     0.003 A 
ENDBRANCH  14  15
ENDBRANCH  13  14
ENDBRANCH  11  13
ENDBRANCH   8  11
ENDBRANCH   3   5
ENDBRANCH   2   3
ENDBRANCH   1   2
BRANCH   1  22
ATOM     22  C   UNL A   1      34.445  30.627  27.306  1.00  0.00     0.275 C 
BRANCH  22  23
ATOM     23  O   UNL A   1      35.396  29.773  27.967  1.00  0.00    -0.458 OA
BRANCH  23  24
ATOM     24  C   UNL A   1      36.050  30.345  29.004  1.00  0.00     0.338 C 
ATOM     25  O   UNL A   1      35.556  30.919  29.959  1.00  0.00    -0.246 OA
BRANCH  24  26
ATOM     26  C   UNL A   1      37.491  30.081  28.889  1.00  0.00     0.060 A 
ATOM     27  C   UNL A   1      38.027  29.827  27.624  1.00  0.00     0.016 A 
ATOM     28  C   UNL A   1      38.286  29.983  30.029  1.00  0.00     0.016 A 
ATOM     29  C   UNL A   1      39.355  29.436  27.490  1.00  0.00     0.010 A 
ATOM     30  C   UNL A   1      39.627  29.620  29.891  1.00  0.00     0.010 A 
ATOM     31  C   UNL A   1      40.164  29.329  28.624  1.00  0.00    -0.014 A 
BRANCH  31  32
ATOM     32  C   UNL A   1      41.572  28.887  28.503  1.00  0.00     0.031 A 
ATOM     33  C   UNL A   1      42.675  29.900  28.606  1.00  0.00     0.074 A 
ATOM     34  C   UNL A   1      41.851  27.591  28.272  1.00  0.00     0.049 A 
ATOM     35  N   UNL A   1      43.942  29.773  28.315  1.00  0.00    -0.248 NA
ATOM     36  C   UNL A   1      42.298  31.235  29.096  1.00  0.00     0.031 C 
ATOM     37  C   UNL A   1      40.865  26.511  28.218  1.00  0.00     0.029 A 
ATOM     38  N   UNL A   1      43.045  26.968  28.013  1.00  0.00    -0.354 N 
ATOM     39  C   UNL A   1      44.509  31.020  28.547  1.00  0.00     0.074 A 
ATOM     40  C   UNL A   1      43.447  31.890  29.006  1.00  0.00     0.031 C 
ATOM     41  C   UNL A   1      41.493  25.360  27.924  1.00  0.00     0.029 A 
ATOM     42  C   UNL A   1      42.909  25.635  27.706  1.00  0.00     0.049 A 
ATOM     43  H   UNL A   1      43.914  27.430  28.043  1.00  0.00     0.167 HD
ATOM     44  C   UNL A   1      45.798  31.398  28.380  1.00  0.00     0.037 A 
ATOM     45  C   UNL A   1      43.814  24.749  27.247  1.00  0.00     0.037 A 
ATOM     46  C   UNL A   1      46.843  30.511  27.942  1.00  0.00     0.049 A 
ATOM     47  C   UNL A   1      45.228  25.205  27.013  1.00  0.00     0.074 A 
ATOM     48  C   UNL A   1      48.183  30.792  27.738  1.00  0.00     0.029 A 
ATOM     49  N   UNL A   1      46.665  29.167  27.642  1.00  0.00    -0.354 N 
ATOM     50  N   UNL A   1      45.749  26.395  27.198  1.00  0.00    -0.248 NA
ATOM     51  C   UNL A   1      46.175  24.208  26.495  1.00  0.00     0.031 C 
ATOM     52  C   UNL A   1      48.808  29.626  27.284  1.00  0.00     0.029 A 
ATOM     53  C   UNL A   1      47.867  28.609  27.244  1.00  0.00     0.049 A 
ATOM     54  H   UNL A   1      45.809  28.684  27.703  1.00  0.00     0.167 HD
ATOM     55  C   UNL A   1      47.089  26.283  26.846  1.00  0.00     0.074 A 
ATOM     56  C   UNL A   1      47.299  24.910  26.435  1.00  0.00     0.031 C 
ATOM     57  C   UNL A   1      48.057  27.230  26.865  1.00  0.00     0.037 A 
BRANCH  44  58
ATOM     58  C   UNL A   1      46.141  32.838  28.635  1.00  0.00     0.058 A 
ATOM     59  C   UNL A   1      46.076  33.807  27.622  1.00  0.00     0.135 A 
ATOM     60  C   UNL A   1      46.515  33.259  29.921  1.00  0.00     0.135 A 
ATOM     61  F   UNL A   1      45.740  33.454  26.370  1.00  0.00    -0.206 F 
ATOM     62  C   UNL A   1      46.392  35.139  27.869  1.00  0.00     0.059 A 
ATOM     63  C   UNL A   1      46.815  34.590  30.197  1.00  0.00     0.059 A 
ATOM     64  F   UNL A   1      46.596  32.372  30.926  1.00  0.00    -0.206 F 
ATOM     65  C   UNL A   1      46.765  35.520  29.159  1.00  0.00     0.060 A 
BRANCH  65  66
ATOM     66  S   UNL A   1      47.179  37.251  29.467  1.00  0.00     0.124 S 
ATOM     67  O   UNL A   1      48.610  37.162  29.738  1.00  0.00    -0.237 OA
ATOM     68  O   UNL A   1      46.812  37.891  28.208  1.00  0.00    -0.237 OA
ATOM     69  O   UNL A   1      46.343  37.602  30.611  1.00  0.00    -0.744 OA
ENDBRANCH  65  66
ENDBRANCH  44  58
BRANCH  45  70
ATOM     70  C   UNL A   1      43.394  23.356  26.942  1.00  0.00     0.058 A 
ATOM     71  C   UNL A   1      43.324  22.897  25.620  1.00  0.00     0.135 A 
ATOM     72  C   UNL A   1      43.083  22.449  27.968  1.00  0.00     0.135 A 
ATOM     73  F   UNL A   1      43.603  23.729  24.605  1.00  0.00    -0.206 F 
ATOM     74  C   UNL A   1      42.954  21.589  25.323  1.00  0.00     0.059 A 
ATOM     75  C   UNL A   1      42.734  21.131  27.698  1.00  0.00     0.059 A 
ATOM     76  F   UNL A   1      43.149  22.837  29.252  1.00  0.00    -0.206 F 
ATOM     77  C   UNL A   1      42.664  20.712  26.371  1.00  0.00     0.060 A 
BRANCH  77  78
ATOM     78  S   UNL A   1      42.241  19.001  25.979  1.00  0.00     0.124 S 
ATOM     79  O   UNL A   1      43.012  18.781  24.761  1.00  0.00    -0.237 OA
ATOM     80  O   UNL A   1      42.703  18.288  27.165  1.00  0.00    -0.237 OA
ATOM     81  O   UNL A   1      40.791  19.045  25.809  1.00  0.00    -0.744 OA
ENDBRANCH  77  78
ENDBRANCH  45  70
BRANCH  57  82
ATOM     82  C   UNL A   1      49.447  26.814  26.482  1.00  0.00     0.058 A 
ATOM     83  C   UNL A   1      50.301  26.179  27.395  1.00  0.00     0.135 A 
ATOM     84  C   UNL A   1      49.887  26.962  25.157  1.00  0.00     0.135 A 
ATOM     85  F   UNL A   1      49.929  26.022  28.674  1.00  0.00    -0.206 F 
ATOM     86  C   UNL A   1      51.547  25.699  27.003  1.00  0.00     0.059 A 
ATOM     87  C   UNL A   1      51.119  26.473  24.740  1.00  0.00     0.059 A 
ATOM     88  F   UNL A   1      49.099  27.558  24.247  1.00  0.00    -0.206 F 
ATOM     89  C   UNL A   1      51.943  25.842  25.671  1.00  0.00     0.060 A 
BRANCH  89  90
ATOM     90  S   UNL A   1      53.526  25.142  25.157  1.00  0.00     0.124 S 
ATOM     91  O   UNL A   1      53.288  23.715  25.335  1.00  0.00    -0.237 OA
ATOM     92  O   UNL A   1      53.637  25.599  23.775  1.00  0.00    -0.237 OA
ATOM     93  O   UNL A   1      54.480  25.741  26.086  1.00  0.00    -0.744 OA
ENDBRANCH  89  90
ENDBRANCH  57  82
ENDBRANCH  31  32
ENDBRANCH  24  26
ENDBRANCH  23  24
ENDBRANCH  22  23
ENDBRANCH   1  22
TORSDOF 18
ENDMDL
MODEL 2
REMARK VINA RESULT:     -10.9      6.692     12.032
REMARK SMILES C[C@H]1[C@H](C(=O)OCCOC(=O)c2ccc(-c3c4nc(c(-c5c(F)cc(S(=O)(=O)[O-])cc5F)c5ccc([nH]5)c(-c5c(F)cc(S(=O)(=O)[O-])cc5F)c5nc(c(-c6c(F)cc(S(=O)(=O)[O-])cc6F)c6ccc3[nH]6)C=C5)C=C4)cc2)CCN1C(=O)COc1ccccc1F
REMARK SMILES IDX 7 1 6 2 4 3 5 4 3 5 1 6 2 7 80 8 78 9 79 10 81 11 82 12
REMARK SMILES IDX 83 13 84 14 85 15 86 16 90 17 87 18 89 19 91 20 88 21 8 22
REMARK SMILES IDX 9 23 10 24 11 25 12 26 13 27 77 28 14 29 76 30 15 31 16 32
REMARK SMILES IDX 17 33 70 34 18 35 75 36 69 37 71 38 19 39 74 40 68 41 67 42
REMARK SMILES IDX 20 44 54 45 33 46 53 47 34 48 37 49 52 50 72 51 35 52 36 53
REMARK SMILES IDX 51 55 73 56 38 57 21 58 22 59 31 60 23 61 24 62 30 63 32 64
REMARK SMILES IDX 25 65 26 66 27 67 28 68 29 69 55 70 56 71 65 72 57 73 58 74
REMARK SMILES IDX 64 75 66 76 59 77 60 78 61 79 62 80 63 81 39 82 40 83 49 84
REMARK SMILES IDX 41 85 42 86 48 87 50 88 43 89 44 90 45 91 46 92 47 93
REMARK H PARENT 71 43 37 54
REMARK Flexibility Score: inf
ROOT
ATOM      1  C   UNL A   1      37.025  23.707  24.778  1.00  0.00     0.274 C 
ENDROOT
BRANCH   1   2
ATOM      2  O   UNL A   1      35.906  22.798  24.798  1.00  0.00    -0.462 OA
BRANCH   2   3
ATOM      3  C   UNL A   1      35.162  22.747  23.666  1.00  0.00     0.311 C 
ATOM      4  O   UNL A   1      35.595  22.970  22.541  1.00  0.00    -0.252 OA
BRANCH   3   5
ATOM      5  C   UNL A   1      33.701  22.459  23.912  1.00  0.00     0.123 C 
ATOM      6  C   UNL A   1      32.998  21.189  25.960  1.00  0.00     0.032 C 
ATOM      7  C   UNL A   1      33.202  22.587  25.371  1.00  0.00     0.096 C 
ATOM      8  N   UNL A   1      31.949  23.354  25.248  1.00  0.00    -0.336 N 
ATOM      9  C   UNL A   1      32.845  23.419  23.093  1.00  0.00     0.039 C 
ATOM     10  C   UNL A   1      31.547  23.465  23.860  1.00  0.00     0.121 C 
BRANCH   8  11
ATOM     11  C   UNL A   1      31.225  24.019  26.216  1.00  0.00     0.260 C 
ATOM     12  O   UNL A   1      31.317  23.713  27.411  1.00  0.00    -0.271 OA
BRANCH  11  13
ATOM     13  C   UNL A   1      30.266  25.146  25.811  1.00  0.00     0.329 C 
BRANCH  13  14
ATOM     14  O   UNL A   1      30.696  26.414  25.363  1.00  0.00    -0.481 OA
BRANCH  14  15
ATOM     15  C   UNL A   1      31.742  27.045  25.973  1.00  0.00     0.155 A 
ATOM     16  C   UNL A   1      31.360  27.982  26.940  1.00  0.00     0.049 A 
ATOM     17  C   UNL A   1      33.094  26.961  25.639  1.00  0.00     0.165 A 
ATOM     18  C   UNL A   1      32.307  28.798  27.568  1.00  0.00     0.004 A 
ATOM     19  C   UNL A   1      34.044  27.774  26.257  1.00  0.00     0.043 A 
ATOM     20  F   UNL A   1      33.538  26.162  24.666  1.00  0.00    -0.203 F 
ATOM     21  C   UNL A   1      33.652  28.696  27.223  1.00  0.00     0.003 A 
ENDBRANCH  14  15
ENDBRANCH  13  14
ENDBRANCH  11  13
ENDBRANCH   8  11
ENDBRANCH   3   5
ENDBRANCH   2   3
ENDBRANCH   1   2
BRANCH   1  22
ATOM     22  C   UNL A   1      38.035  23.392  25.887  1.00  0.00     0.275 C 
BRANCH  22  23
ATOM     23  O   UNL A   1      38.630  24.583  26.431  1.00  0.00    -0.458 OA
BRANCH  23  24
ATOM     24  C   UNL A   1      39.826  24.396  27.038  1.00  0.00     0.338 C 
ATOM     25  O   UNL A   1      40.678  23.575  26.745  1.00  0.00    -0.246 OA
BRANCH  24  26
ATOM     26  C   UNL A   1      40.026  25.424  28.069  1.00  0.00     0.060 A 
ATOM     27  C   UNL A   1      39.048  25.584  29.054  1.00  0.00     0.016 A 
ATOM     28  C   UNL A   1      41.116  26.288  28.004  1.00  0.00     0.016 A 
ATOM     29  C   UNL A   1      39.133  26.634  29.962  1.00  0.00     0.010 A 
ATOM     30  C   UNL A   1      41.216  27.324  28.933  1.00  0.00     0.010 A 
ATOM     31  C   UNL A   1      40.218  27.513  29.907  1.00  0.00    -0.014 A 
BRANCH  31  32
ATOM     32  C   UNL A   1      40.310  28.653  30.847  1.00  0.00     0.031 A 
ATOM     33  C   UNL A   1      41.291  28.597  31.982  1.00  0.00     0.074 A 
ATOM     34  C   UNL A   1      39.495  29.713  30.697  1.00  0.00     0.049 A 
ATOM     35  N   UNL A   1      41.384  29.368  33.032  1.00  0.00    -0.248 NA
ATOM     36  C   UNL A   1      42.298  27.524  31.928  1.00  0.00     0.031 C 
ATOM     37  C   UNL A   1      38.550  29.904  29.596  1.00  0.00     0.029 A 
ATOM     38  N   UNL A   1      39.314  30.818  31.490  1.00  0.00    -0.354 N 
ATOM     39  C   UNL A   1      42.431  28.854  33.786  1.00  0.00     0.074 A 
ATOM     40  C   UNL A   1      42.945  27.705  33.071  1.00  0.00     0.031 C 
ATOM     41  C   UNL A   1      37.875  31.048  29.793  1.00  0.00     0.029 A 
ATOM     42  C   UNL A   1      38.293  31.633  31.063  1.00  0.00     0.049 A 
ATOM     43  H   UNL A   1      39.861  31.008  32.286  1.00  0.00     0.167 HD
ATOM     44  C   UNL A   1      42.908  29.300  34.971  1.00  0.00     0.037 A 
ATOM     45  C   UNL A   1      37.723  32.700  31.656  1.00  0.00     0.037 A 
ATOM     46  C   UNL A   1      42.395  30.459  35.656  1.00  0.00     0.049 A 
ATOM     47  C   UNL A   1      38.229  33.144  33.001  1.00  0.00     0.074 A 
ATOM     48  C   UNL A   1      42.805  30.997  36.863  1.00  0.00     0.029 A 
ATOM     49  N   UNL A   1      41.361  31.259  35.190  1.00  0.00    -0.354 N 
ATOM     50  N   UNL A   1      39.194  32.631  33.726  1.00  0.00    -0.248 NA
ATOM     51  C   UNL A   1      37.564  34.301  33.616  1.00  0.00     0.031 C 
ATOM     52  C   UNL A   1      41.997  32.104  37.143  1.00  0.00     0.029 A 
ATOM     53  C   UNL A   1      41.111  32.279  36.091  1.00  0.00     0.049 A 
ATOM     54  H   UNL A   1      40.877  31.120  34.344  1.00  0.00     0.167 HD
ATOM     55  C   UNL A   1      39.270  33.417  34.870  1.00  0.00     0.074 A 
ATOM     56  C   UNL A   1      38.253  34.440  34.742  1.00  0.00     0.031 C 
ATOM     57  C   UNL A   1      40.109  33.304  35.928  1.00  0.00     0.037 A 
BRANCH  44  58
ATOM     58  C   UNL A   1      44.011  28.515  35.621  1.00  0.00     0.058 A 
ATOM     59  C   UNL A   1      43.749  27.473  36.523  1.00  0.00     0.135 A 
ATOM     60  C   UNL A   1      45.353  28.793  35.313  1.00  0.00     0.135 A 
ATOM     61  F   UNL A   1      42.484  27.177  36.864  1.00  0.00    -0.206 F 
ATOM     62  C   UNL A   1      44.779  26.749  37.115  1.00  0.00     0.059 A 
ATOM     63  C   UNL A   1      46.398  28.068  35.877  1.00  0.00     0.059 A 
ATOM     64  F   UNL A   1      45.659  29.783  34.459  1.00  0.00    -0.206 F 
ATOM     65  C   UNL A   1      46.101  27.057  36.790  1.00  0.00     0.060 A 
BRANCH  65  66
ATOM     66  S   UNL A   1      47.428  26.114  37.570  1.00  0.00     0.124 S 
ATOM     67  O   UNL A   1      47.226  26.442  38.978  1.00  0.00    -0.237 OA
ATOM     68  O   UNL A   1      47.108  24.743  37.187  1.00  0.00    -0.237 OA
ATOM     69  O   UNL A   1      48.637  26.665  36.964  1.00  0.00    -0.744 OA
ENDBRANCH  65  66
ENDBRANCH  44  58
BRANCH  45  70
ATOM     70  C   UNL A   1      36.583  33.390  30.996  1.00  0.00     0.058 A 
ATOM     71  C   UNL A   1      35.280  33.270  31.498  1.00  0.00     0.135 A 
ATOM     72  C   UNL A   1      36.780  34.204  29.870  1.00  0.00     0.135 A 
ATOM     73  F   UNL A   1      35.041  32.495  32.567  1.00  0.00    -0.206 F 
ATOM     74  C   UNL A   1      34.209  33.928  30.902  1.00  0.00     0.059 A 
ATOM     75  C   UNL A   1      35.729  34.891  29.272  1.00  0.00     0.059 A 
ATOM     76  F   UNL A   1      38.012  34.361  29.360  1.00  0.00    -0.206 F 
ATOM     77  C   UNL A   1      34.445  34.740  29.790  1.00  0.00     0.060 A 
BRANCH  77  78
ATOM     78  S   UNL A   1      33.058  35.636  29.060  1.00  0.00     0.124 S 
ATOM     79  O   UNL A   1      33.741  36.742  28.398  1.00  0.00    -0.237 OA
ATOM     80  O   UNL A   1      32.469  34.632  28.180  1.00  0.00    -0.237 OA
ATOM     81  O   UNL A   1      32.246  35.998  30.218  1.00  0.00    -0.744 OA
ENDBRANCH  77  78
ENDBRANCH  45  70
BRANCH  57  82
ATOM     82  C   UNL A   1      40.008  34.336  37.011  1.00  0.00     0.058 A 
ATOM     83  C   UNL A   1      40.648  35.579  36.905  1.00  0.00     0.135 A 
ATOM     84  C   UNL A   1      39.175  34.115  38.120  1.00  0.00     0.135 A 
ATOM     85  F   UNL A   1      41.461  35.834  35.869  1.00  0.00    -0.206 F 
ATOM     86  C   UNL A   1      40.462  36.571  37.862  1.00  0.00     0.059 A 
ATOM     87  C   UNL A   1      38.959  35.099  39.077  1.00  0.00     0.059 A 
ATOM     88  F   UNL A   1      38.535  32.942  38.260  1.00  0.00    -0.206 F 
ATOM     89  C   UNL A   1      39.608  36.326  38.940  1.00  0.00     0.060 A 
BRANCH  89  90
ATOM     90  S   UNL A   1      39.310  37.650  40.130  1.00  0.00     0.124 S 
ATOM     91  O   UNL A   1      40.593  38.343  40.127  1.00  0.00    -0.237 OA
ATOM     92  O   UNL A   1      38.197  38.373  39.523  1.00  0.00    -0.237 OA
ATOM     93  O   UNL A   1      38.986  36.933  41.360  1.00  0.00    -0.744 OA
ENDBRANCH  89  90
ENDBRANCH  57  82
ENDBRANCH  31  32
ENDBRANCH  24  26
ENDBRANCH  23  24
ENDBRANCH  22  23
ENDBRANCH   1  22
TORSDOF 18
ENDMDL
MODEL 3
REMARK VINA RESULT:     -10.9      4.187     10.847
REMARK SMILES C[C@H]1[C@H](C(=O)OCCOC(=O)c2ccc(-c3c4nc(c(-c5c(F)cc(S(=O)(=O)[O-])cc5F)c5ccc([nH]5)c(-c5c(F)cc(S(=O)(=O)[O-])cc5F)c5nc(c(-c6c(F)cc(S(=O)(=O)[O-])cc6F)c6ccc3[nH]6)C=C5)C=C4)cc2)CCN1C(=O)COc1ccccc1F
REMARK SMILES IDX 7 1 6 2 4 3 5 4 3 5 1 6 2 7 80 8 78 9 79 10 81 11 82 12
REMARK SMILES IDX 83 13 84 14 85 15 86 16 90 17 87 18 89 19 91 20 88 21 8 22
REMARK SMILES IDX 9 23 10 24 11 25 12 26 13 27 77 28 14 29 76 30 15 31 16 32
REMARK SMILES IDX 17 33 70 34 18 35 75 36 69 37 71 38 19 39 74 40 68 41 67 42
REMARK SMILES IDX 20 44 54 45 33 46 53 47 34 48 37 49 52 50 72 51 35 52 36 53
REMARK SMILES IDX 51 55 73 56 38 57 21 58 22 59 31 60 23 61 24 62 30 63 32 64
REMARK SMILES IDX 25 65 26 66 27 67 28 68 29 69 55 70 56 71 65 72 57 73 58 74
REMARK SMILES IDX 64 75 66 76 59 77 60 78 61 79 62 80 63 81 39 82 40 83 49 84
REMARK SMILES IDX 41 85 42 86 48 87 50 88 43 89 44 90 45 91 46 92 47 93
REMARK H PARENT 71 43 37 54
REMARK Flexibility Score: inf
ROOT
ATOM      1  C   UNL A   1      41.729  19.362  26.390  1.00  0.00     0.274 C 
ENDROOT
BRANCH   1   2
ATOM      2  O   UNL A   1      42.362  19.219  25.103  1.00  0.00    -0.462 OA
BRANCH   2   3
ATOM      3  C   UNL A   1      43.718  19.215  25.106  1.00  0.00     0.311 C 
ATOM      4  O   UNL A   1      44.409  18.235  25.364  1.00  0.00    -0.252 OA
BRANCH   3   5
ATOM      5  C   UNL A   1      44.330  20.567  24.830  1.00  0.00     0.123 C 
ATOM      6  C   UNL A   1      42.959  22.650  25.119  1.00  0.00     0.032 C 
ATOM      7  C   UNL A   1      43.957  21.712  25.802  1.00  0.00     0.096 C 
ATOM      8  N   UNL A   1      45.250  22.355  26.098  1.00  0.00    -0.336 N 
ATOM      9  C   UNL A   1      45.851  20.460  24.875  1.00  0.00     0.039 C 
ATOM     10  C   UNL A   1      46.286  21.865  25.211  1.00  0.00     0.121 C 
BRANCH   8  11
ATOM     11  C   UNL A   1      45.588  23.227  27.112  1.00  0.00     0.260 C 
ATOM     12  O   UNL A   1      46.693  23.784  27.140  1.00  0.00    -0.271 OA
BRANCH  11  13
ATOM     13  C   UNL A   1      44.591  23.502  28.245  1.00  0.00     0.329 C 
BRANCH  13  14
ATOM     14  O   UNL A   1      44.863  23.242  29.606  1.00  0.00    -0.481 OA
BRANCH  14  15
ATOM     15  C   UNL A   1      44.750  24.236  30.536  1.00  0.00     0.155 A 
ATOM     16  C   UNL A   1      45.235  25.477  30.109  1.00  0.00     0.049 A 
ATOM     17  C   UNL A   1      44.354  24.109  31.867  1.00  0.00     0.165 A 
ATOM     18  C   UNL A   1      45.302  26.565  30.985  1.00  0.00     0.004 A 
ATOM     19  C   UNL A   1      44.421  25.188  32.748  1.00  0.00     0.043 A 
ATOM     20  F   UNL A   1      43.964  22.942  32.387  1.00  0.00    -0.203 F 
ATOM     21  C   UNL A   1      44.897  26.420  32.309  1.00  0.00     0.003 A 
ENDBRANCH  14  15
ENDBRANCH  13  14
ENDBRANCH  11  13
ENDBRANCH   8  11
ENDBRANCH   3   5
ENDBRANCH   2   3
ENDBRANCH   1   2
BRANCH   1  22
ATOM     22  C   UNL A   1      40.335  19.987  26.273  1.00  0.00     0.275 C 
BRANCH  22  23
ATOM     23  O   UNL A   1      40.197  21.159  27.095  1.00  0.00    -0.458 OA
BRANCH  23  24
ATOM     24  C   UNL A   1      39.386  22.117  26.588  1.00  0.00     0.338 C 
ATOM     25  O   UNL A   1      38.361  21.951  25.951  1.00  0.00    -0.246 OA
BRANCH  24  26
ATOM     26  C   UNL A   1      39.855  23.442  27.016  1.00  0.00     0.060 A 
ATOM     27  C   UNL A   1      39.493  24.559  26.258  1.00  0.00     0.016 A 
ATOM     28  C   UNL A   1      40.727  23.570  28.095  1.00  0.00     0.016 A 
ATOM     29  C   UNL A   1      40.030  25.808  26.549  1.00  0.00     0.010 A 
ATOM     30  C   UNL A   1      41.242  24.830  28.405  1.00  0.00     0.010 A 
ATOM     31  C   UNL A   1      40.910  25.953  27.625  1.00  0.00    -0.014 A 
BRANCH  31  32
ATOM     32  C   UNL A   1      41.512  27.269  27.932  1.00  0.00     0.031 A 
ATOM     33  C   UNL A   1      42.973  27.492  27.668  1.00  0.00     0.074 A 
ATOM     34  C   UNL A   1      40.757  28.242  28.474  1.00  0.00     0.049 A 
ATOM     35  N   UNL A   1      43.742  28.473  28.059  1.00  0.00    -0.248 NA
ATOM     36  C   UNL A   1      43.658  26.471  26.859  1.00  0.00     0.031 C 
ATOM     37  C   UNL A   1      39.316  28.159  28.715  1.00  0.00     0.029 A 
ATOM     38  N   UNL A   1      41.104  29.482  28.945  1.00  0.00    -0.354 N 
ATOM     39  C   UNL A   1      45.011  28.170  27.581  1.00  0.00     0.074 A 
ATOM     40  C   UNL A   1      44.908  26.916  26.867  1.00  0.00     0.031 C 
ATOM     41  C   UNL A   1      38.905  29.293  29.306  1.00  0.00     0.029 A 
ATOM     42  C   UNL A   1      40.062  30.150  29.543  1.00  0.00     0.049 A 
ATOM     43  H   UNL A   1      42.011  29.858  28.863  1.00  0.00     0.167 HD
ATOM     44  C   UNL A   1      46.155  28.876  27.736  1.00  0.00     0.037 A 
ATOM     45  C   UNL A   1      40.051  31.297  30.250  1.00  0.00     0.037 A 
ATOM     46  C   UNL A   1      46.232  30.134  28.433  1.00  0.00     0.049 A 
ATOM     47  C   UNL A   1      41.344  32.036  30.461  1.00  0.00     0.074 A 
ATOM     48  C   UNL A   1      47.342  30.932  28.650  1.00  0.00     0.029 A 
ATOM     49  N   UNL A   1      45.154  30.778  29.024  1.00  0.00    -0.354 N 
ATOM     50  N   UNL A   1      42.547  31.725  30.039  1.00  0.00    -0.248 NA
ATOM     51  C   UNL A   1      41.286  33.271  31.254  1.00  0.00     0.031 C 
ATOM     52  C   UNL A   1      46.940  32.043  29.400  1.00  0.00     0.029 A 
ATOM     53  C   UNL A   1      45.573  31.956  29.615  1.00  0.00     0.049 A 
ATOM     54  H   UNL A   1      44.227  30.443  29.022  1.00  0.00     0.167 HD
ATOM     55  C   UNL A   1      43.383  32.738  30.490  1.00  0.00     0.074 A 
ATOM     56  C   UNL A   1      42.550  33.672  31.220  1.00  0.00     0.031 C 
ATOM     57  C   UNL A   1      44.718  32.885  30.314  1.00  0.00     0.037 A 
BRANCH  44  58
ATOM     58  C   UNL A   1      47.420  28.289  27.177  1.00  0.00     0.058 A 
ATOM     59  C   UNL A   1      47.727  28.353  25.810  1.00  0.00     0.135 A 
ATOM     60  C   UNL A   1      48.351  27.675  28.030  1.00  0.00     0.135 A 
ATOM     61  F   UNL A   1      46.862  28.914  24.949  1.00  0.00    -0.206 F 
ATOM     62  C   UNL A   1      48.903  27.809  25.303  1.00  0.00     0.059 A 
ATOM     63  C   UNL A   1      49.544  27.143  27.549  1.00  0.00     0.059 A 
ATOM     64  F   UNL A   1      48.104  27.584  29.347  1.00  0.00    -0.206 F 
ATOM     65  C   UNL A   1      49.803  27.202  26.181  1.00  0.00     0.060 A 
BRANCH  65  66
ATOM     66  S   UNL A   1      51.323  26.494  25.511  1.00  0.00     0.124 S 
ATOM     67  O   UNL A   1      51.119  26.676  24.077  1.00  0.00    -0.237 OA
ATOM     68  O   UNL A   1      52.354  27.333  26.114  1.00  0.00    -0.237 OA
ATOM     69  O   UNL A   1      51.290  25.112  25.980  1.00  0.00    -0.744 OA
ENDBRANCH  65  66
ENDBRANCH  44  58
BRANCH  45  70
ATOM     70  C   UNL A   1      38.779  31.787  30.842  1.00  0.00     0.058 A 
ATOM     71  C   UNL A   1      38.404  31.429  32.144  1.00  0.00     0.135 A 
ATOM     72  C   UNL A   1      37.929  32.646  30.128  1.00  0.00     0.135 A 
ATOM     73  F   UNL A   1      39.180  30.603  32.862  1.00  0.00    -0.206 F 
ATOM     74  C   UNL A   1      37.227  31.899  32.716  1.00  0.00     0.059 A 
ATOM     75  C   UNL A   1      36.759  33.148  30.687  1.00  0.00     0.059 A 
ATOM     76  F   UNL A   1      38.250  33.029  28.882  1.00  0.00    -0.206 F 
ATOM     77  C   UNL A   1      36.412  32.762  31.981  1.00  0.00     0.060 A 
BRANCH  77  78
ATOM     78  S   UNL A   1      34.915  33.413  32.753  1.00  0.00     0.124 S 
ATOM     79  O   UNL A   1      35.008  34.830  32.420  1.00  0.00    -0.237 OA
ATOM     80  O   UNL A   1      33.864  32.664  32.073  1.00  0.00    -0.237 OA
ATOM     81  O   UNL A   1      35.097  33.083  34.164  1.00  0.00    -0.744 OA
ENDBRANCH  77  78
ENDBRANCH  45  70
BRANCH  57  82
ATOM     82  C   UNL A   1      45.364  34.120  30.869  1.00  0.00     0.058 A 
ATOM     83  C   UNL A   1      45.959  34.132  32.138  1.00  0.00     0.135 A 
ATOM     84  C   UNL A   1      45.476  35.273  30.075  1.00  0.00     0.135 A 
ATOM     85  F   UNL A   1      45.870  33.058  32.936  1.00  0.00    -0.206 F 
ATOM     86  C   UNL A   1      46.649  35.248  32.602  1.00  0.00     0.059 A 
ATOM     87  C   UNL A   1      46.177  36.391  30.510  1.00  0.00     0.059 A 
ATOM     88  F   UNL A   1      44.928  35.305  28.849  1.00  0.00    -0.206 F 
ATOM     89  C   UNL A   1      46.761  36.369  31.776  1.00  0.00     0.060 A 
BRANCH  89  90
ATOM     90  S   UNL A   1      47.730  37.779  32.355  1.00  0.00     0.124 S 
ATOM     91  O   UNL A   1      47.655  37.613  33.802  1.00  0.00    -0.237 OA
ATOM     92  O   UNL A   1      49.037  37.529  31.755  1.00  0.00    -0.237 OA
ATOM     93  O   UNL A   1      47.009  38.929  31.816  1.00  0.00    -0.744 OA
ENDBRANCH  89  90
ENDBRANCH  57  82
ENDBRANCH  31  32
ENDBRANCH  24  26
ENDBRANCH  23  24
ENDBRANCH  22  23
ENDBRANCH   1  22
TORSDOF 18
ENDMDL
