MODEL 1
REMARK VINA RESULT:     -11.8      0.000      0.000
REMARK SMILES C[C@H](C(=O)OCCOC(=O)c1ccc(-c2c3nc(c(-c4c(F)cc(S(=O)(=O)[O-])cc4F)c4ccc([nH]4)c(-c4c(F)cc(S(=O)(=O)[O-])cc4F)c4nc(c(-c5c(F)cc(S(=O)(=O)[O-])cc5F)c5ccc2[nH]5)C=C4)C=C3)cc1)c1ccc2c3cc(Cl)ccc3n(C(=O)c3cocn3)c2c1
REMARK SMILES IDX 6 1 5 2 3 3 4 4 2 5 1 6 77 7 78 8 97 9 79 10 96 11 80 12
REMARK SMILES IDX 88 13 81 14 87 15 82 16 86 17 83 18 85 19 84 20 89 21 90 22
REMARK SMILES IDX 91 23 92 24 95 25 93 26 94 27 7 28 8 29 9 30 10 31 11 32
REMARK SMILES IDX 12 33 76 34 13 35 75 36 14 37 15 38 16 39 69 40 17 41 74 42
REMARK SMILES IDX 68 43 70 44 18 45 73 46 67 47 66 48 19 50 53 51 32 52 52 53
REMARK SMILES IDX 33 54 36 55 51 56 71 57 34 58 35 59 50 61 72 62 37 63 20 64
REMARK SMILES IDX 21 65 30 66 22 67 23 68 29 69 31 70 24 71 25 72 26 73 27 74
REMARK SMILES IDX 28 75 54 76 55 77 64 78 56 79 57 80 63 81 65 82 58 83 59 84
REMARK SMILES IDX 60 85 61 86 62 87 38 88 39 89 48 90 40 91 41 92 47 93 49 94
REMARK SMILES IDX 42 95 43 96 44 97 45 98 46 99
REMARK H PARENT 70 49 36 60
REMARK Flexibility Score: inf
ROOT
ATOM      1  C   UNL A   1      37.272  22.472  25.370  1.00  0.00     0.274 C 
ENDROOT
BRANCH   1   2
ATOM      2  O   UNL A   1      35.977  22.586  25.991  1.00  0.00    -0.462 OA
BRANCH   2   3
ATOM      3  C   UNL A   1      34.911  22.699  25.146  1.00  0.00     0.313 C 
ATOM      4  O   UNL A   1      35.010  22.799  23.928  1.00  0.00    -0.252 OA
BRANCH   3   5
ATOM      5  C   UNL A   1      33.582  22.782  25.889  1.00  0.00     0.126 C 
ATOM      6  C   UNL A   1      33.757  22.968  27.401  1.00  0.00     0.025 C 
BRANCH   5   7
ATOM      7  C   UNL A   1      32.594  23.804  25.346  1.00  0.00    -0.032 A 
ATOM      8  C   UNL A   1      31.329  23.453  24.862  1.00  0.00     0.005 A 
ATOM      9  C   UNL A   1      32.989  25.146  25.311  1.00  0.00     0.032 A 
ATOM     10  C   UNL A   1      30.436  24.429  24.397  1.00  0.00     0.011 A 
ATOM     11  C   UNL A   1      32.105  26.117  24.805  1.00  0.00     0.058 A 
ATOM     12  C   UNL A   1      30.822  25.786  24.387  1.00  0.00     0.008 A 
ATOM     13  N   UNL A   1      32.281  27.493  24.654  1.00  0.00    -0.274 N 
ATOM     14  C   UNL A   1      30.171  27.000  24.021  1.00  0.00     0.009 A 
ATOM     15  C   UNL A   1      31.089  28.049  24.180  1.00  0.00     0.057 A 
ATOM     16  C   UNL A   1      28.872  27.283  23.542  1.00  0.00     0.031 A 
ATOM     17  C   UNL A   1      30.754  29.364  23.799  1.00  0.00     0.029 A 
ATOM     18  C   UNL A   1      28.531  28.594  23.212  1.00  0.00     0.041 A 
ATOM     19  C   UNL A   1      29.461  29.619  23.328  1.00  0.00     0.023 A 
ATOM     20  Cl  UNL A   1      26.948  28.944  22.633  1.00  0.00    -0.084 Cl
BRANCH  13  21
ATOM     21  C   UNL A   1      33.507  28.152  24.922  1.00  0.00     0.284 C 
ATOM     22  O   UNL A   1      34.416  27.941  24.120  1.00  0.00    -0.266 OA
BRANCH  21  23
ATOM     23  C   UNL A   1      33.759  28.974  26.101  1.00  0.00     0.167 A 
ATOM     24  C   UNL A   1      34.797  28.900  27.005  1.00  0.00     0.231 A 
ATOM     25  N   UNL A   1      32.999  30.097  26.398  1.00  0.00    -0.211 NA
ATOM     26  O   UNL A   1      34.693  29.950  27.870  1.00  0.00    -0.451 OA
ATOM     27  C   UNL A   1      33.600  30.630  27.434  1.00  0.00     0.308 A 
ENDBRANCH  21  23
ENDBRANCH  13  21
ENDBRANCH   5   7
ENDBRANCH   3   5
ENDBRANCH   2   3
ENDBRANCH   1   2
BRANCH   1  28
ATOM     28  C   UNL A   1      38.026  23.795  25.486  1.00  0.00     0.275 C 
BRANCH  28  29
ATOM     29  O   UNL A   1      38.617  23.879  26.792  1.00  0.00    -0.458 OA
BRANCH  29  30
ATOM     30  C   UNL A   1      39.894  24.321  26.839  1.00  0.00     0.338 C 
ATOM     31  O   UNL A   1      40.828  23.941  26.154  1.00  0.00    -0.246 OA
BRANCH  30  32
ATOM     32  C   UNL A   1      40.007  25.378  27.868  1.00  0.00     0.060 A 
ATOM     33  C   UNL A   1      39.100  25.441  28.927  1.00  0.00     0.016 A 
ATOM     34  C   UNL A   1      40.985  26.361  27.734  1.00  0.00     0.016 A 
ATOM     35  C   UNL A   1      39.131  26.509  29.823  1.00  0.00     0.010 A 
ATOM     36  C   UNL A   1      41.070  27.385  28.683  1.00  0.00     0.010 A 
ATOM     37  C   UNL A   1      40.131  27.484  29.726  1.00  0.00    -0.014 A 
BRANCH  37  38
ATOM     38  C   UNL A   1      40.191  28.622  30.685  1.00  0.00     0.031 A 
ATOM     39  C   UNL A   1      41.195  28.603  31.807  1.00  0.00     0.074 A 
ATOM     40  C   UNL A   1      39.338  29.662  30.575  1.00  0.00     0.049 A 
ATOM     41  N   UNL A   1      41.256  29.352  32.877  1.00  0.00    -0.248 NA
ATOM     42  C   UNL A   1      42.260  27.591  31.722  1.00  0.00     0.031 C 
ATOM     43  C   UNL A   1      38.342  29.837  29.516  1.00  0.00     0.029 A 
ATOM     44  N   UNL A   1      39.167  30.767  31.373  1.00  0.00    -0.354 N 
ATOM     45  C   UNL A   1      42.324  28.864  33.623  1.00  0.00     0.074 A 
ATOM     46  C   UNL A   1      42.884  27.755  32.879  1.00  0.00     0.031 C 
ATOM     47  C   UNL A   1      37.680  30.986  29.718  1.00  0.00     0.029 A 
ATOM     48  C   UNL A   1      38.145  31.589  30.963  1.00  0.00     0.049 A 
ATOM     49  H   UNL A   1      39.724  30.951  32.164  1.00  0.00     0.167 HD
ATOM     50  C   UNL A   1      42.788  29.298  34.818  1.00  0.00     0.037 A 
ATOM     51  C   UNL A   1      37.605  32.679  31.544  1.00  0.00     0.037 A 
ATOM     52  C   UNL A   1      42.263  30.438  35.525  1.00  0.00     0.049 A 
ATOM     53  C   UNL A   1      38.135  33.144  32.870  1.00  0.00     0.074 A 
ATOM     54  C   UNL A   1      42.667  30.961  36.740  1.00  0.00     0.029 A 
ATOM     55  N   UNL A   1      41.232  31.246  35.066  1.00  0.00    -0.354 N 
ATOM     56  N   UNL A   1      39.094  32.627  33.600  1.00  0.00    -0.248 NA
ATOM     57  C   UNL A   1      37.495  34.325  33.465  1.00  0.00     0.031 C 
ATOM     58  C   UNL A   1      41.867  32.074  37.028  1.00  0.00     0.029 A 
ATOM     59  C   UNL A   1      40.987  32.263  35.975  1.00  0.00     0.049 A 
ATOM     60  H   UNL A   1      40.746  31.115  34.221  1.00  0.00     0.167 HD
ATOM     61  C   UNL A   1      39.177  33.423  34.737  1.00  0.00     0.074 A 
ATOM     62  C   UNL A   1      38.184  34.467  34.589  1.00  0.00     0.031 C 
ATOM     63  C   UNL A   1      39.997  33.295  35.809  1.00  0.00     0.037 A 
BRANCH  50  64
ATOM     64  C   UNL A   1      43.903  28.518  35.456  1.00  0.00     0.058 A 
ATOM     65  C   UNL A   1      45.253  28.801  35.198  1.00  0.00     0.135 A 
ATOM     66  C   UNL A   1      43.613  27.485  36.363  1.00  0.00     0.135 A 
ATOM     67  F   UNL A   1      45.586  29.767  34.325  1.00  0.00    -0.206 F 
ATOM     68  C   UNL A   1      46.277  28.072  35.796  1.00  0.00     0.059 A 
ATOM     69  C   UNL A   1      44.620  26.757  36.991  1.00  0.00     0.059 A 
ATOM     70  F   UNL A   1      42.339  27.171  36.645  1.00  0.00    -0.206 F 
ATOM     71  C   UNL A   1      45.950  27.048  36.688  1.00  0.00     0.060 A 
BRANCH  71  72
ATOM     72  S   UNL A   1      47.285  26.107  37.456  1.00  0.00     0.124 S 
ATOM     73  O   UNL A   1      47.570  25.115  36.425  1.00  0.00    -0.237 OA
ATOM     74  O   UNL A   1      48.312  27.123  37.658  1.00  0.00    -0.237 OA
ATOM     75  O   UNL A   1      46.675  25.586  38.676  1.00  0.00    -0.744 OA
ENDBRANCH  71  72
ENDBRANCH  50  64
BRANCH  51  76
ATOM     76  C   UNL A   1      36.469  33.378  30.887  1.00  0.00     0.058 A 
ATOM     77  C   UNL A   1      35.169  33.286  31.402  1.00  0.00     0.135 A 
ATOM     78  C   UNL A   1      36.667  34.174  29.747  1.00  0.00     0.135 A 
ATOM     79  F   UNL A   1      34.928  32.527  32.482  1.00  0.00    -0.206 F 
ATOM     80  C   UNL A   1      34.102  33.958  30.813  1.00  0.00     0.059 A 
ATOM     81  C   UNL A   1      35.622  34.875  29.155  1.00  0.00     0.059 A 
ATOM     82  F   UNL A   1      37.895  34.303  29.222  1.00  0.00    -0.206 F 
ATOM     83  C   UNL A   1      34.341  34.755  29.691  1.00  0.00     0.060 A 
BRANCH  83  84
ATOM     84  S   UNL A   1      32.968  35.682  28.972  1.00  0.00     0.124 S 
ATOM     85  O   UNL A   1      32.364  34.682  28.099  1.00  0.00    -0.237 OA
ATOM     86  O   UNL A   1      32.192  36.054  30.151  1.00  0.00    -0.237 OA
ATOM     87  O   UNL A   1      33.634  36.792  28.296  1.00  0.00    -0.744 OA
ENDBRANCH  83  84
ENDBRANCH  51  76
BRANCH  63  88
ATOM     88  C   UNL A   1      39.868  34.324  36.896  1.00  0.00     0.058 A 
ATOM     89  C   UNL A   1      40.502  35.572  36.802  1.00  0.00     0.135 A 
ATOM     90  C   UNL A   1      39.070  34.073  38.022  1.00  0.00     0.135 A 
ATOM     91  F   UNL A   1      41.282  35.857  35.747  1.00  0.00    -0.206 F 
ATOM     92  C   UNL A   1      40.366  36.531  37.802  1.00  0.00     0.059 A 
ATOM     93  C   UNL A   1      38.904  35.024  39.023  1.00  0.00     0.059 A 
ATOM     94  F   UNL A   1      38.436  32.896  38.153  1.00  0.00    -0.206 F 
ATOM     95  C   UNL A   1      39.565  36.246  38.910  1.00  0.00     0.060 A 
BRANCH  95  96
ATOM     96  S   UNL A   1      39.370  37.507  40.187  1.00  0.00     0.124 S 
ATOM     97  O   UNL A   1      38.469  38.450  39.534  1.00  0.00    -0.237 OA
ATOM     98  O   UNL A   1      38.800  36.748  41.296  1.00  0.00    -0.237 OA
ATOM     99  O   UNL A   1      40.733  37.986  40.400  1.00  0.00    -0.744 OA
ENDBRANCH  95  96
ENDBRANCH  63  88
ENDBRANCH  37  38
ENDBRANCH  30  32
ENDBRANCH  29  30
ENDBRANCH  28  29
ENDBRANCH   1  28
TORSDOF 17
ENDMDL
MODEL 2
REMARK VINA RESULT:     -11.6      2.365      8.959
REMARK SMILES C[C@H](C(=O)OCCOC(=O)c1ccc(-c2c3nc(c(-c4c(F)cc(S(=O)(=O)[O-])cc4F)c4ccc([nH]4)c(-c4c(F)cc(S(=O)(=O)[O-])cc4F)c4nc(c(-c5c(F)cc(S(=O)(=O)[O-])cc5F)c5ccc2[nH]5)C=C4)C=C3)cc1)c1ccc2c3cc(Cl)ccc3n(C(=O)c3cocn3)c2c1
REMARK SMILES IDX 6 1 5 2 3 3 4 4 2 5 1 6 77 7 78 8 97 9 79 10 96 11 80 12
REMARK SMILES IDX 88 13 81 14 87 15 82 16 86 17 83 18 85 19 84 20 89 21 90 22
REMARK SMILES IDX 91 23 92 24 95 25 93 26 94 27 7 28 8 29 9 30 10 31 11 32
REMARK SMILES IDX 12 33 76 34 13 35 75 36 14 37 15 38 16 39 69 40 17 41 74 42
REMARK SMILES IDX 68 43 70 44 18 45 73 46 67 47 66 48 19 50 53 51 32 52 52 53
REMARK SMILES IDX 33 54 36 55 51 56 71 57 34 58 35 59 50 61 72 62 37 63 20 64
REMARK SMILES IDX 21 65 30 66 22 67 23 68 29 69 31 70 24 71 25 72 26 73 27 74
REMARK SMILES IDX 28 75 54 76 55 77 64 78 56 79 57 80 63 81 65 82 58 83 59 84
REMARK SMILES IDX 60 85 61 86 62 87 38 88 39 89 48 90 40 91 41 92 47 93 49 94
REMARK SMILES IDX 42 95 43 96 44 97 45 98 46 99
REMARK H PARENT 70 49 36 60
REMARK Flexibility Score: inf
ROOT
ATOM      1  C   UNL A   1      42.112  21.831  26.184  1.00  0.00     0.274 C 
ENDROOT
BRANCH   1   2
ATOM      2  O   UNL A   1      40.992  21.263  25.477  1.00  0.00    -0.462 OA
BRANCH   2   3
ATOM      3  C   UNL A   1      39.784  21.333  26.107  1.00  0.00     0.313 C 
ATOM      4  O   UNL A   1      39.641  21.661  27.280  1.00  0.00    -0.252 OA
BRANCH   3   5
ATOM      5  C   UNL A   1      38.634  20.868  25.219  1.00  0.00     0.126 C 
ATOM      6  C   UNL A   1      38.371  19.362  25.327  1.00  0.00     0.025 C 
BRANCH   5   7
ATOM      7  C   UNL A   1      37.331  21.640  25.381  1.00  0.00    -0.032 A 
ATOM      8  C   UNL A   1      37.290  23.022  25.590  1.00  0.00     0.005 A 
ATOM      9  C   UNL A   1      36.132  20.920  25.344  1.00  0.00     0.032 A 
ATOM     10  C   UNL A   1      36.068  23.700  25.704  1.00  0.00     0.011 A 
ATOM     11  C   UNL A   1      34.910  21.598  25.501  1.00  0.00     0.058 A 
ATOM     12  C   UNL A   1      34.857  22.980  25.639  1.00  0.00     0.008 A 
ATOM     13  N   UNL A   1      33.607  21.099  25.520  1.00  0.00    -0.274 N 
ATOM     14  C   UNL A   1      33.480  23.347  25.687  1.00  0.00     0.009 A 
ATOM     15  C   UNL A   1      32.716  22.172  25.624  1.00  0.00     0.057 A 
ATOM     16  C   UNL A   1      32.826  24.594  25.804  1.00  0.00     0.031 A 
ATOM     17  C   UNL A   1      31.313  22.218  25.750  1.00  0.00     0.029 A 
ATOM     18  C   UNL A   1      31.435  24.636  25.880  1.00  0.00     0.041 A 
ATOM     19  C   UNL A   1      30.687  23.465  25.863  1.00  0.00     0.023 A 
ATOM     20  Cl  UNL A   1      30.633  26.153  26.018  1.00  0.00    -0.084 Cl
BRANCH  13  21
ATOM     21  C   UNL A   1      33.305  19.715  25.472  1.00  0.00     0.284 C 
ATOM     22  O   UNL A   1      33.146  19.164  26.561  1.00  0.00    -0.266 OA
BRANCH  21  23
ATOM     23  C   UNL A   1      33.255  18.925  24.247  1.00  0.00     0.167 A 
ATOM     24  C   UNL A   1      33.923  17.759  23.938  1.00  0.00     0.231 A 
ATOM     25  N   UNL A   1      32.360  19.202  23.223  1.00  0.00    -0.211 NA
ATOM     26  O   UNL A   1      33.471  17.308  22.733  1.00  0.00    -0.451 OA
ATOM     27  C   UNL A   1      32.526  18.217  22.373  1.00  0.00     0.308 A 
ENDBRANCH  21  23
ENDBRANCH  13  21
ENDBRANCH   5   7
ENDBRANCH   3   5
ENDBRANCH   2   3
ENDBRANCH   1   2
BRANCH   1  28
ATOM     28  C   UNL A   1      42.401  23.236  25.660  1.00  0.00     0.275 C 
BRANCH  28  29
ATOM     29  O   UNL A   1      41.644  24.182  26.431  1.00  0.00    -0.458 OA
BRANCH  29  30
ATOM     30  C   UNL A   1      41.793  25.483  26.088  1.00  0.00     0.338 C 
ATOM     31  O   UNL A   1      42.099  25.922  24.993  1.00  0.00    -0.246 OA
BRANCH  30  32
ATOM     32  C   UNL A   1      41.512  26.333  27.265  1.00  0.00     0.060 A 
ATOM     33  C   UNL A   1      42.216  27.519  27.473  1.00  0.00     0.016 A 
ATOM     34  C   UNL A   1      40.583  25.904  28.212  1.00  0.00     0.016 A 
ATOM     35  C   UNL A   1      42.038  28.253  28.645  1.00  0.00     0.010 A 
ATOM     36  C   UNL A   1      40.343  26.684  29.347  1.00  0.00     0.010 A 
ATOM     37  C   UNL A   1      41.082  27.857  29.588  1.00  0.00    -0.014 A 
BRANCH  37  38
ATOM     38  C   UNL A   1      40.865  28.638  30.838  1.00  0.00     0.031 A 
ATOM     39  C   UNL A   1      39.773  29.673  30.893  1.00  0.00     0.074 A 
ATOM     40  C   UNL A   1      41.654  28.446  31.916  1.00  0.00     0.049 A 
ATOM     41  N   UNL A   1      39.571  30.619  31.774  1.00  0.00    -0.248 NA
ATOM     42  C   UNL A   1      38.788  29.652  29.800  1.00  0.00     0.031 C 
ATOM     43  C   UNL A   1      42.723  27.451  32.023  1.00  0.00     0.029 A 
ATOM     44  N   UNL A   1      41.682  29.091  33.129  1.00  0.00    -0.354 N 
ATOM     45  C   UNL A   1      38.478  31.343  31.310  1.00  0.00     0.074 A 
ATOM     46  C   UNL A   1      38.058  30.724  30.070  1.00  0.00     0.031 C 
ATOM     47  C   UNL A   1      43.287  27.538  33.236  1.00  0.00     0.029 A 
ATOM     48  C   UNL A   1      42.679  28.647  33.965  1.00  0.00     0.049 A 
ATOM     49  H   UNL A   1      41.049  29.803  33.375  1.00  0.00     0.167 HD
ATOM     50  C   UNL A   1      37.886  32.427  31.865  1.00  0.00     0.037 A 
ATOM     51  C   UNL A   1      43.093  29.106  35.162  1.00  0.00     0.037 A 
ATOM     52  C   UNL A   1      38.272  33.003  33.128  1.00  0.00     0.049 A 
ATOM     53  C   UNL A   1      42.423  30.310  35.760  1.00  0.00     0.074 A 
ATOM     54  C   UNL A   1      37.732  34.098  33.778  1.00  0.00     0.029 A 
ATOM     55  N   UNL A   1      39.283  32.513  33.943  1.00  0.00    -0.354 N 
ATOM     56  N   UNL A   1      41.441  31.031  35.274  1.00  0.00    -0.248 NA
ATOM     57  C   UNL A   1      42.930  30.778  37.057  1.00  0.00     0.031 C 
ATOM     58  C   UNL A   1      38.429  34.284  34.978  1.00  0.00     0.029 A 
ATOM     59  C   UNL A   1      39.381  33.285  35.090  1.00  0.00     0.049 A 
ATOM     60  H   UNL A   1      39.847  31.734  33.737  1.00  0.00     0.167 HD
ATOM     61  C   UNL A   1      41.210  32.035  36.208  1.00  0.00     0.074 A 
ATOM     62  C   UNL A   1      42.140  31.816  37.296  1.00  0.00     0.031 C 
ATOM     63  C   UNL A   1      40.311  33.050  36.164  1.00  0.00     0.037 A 
BRANCH  50  64
ATOM     64  C   UNL A   1      36.775  33.083  31.094  1.00  0.00     0.058 A 
ATOM     65  C   UNL A   1      37.022  33.892  29.974  1.00  0.00     0.135 A 
ATOM     66  C   UNL A   1      35.437  32.876  31.469  1.00  0.00     0.135 A 
ATOM     67  F   UNL A   1      38.283  34.138  29.584  1.00  0.00    -0.206 F 
ATOM     68  C   UNL A   1      35.984  34.494  29.269  1.00  0.00     0.059 A 
ATOM     69  C   UNL A   1      34.382  33.449  30.764  1.00  0.00     0.059 A 
ATOM     70  F   UNL A   1      35.144  32.111  32.533  1.00  0.00    -0.206 F 
ATOM     71  C   UNL A   1      34.667  34.269  29.674  1.00  0.00     0.060 A 
BRANCH  71  72
ATOM     72  S   UNL A   1      33.329  35.057  28.754  1.00  0.00     0.124 S 
ATOM     73  O   UNL A   1      32.509  35.592  29.835  1.00  0.00    -0.237 OA
ATOM     74  O   UNL A   1      34.039  36.046  27.949  1.00  0.00    -0.237 OA
ATOM     75  O   UNL A   1      32.737  33.953  28.004  1.00  0.00    -0.744 OA
ENDBRANCH  71  72
ENDBRANCH  50  64
BRANCH  51  76
ATOM     76  C   UNL A   1      44.233  28.444  35.851  1.00  0.00     0.058 A 
ATOM     77  C   UNL A   1      44.022  27.375  36.733  1.00  0.00     0.135 A 
ATOM     78  C   UNL A   1      45.557  28.850  35.619  1.00  0.00     0.135 A 
ATOM     79  F   UNL A   1      42.774  26.961  36.997  1.00  0.00    -0.206 F 
ATOM     80  C   UNL A   1      45.082  26.731  37.362  1.00  0.00     0.059 A 
ATOM     81  C   UNL A   1      46.634  28.206  36.216  1.00  0.00     0.059 A 
ATOM     82  F   UNL A   1      45.812  29.862  34.775  1.00  0.00    -0.206 F 
ATOM     83  C   UNL A   1      46.387  27.151  37.093  1.00  0.00     0.060 A 
BRANCH  83  84
ATOM     84  S   UNL A   1      47.763  26.265  37.855  1.00  0.00     0.124 S 
ATOM     85  O   UNL A   1      47.233  25.987  39.185  1.00  0.00    -0.237 OA
ATOM     86  O   UNL A   1      47.917  25.111  36.975  1.00  0.00    -0.237 OA
ATOM     87  O   UNL A   1      48.854  27.234  37.799  1.00  0.00    -0.744 OA
ENDBRANCH  83  84
ENDBRANCH  51  76
BRANCH  63  88
ATOM     88  C   UNL A   1      40.278  33.986  37.337  1.00  0.00     0.058 A 
ATOM     89  C   UNL A   1      41.070  35.144  37.374  1.00  0.00     0.135 A 
ATOM     90  C   UNL A   1      39.415  33.743  38.417  1.00  0.00     0.135 A 
ATOM     91  F   UNL A   1      41.916  35.416  36.368  1.00  0.00    -0.206 F 
ATOM     92  C   UNL A   1      41.022  36.021  38.453  1.00  0.00     0.059 A 
ATOM     93  C   UNL A   1      39.337  34.616  39.497  1.00  0.00     0.059 A 
ATOM     94  F   UNL A   1      38.631  32.653  38.424  1.00  0.00    -0.206 F 
ATOM     95  C   UNL A   1      40.153  35.747  39.512  1.00  0.00     0.060 A 
BRANCH  95  96
ATOM     96  S   UNL A   1      40.077  36.905  40.894  1.00  0.00     0.124 S 
ATOM     97  O   UNL A   1      40.493  38.150  40.258  1.00  0.00    -0.237 OA
ATOM     98  O   UNL A   1      38.674  36.833  41.290  1.00  0.00    -0.237 OA
ATOM     99  O   UNL A   1      41.022  36.345  41.856  1.00  0.00    -0.744 OA
ENDBRANCH  95  96
ENDBRANCH  63  88
ENDBRANCH  37  38
ENDBRANCH  30  32
ENDBRANCH  29  30
ENDBRANCH  28  29
ENDBRANCH   1  28
TORSDOF 17
ENDMDL
MODEL 3
REMARK VINA RESULT:     -11.5      6.698     11.836
REMARK SMILES C[C@H](C(=O)OCCOC(=O)c1ccc(-c2c3nc(c(-c4c(F)cc(S(=O)(=O)[O-])cc4F)c4ccc([nH]4)c(-c4c(F)cc(S(=O)(=O)[O-])cc4F)c4nc(c(-c5c(F)cc(S(=O)(=O)[O-])cc5F)c5ccc2[nH]5)C=C4)C=C3)cc1)c1ccc2c3cc(Cl)ccc3n(C(=O)c3cocn3)c2c1
REMARK SMILES IDX 6 1 5 2 3 3 4 4 2 5 1 6 77 7 78 8 97 9 79 10 96 11 80 12
REMARK SMILES IDX 88 13 81 14 87 15 82 16 86 17 83 18 85 19 84 20 89 21 90 22
REMARK SMILES IDX 91 23 92 24 95 25 93 26 94 27 7 28 8 29 9 30 10 31 11 32
REMARK SMILES IDX 12 33 76 34 13 35 75 36 14 37 15 38 16 39 69 40 17 41 74 42
REMARK SMILES IDX 68 43 70 44 18 45 73 46 67 47 66 48 19 50 53 51 32 52 52 53
REMARK SMILES IDX 33 54 36 55 51 56 71 57 34 58 35 59 50 61 72 62 37 63 20 64
REMARK SMILES IDX 21 65 30 66 22 67 23 68 29 69 31 70 24 71 25 72 26 73 27 74
REMARK SMILES IDX 28 75 54 76 55 77 64 78 56 79 57 80 63 81 65 82 58 83 59 84
REMARK SMILES IDX 60 85 61 86 62 87 38 88 39 89 48 90 40 91 41 92 47 93 49 94
REMARK SMILES IDX 42 95 43 96 44 97 45 98 46 99
REMARK H PARENT 70 49 36 60
REMARK Flexibility Score: inf
ROOT
ATOM      1  C   UNL A   1      34.437  33.274  29.070  1.00  0.00     0.274 C 
ENDROOT
BRANCH   1   2
ATOM      2  O   UNL A   1      33.712  32.989  27.858  1.00  0.00    -0.462 OA
BRANCH   2   3
ATOM      3  C   UNL A   1      33.632  31.676  27.498  1.00  0.00     0.313 C 
ATOM      4  O   UNL A   1      34.608  30.962  27.291  1.00  0.00    -0.252 OA
BRANCH   3   5
ATOM      5  C   UNL A   1      32.195  31.213  27.286  1.00  0.00     0.126 C 
ATOM      6  C   UNL A   1      31.416  32.113  26.320  1.00  0.00     0.025 C 
BRANCH   5   7
ATOM      7  C   UNL A   1      32.031  29.752  26.888  1.00  0.00    -0.032 A 
ATOM      8  C   UNL A   1      32.294  28.694  27.764  1.00  0.00     0.005 A 
ATOM      9  C   UNL A   1      31.624  29.469  25.579  1.00  0.00     0.032 A 
ATOM     10  C   UNL A   1      32.102  27.362  27.368  1.00  0.00     0.011 A 
ATOM     11  C   UNL A   1      31.473  28.131  25.173  1.00  0.00     0.058 A 
ATOM     12  C   UNL A   1      31.666  27.076  26.057  1.00  0.00     0.008 A 
ATOM     13  N   UNL A   1      31.104  27.610  23.933  1.00  0.00    -0.274 N 
ATOM     14  C   UNL A   1      31.350  25.876  25.356  1.00  0.00     0.009 A 
ATOM     15  C   UNL A   1      31.015  26.218  24.039  1.00  0.00     0.057 A 
ATOM     16  C   UNL A   1      31.348  24.515  25.741  1.00  0.00     0.031 A 
ATOM     17  C   UNL A   1      30.750  25.220  23.079  1.00  0.00     0.029 A 
ATOM     18  C   UNL A   1      31.038  23.536  24.799  1.00  0.00     0.041 A 
ATOM     19  C   UNL A   1      30.752  23.880  23.484  1.00  0.00     0.023 A 
ATOM     20  Cl  UNL A   1      31.030  21.878  25.263  1.00  0.00    -0.084 Cl
BRANCH  13  21
ATOM     21  C   UNL A   1      30.900  28.414  22.783  1.00  0.00     0.284 C 
ATOM     22  O   UNL A   1      31.909  28.682  22.132  1.00  0.00    -0.266 OA
BRANCH  21  23
ATOM     23  C   UNL A   1      29.614  28.982  22.394  1.00  0.00     0.167 A 
ATOM     24  C   UNL A   1      28.373  28.792  22.963  1.00  0.00     0.231 A 
ATOM     25  N   UNL A   1      29.501  29.960  21.415  1.00  0.00    -0.211 NA
ATOM     26  O   UNL A   1      27.483  29.624  22.349  1.00  0.00    -0.451 OA
ATOM     27  C   UNL A   1      28.236  30.302  21.443  1.00  0.00     0.308 A 
ENDBRANCH  21  23
ENDBRANCH  13  21
ENDBRANCH   5   7
ENDBRANCH   3   5
ENDBRANCH   2   3
ENDBRANCH   1   2
BRANCH   1  28
ATOM     28  C   UNL A   1      35.939  33.230  28.804  1.00  0.00     0.275 C 
BRANCH  28  29
ATOM     29  O   UNL A   1      36.606  32.764  29.987  1.00  0.00    -0.458 OA
BRANCH  29  30
ATOM     30  C   UNL A   1      36.566  31.430  30.207  1.00  0.00     0.338 C 
ATOM     31  O   UNL A   1      35.606  30.777  30.577  1.00  0.00    -0.246 OA
BRANCH  30  32
ATOM     32  C   UNL A   1      37.893  30.847  29.912  1.00  0.00     0.060 A 
ATOM     33  C   UNL A   1      38.846  30.697  30.921  1.00  0.00     0.016 A 
ATOM     34  C   UNL A   1      38.216  30.511  28.599  1.00  0.00     0.016 A 
ATOM     35  C   UNL A   1      40.137  30.266  30.618  1.00  0.00     0.010 A 
ATOM     36  C   UNL A   1      39.484  29.997  28.309  1.00  0.00     0.010 A 
ATOM     37  C   UNL A   1      40.466  29.888  29.311  1.00  0.00    -0.014 A 
BRANCH  37  38
ATOM     38  C   UNL A   1      41.835  29.407  28.972  1.00  0.00     0.031 A 
ATOM     39  C   UNL A   1      42.988  30.375  28.968  1.00  0.00     0.074 A 
ATOM     40  C   UNL A   1      42.050  28.117  28.642  1.00  0.00     0.049 A 
ATOM     41  N   UNL A   1      44.191  30.230  28.475  1.00  0.00    -0.248 NA
ATOM     42  C   UNL A   1      42.748  31.689  29.586  1.00  0.00     0.031 C 
ATOM     43  C   UNL A   1      41.039  27.058  28.642  1.00  0.00     0.029 A 
ATOM     44  N   UNL A   1      43.195  27.477  28.232  1.00  0.00    -0.354 N 
ATOM     45  C   UNL A   1      44.829  31.451  28.664  1.00  0.00     0.074 A 
ATOM     46  C   UNL A   1      43.881  32.325  29.322  1.00  0.00     0.031 C 
ATOM     47  C   UNL A   1      41.610  25.902  28.272  1.00  0.00     0.029 A 
ATOM     48  C   UNL A   1      43.005  26.150  27.928  1.00  0.00     0.049 A 
ATOM     49  H   UNL A   1      44.068  27.928  28.162  1.00  0.00     0.167 HD
ATOM     50  C   UNL A   1      46.088  31.809  28.317  1.00  0.00     0.037 A 
ATOM     51  C   UNL A   1      43.843  25.243  27.388  1.00  0.00     0.037 A 
ATOM     52  C   UNL A   1      47.046  30.916  27.715  1.00  0.00     0.049 A 
ATOM     53  C   UNL A   1      45.235  25.660  27.009  1.00  0.00     0.074 A 
ATOM     54  C   UNL A   1      48.348  31.182  27.330  1.00  0.00     0.029 A 
ATOM     55  N   UNL A   1      46.811  29.578  27.434  1.00  0.00    -0.354 N 
ATOM     56  N   UNL A   1      45.800  26.838  27.124  1.00  0.00    -0.248 NA
ATOM     57  C   UNL A   1      46.097  24.634  26.406  1.00  0.00     0.031 C 
ATOM     58  C   UNL A   1      48.896  30.009  26.795  1.00  0.00     0.029 A 
ATOM     59  C   UNL A   1      47.945  29.005  26.880  1.00  0.00     0.049 A 
ATOM     60  H   UNL A   1      45.965  29.105  27.602  1.00  0.00     0.167 HD
ATOM     61  C   UNL A   1      47.085  26.694  26.612  1.00  0.00     0.074 A 
ATOM     62  C   UNL A   1      47.220  25.310  26.206  1.00  0.00     0.031 C 
ATOM     63  C   UNL A   1      48.062  27.625  26.485  1.00  0.00     0.037 A 
BRANCH  50  64
ATOM     64  C   UNL A   1      46.494  33.237  28.548  1.00  0.00     0.058 A 
ATOM     65  C   UNL A   1      46.315  34.230  27.572  1.00  0.00     0.135 A 
ATOM     66  C   UNL A   1      47.047  33.623  29.780  1.00  0.00     0.135 A 
ATOM     67  F   UNL A   1      45.807  33.911  26.370  1.00  0.00    -0.206 F 
ATOM     68  C   UNL A   1      46.695  35.549  27.799  1.00  0.00     0.059 A 
ATOM     69  C   UNL A   1      47.413  34.941  30.038  1.00  0.00     0.059 A 
ATOM     70  F   UNL A   1      47.241  32.714  30.748  1.00  0.00    -0.206 F 
ATOM     71  C   UNL A   1      47.247  35.895  29.034  1.00  0.00     0.060 A 
BRANCH  71  72
ATOM     72  S   UNL A   1      47.738  37.608  29.317  1.00  0.00     0.124 S 
ATOM     73  O   UNL A   1      46.442  38.274  29.388  1.00  0.00    -0.237 OA
ATOM     74  O   UNL A   1      48.475  37.522  30.574  1.00  0.00    -0.237 OA
ATOM     75  O   UNL A   1      48.545  37.928  28.143  1.00  0.00    -0.744 OA
ENDBRANCH  71  72
ENDBRANCH  50  64
BRANCH  51  76
ATOM     76  C   UNL A   1      43.365  23.857  27.136  1.00  0.00     0.058 A 
ATOM     77  C   UNL A   1      43.339  22.903  28.162  1.00  0.00     0.135 A 
ATOM     78  C   UNL A   1      42.898  23.469  25.870  1.00  0.00     0.135 A 
ATOM     79  F   UNL A   1      43.787  23.223  29.386  1.00  0.00    -0.206 F 
ATOM     80  C   UNL A   1      42.868  21.612  27.945  1.00  0.00     0.059 A 
ATOM     81  C   UNL A   1      42.400  22.193  25.634  1.00  0.00     0.059 A 
ATOM     82  F   UNL A   1      42.893  24.350  24.856  1.00  0.00    -0.206 F 
ATOM     83  C   UNL A   1      42.395  21.268  26.677  1.00  0.00     0.060 A 
BRANCH  83  84
ATOM     84  S   UNL A   1      41.718  19.614  26.417  1.00  0.00     0.124 S 
ATOM     85  O   UNL A   1      40.297  19.901  26.257  1.00  0.00    -0.237 OA
ATOM     86  O   UNL A   1      42.420  19.175  25.215  1.00  0.00    -0.237 OA
ATOM     87  O   UNL A   1      42.087  18.908  27.641  1.00  0.00    -0.744 OA
ENDBRANCH  83  84
ENDBRANCH  51  76
BRANCH  63  88
ATOM     88  C   UNL A   1      49.369  27.171  25.902  1.00  0.00     0.058 A 
ATOM     89  C   UNL A   1      49.627  27.257  24.525  1.00  0.00     0.135 A 
ATOM     90  C   UNL A   1      50.388  26.685  26.735  1.00  0.00     0.135 A 
ATOM     91  F   UNL A   1      48.681  27.709  23.687  1.00  0.00    -0.206 F 
ATOM     92  C   UNL A   1      50.847  26.854  23.990  1.00  0.00     0.059 A 
ATOM     93  C   UNL A   1      51.622  26.295  26.224  1.00  0.00     0.059 A 
ATOM     94  F   UNL A   1      50.193  26.592  28.060  1.00  0.00    -0.206 F 
ATOM     95  C   UNL A   1      51.838  26.373  24.848  1.00  0.00     0.060 A 
BRANCH  95  96
ATOM     96  S   UNL A   1      53.428  25.880  24.149  1.00  0.00     0.124 S 
ATOM     97  O   UNL A   1      53.580  24.532  24.687  1.00  0.00    -0.237 OA
ATOM     98  O   UNL A   1      53.181  25.964  22.713  1.00  0.00    -0.237 OA
ATOM     99  O   UNL A   1      54.354  26.876  24.678  1.00  0.00    -0.744 OA
ENDBRANCH  95  96
ENDBRANCH  63  88
ENDBRANCH  37  38
ENDBRANCH  30  32
ENDBRANCH  29  30
ENDBRANCH  28  29
ENDBRANCH   1  28
TORSDOF 17
ENDMDL
