MODEL 1
REMARK VINA RESULT:     -12.1      0.000      0.000
REMARK SMILES CC[C@@H]1CC[C@](C[C@@H]2CCCc3ccccc32)(C(=O)OCCOC(=O)c2ccc(-c3c4nc(c(-c5c(F)cc(S(=O)(=O)[O-])cc5F)c5ccc([nH]5)c(-c5c(F)cc(S(=O)(=O)[O-])cc5F)c5nc(c(-c6c(F)cc(S(=O)(=O)[O-])cc6F)c6ccc3[nH]6)C=C5)C=C4)cc2)C1
REMARK SMILES IDX 22 1 21 2 20 3 18 4 19 5 6 6 3 7 4 8 92 9 5 10 2 11 1 12
REMARK SMILES IDX 7 13 8 14 9 15 17 16 10 17 12 18 16 19 11 20 13 21 15 22
REMARK SMILES IDX 14 23 23 24 24 25 25 26 26 27 27 28 91 29 28 30 90 31 29 32
REMARK SMILES IDX 30 33 31 34 84 35 32 36 89 37 83 38 85 39 33 40 88 41 82 42
REMARK SMILES IDX 81 43 34 45 68 46 47 47 67 48 48 49 51 50 66 51 86 52 49 53
REMARK SMILES IDX 50 54 65 56 87 57 52 58 35 59 36 60 45 61 37 62 38 63 44 64
REMARK SMILES IDX 46 65 39 66 40 67 41 68 42 69 43 70 69 71 70 72 79 73 71 74
REMARK SMILES IDX 72 75 78 76 80 77 73 78 74 79 75 80 76 81 77 82 53 83 54 84
REMARK SMILES IDX 63 85 55 86 56 87 62 88 64 89 57 90 58 91 59 92 60 93 61 94
REMARK H PARENT 85 44 51 55
REMARK Flexibility Score: inf
ROOT
ATOM      1  C   UNL A   1      39.075  21.848  25.825  1.00  0.00     0.275 C 
ENDROOT
BRANCH   1   2
ATOM      2  C   UNL A   1      37.716  21.718  25.138  1.00  0.00     0.274 C 
BRANCH   2   3
ATOM      3  O   UNL A   1      37.124  23.014  24.896  1.00  0.00    -0.462 OA
BRANCH   3   4
ATOM      4  C   UNL A   1      36.264  23.072  23.847  1.00  0.00     0.312 C 
ATOM      5  O   UNL A   1      36.632  23.045  22.675  1.00  0.00    -0.252 OA
BRANCH   4   6
ATOM      6  C   UNL A   1      34.771  23.249  24.238  1.00  0.00     0.069 C 
ATOM      7  C   UNL A   1      32.790  22.347  23.079  1.00  0.00    -0.010 C 
ATOM      8  C   UNL A   1      33.488  23.333  22.159  1.00  0.00     0.005 C 
ATOM      9  C   UNL A   1      33.907  21.969  24.070  1.00  0.00     0.022 C 
ATOM     10  C   UNL A   1      34.185  24.219  23.187  1.00  0.00     0.019 C 
BRANCH   7  11
ATOM     11  C   UNL A   1      32.115  21.181  22.367  1.00  0.00     0.000 C 
ATOM     12  C   UNL A   1      32.300  19.873  23.126  1.00  0.00     0.004 C 
ENDBRANCH   7  11
BRANCH   6  13
ATOM     13  C   UNL A   1      34.858  23.764  25.716  1.00  0.00     0.027 C 
BRANCH  13  14
ATOM     14  C   UNL A   1      33.683  24.284  26.592  1.00  0.00     0.020 C 
ATOM     15  C   UNL A   1      32.743  23.219  27.172  1.00  0.00     0.009 C 
ATOM     16  C   UNL A   1      32.950  25.490  26.060  1.00  0.00    -0.042 A 
ATOM     17  C   UNL A   1      31.524  22.919  26.322  1.00  0.00     0.005 C 
ATOM     18  C   UNL A   1      31.609  25.406  25.650  1.00  0.00    -0.045 A 
ATOM     19  C   UNL A   1      33.638  26.712  25.922  1.00  0.00     0.004 A 
ATOM     20  C   UNL A   1      30.781  24.162  25.838  1.00  0.00     0.036 C 
ATOM     21  C   UNL A   1      31.003  26.529  25.061  1.00  0.00     0.004 A 
ATOM     22  C   UNL A   1      33.018  27.821  25.350  1.00  0.00     0.000 A 
ATOM     23  C   UNL A   1      31.705  27.725  24.905  1.00  0.00     0.000 A 
ENDBRANCH  13  14
ENDBRANCH   6  13
ENDBRANCH   4   6
ENDBRANCH   3   4
ENDBRANCH   2   3
ENDBRANCH   1   2
BRANCH   1  24
ATOM     24  O   UNL A   1      39.088  23.011  26.669  1.00  0.00    -0.458 OA
BRANCH  24  25
ATOM     25  C   UNL A   1      40.259  23.687  26.732  1.00  0.00     0.338 C 
ATOM     26  O   UNL A   1      41.320  23.333  26.230  1.00  0.00    -0.246 OA
BRANCH  25  27
ATOM     27  C   UNL A   1      40.097  24.974  27.451  1.00  0.00     0.060 A 
ATOM     28  C   UNL A   1      40.942  26.053  27.205  1.00  0.00     0.016 A 
ATOM     29  C   UNL A   1      39.168  25.070  28.488  1.00  0.00     0.016 A 
ATOM     30  C   UNL A   1      40.984  27.135  28.090  1.00  0.00     0.010 A 
ATOM     31  C   UNL A   1      39.119  26.221  29.289  1.00  0.00     0.010 A 
ATOM     32  C   UNL A   1      40.072  27.245  29.149  1.00  0.00    -0.014 A 
BRANCH  32  33
ATOM     33  C   UNL A   1      40.149  28.369  30.141  1.00  0.00     0.031 A 
ATOM     34  C   UNL A   1      41.246  28.389  31.187  1.00  0.00     0.074 A 
ATOM     35  C   UNL A   1      39.264  29.389  30.133  1.00  0.00     0.049 A 
ATOM     36  N   UNL A   1      41.338  29.101  32.282  1.00  0.00    -0.248 NA
ATOM     37  C   UNL A   1      42.372  27.463  30.987  1.00  0.00     0.031 C 
ATOM     38  C   UNL A   1      38.163  29.559  29.185  1.00  0.00     0.029 A 
ATOM     39  N   UNL A   1      39.158  30.489  30.953  1.00  0.00    -0.354 N 
ATOM     40  C   UNL A   1      42.462  28.630  32.954  1.00  0.00     0.074 A 
ATOM     41  C   UNL A   1      43.035  27.588  32.127  1.00  0.00     0.031 C 
ATOM     42  C   UNL A   1      37.538  30.719  29.433  1.00  0.00     0.029 A 
ATOM     43  C   UNL A   1      38.118  31.326  30.625  1.00  0.00     0.049 A 
ATOM     44  H   UNL A   1      39.771  30.661  31.705  1.00  0.00     0.167 HD
ATOM     45  C   UNL A   1      42.966  29.021  34.151  1.00  0.00     0.037 A 
ATOM     46  C   UNL A   1      37.642  32.431  31.232  1.00  0.00     0.037 A 
ATOM     47  C   UNL A   1      42.472  30.137  34.917  1.00  0.00     0.049 A 
ATOM     48  C   UNL A   1      38.260  32.902  32.515  1.00  0.00     0.074 A 
ATOM     49  C   UNL A   1      42.935  30.627  36.127  1.00  0.00     0.029 A 
ATOM     50  N   UNL A   1      41.429  30.965  34.528  1.00  0.00    -0.354 N 
ATOM     51  N   UNL A   1      39.248  32.371  33.195  1.00  0.00    -0.248 NA
ATOM     52  C   UNL A   1      37.683  34.105  33.128  1.00  0.00     0.031 C 
ATOM     53  C   UNL A   1      42.166  31.745  36.474  1.00  0.00     0.029 A 
ATOM     54  C   UNL A   1      41.242  31.967  35.467  1.00  0.00     0.049 A 
ATOM     55  H   UNL A   1      40.900  30.856  33.706  1.00  0.00     0.167 HD
ATOM     56  C   UNL A   1      39.403  33.170  34.322  1.00  0.00     0.074 A 
ATOM     57  C   UNL A   1      38.430  34.238  34.216  1.00  0.00     0.031 C 
ATOM     58  C   UNL A   1      40.266  33.021  35.357  1.00  0.00     0.037 A 
BRANCH  45  59
ATOM     59  C   UNL A   1      44.088  28.204  34.734  1.00  0.00     0.058 A 
ATOM     60  C   UNL A   1      45.438  28.548  34.568  1.00  0.00     0.135 A 
ATOM     61  C   UNL A   1      43.795  27.056  35.491  1.00  0.00     0.135 A 
ATOM     62  F   UNL A   1      45.777  29.625  33.843  1.00  0.00    -0.206 F 
ATOM     63  C   UNL A   1      46.459  27.764  35.100  1.00  0.00     0.059 A 
ATOM     64  C   UNL A   1      44.798  26.272  36.053  1.00  0.00     0.059 A 
ATOM     65  F   UNL A   1      42.521  26.683  35.686  1.00  0.00    -0.206 F 
ATOM     66  C   UNL A   1      46.129  26.623  35.835  1.00  0.00     0.060 A 
BRANCH  66  67
ATOM     67  S   UNL A   1      47.458  25.603  36.510  1.00  0.00     0.124 S 
ATOM     68  O   UNL A   1      46.908  25.236  37.812  1.00  0.00    -0.237 OA
ATOM     69  O   UNL A   1      47.552  24.520  35.537  1.00  0.00    -0.237 OA
ATOM     70  O   UNL A   1      48.598  26.513  36.543  1.00  0.00    -0.744 OA
ENDBRANCH  66  67
ENDBRANCH  45  59
BRANCH  46  71
ATOM     71  C   UNL A   1      36.480  33.143  30.637  1.00  0.00     0.058 A 
ATOM     72  C   UNL A   1      35.226  33.125  31.264  1.00  0.00     0.135 A 
ATOM     73  C   UNL A   1      36.620  33.910  29.470  1.00  0.00     0.135 A 
ATOM     74  F   UNL A   1      35.041  32.393  32.374  1.00  0.00    -0.206 F 
ATOM     75  C   UNL A   1      34.154  33.858  30.765  1.00  0.00     0.059 A 
ATOM     76  C   UNL A   1      35.571  34.671  28.968  1.00  0.00     0.059 A 
ATOM     77  F   UNL A   1      37.804  33.966  28.841  1.00  0.00    -0.206 F 
ATOM     78  C   UNL A   1      34.341  34.639  29.623  1.00  0.00     0.060 A 
BRANCH  78  79
ATOM     79  S   UNL A   1      32.985  35.685  29.048  1.00  0.00     0.124 S 
ATOM     80  O   UNL A   1      32.339  34.816  28.071  1.00  0.00    -0.237 OA
ATOM     81  O   UNL A   1      32.237  35.932  30.277  1.00  0.00    -0.237 OA
ATOM     82  O   UNL A   1      33.675  36.849  28.501  1.00  0.00    -0.744 OA
ENDBRANCH  78  79
ENDBRANCH  46  71
BRANCH  58  83
ATOM     83  C   UNL A   1      40.201  34.053  36.446  1.00  0.00     0.058 A 
ATOM     84  C   UNL A   1      39.427  33.852  37.600  1.00  0.00     0.135 A 
ATOM     85  C   UNL A   1      40.910  35.259  36.330  1.00  0.00     0.135 A 
ATOM     86  F   UNL A   1      38.727  32.718  37.755  1.00  0.00    -0.206 F 
ATOM     87  C   UNL A   1      39.327  34.829  38.585  1.00  0.00     0.059 A 
ATOM     88  C   UNL A   1      40.839  36.242  37.313  1.00  0.00     0.059 A 
ATOM     89  F   UNL A   1      41.671  35.494  35.250  1.00  0.00    -0.206 F 
ATOM     90  C   UNL A   1      40.027  36.026  38.427  1.00  0.00     0.060 A 
BRANCH  90  91
ATOM     91  S   UNL A   1      39.879  37.300  39.698  1.00  0.00     0.124 S 
ATOM     92  O   UNL A   1      38.700  38.029  39.243  1.00  0.00    -0.237 OA
ATOM     93  O   UNL A   1      39.707  36.515  40.916  1.00  0.00    -0.237 OA
ATOM     94  O   UNL A   1      41.143  38.023  39.599  1.00  0.00    -0.744 OA
ENDBRANCH  90  91
ENDBRANCH  58  83
ENDBRANCH  32  33
ENDBRANCH  25  27
ENDBRANCH  24  25
ENDBRANCH   1  24
TORSDOF 17
ENDMDL
MODEL 2
REMARK VINA RESULT:     -11.9      6.314     11.751
REMARK SMILES CC[C@@H]1CC[C@](C[C@@H]2CCCc3ccccc32)(C(=O)OCCOC(=O)c2ccc(-c3c4nc(c(-c5c(F)cc(S(=O)(=O)[O-])cc5F)c5ccc([nH]5)c(-c5c(F)cc(S(=O)(=O)[O-])cc5F)c5nc(c(-c6c(F)cc(S(=O)(=O)[O-])cc6F)c6ccc3[nH]6)C=C5)C=C4)cc2)C1
REMARK SMILES IDX 22 1 21 2 20 3 18 4 19 5 6 6 3 7 4 8 92 9 5 10 2 11 1 12
REMARK SMILES IDX 7 13 8 14 9 15 17 16 10 17 12 18 16 19 11 20 13 21 15 22
REMARK SMILES IDX 14 23 23 24 24 25 25 26 26 27 27 28 91 29 28 30 90 31 29 32
REMARK SMILES IDX 30 33 31 34 84 35 32 36 89 37 83 38 85 39 33 40 88 41 82 42
REMARK SMILES IDX 81 43 34 45 68 46 47 47 67 48 48 49 51 50 66 51 86 52 49 53
REMARK SMILES IDX 50 54 65 56 87 57 52 58 35 59 36 60 45 61 37 62 38 63 44 64
REMARK SMILES IDX 46 65 39 66 40 67 41 68 42 69 43 70 69 71 70 72 79 73 71 74
REMARK SMILES IDX 72 75 78 76 80 77 73 78 74 79 75 80 76 81 77 82 53 83 54 84
REMARK SMILES IDX 63 85 55 86 56 87 62 88 64 89 57 90 58 91 59 92 60 93 61 94
REMARK H PARENT 85 44 51 55
REMARK Flexibility Score: inf
ROOT
ATOM      1  C   UNL A   1      33.771  30.968  27.639  1.00  0.00     0.275 C 
ENDROOT
BRANCH   1   2
ATOM      2  C   UNL A   1      33.293  30.176  26.423  1.00  0.00     0.274 C 
BRANCH   2   3
ATOM      3  O   UNL A   1      31.957  29.662  26.622  1.00  0.00    -0.462 OA
BRANCH   3   4
ATOM      4  C   UNL A   1      31.880  28.332  26.886  1.00  0.00     0.312 C 
ATOM      5  O   UNL A   1      31.871  27.875  28.027  1.00  0.00    -0.252 OA
BRANCH   4   6
ATOM      6  C   UNL A   1      31.875  27.418  25.631  1.00  0.00     0.069 C 
ATOM      7  C   UNL A   1      29.922  26.455  24.472  1.00  0.00    -0.010 C 
ATOM      8  C   UNL A   1      29.994  25.874  25.874  1.00  0.00     0.005 C 
ATOM      9  C   UNL A   1      30.756  27.744  24.604  1.00  0.00     0.022 C 
ATOM     10  C   UNL A   1      31.488  26.014  26.150  1.00  0.00     0.019 C 
BRANCH   7  11
ATOM     11  C   UNL A   1      28.509  26.635  23.931  1.00  0.00     0.000 C 
ATOM     12  C   UNL A   1      28.347  27.966  23.207  1.00  0.00     0.004 C 
ENDBRANCH   7  11
BRANCH   6  13
ATOM     13  C   UNL A   1      33.325  27.596  25.066  1.00  0.00     0.027 C 
BRANCH  13  14
ATOM     14  C   UNL A   1      34.001  26.749  23.949  1.00  0.00     0.020 C 
ATOM     15  C   UNL A   1      33.611  27.092  22.505  1.00  0.00     0.009 C 
ATOM     16  C   UNL A   1      34.074  25.265  24.204  1.00  0.00    -0.042 A 
ATOM     17  C   UNL A   1      32.459  26.277  21.950  1.00  0.00     0.005 C 
ATOM     18  C   UNL A   1      33.358  24.353  23.411  1.00  0.00    -0.045 A 
ATOM     19  C   UNL A   1      34.834  24.786  25.289  1.00  0.00     0.004 A 
ATOM     20  C   UNL A   1      32.589  24.774  22.186  1.00  0.00     0.036 C 
ATOM     21  C   UNL A   1      33.373  22.990  23.754  1.00  0.00     0.004 A 
ATOM     22  C   UNL A   1      34.851  23.429  25.608  1.00  0.00     0.000 A 
ATOM     23  C   UNL A   1      34.107  22.533  24.849  1.00  0.00     0.000 A 
ENDBRANCH  13  14
ENDBRANCH   6  13
ENDBRANCH   4   6
ENDBRANCH   3   4
ENDBRANCH   2   3
ENDBRANCH   1   2
BRANCH   1  24
ATOM     24  O   UNL A   1      34.613  30.143  28.461  1.00  0.00    -0.458 OA
BRANCH  24  25
ATOM     25  C   UNL A   1      35.661  30.763  29.049  1.00  0.00     0.338 C 
ATOM     26  O   UNL A   1      35.607  31.796  29.708  1.00  0.00    -0.246 OA
BRANCH  25  27
ATOM     27  C   UNL A   1      36.917  29.998  28.851  1.00  0.00     0.060 A 
ATOM     28  C   UNL A   1      37.622  29.470  29.929  1.00  0.00     0.016 A 
ATOM     29  C   UNL A   1      37.476  29.916  27.575  1.00  0.00     0.016 A 
ATOM     30  C   UNL A   1      38.940  29.031  29.766  1.00  0.00     0.010 A 
ATOM     31  C   UNL A   1      38.746  29.344  27.396  1.00  0.00     0.010 A 
ATOM     32  C   UNL A   1      39.530  28.955  28.496  1.00  0.00    -0.014 A 
BRANCH  32  33
ATOM     33  C   UNL A   1      40.963  28.546  28.318  1.00  0.00     0.031 A 
ATOM     34  C   UNL A   1      42.073  29.564  28.484  1.00  0.00     0.074 A 
ATOM     35  C   UNL A   1      41.309  27.276  28.014  1.00  0.00     0.049 A 
ATOM     36  N   UNL A   1      43.328  29.493  28.117  1.00  0.00    -0.248 NA
ATOM     37  C   UNL A   1      41.713  30.843  29.117  1.00  0.00     0.031 C 
ATOM     38  C   UNL A   1      40.385  26.154  27.848  1.00  0.00     0.029 A 
ATOM     39  N   UNL A   1      42.546  26.713  27.799  1.00  0.00    -0.354 N 
ATOM     40  C   UNL A   1      43.875  30.748  28.370  1.00  0.00     0.074 A 
ATOM     41  C   UNL A   1      42.818  31.554  28.946  1.00  0.00     0.031 C 
ATOM     42  C   UNL A   1      41.085  25.032  27.625  1.00  0.00     0.029 A 
ATOM     43  C   UNL A   1      42.500  25.368  27.519  1.00  0.00     0.049 A 
ATOM     44  H   UNL A   1      43.386  27.225  27.843  1.00  0.00     0.167 HD
ATOM     45  C   UNL A   1      45.135  31.192  28.136  1.00  0.00     0.037 A 
ATOM     46  C   UNL A   1      43.469  24.500  27.167  1.00  0.00     0.037 A 
ATOM     47  C   UNL A   1      46.219  30.361  27.677  1.00  0.00     0.049 A 
ATOM     48  C   UNL A   1      44.877  24.987  26.989  1.00  0.00     0.074 A 
ATOM     49  C   UNL A   1      47.537  30.714  27.439  1.00  0.00     0.029 A 
ATOM     50  N   UNL A   1      46.123  29.000  27.429  1.00  0.00    -0.354 N 
ATOM     51  N   UNL A   1      45.348  26.204  27.118  1.00  0.00    -0.248 NA
ATOM     52  C   UNL A   1      45.880  23.990  26.593  1.00  0.00     0.031 C 
ATOM     53  C   UNL A   1      48.235  29.568  27.036  1.00  0.00     0.029 A 
ATOM     54  C   UNL A   1      47.358  28.497  27.051  1.00  0.00     0.049 A 
ATOM     55  H   UNL A   1      45.298  28.468  27.510  1.00  0.00     0.167 HD
ATOM     56  C   UNL A   1      46.701  26.120  26.808  1.00  0.00     0.074 A 
ATOM     57  C   UNL A   1      46.979  24.729  26.517  1.00  0.00     0.031 C 
ATOM     58  C   UNL A   1      47.623  27.112  26.756  1.00  0.00     0.037 A 
BRANCH  45  59
ATOM     59  C   UNL A   1      45.401  32.662  28.327  1.00  0.00     0.058 A 
ATOM     60  C   UNL A   1      45.163  33.610  27.321  1.00  0.00     0.135 A 
ATOM     61  C   UNL A   1      45.893  33.126  29.559  1.00  0.00     0.135 A 
ATOM     62  F   UNL A   1      44.708  33.221  26.120  1.00  0.00    -0.206 F 
ATOM     63  C   UNL A   1      45.438  34.961  27.515  1.00  0.00     0.059 A 
ATOM     64  C   UNL A   1      46.151  34.475  29.785  1.00  0.00     0.059 A 
ATOM     65  F   UNL A   1      46.134  32.264  30.559  1.00  0.00    -0.206 F 
ATOM     66  C   UNL A   1      45.938  35.384  28.749  1.00  0.00     0.060 A 
BRANCH  66  67
ATOM     67  S   UNL A   1      46.306  37.135  28.991  1.00  0.00     0.124 S 
ATOM     68  O   UNL A   1      47.349  37.074  30.011  1.00  0.00    -0.237 OA
ATOM     69  O   UNL A   1      46.745  37.554  27.664  1.00  0.00    -0.237 OA
ATOM     70  O   UNL A   1      45.029  37.690  29.429  1.00  0.00    -0.744 OA
ENDBRANCH  66  67
ENDBRANCH  45  59
BRANCH  46  71
ATOM     71  C   UNL A   1      43.116  23.077  26.919  1.00  0.00     0.058 A 
ATOM     72  C   UNL A   1      43.070  22.563  25.616  1.00  0.00     0.135 A 
ATOM     73  C   UNL A   1      42.887  22.191  27.984  1.00  0.00     0.135 A 
ATOM     74  F   UNL A   1      43.267  23.376  24.566  1.00  0.00    -0.206 F 
ATOM     75  C   UNL A   1      42.827  21.214  25.375  1.00  0.00     0.059 A 
ATOM     76  C   UNL A   1      42.669  20.836  27.770  1.00  0.00     0.059 A 
ATOM     77  F   UNL A   1      42.931  22.636  29.249  1.00  0.00    -0.206 F 
ATOM     78  C   UNL A   1      42.640  20.356  26.461  1.00  0.00     0.060 A 
BRANCH  78  79
ATOM     79  S   UNL A   1      42.448  18.586  26.153  1.00  0.00     0.124 S 
ATOM     80  O   UNL A   1      41.037  18.503  25.793  1.00  0.00    -0.237 OA
ATOM     81  O   UNL A   1      43.398  18.352  25.071  1.00  0.00    -0.237 OA
ATOM     82  O   UNL A   1      42.811  17.986  27.433  1.00  0.00    -0.744 OA
ENDBRANCH  78  79
ENDBRANCH  46  71
BRANCH  58  83
ATOM     83  C   UNL A   1      49.023  26.715  26.384  1.00  0.00     0.058 A 
ATOM     84  C   UNL A   1      49.496  26.841  25.069  1.00  0.00     0.135 A 
ATOM     85  C   UNL A   1      49.897  26.194  27.351  1.00  0.00     0.135 A 
ATOM     86  F   UNL A   1      48.697  27.329  24.108  1.00  0.00    -0.206 F 
ATOM     87  C   UNL A   1      50.776  26.426  24.715  1.00  0.00     0.059 A 
ATOM     88  C   UNL A   1      51.188  25.790  27.023  1.00  0.00     0.059 A 
ATOM     89  F   UNL A   1      49.495  26.062  28.625  1.00  0.00    -0.206 F 
ATOM     90  C   UNL A   1      51.611  25.891  25.697  1.00  0.00     0.060 A 
BRANCH  90  91
ATOM     91  S   UNL A   1      53.265  25.334  25.230  1.00  0.00     0.124 S 
ATOM     92  O   UNL A   1      54.099  26.089  26.158  1.00  0.00    -0.237 OA
ATOM     93  O   UNL A   1      53.193  23.896  25.467  1.00  0.00    -0.237 OA
ATOM     94  O   UNL A   1      53.369  25.726  23.828  1.00  0.00    -0.744 OA
ENDBRANCH  90  91
ENDBRANCH  58  83
ENDBRANCH  32  33
ENDBRANCH  25  27
ENDBRANCH  24  25
ENDBRANCH   1  24
TORSDOF 17
ENDMDL
MODEL 3
REMARK VINA RESULT:     -11.8      1.066      1.970
REMARK SMILES CC[C@@H]1CC[C@](C[C@@H]2CCCc3ccccc32)(C(=O)OCCOC(=O)c2ccc(-c3c4nc(c(-c5c(F)cc(S(=O)(=O)[O-])cc5F)c5ccc([nH]5)c(-c5c(F)cc(S(=O)(=O)[O-])cc5F)c5nc(c(-c6c(F)cc(S(=O)(=O)[O-])cc6F)c6ccc3[nH]6)C=C5)C=C4)cc2)C1
REMARK SMILES IDX 22 1 21 2 20 3 18 4 19 5 6 6 3 7 4 8 92 9 5 10 2 11 1 12
REMARK SMILES IDX 7 13 8 14 9 15 17 16 10 17 12 18 16 19 11 20 13 21 15 22
REMARK SMILES IDX 14 23 23 24 24 25 25 26 26 27 27 28 91 29 28 30 90 31 29 32
REMARK SMILES IDX 30 33 31 34 84 35 32 36 89 37 83 38 85 39 33 40 88 41 82 42
REMARK SMILES IDX 81 43 34 45 68 46 47 47 67 48 48 49 51 50 66 51 86 52 49 53
REMARK SMILES IDX 50 54 65 56 87 57 52 58 35 59 36 60 45 61 37 62 38 63 44 64
REMARK SMILES IDX 46 65 39 66 40 67 41 68 42 69 43 70 69 71 70 72 79 73 71 74
REMARK SMILES IDX 72 75 78 76 80 77 73 78 74 79 75 80 76 81 77 82 53 83 54 84
REMARK SMILES IDX 63 85 55 86 56 87 62 88 64 89 57 90 58 91 59 92 60 93 61 94
REMARK H PARENT 85 44 51 55
REMARK Flexibility Score: inf
ROOT
ATOM      1  C   UNL A   1      38.908  22.591  26.150  1.00  0.00     0.275 C 
ENDROOT
BRANCH   1   2
ATOM      2  C   UNL A   1      37.654  22.299  25.328  1.00  0.00     0.274 C 
BRANCH   2   3
ATOM      3  O   UNL A   1      36.644  23.312  25.533  1.00  0.00    -0.462 OA
BRANCH   3   4
ATOM      4  C   UNL A   1      35.433  22.850  25.939  1.00  0.00     0.312 C 
ATOM      5  O   UNL A   1      35.294  21.823  26.599  1.00  0.00    -0.252 OA
BRANCH   4   6
ATOM      6  C   UNL A   1      34.219  23.683  25.444  1.00  0.00     0.069 C 
ATOM      7  C   UNL A   1      31.859  22.980  25.310  1.00  0.00    -0.010 C 
ATOM      8  C   UNL A   1      32.677  22.130  24.353  1.00  0.00     0.005 C 
ATOM      9  C   UNL A   1      32.928  23.502  26.289  1.00  0.00     0.022 C 
ATOM     10  C   UNL A   1      33.839  23.078  24.073  1.00  0.00     0.019 C 
BRANCH   7  11
ATOM     11  C   UNL A   1      30.676  22.261  25.946  1.00  0.00     0.000 C 
ATOM     12  C   UNL A   1      29.985  23.126  26.993  1.00  0.00     0.004 C 
ENDBRANCH   7  11
BRANCH   6  13
ATOM     13  C   UNL A   1      34.778  25.147  25.448  1.00  0.00     0.027 C 
BRANCH  13  14
ATOM     14  C   UNL A   1      33.987  26.448  25.127  1.00  0.00     0.020 C 
ATOM     15  C   UNL A   1      33.316  27.148  26.316  1.00  0.00     0.009 C 
ATOM     16  C   UNL A   1      33.110  26.397  23.900  1.00  0.00    -0.042 A 
ATOM     17  C   UNL A   1      31.876  26.741  26.560  1.00  0.00     0.005 C 
ATOM     18  C   UNL A   1      31.711  26.473  24.002  1.00  0.00    -0.045 A 
ATOM     19  C   UNL A   1      33.701  26.219  22.634  1.00  0.00     0.004 A 
ATOM     20  C   UNL A   1      31.006  26.745  25.305  1.00  0.00     0.036 C 
ATOM     21  C   UNL A   1      30.932  26.314  22.842  1.00  0.00     0.004 A 
ATOM     22  C   UNL A   1      32.916  26.077  21.492  1.00  0.00     0.000 A 
ATOM     23  C   UNL A   1      31.530  26.109  21.598  1.00  0.00     0.000 A 
ENDBRANCH  13  14
ENDBRANCH   6  13
ENDBRANCH   4   6
ENDBRANCH   3   4
ENDBRANCH   2   3
ENDBRANCH   1   2
BRANCH   1  24
ATOM     24  O   UNL A   1      38.946  23.982  26.509  1.00  0.00    -0.458 OA
BRANCH  24  25
ATOM     25  C   UNL A   1      40.172  24.551  26.554  1.00  0.00     0.338 C 
ATOM     26  O   UNL A   1      41.053  24.427  25.709  1.00  0.00    -0.246 OA
BRANCH  25  27
ATOM     27  C   UNL A   1      40.318  25.418  27.750  1.00  0.00     0.060 A 
ATOM     28  C   UNL A   1      39.350  25.441  28.750  1.00  0.00     0.016 A 
ATOM     29  C   UNL A   1      41.377  26.324  27.816  1.00  0.00     0.016 A 
ATOM     30  C   UNL A   1      39.338  26.468  29.699  1.00  0.00     0.010 A 
ATOM     31  C   UNL A   1      41.436  27.265  28.855  1.00  0.00     0.010 A 
ATOM     32  C   UNL A   1      40.383  27.401  29.776  1.00  0.00    -0.014 A 
BRANCH  32  33
ATOM     33  C   UNL A   1      40.348  28.542  30.749  1.00  0.00     0.031 A 
ATOM     34  C   UNL A   1      41.356  28.612  31.878  1.00  0.00     0.074 A 
ATOM     35  C   UNL A   1      39.438  29.535  30.651  1.00  0.00     0.049 A 
ATOM     36  N   UNL A   1      41.339  29.344  32.964  1.00  0.00    -0.248 NA
ATOM     37  C   UNL A   1      42.520  27.716  31.786  1.00  0.00     0.031 C 
ATOM     38  C   UNL A   1      38.412  29.657  29.615  1.00  0.00     0.029 A 
ATOM     39  N   UNL A   1      39.235  30.645  31.440  1.00  0.00    -0.354 N 
ATOM     40  C   UNL A   1      42.420  28.918  33.732  1.00  0.00     0.074 A 
ATOM     41  C   UNL A   1      43.086  27.880  32.973  1.00  0.00     0.031 C 
ATOM     42  C   UNL A   1      37.737  30.802  29.791  1.00  0.00     0.029 A 
ATOM     43  C   UNL A   1      38.202  31.445  31.014  1.00  0.00     0.049 A 
ATOM     44  H   UNL A   1      39.781  30.847  32.234  1.00  0.00     0.167 HD
ATOM     45  C   UNL A   1      42.814  29.343  34.958  1.00  0.00     0.037 A 
ATOM     46  C   UNL A   1      37.647  32.545  31.560  1.00  0.00     0.037 A 
ATOM     47  C   UNL A   1      42.228  30.456  35.662  1.00  0.00     0.049 A 
ATOM     48  C   UNL A   1      38.147  33.055  32.880  1.00  0.00     0.074 A 
ATOM     49  C   UNL A   1      42.579  30.980  36.895  1.00  0.00     0.029 A 
ATOM     50  N   UNL A   1      41.198  31.247  35.175  1.00  0.00    -0.354 N 
ATOM     51  N   UNL A   1      39.091  32.565  33.646  1.00  0.00    -0.248 NA
ATOM     52  C   UNL A   1      37.488  34.251  33.422  1.00  0.00     0.031 C 
ATOM     53  C   UNL A   1      41.753  32.080  37.159  1.00  0.00     0.029 A 
ATOM     54  C   UNL A   1      40.907  32.258  36.077  1.00  0.00     0.049 A 
ATOM     55  H   UNL A   1      40.739  31.109  34.315  1.00  0.00     0.167 HD
ATOM     56  C   UNL A   1      39.133  33.387  34.766  1.00  0.00     0.074 A 
ATOM     57  C   UNL A   1      38.142  34.423  34.563  1.00  0.00     0.031 C 
ATOM     58  C   UNL A   1      39.914  33.280  35.869  1.00  0.00     0.037 A 
BRANCH  45  59
ATOM     59  C   UNL A   1      43.909  28.569  35.644  1.00  0.00     0.058 A 
ATOM     60  C   UNL A   1      45.268  28.878  35.480  1.00  0.00     0.135 A 
ATOM     61  C   UNL A   1      43.579  27.504  36.499  1.00  0.00     0.135 A 
ATOM     62  F   UNL A   1      45.641  29.876  34.665  1.00  0.00    -0.206 F 
ATOM     63  C   UNL A   1      46.263  28.133  36.109  1.00  0.00     0.059 A 
ATOM     64  C   UNL A   1      44.555  26.762  37.157  1.00  0.00     0.059 A 
ATOM     65  F   UNL A   1      42.294  27.169  36.696  1.00  0.00    -0.206 F 
ATOM     66  C   UNL A   1      45.897  27.072  36.941  1.00  0.00     0.060 A 
BRANCH  66  67
ATOM     67  S   UNL A   1      47.192  26.102  37.743  1.00  0.00     0.124 S 
ATOM     68  O   UNL A   1      46.419  25.337  38.717  1.00  0.00    -0.237 OA
ATOM     69  O   UNL A   1      47.746  25.334  36.633  1.00  0.00    -0.237 OA
ATOM     70  O   UNL A   1      48.078  27.118  38.301  1.00  0.00    -0.744 OA
ENDBRANCH  66  67
ENDBRANCH  45  59
BRANCH  46  71
ATOM     71  C   UNL A   1      36.517  33.213  30.861  1.00  0.00     0.058 A 
ATOM     72  C   UNL A   1      35.203  33.086  31.333  1.00  0.00     0.135 A 
ATOM     73  C   UNL A   1      36.740  34.044  29.753  1.00  0.00     0.135 A 
ATOM     74  F   UNL A   1      34.940  32.289  32.380  1.00  0.00    -0.206 F 
ATOM     75  C   UNL A   1      34.149  33.774  30.741  1.00  0.00     0.059 A 
ATOM     76  C   UNL A   1      35.708  34.763  29.161  1.00  0.00     0.059 A 
ATOM     77  F   UNL A   1      37.983  34.204  29.272  1.00  0.00    -0.206 F 
ATOM     78  C   UNL A   1      34.415  34.621  29.663  1.00  0.00     0.060 A 
BRANCH  78  79
ATOM     79  S   UNL A   1      33.067  35.609  28.974  1.00  0.00     0.124 S 
ATOM     80  O   UNL A   1      32.367  36.031  30.181  1.00  0.00    -0.237 OA
ATOM     81  O   UNL A   1      33.784  36.656  28.253  1.00  0.00    -0.237 OA
ATOM     82  O   UNL A   1      32.356  34.654  28.130  1.00  0.00    -0.744 OA
ENDBRANCH  78  79
ENDBRANCH  46  71
BRANCH  58  83
ATOM     83  C   UNL A   1      39.732  34.328  36.931  1.00  0.00     0.058 A 
ATOM     84  C   UNL A   1      40.334  35.591  36.824  1.00  0.00     0.135 A 
ATOM     85  C   UNL A   1      38.959  34.062  38.071  1.00  0.00     0.135 A 
ATOM     86  F   UNL A   1      41.088  35.891  35.755  1.00  0.00    -0.206 F 
ATOM     87  C   UNL A   1      40.207  36.543  37.830  1.00  0.00     0.059 A 
ATOM     88  C   UNL A   1      38.803  35.006  39.082  1.00  0.00     0.059 A 
ATOM     89  F   UNL A   1      38.355  32.871  38.216  1.00  0.00    -0.206 F 
ATOM     90  C   UNL A   1      39.449  36.237  38.961  1.00  0.00     0.060 A 
BRANCH  90  91
ATOM     91  S   UNL A   1      39.303  37.467  40.276  1.00  0.00     0.124 S 
ATOM     92  O   UNL A   1      38.513  38.502  39.619  1.00  0.00    -0.237 OA
ATOM     93  O   UNL A   1      38.623  36.724  41.331  1.00  0.00    -0.237 OA
ATOM     94  O   UNL A   1      40.691  37.820  40.562  1.00  0.00    -0.744 OA
ENDBRANCH  90  91
ENDBRANCH  58  83
ENDBRANCH  32  33
ENDBRANCH  25  27
ENDBRANCH  24  25
ENDBRANCH   1  24
TORSDOF 17
ENDMDL
