MODEL 1
REMARK VINA RESULT:      -9.3      0.000      0.000
REMARK SMILES COc1ccc2cc([C@H](C)C(=O)OCCOC(=O)c3ccc(-c4c5nc(c(-c6c(F)cc(S(=O)(=O)[O-])cc6F)c6ccc([nH]6)c(-c6c(F)cc(S(=O)(=O)[O-])cc6F)c6nc(c(-c7c(F)cc(S(=O)(=O)[O-])cc7F)c7ccc4[nH]7)C=C6)C=C5)cc3)ccc2c1
REMARK SMILES IDX 15 1 14 2 13 3 11 4 12 5 9 6 10 7 8 8 3 9 4 10 88 11 5 12
REMARK SMILES IDX 87 13 6 14 86 15 7 16 85 17 2 18 1 19 16 20 17 21 18 22
REMARK SMILES IDX 19 23 20 24 84 25 21 26 83 27 22 28 23 29 24 30 77 31 25 32
REMARK SMILES IDX 82 33 76 34 78 35 26 36 81 37 75 38 74 39 27 41 61 42 40 43
REMARK SMILES IDX 60 44 41 45 44 46 59 47 79 48 42 49 43 50 58 52 80 53 45 54
REMARK SMILES IDX 28 55 29 56 38 57 30 58 31 59 37 60 39 61 32 62 33 63 34 64
REMARK SMILES IDX 35 65 36 66 62 67 63 68 72 69 64 70 65 71 71 72 73 73 66 74
REMARK SMILES IDX 67 75 68 76 69 77 70 78 46 79 47 80 56 81 48 82 49 83 55 84
REMARK SMILES IDX 57 85 50 86 51 87 52 88 53 89 54 90
REMARK H PARENT 78 40 44 51
REMARK Flexibility Score: inf
ROOT
ATOM      1  C   UNL A   1      34.418  32.859  28.562  1.00  0.00     0.275 C 
ENDROOT
BRANCH   1   2
ATOM      2  C   UNL A   1      34.436  33.582  29.907  1.00  0.00     0.274 C 
BRANCH   2   3
ATOM      3  O   UNL A   1      34.407  32.639  30.993  1.00  0.00    -0.462 OA
BRANCH   3   4
ATOM      4  C   UNL A   1      35.087  32.962  32.134  1.00  0.00     0.313 C 
ATOM      5  O   UNL A   1      34.557  33.254  33.199  1.00  0.00    -0.252 OA
BRANCH   4   6
ATOM      6  C   UNL A   1      36.609  33.057  31.880  1.00  0.00     0.126 C 
ATOM      7  C   UNL A   1      37.128  34.494  31.880  1.00  0.00     0.025 C 
BRANCH   6   8
ATOM      8  C   UNL A   1      37.259  32.151  32.917  1.00  0.00    -0.033 A 
ATOM      9  C   UNL A   1      40.453  28.345  33.284  1.00  0.00     0.119 A 
ATOM     10  C   UNL A   1      39.336  27.858  32.608  1.00  0.00     0.047 A 
ATOM     11  C   UNL A   1      40.417  29.605  33.889  1.00  0.00     0.055 A 
ATOM     12  C   UNL A   1      38.191  28.642  32.507  1.00  0.00     0.012 A 
ATOM     13  C   UNL A   1      39.299  30.436  33.731  1.00  0.00    -0.015 A 
ATOM     14  C   UNL A   1      38.176  29.933  33.038  1.00  0.00    -0.018 A 
ATOM     15  C   UNL A   1      39.302  31.778  34.148  1.00  0.00     0.009 A 
ATOM     16  C   UNL A   1      37.105  30.769  32.755  1.00  0.00     0.013 A 
ATOM     17  C   UNL A   1      38.306  32.645  33.704  1.00  0.00     0.005 A 
BRANCH   9  18
ATOM     18  O   UNL A   1      41.614  27.633  33.426  1.00  0.00    -0.497 OA
ATOM     19  C   UNL A   1      42.784  28.448  33.489  1.00  0.00     0.278 C 
ENDBRANCH   9  18
ENDBRANCH   6   8
ENDBRANCH   4   6
ENDBRANCH   3   4
ENDBRANCH   2   3
ENDBRANCH   1   2
BRANCH   1  20
ATOM     20  O   UNL A   1      33.927  31.518  28.715  1.00  0.00    -0.458 OA
BRANCH  20  21
ATOM     21  C   UNL A   1      34.274  30.671  27.716  1.00  0.00     0.338 C 
ATOM     22  O   UNL A   1      33.674  30.459  26.678  1.00  0.00    -0.246 OA
BRANCH  21  23
ATOM     23  C   UNL A   1      35.624  30.161  27.989  1.00  0.00     0.060 A 
ATOM     24  C   UNL A   1      35.910  29.707  29.278  1.00  0.00     0.016 A 
ATOM     25  C   UNL A   1      36.603  30.166  26.998  1.00  0.00     0.016 A 
ATOM     26  C   UNL A   1      37.179  29.250  29.594  1.00  0.00     0.010 A 
ATOM     27  C   UNL A   1      37.883  29.717  27.317  1.00  0.00     0.010 A 
ATOM     28  C   UNL A   1      38.175  29.268  28.618  1.00  0.00    -0.014 A 
BRANCH  28  29
ATOM     29  C   UNL A   1      39.556  28.912  28.991  1.00  0.00     0.031 A 
ATOM     30  C   UNL A   1      40.398  29.936  29.692  1.00  0.00     0.074 A 
ATOM     31  C   UNL A   1      40.025  27.680  28.725  1.00  0.00     0.049 A 
ATOM     32  N   UNL A   1      41.666  29.893  29.995  1.00  0.00    -0.248 NA
ATOM     33  C   UNL A   1      39.718  31.177  30.105  1.00  0.00     0.031 C 
ATOM     34  C   UNL A   1      39.255  26.595  28.112  1.00  0.00     0.029 A 
ATOM     35  N   UNL A   1      41.266  27.137  28.928  1.00  0.00    -0.354 N 
ATOM     36  C   UNL A   1      41.943  31.102  30.619  1.00  0.00     0.074 A 
ATOM     37  C   UNL A   1      40.718  31.870  30.630  1.00  0.00     0.031 C 
ATOM     38  C   UNL A   1      40.047  25.519  27.977  1.00  0.00     0.029 A 
ATOM     39  C   UNL A   1      41.389  25.856  28.445  1.00  0.00     0.049 A 
ATOM     40  H   UNL A   1      41.998  27.616  29.378  1.00  0.00     0.167 HD
ATOM     41  C   UNL A   1      43.118  31.524  31.141  1.00  0.00     0.037 A 
ATOM     42  C   UNL A   1      42.476  25.068  28.357  1.00  0.00     0.037 A 
ATOM     43  C   UNL A   1      44.323  30.737  31.123  1.00  0.00     0.049 A 
ATOM     44  C   UNL A   1      43.792  25.599  28.864  1.00  0.00     0.074 A 
ATOM     45  C   UNL A   1      45.577  31.069  31.601  1.00  0.00     0.029 A 
ATOM     46  N   UNL A   1      44.419  29.453  30.602  1.00  0.00    -0.354 N 
ATOM     47  N   UNL A   1      44.055  26.755  29.427  1.00  0.00    -0.248 NA
ATOM     48  C   UNL A   1      44.961  24.722  28.720  1.00  0.00     0.031 C 
ATOM     49  C   UNL A   1      46.441  30.003  31.334  1.00  0.00     0.029 A 
ATOM     50  C   UNL A   1      45.715  28.985  30.738  1.00  0.00     0.049 A 
ATOM     51  H   UNL A   1      43.677  28.951  30.196  1.00  0.00     0.167 HD
ATOM     52  C   UNL A   1      45.409  26.729  29.737  1.00  0.00     0.074 A 
ATOM     53  C   UNL A   1      45.908  25.439  29.309  1.00  0.00     0.031 C 
ATOM     54  C   UNL A   1      46.176  27.683  30.322  1.00  0.00     0.037 A 
BRANCH  41  55
ATOM     55  C   UNL A   1      43.162  32.893  31.756  1.00  0.00     0.058 A 
ATOM     56  C   UNL A   1      42.928  33.094  33.126  1.00  0.00     0.135 A 
ATOM     57  C   UNL A   1      43.493  34.014  30.977  1.00  0.00     0.135 A 
ATOM     58  F   UNL A   1      42.583  32.062  33.912  1.00  0.00    -0.206 F 
ATOM     59  C   UNL A   1      43.013  34.359  33.699  1.00  0.00     0.059 A 
ATOM     60  C   UNL A   1      43.608  35.284  31.535  1.00  0.00     0.059 A 
ATOM     61  F   UNL A   1      43.715  33.880  29.659  1.00  0.00    -0.206 F 
ATOM     62  C   UNL A   1      43.361  35.446  32.897  1.00  0.00     0.060 A 
BRANCH  62  63
ATOM     63  S   UNL A   1      43.503  37.073  33.667  1.00  0.00     0.124 S 
ATOM     64  O   UNL A   1      43.450  37.953  32.503  1.00  0.00    -0.237 OA
ATOM     65  O   UNL A   1      42.335  37.107  34.541  1.00  0.00    -0.237 OA
ATOM     66  O   UNL A   1      44.792  37.016  34.349  1.00  0.00    -0.744 OA
ENDBRANCH  62  63
ENDBRANCH  41  55
BRANCH  42  67
ATOM     67  C   UNL A   1      42.385  23.717  27.739  1.00  0.00     0.058 A 
ATOM     68  C   UNL A   1      42.337  22.561  28.530  1.00  0.00     0.135 A 
ATOM     69  C   UNL A   1      42.383  23.552  26.344  1.00  0.00     0.135 A 
ATOM     70  F   UNL A   1      42.341  22.664  29.869  1.00  0.00    -0.206 F 
ATOM     71  C   UNL A   1      42.331  21.288  27.967  1.00  0.00     0.059 A 
ATOM     72  C   UNL A   1      42.344  22.292  25.756  1.00  0.00     0.059 A 
ATOM     73  F   UNL A   1      42.413  24.624  25.538  1.00  0.00    -0.206 F 
ATOM     74  C   UNL A   1      42.341  21.165  26.576  1.00  0.00     0.060 A 
BRANCH  74  75
ATOM     75  S   UNL A   1      42.339  19.511  25.852  1.00  0.00     0.124 S 
ATOM     76  O   UNL A   1      40.962  19.398  25.388  1.00  0.00    -0.237 OA
ATOM     77  O   UNL A   1      43.355  19.631  24.811  1.00  0.00    -0.237 OA
ATOM     78  O   UNL A   1      42.700  18.652  26.975  1.00  0.00    -0.744 OA
ENDBRANCH  74  75
ENDBRANCH  42  67
BRANCH  54  79
ATOM     79  C   UNL A   1      47.616  27.344  30.584  1.00  0.00     0.058 A 
ATOM     80  C   UNL A   1      48.034  26.775  31.796  1.00  0.00     0.135 A 
ATOM     81  C   UNL A   1      48.582  27.546  29.584  1.00  0.00     0.135 A 
ATOM     82  F   UNL A   1      47.151  26.567  32.786  1.00  0.00    -0.206 F 
ATOM     83  C   UNL A   1      49.366  26.441  32.019  1.00  0.00     0.059 A 
ATOM     84  C   UNL A   1      49.913  27.191  29.774  1.00  0.00     0.059 A 
ATOM     85  F   UNL A   1      48.231  28.077  28.402  1.00  0.00    -0.206 F 
ATOM     86  C   UNL A   1      50.296  26.651  31.000  1.00  0.00     0.060 A 
BRANCH  86  87
ATOM     87  S   UNL A   1      52.015  26.181  31.289  1.00  0.00     0.124 S 
ATOM     88  O   UNL A   1      52.421  27.156  32.295  1.00  0.00    -0.237 OA
ATOM     89  O   UNL A   1      51.887  24.804  31.757  1.00  0.00    -0.237 OA
ATOM     90  O   UNL A   1      52.636  26.336  29.977  1.00  0.00    -0.744 OA
ENDBRANCH  86  87
ENDBRANCH  54  79
ENDBRANCH  28  29
ENDBRANCH  21  23
ENDBRANCH  20  21
ENDBRANCH   1  20
TORSDOF 16
ENDMDL
MODEL 2
REMARK VINA RESULT:      -9.0      5.356     12.173
REMARK SMILES COc1ccc2cc([C@H](C)C(=O)OCCOC(=O)c3ccc(-c4c5nc(c(-c6c(F)cc(S(=O)(=O)[O-])cc6F)c6ccc([nH]6)c(-c6c(F)cc(S(=O)(=O)[O-])cc6F)c6nc(c(-c7c(F)cc(S(=O)(=O)[O-])cc7F)c7ccc4[nH]7)C=C6)C=C5)cc3)ccc2c1
REMARK SMILES IDX 15 1 14 2 13 3 11 4 12 5 9 6 10 7 8 8 3 9 4 10 88 11 5 12
REMARK SMILES IDX 87 13 6 14 86 15 7 16 85 17 2 18 1 19 16 20 17 21 18 22
REMARK SMILES IDX 19 23 20 24 84 25 21 26 83 27 22 28 23 29 24 30 77 31 25 32
REMARK SMILES IDX 82 33 76 34 78 35 26 36 81 37 75 38 74 39 27 41 61 42 40 43
REMARK SMILES IDX 60 44 41 45 44 46 59 47 79 48 42 49 43 50 58 52 80 53 45 54
REMARK SMILES IDX 28 55 29 56 38 57 30 58 31 59 37 60 39 61 32 62 33 63 34 64
REMARK SMILES IDX 35 65 36 66 62 67 63 68 72 69 64 70 65 71 71 72 73 73 66 74
REMARK SMILES IDX 67 75 68 76 69 77 70 78 46 79 47 80 56 81 48 82 49 83 55 84
REMARK SMILES IDX 57 85 50 86 51 87 52 88 53 89 54 90
REMARK H PARENT 78 40 44 51
REMARK Flexibility Score: inf
ROOT
ATOM      1  C   UNL A   1      39.547  22.376  26.372  1.00  0.00     0.275 C 
ENDROOT
BRANCH   1   2
ATOM      2  C   UNL A   1      38.223  21.986  25.717  1.00  0.00     0.274 C 
BRANCH   2   3
ATOM      3  O   UNL A   1      37.342  23.120  25.635  1.00  0.00    -0.462 OA
BRANCH   3   4
ATOM      4  C   UNL A   1      36.085  22.915  25.140  1.00  0.00     0.313 C 
ATOM      5  O   UNL A   1      35.646  23.437  24.121  1.00  0.00    -0.252 OA
BRANCH   4   6
ATOM      6  C   UNL A   1      35.229  22.056  26.099  1.00  0.00     0.126 C 
ATOM      7  C   UNL A   1      34.359  22.892  27.036  1.00  0.00     0.025 C 
BRANCH   6   8
ATOM      8  C   UNL A   1      34.456  21.090  25.211  1.00  0.00    -0.033 A 
ATOM      9  C   UNL A   1      33.345  16.251  24.792  1.00  0.00     0.119 A 
ATOM     10  C   UNL A   1      34.720  16.360  24.588  1.00  0.00     0.047 A 
ATOM     11  C   UNL A   1      32.549  17.398  24.844  1.00  0.00     0.055 A 
ATOM     12  C   UNL A   1      35.306  17.615  24.467  1.00  0.00     0.012 A 
ATOM     13  C   UNL A   1      33.134  18.672  24.800  1.00  0.00    -0.015 A 
ATOM     14  C   UNL A   1      34.528  18.768  24.599  1.00  0.00    -0.018 A 
ATOM     15  C   UNL A   1      32.396  19.841  25.050  1.00  0.00     0.009 A 
ATOM     16  C   UNL A   1      35.156  20.003  24.676  1.00  0.00     0.013 A 
ATOM     17  C   UNL A   1      33.060  21.041  25.301  1.00  0.00     0.005 A 
BRANCH   9  18
ATOM     18  O   UNL A   1      32.697  15.052  24.919  1.00  0.00    -0.497 OA
ATOM     19  C   UNL A   1      32.118  14.845  26.207  1.00  0.00     0.278 C 
ENDBRANCH   9  18
ENDBRANCH   6   8
ENDBRANCH   4   6
ENDBRANCH   3   4
ENDBRANCH   2   3
ENDBRANCH   1   2
BRANCH   1  20
ATOM     20  O   UNL A   1      39.514  23.745  26.803  1.00  0.00    -0.458 OA
BRANCH  20  21
ATOM     21  C   UNL A   1      40.732  24.301  27.015  1.00  0.00     0.338 C 
ATOM     22  O   UNL A   1      41.779  24.034  26.455  1.00  0.00    -0.246 OA
BRANCH  21  23
ATOM     23  C   UNL A   1      40.569  25.443  27.923  1.00  0.00     0.060 A 
ATOM     24  C   UNL A   1      41.598  26.385  27.990  1.00  0.00     0.016 A 
ATOM     25  C   UNL A   1      39.435  25.564  28.723  1.00  0.00     0.016 A 
ATOM     26  C   UNL A   1      41.507  27.462  28.857  1.00  0.00     0.010 A 
ATOM     27  C   UNL A   1      39.347  26.641  29.604  1.00  0.00     0.010 A 
ATOM     28  C   UNL A   1      40.387  27.584  29.680  1.00  0.00    -0.014 A 
BRANCH  28  29
ATOM     29  C   UNL A   1      40.353  28.651  30.697  1.00  0.00     0.031 A 
ATOM     30  C   UNL A   1      41.307  28.573  31.852  1.00  0.00     0.074 A 
ATOM     31  C   UNL A   1      39.497  29.679  30.561  1.00  0.00     0.049 A 
ATOM     32  N   UNL A   1      41.368  29.317  32.921  1.00  0.00    -0.248 NA
ATOM     33  C   UNL A   1      42.326  27.511  31.793  1.00  0.00     0.031 C 
ATOM     34  C   UNL A   1      38.583  29.877  29.433  1.00  0.00     0.029 A 
ATOM     35  N   UNL A   1      39.251  30.746  31.383  1.00  0.00    -0.354 N 
ATOM     36  C   UNL A   1      42.420  28.808  33.672  1.00  0.00     0.074 A 
ATOM     37  C   UNL A   1      42.954  27.675  32.949  1.00  0.00     0.031 C 
ATOM     38  C   UNL A   1      37.865  30.993  29.643  1.00  0.00     0.029 A 
ATOM     39  C   UNL A   1      38.231  31.555  30.939  1.00  0.00     0.049 A 
ATOM     40  H   UNL A   1      39.754  30.918  32.211  1.00  0.00     0.167 HD
ATOM     41  C   UNL A   1      42.896  29.256  34.855  1.00  0.00     0.037 A 
ATOM     42  C   UNL A   1      37.641  32.606  31.538  1.00  0.00     0.037 A 
ATOM     43  C   UNL A   1      42.350  30.391  35.552  1.00  0.00     0.049 A 
ATOM     44  C   UNL A   1      38.132  33.028  32.899  1.00  0.00     0.074 A 
ATOM     45  C   UNL A   1      42.737  30.923  36.769  1.00  0.00     0.029 A 
ATOM     46  N   UNL A   1      41.301  31.173  35.088  1.00  0.00    -0.354 N 
ATOM     47  N   UNL A   1      39.109  32.524  33.617  1.00  0.00    -0.248 NA
ATOM     48  C   UNL A   1      37.441  34.157  33.534  1.00  0.00     0.031 C 
ATOM     49  C   UNL A   1      41.896  32.003  37.059  1.00  0.00     0.029 A 
ATOM     50  C   UNL A   1      41.021  32.176  35.998  1.00  0.00     0.049 A 
ATOM     51  H   UNL A   1      40.828  31.034  34.237  1.00  0.00     0.167 HD
ATOM     52  C   UNL A   1      39.172  33.297  34.770  1.00  0.00     0.074 A 
ATOM     53  C   UNL A   1      38.142  34.309  34.648  1.00  0.00     0.031 C 
ATOM     54  C   UNL A   1      40.003  33.185  35.837  1.00  0.00     0.037 A 
BRANCH  41  55
ATOM     55  C   UNL A   1      44.046  28.516  35.476  1.00  0.00     0.058 A 
ATOM     56  C   UNL A   1      45.380  28.858  35.199  1.00  0.00     0.135 A 
ATOM     57  C   UNL A   1      43.814  27.483  36.399  1.00  0.00     0.135 A 
ATOM     58  F   UNL A   1      45.659  29.820  34.305  1.00  0.00    -0.206 F 
ATOM     59  C   UNL A   1      46.441  28.198  35.810  1.00  0.00     0.059 A 
ATOM     60  C   UNL A   1      44.860  26.827  37.040  1.00  0.00     0.059 A 
ATOM     61  F   UNL A   1      42.558  27.107  36.692  1.00  0.00    -0.206 F 
ATOM     62  C   UNL A   1      46.171  27.188  36.734  1.00  0.00     0.060 A 
BRANCH  62  63
ATOM     63  S   UNL A   1      47.561  26.369  37.544  1.00  0.00     0.124 S 
ATOM     64  O   UNL A   1      48.133  27.465  38.321  1.00  0.00    -0.237 OA
ATOM     65  O   UNL A   1      46.899  25.324  38.316  1.00  0.00    -0.237 OA
ATOM     66  O   UNL A   1      48.378  25.901  36.429  1.00  0.00    -0.744 OA
ENDBRANCH  62  63
ENDBRANCH  41  55
BRANCH  42  67
ATOM     67  C   UNL A   1      36.504  33.310  30.886  1.00  0.00     0.058 A 
ATOM     68  C   UNL A   1      36.708  34.139  29.774  1.00  0.00     0.135 A 
ATOM     69  C   UNL A   1      35.195  33.199  31.384  1.00  0.00     0.135 A 
ATOM     70  F   UNL A   1      37.941  34.283  29.262  1.00  0.00    -0.206 F 
ATOM     71  C   UNL A   1      35.667  34.865  29.201  1.00  0.00     0.059 A 
ATOM     72  C   UNL A   1      34.132  33.888  30.809  1.00  0.00     0.059 A 
ATOM     73  F   UNL A   1      34.939  32.407  32.437  1.00  0.00    -0.206 F 
ATOM     74  C   UNL A   1      34.383  34.736  29.732  1.00  0.00     0.060 A 
BRANCH  74  75
ATOM     75  S   UNL A   1      33.039  35.686  28.989  1.00  0.00     0.124 S 
ATOM     76  O   UNL A   1      32.302  36.122  30.170  1.00  0.00    -0.237 OA
ATOM     77  O   UNL A   1      33.760  36.728  28.266  1.00  0.00    -0.237 OA
ATOM     78  O   UNL A   1      32.359  34.705  28.148  1.00  0.00    -0.744 OA
ENDBRANCH  74  75
ENDBRANCH  42  67
BRANCH  54  79
ATOM     79  C   UNL A   1      39.870  34.214  36.924  1.00  0.00     0.058 A 
ATOM     80  C   UNL A   1      40.436  35.492  36.807  1.00  0.00     0.135 A 
ATOM     81  C   UNL A   1      39.120  33.928  38.077  1.00  0.00     0.135 A 
ATOM     82  F   UNL A   1      41.168  35.812  35.728  1.00  0.00    -0.206 F 
ATOM     83  C   UNL A   1      40.286  36.445  37.809  1.00  0.00     0.059 A 
ATOM     84  C   UNL A   1      38.931  34.877  39.077  1.00  0.00     0.059 A 
ATOM     85  F   UNL A   1      38.548  32.724  38.232  1.00  0.00    -0.206 F 
ATOM     86  C   UNL A   1      39.529  36.128  38.938  1.00  0.00     0.060 A 
BRANCH  86  87
ATOM     87  S   UNL A   1      39.313  37.386  40.214  1.00  0.00     0.124 S 
ATOM     88  O   UNL A   1      38.522  38.388  39.508  1.00  0.00    -0.237 OA
ATOM     89  O   UNL A   1      38.613  36.649  41.263  1.00  0.00    -0.237 OA
ATOM     90  O   UNL A   1      40.680  37.780  40.539  1.00  0.00    -0.744 OA
ENDBRANCH  86  87
ENDBRANCH  54  79
ENDBRANCH  28  29
ENDBRANCH  21  23
ENDBRANCH  20  21
ENDBRANCH   1  20
TORSDOF 16
ENDMDL
MODEL 3
REMARK VINA RESULT:      -9.0      4.588     11.132
REMARK SMILES COc1ccc2cc([C@H](C)C(=O)OCCOC(=O)c3ccc(-c4c5nc(c(-c6c(F)cc(S(=O)(=O)[O-])cc6F)c6ccc([nH]6)c(-c6c(F)cc(S(=O)(=O)[O-])cc6F)c6nc(c(-c7c(F)cc(S(=O)(=O)[O-])cc7F)c7ccc4[nH]7)C=C6)C=C5)cc3)ccc2c1
REMARK SMILES IDX 15 1 14 2 13 3 11 4 12 5 9 6 10 7 8 8 3 9 4 10 88 11 5 12
REMARK SMILES IDX 87 13 6 14 86 15 7 16 85 17 2 18 1 19 16 20 17 21 18 22
REMARK SMILES IDX 19 23 20 24 84 25 21 26 83 27 22 28 23 29 24 30 77 31 25 32
REMARK SMILES IDX 82 33 76 34 78 35 26 36 81 37 75 38 74 39 27 41 61 42 40 43
REMARK SMILES IDX 60 44 41 45 44 46 59 47 79 48 42 49 43 50 58 52 80 53 45 54
REMARK SMILES IDX 28 55 29 56 38 57 30 58 31 59 37 60 39 61 32 62 33 63 34 64
REMARK SMILES IDX 35 65 36 66 62 67 63 68 72 69 64 70 65 71 71 72 73 73 66 74
REMARK SMILES IDX 67 75 68 76 69 77 70 78 46 79 47 80 56 81 48 82 49 83 55 84
REMARK SMILES IDX 57 85 50 86 51 87 52 88 53 89 54 90
REMARK H PARENT 78 40 44 51
REMARK Flexibility Score: inf
ROOT
ATOM      1  C   UNL A   1      43.719  24.101  25.711  1.00  0.00     0.275 C 
ENDROOT
BRANCH   1   2
ATOM      2  C   UNL A   1      43.541  22.609  25.437  1.00  0.00     0.274 C 
BRANCH   2   3
ATOM      3  O   UNL A   1      42.146  22.262  25.391  1.00  0.00    -0.462 OA
BRANCH   3   4
ATOM      4  C   UNL A   1      41.728  21.206  26.152  1.00  0.00     0.313 C 
ATOM      5  O   UNL A   1      42.097  20.048  25.994  1.00  0.00    -0.252 OA
BRANCH   4   6
ATOM      6  C   UNL A   1      40.619  21.623  27.144  1.00  0.00     0.126 C 
ATOM      7  C   UNL A   1      41.143  22.450  28.317  1.00  0.00     0.025 C 
BRANCH   6   8
ATOM      8  C   UNL A   1      39.554  22.319  26.306  1.00  0.00    -0.033 A 
ATOM      9  C   UNL A   1      34.625  22.399  25.584  1.00  0.00     0.119 A 
ATOM     10  C   UNL A   1      35.066  21.146  25.161  1.00  0.00     0.047 A 
ATOM     11  C   UNL A   1      35.548  23.404  25.889  1.00  0.00     0.055 A 
ATOM     12  C   UNL A   1      36.429  20.884  25.072  1.00  0.00     0.012 A 
ATOM     13  C   UNL A   1      36.924  23.132  25.877  1.00  0.00    -0.015 A 
ATOM     14  C   UNL A   1      37.356  21.856  25.453  1.00  0.00    -0.018 A 
ATOM     15  C   UNL A   1      37.870  24.047  26.369  1.00  0.00     0.009 A 
ATOM     16  C   UNL A   1      38.697  21.512  25.549  1.00  0.00     0.013 A 
ATOM     17  C   UNL A   1      39.174  23.628  26.626  1.00  0.00     0.005 A 
BRANCH   9  18
ATOM     18  O   UNL A   1      33.302  22.732  25.695  1.00  0.00    -0.497 OA
ATOM     19  C   UNL A   1      32.857  22.880  27.042  1.00  0.00     0.278 C 
ENDBRANCH   9  18
ENDBRANCH   6   8
ENDBRANCH   4   6
ENDBRANCH   3   4
ENDBRANCH   2   3
ENDBRANCH   1   2
BRANCH   1  20
ATOM     20  O   UNL A   1      42.460  24.707  26.044  1.00  0.00    -0.458 OA
BRANCH  20  21
ATOM     21  C   UNL A   1      42.397  26.041  25.814  1.00  0.00     0.338 C 
ATOM     22  O   UNL A   1      42.324  26.608  24.740  1.00  0.00    -0.246 OA
BRANCH  21  23
ATOM     23  C   UNL A   1      42.236  26.727  27.103  1.00  0.00     0.060 A 
ATOM     24  C   UNL A   1      41.301  26.219  28.008  1.00  0.00     0.016 A 
ATOM     25  C   UNL A   1      42.968  27.874  27.399  1.00  0.00     0.016 A 
ATOM     26  C   UNL A   1      41.088  26.850  29.223  1.00  0.00     0.010 A 
ATOM     27  C   UNL A   1      42.747  28.517  28.616  1.00  0.00     0.010 A 
ATOM     28  C   UNL A   1      41.799  28.012  29.524  1.00  0.00    -0.014 A 
BRANCH  28  29
ATOM     29  C   UNL A   1      41.474  28.759  30.753  1.00  0.00     0.031 A 
ATOM     30  C   UNL A   1      40.324  29.721  30.725  1.00  0.00     0.074 A 
ATOM     31  C   UNL A   1      42.186  28.548  31.874  1.00  0.00     0.049 A 
ATOM     32  N   UNL A   1      39.940  30.573  31.636  1.00  0.00    -0.248 NA
ATOM     33  C   UNL A   1      39.497  29.725  29.506  1.00  0.00     0.031 C 
ATOM     34  C   UNL A   1      43.275  27.578  32.014  1.00  0.00     0.029 A 
ATOM     35  N   UNL A   1      42.106  29.143  33.104  1.00  0.00    -0.354 N 
ATOM     36  C   UNL A   1      38.839  31.226  31.097  1.00  0.00     0.074 A 
ATOM     37  C   UNL A   1      38.629  30.691  29.771  1.00  0.00     0.031 C 
ATOM     38  C   UNL A   1      43.771  27.655  33.260  1.00  0.00     0.029 A 
ATOM     39  C   UNL A   1      43.071  28.712  33.984  1.00  0.00     0.049 A 
ATOM     40  H   UNL A   1      41.424  29.813  33.337  1.00  0.00     0.167 HD
ATOM     41  C   UNL A   1      38.072  32.181  31.670  1.00  0.00     0.037 A 
ATOM     42  C   UNL A   1      43.373  29.156  35.218  1.00  0.00     0.037 A 
ATOM     43  C   UNL A   1      38.298  32.693  32.996  1.00  0.00     0.049 A 
ATOM     44  C   UNL A   1      42.558  30.285  35.796  1.00  0.00     0.074 A 
ATOM     45  C   UNL A   1      37.599  33.677  33.671  1.00  0.00     0.029 A 
ATOM     46  N   UNL A   1      39.300  32.253  33.851  1.00  0.00    -0.354 N 
ATOM     47  N   UNL A   1      41.535  30.918  35.270  1.00  0.00    -0.248 NA
ATOM     48  C   UNL A   1      42.939  30.763  37.131  1.00  0.00     0.031 C 
ATOM     49  C   UNL A   1      38.203  33.860  34.920  1.00  0.00     0.029 A 
ATOM     50  C   UNL A   1      39.244  32.954  35.043  1.00  0.00     0.049 A 
ATOM     51  H   UNL A   1      39.953  31.548  33.641  1.00  0.00     0.167 HD
ATOM     52  C   UNL A   1      41.129  31.844  36.224  1.00  0.00     0.074 A 
ATOM     53  C   UNL A   1      42.009  31.679  37.363  1.00  0.00     0.031 C 
ATOM     54  C   UNL A   1      40.121  32.750  36.169  1.00  0.00     0.037 A 
BRANCH  41  55
ATOM     55  C   UNL A   1      36.935  32.744  30.866  1.00  0.00     0.058 A 
ATOM     56  C   UNL A   1      35.605  32.352  31.094  1.00  0.00     0.135 A 
ATOM     57  C   UNL A   1      37.169  33.726  29.889  1.00  0.00     0.135 A 
ATOM     58  F   UNL A   1      35.327  31.399  31.998  1.00  0.00    -0.206 F 
ATOM     59  C   UNL A   1      34.551  32.908  30.377  1.00  0.00     0.059 A 
ATOM     60  C   UNL A   1      36.127  34.313  29.178  1.00  0.00     0.059 A 
ATOM     61  F   UNL A   1      38.422  34.129  29.623  1.00  0.00    -0.206 F 
ATOM     62  C   UNL A   1      34.821  33.893  29.426  1.00  0.00     0.060 A 
BRANCH  62  63
ATOM     63  S   UNL A   1      33.436  34.629  28.533  1.00  0.00     0.124 S 
ATOM     64  O   UNL A   1      33.024  33.525  27.671  1.00  0.00    -0.237 OA
ATOM     65  O   UNL A   1      32.514  34.968  29.612  1.00  0.00    -0.237 OA
ATOM     66  O   UNL A   1      34.039  35.767  27.846  1.00  0.00    -0.744 OA
ENDBRANCH  62  63
ENDBRANCH  41  55
BRANCH  42  67
ATOM     67  C   UNL A   1      44.509  28.569  35.978  1.00  0.00     0.058 A 
ATOM     68  C   UNL A   1      45.818  29.042  35.805  1.00  0.00     0.135 A 
ATOM     69  C   UNL A   1      44.316  27.496  36.865  1.00  0.00     0.135 A 
ATOM     70  F   UNL A   1      46.056  30.061  34.965  1.00  0.00    -0.206 F 
ATOM     71  C   UNL A   1      46.900  28.451  36.450  1.00  0.00     0.059 A 
ATOM     72  C   UNL A   1      45.378  26.910  37.547  1.00  0.00     0.059 A 
ATOM     73  F   UNL A   1      43.083  27.014  37.081  1.00  0.00    -0.206 F 
ATOM     74  C   UNL A   1      46.669  27.380  37.315  1.00  0.00     0.060 A 
BRANCH  74  75
ATOM     75  S   UNL A   1      48.079  26.614  38.143  1.00  0.00     0.124 S 
ATOM     76  O   UNL A   1      49.046  27.705  38.142  1.00  0.00    -0.237 OA
ATOM     77  O   UNL A   1      47.518  26.262  39.444  1.00  0.00    -0.237 OA
ATOM     78  O   UNL A   1      48.402  25.483  37.280  1.00  0.00    -0.744 OA
ENDBRANCH  74  75
ENDBRANCH  42  67
BRANCH  54  79
ATOM     79  C   UNL A   1      39.882  33.589  37.393  1.00  0.00     0.058 A 
ATOM     80  C   UNL A   1      40.569  34.792  37.611  1.00  0.00     0.135 A 
ATOM     81  C   UNL A   1      38.913  33.203  38.334  1.00  0.00     0.135 A 
ATOM     82  F   UNL A   1      41.509  35.201  36.745  1.00  0.00    -0.206 F 
ATOM     83  C   UNL A   1      40.322  35.574  38.735  1.00  0.00     0.059 A 
ATOM     84  C   UNL A   1      38.628  33.985  39.449  1.00  0.00     0.059 A 
ATOM     85  F   UNL A   1      38.220  32.066  38.166  1.00  0.00    -0.206 F 
ATOM     86  C   UNL A   1      39.347  35.162  39.646  1.00  0.00     0.060 A 
BRANCH  86  87
ATOM     87  S   UNL A   1      39.012  36.204  41.082  1.00  0.00     0.124 S 
ATOM     88  O   UNL A   1      40.281  36.135  41.798  1.00  0.00    -0.237 OA
ATOM     89  O   UNL A   1      38.700  37.491  40.467  1.00  0.00    -0.237 OA
ATOM     90  O   UNL A   1      37.888  35.537  41.731  1.00  0.00    -0.744 OA
ENDBRANCH  86  87
ENDBRANCH  54  79
ENDBRANCH  28  29
ENDBRANCH  21  23
ENDBRANCH  20  21
ENDBRANCH   1  20
TORSDOF 16
ENDMDL
