MODEL 1
REMARK VINA RESULT:     -10.3      0.000      0.000
REMARK SMILES O=C(CS(=O)(=O)Nc1ccc2ccccc2c1)OCCOC(=O)c1ccc(-c2c3nc(c(-c4c(F)cc(S(=O)(=O)[O-])cc4F)c4ccc([nH]4)c(-c4c(F)cc(S(=O)(=O)[O-])cc4F)c4nc(c(-c5c(F)cc(S(=O)(=O)[O-])cc5F)c5ccc2[nH]5)C=C4)C=C3)cc1
REMARK SMILES IDX 19 1 18 2 2 3 1 4 3 5 4 6 5 7 6 8 7 9 8 11 9 12 17 13 10 14
REMARK SMILES IDX 16 15 11 16 15 17 12 18 14 19 13 20 20 21 21 22 22 23 23 24
REMARK SMILES IDX 24 25 25 26 89 27 26 28 88 29 27 30 28 31 29 32 82 33 30 34
REMARK SMILES IDX 87 35 81 36 83 37 31 38 86 39 80 40 79 41 32 43 66 44 45 45
REMARK SMILES IDX 65 46 46 47 49 48 64 49 84 50 47 51 48 52 63 54 85 55 50 56
REMARK SMILES IDX 33 57 34 58 43 59 35 60 36 61 42 62 44 63 37 64 38 65 39 66
REMARK SMILES IDX 40 67 41 68 67 69 68 70 77 71 69 72 70 73 76 74 78 75 71 76
REMARK SMILES IDX 72 77 73 78 74 79 75 80 51 81 52 82 61 83 53 84 54 85 60 86
REMARK SMILES IDX 62 87 55 88 56 89 57 90 58 91 59 92
REMARK H PARENT 7 10 83 42 49 53
REMARK Flexibility Score: inf
ROOT
ATOM      1  C   UNL A   1      33.605  34.122  28.485  1.00  0.00     0.274 C 
ENDROOT
BRANCH   1   2
ATOM      2  O   UNL A   1      32.831  34.647  29.584  1.00  0.00    -0.461 OA
BRANCH   2   3
ATOM      3  C   UNL A   1      32.888  35.950  29.935  1.00  0.00     0.323 C 
ATOM      4  O   UNL A   1      33.024  36.794  29.050  1.00  0.00    -0.251 OA
BRANCH   3   5
ATOM      5  C   UNL A   1      32.837  36.347  31.368  1.00  0.00     0.282 C 
BRANCH   5   6
ATOM      6  S   UNL A   1      34.017  35.511  32.392  1.00  0.00     0.243 S 
ATOM      7  O   UNL A   1      34.507  36.406  33.419  1.00  0.00    -0.206 OA
ATOM      8  O   UNL A   1      33.377  34.273  32.802  1.00  0.00    -0.206 OA
BRANCH   6   9
ATOM      9  N   UNL A   1      35.336  34.992  31.507  1.00  0.00    -0.283 N 
ATOM     10  H   UNL A   1      35.414  35.271  30.566  1.00  0.00     0.180 HD
BRANCH   9  11
ATOM     11  C   UNL A   1      36.351  34.161  32.061  1.00  0.00     0.049 A 
ATOM     12  C   UNL A   1      37.480  34.713  32.651  1.00  0.00     0.027 A 
ATOM     13  C   UNL A   1      36.174  32.775  32.059  1.00  0.00     0.035 A 
ATOM     14  C   UNL A   1      38.492  33.881  33.137  1.00  0.00     0.011 A 
ATOM     15  C   UNL A   1      37.145  31.929  32.620  1.00  0.00    -0.016 A 
ATOM     16  C   UNL A   1      38.338  32.489  33.134  1.00  0.00    -0.018 A 
ATOM     17  C   UNL A   1      36.955  30.540  32.697  1.00  0.00     0.009 A 
ATOM     18  C   UNL A   1      39.331  31.644  33.650  1.00  0.00     0.009 A 
ATOM     19  C   UNL A   1      37.934  29.716  33.256  1.00  0.00     0.001 A 
ATOM     20  C   UNL A   1      39.127  30.265  33.716  1.00  0.00     0.001 A 
ENDBRANCH   9  11
ENDBRANCH   6   9
ENDBRANCH   5   6
ENDBRANCH   3   5
ENDBRANCH   2   3
ENDBRANCH   1   2
BRANCH   1  21
ATOM     21  C   UNL A   1      34.366  32.860  28.897  1.00  0.00     0.275 C 
BRANCH  21  22
ATOM     22  O   UNL A   1      34.629  32.060  27.726  1.00  0.00    -0.458 OA
BRANCH  22  23
ATOM     23  C   UNL A   1      34.518  30.715  27.877  1.00  0.00     0.338 C 
ATOM     24  O   UNL A   1      33.513  30.043  27.725  1.00  0.00    -0.246 OA
BRANCH  23  25
ATOM     25  C   UNL A   1      35.871  30.153  28.094  1.00  0.00     0.060 A 
ATOM     26  C   UNL A   1      36.170  29.600  29.344  1.00  0.00     0.016 A 
ATOM     27  C   UNL A   1      36.836  30.162  27.081  1.00  0.00     0.016 A 
ATOM     28  C   UNL A   1      37.444  29.085  29.595  1.00  0.00     0.010 A 
ATOM     29  C   UNL A   1      38.116  29.652  27.338  1.00  0.00     0.010 A 
ATOM     30  C   UNL A   1      38.437  29.136  28.606  1.00  0.00    -0.014 A 
BRANCH  30  31
ATOM     31  C   UNL A   1      39.836  28.769  28.948  1.00  0.00     0.031 A 
ATOM     32  C   UNL A   1      40.693  29.756  29.696  1.00  0.00     0.074 A 
ATOM     33  C   UNL A   1      40.330  27.556  28.637  1.00  0.00     0.049 A 
ATOM     34  N   UNL A   1      41.920  29.626  30.133  1.00  0.00    -0.248 NA
ATOM     35  C   UNL A   1      40.086  31.064  29.992  1.00  0.00     0.031 C 
ATOM     36  C   UNL A   1      39.609  26.505  27.918  1.00  0.00     0.029 A 
ATOM     37  N   UNL A   1      41.564  27.004  28.886  1.00  0.00    -0.354 N 
ATOM     38  C   UNL A   1      42.224  30.821  30.775  1.00  0.00     0.074 A 
ATOM     39  C   UNL A   1      41.073  31.684  30.623  1.00  0.00     0.031 C 
ATOM     40  C   UNL A   1      40.416  25.440  27.777  1.00  0.00     0.029 A 
ATOM     41  C   UNL A   1      41.716  25.733  28.381  1.00  0.00     0.049 A 
ATOM     42  H   UNL A   1      42.274  27.474  29.380  1.00  0.00     0.167 HD
ATOM     43  C   UNL A   1      43.347  31.162  31.450  1.00  0.00     0.037 A 
ATOM     44  C   UNL A   1      42.782  24.907  28.398  1.00  0.00     0.037 A 
ATOM     45  C   UNL A   1      44.503  30.312  31.591  1.00  0.00     0.049 A 
ATOM     46  C   UNL A   1      44.045  25.334  29.104  1.00  0.00     0.074 A 
ATOM     47  C   UNL A   1      45.686  30.574  32.260  1.00  0.00     0.029 A 
ATOM     48  N   UNL A   1      44.626  29.042  31.049  1.00  0.00    -0.354 N 
ATOM     49  N   UNL A   1      44.298  26.450  29.745  1.00  0.00    -0.248 NA
ATOM     50  C   UNL A   1      45.163  24.378  29.102  1.00  0.00     0.031 C 
ATOM     51  C   UNL A   1      46.542  29.481  32.084  1.00  0.00     0.029 A 
ATOM     52  C   UNL A   1      45.873  28.515  31.351  1.00  0.00     0.049 A 
ATOM     53  H   UNL A   1      43.931  28.581  30.526  1.00  0.00     0.167 HD
ATOM     54  C   UNL A   1      45.593  26.320  30.243  1.00  0.00     0.074 A 
ATOM     55  C   UNL A   1      46.059  25.006  29.850  1.00  0.00     0.031 C 
ATOM     56  C   UNL A   1      46.331  27.207  30.956  1.00  0.00     0.037 A 
BRANCH  43  57
ATOM     57  C   UNL A   1      43.387  32.519  32.097  1.00  0.00     0.058 A 
ATOM     58  C   UNL A   1      43.822  33.653  31.391  1.00  0.00     0.135 A 
ATOM     59  C   UNL A   1      42.934  32.702  33.414  1.00  0.00     0.135 A 
ATOM     60  F   UNL A   1      44.284  33.533  30.137  1.00  0.00    -0.206 F 
ATOM     61  C   UNL A   1      43.819  34.917  31.972  1.00  0.00     0.059 A 
ATOM     62  C   UNL A   1      42.897  33.961  34.006  1.00  0.00     0.059 A 
ATOM     63  F   UNL A   1      42.512  31.651  34.134  1.00  0.00    -0.206 F 
ATOM     64  C   UNL A   1      43.349  35.061  33.279  1.00  0.00     0.060 A 
BRANCH  64  65
ATOM     65  S   UNL A   1      43.326  36.714  34.007  1.00  0.00     0.124 S 
ATOM     66  O   UNL A   1      44.529  36.684  34.835  1.00  0.00    -0.237 OA
ATOM     67  O   UNL A   1      43.390  37.573  32.829  1.00  0.00    -0.237 OA
ATOM     68  O   UNL A   1      42.063  36.747  34.737  1.00  0.00    -0.744 OA
ENDBRANCH  64  65
ENDBRANCH  43  57
BRANCH  44  69
ATOM     69  C   UNL A   1      42.716  23.587  27.711  1.00  0.00     0.058 A 
ATOM     70  C   UNL A   1      42.221  22.447  28.362  1.00  0.00     0.135 A 
ATOM     71  C   UNL A   1      43.191  23.433  26.399  1.00  0.00     0.135 A 
ATOM     72  F   UNL A   1      41.767  22.537  29.621  1.00  0.00    -0.206 F 
ATOM     73  C   UNL A   1      42.226  21.196  27.750  1.00  0.00     0.059 A 
ATOM     74  C   UNL A   1      43.178  22.200  25.754  1.00  0.00     0.059 A 
ATOM     75  F   UNL A   1      43.666  24.493  25.727  1.00  0.00    -0.206 F 
ATOM     76  C   UNL A   1      42.707  21.085  26.444  1.00  0.00     0.060 A 
BRANCH  76  77
ATOM     77  S   UNL A   1      42.681  19.465  25.647  1.00  0.00     0.124 S 
ATOM     78  O   UNL A   1      43.217  18.610  26.699  1.00  0.00    -0.237 OA
ATOM     79  O   UNL A   1      41.262  19.296  25.346  1.00  0.00    -0.237 OA
ATOM     80  O   UNL A   1      43.542  19.652  24.483  1.00  0.00    -0.744 OA
ENDBRANCH  76  77
ENDBRANCH  44  69
BRANCH  56  81
ATOM     81  C   UNL A   1      47.712  26.777  31.382  1.00  0.00     0.058 A 
ATOM     82  C   UNL A   1      48.845  27.040  30.596  1.00  0.00     0.135 A 
ATOM     83  C   UNL A   1      47.906  26.104  32.600  1.00  0.00     0.135 A 
ATOM     84  F   UNL A   1      48.720  27.680  29.422  1.00  0.00    -0.206 F 
ATOM     85  C   UNL A   1      50.113  26.610  30.977  1.00  0.00     0.059 A 
ATOM     86  C   UNL A   1      49.170  25.694  33.017  1.00  0.00     0.059 A 
ATOM     87  F   UNL A   1      46.862  25.839  33.401  1.00  0.00    -0.206 F 
ATOM     88  C   UNL A   1      50.264  25.932  32.188  1.00  0.00     0.060 A 
BRANCH  88  89
ATOM     89  S   UNL A   1      51.912  25.372  32.668  1.00  0.00     0.124 S 
ATOM     90  O   UNL A   1      51.901  25.628  34.105  1.00  0.00    -0.237 OA
ATOM     91  O   UNL A   1      51.893  23.967  32.275  1.00  0.00    -0.237 OA
ATOM     92  O   UNL A   1      52.803  26.223  31.886  1.00  0.00    -0.744 OA
ENDBRANCH  88  89
ENDBRANCH  56  81
ENDBRANCH  30  31
ENDBRANCH  23  25
ENDBRANCH  22  23
ENDBRANCH  21  22
ENDBRANCH   1  21
TORSDOF 17
ENDMDL
MODEL 2
REMARK VINA RESULT:     -10.2      3.173     12.216
REMARK SMILES O=C(CS(=O)(=O)Nc1ccc2ccccc2c1)OCCOC(=O)c1ccc(-c2c3nc(c(-c4c(F)cc(S(=O)(=O)[O-])cc4F)c4ccc([nH]4)c(-c4c(F)cc(S(=O)(=O)[O-])cc4F)c4nc(c(-c5c(F)cc(S(=O)(=O)[O-])cc5F)c5ccc2[nH]5)C=C4)C=C3)cc1
REMARK SMILES IDX 19 1 18 2 2 3 1 4 3 5 4 6 5 7 6 8 7 9 8 11 9 12 17 13 10 14
REMARK SMILES IDX 16 15 11 16 15 17 12 18 14 19 13 20 20 21 21 22 22 23 23 24
REMARK SMILES IDX 24 25 25 26 89 27 26 28 88 29 27 30 28 31 29 32 82 33 30 34
REMARK SMILES IDX 87 35 81 36 83 37 31 38 86 39 80 40 79 41 32 43 66 44 45 45
REMARK SMILES IDX 65 46 46 47 49 48 64 49 84 50 47 51 48 52 63 54 85 55 50 56
REMARK SMILES IDX 33 57 34 58 43 59 35 60 36 61 42 62 44 63 37 64 38 65 39 66
REMARK SMILES IDX 40 67 41 68 67 69 68 70 77 71 69 72 70 73 76 74 78 75 71 76
REMARK SMILES IDX 72 77 73 78 74 79 75 80 51 81 52 82 61 83 53 84 54 85 60 86
REMARK SMILES IDX 62 87 55 88 56 89 57 90 58 91 59 92
REMARK H PARENT 7 10 83 42 49 53
REMARK Flexibility Score: inf
ROOT
ATOM      1  C   UNL A   1      41.584  20.052  26.913  1.00  0.00     0.274 C 
ENDROOT
BRANCH   1   2
ATOM      2  O   UNL A   1      42.653  19.928  25.952  1.00  0.00    -0.461 OA
BRANCH   2   3
ATOM      3  C   UNL A   1      43.243  18.741  25.693  1.00  0.00     0.323 C 
ATOM      4  O   UNL A   1      42.549  17.725  25.693  1.00  0.00    -0.251 OA
BRANCH   3   5
ATOM      5  C   UNL A   1      44.712  18.664  25.463  1.00  0.00     0.282 C 
BRANCH   5   6
ATOM      6  S   UNL A   1      45.257  19.487  23.992  1.00  0.00     0.243 S 
ATOM      7  O   UNL A   1      46.704  19.492  23.933  1.00  0.00    -0.206 OA
ATOM      8  O   UNL A   1      44.523  18.872  22.900  1.00  0.00    -0.206 OA
BRANCH   6   9
ATOM      9  N   UNL A   1      44.747  21.077  23.956  1.00  0.00    -0.283 N 
ATOM     10  H   UNL A   1      44.003  21.323  23.361  1.00  0.00     0.180 HD
BRANCH   9  11
ATOM     11  C   UNL A   1      45.349  22.093  24.754  1.00  0.00     0.049 A 
ATOM     12  C   UNL A   1      46.242  22.999  24.199  1.00  0.00     0.027 A 
ATOM     13  C   UNL A   1      44.986  22.207  26.098  1.00  0.00     0.035 A 
ATOM     14  C   UNL A   1      46.865  23.951  25.010  1.00  0.00     0.011 A 
ATOM     15  C   UNL A   1      45.541  23.213  26.906  1.00  0.00    -0.016 A 
ATOM     16  C   UNL A   1      46.522  24.074  26.363  1.00  0.00    -0.018 A 
ATOM     17  C   UNL A   1      45.137  23.394  28.239  1.00  0.00     0.009 A 
ATOM     18  C   UNL A   1      47.115  25.048  27.179  1.00  0.00     0.009 A 
ATOM     19  C   UNL A   1      45.704  24.398  29.025  1.00  0.00     0.001 A 
ATOM     20  C   UNL A   1      46.704  25.213  28.502  1.00  0.00     0.001 A 
ENDBRANCH   9  11
ENDBRANCH   6   9
ENDBRANCH   5   6
ENDBRANCH   3   5
ENDBRANCH   2   3
ENDBRANCH   1   2
BRANCH   1  21
ATOM     21  C   UNL A   1      40.345  20.692  26.283  1.00  0.00     0.275 C 
BRANCH  21  22
ATOM     22  O   UNL A   1      39.953  21.838  27.065  1.00  0.00    -0.458 OA
BRANCH  22  23
ATOM     23  C   UNL A   1      39.156  22.747  26.446  1.00  0.00     0.338 C 
ATOM     24  O   UNL A   1      38.205  22.511  25.720  1.00  0.00    -0.246 OA
BRANCH  23  25
ATOM     25  C   UNL A   1      39.518  24.099  26.931  1.00  0.00     0.060 A 
ATOM     26  C   UNL A   1      40.166  24.971  26.050  1.00  0.00     0.016 A 
ATOM     27  C   UNL A   1      39.220  24.510  28.234  1.00  0.00     0.016 A 
ATOM     28  C   UNL A   1      40.548  26.244  26.480  1.00  0.00     0.010 A 
ATOM     29  C   UNL A   1      39.611  25.784  28.665  1.00  0.00     0.010 A 
ATOM     30  C   UNL A   1      40.303  26.649  27.800  1.00  0.00    -0.014 A 
BRANCH  30  31
ATOM     31  C   UNL A   1      40.887  27.922  28.299  1.00  0.00     0.031 A 
ATOM     32  C   UNL A   1      42.375  28.136  28.201  1.00  0.00     0.074 A 
ATOM     33  C   UNL A   1      40.103  28.897  28.795  1.00  0.00     0.049 A 
ATOM     34  N   UNL A   1      43.086  29.184  28.532  1.00  0.00    -0.248 NA
ATOM     35  C   UNL A   1      43.166  27.021  27.656  1.00  0.00     0.031 C 
ATOM     36  C   UNL A   1      38.650  28.823  28.943  1.00  0.00     0.029 A 
ATOM     37  N   UNL A   1      40.425  30.146  29.271  1.00  0.00    -0.354 N 
ATOM     38  C   UNL A   1      44.402  28.866  28.215  1.00  0.00     0.074 A 
ATOM     39  C   UNL A   1      44.398  27.507  27.716  1.00  0.00     0.031 C 
ATOM     40  C   UNL A   1      38.207  29.972  29.482  1.00  0.00     0.029 A 
ATOM     41  C   UNL A   1      39.343  30.860  29.731  1.00  0.00     0.049 A 
ATOM     42  H   UNL A   1      41.344  30.497  29.282  1.00  0.00     0.167 HD
ATOM     43  C   UNL A   1      45.510  29.640  28.307  1.00  0.00     0.037 A 
ATOM     44  C   UNL A   1      39.278  32.084  30.294  1.00  0.00     0.037 A 
ATOM     45  C   UNL A   1      45.522  30.987  28.818  1.00  0.00     0.049 A 
ATOM     46  C   UNL A   1      40.536  32.903  30.443  1.00  0.00     0.074 A 
ATOM     47  C   UNL A   1      46.598  31.848  28.946  1.00  0.00     0.029 A 
ATOM     48  N   UNL A   1      44.411  31.667  29.292  1.00  0.00    -0.354 N 
ATOM     49  N   UNL A   1      41.765  32.605  30.095  1.00  0.00    -0.248 NA
ATOM     50  C   UNL A   1      40.393  34.237  31.046  1.00  0.00     0.031 C 
ATOM     51  C   UNL A   1      46.147  33.032  29.541  1.00  0.00     0.029 A 
ATOM     52  C   UNL A   1      44.779  32.930  29.733  1.00  0.00     0.049 A 
ATOM     53  H   UNL A   1      43.495  31.308  29.313  1.00  0.00     0.167 HD
ATOM     54  C   UNL A   1      42.535  33.721  30.415  1.00  0.00     0.074 A 
ATOM     55  C   UNL A   1      41.628  34.709  30.959  1.00  0.00     0.031 C 
ATOM     56  C   UNL A   1      43.871  33.909  30.274  1.00  0.00     0.037 A 
BRANCH  43  57
ATOM     57  C   UNL A   1      46.813  29.050  27.841  1.00  0.00     0.058 A 
ATOM     58  C   UNL A   1      47.138  28.982  26.475  1.00  0.00     0.135 A 
ATOM     59  C   UNL A   1      47.770  28.600  28.764  1.00  0.00     0.135 A 
ATOM     60  F   UNL A   1      46.252  29.381  25.549  1.00  0.00    -0.206 F 
ATOM     61  C   UNL A   1      48.360  28.478  26.043  1.00  0.00     0.059 A 
ATOM     62  C   UNL A   1      49.009  28.117  28.356  1.00  0.00     0.059 A 
ATOM     63  F   UNL A   1      47.508  28.639  30.080  1.00  0.00    -0.206 F 
ATOM     64  C   UNL A   1      49.291  28.052  26.992  1.00  0.00     0.060 A 
BRANCH  64  65
ATOM     65  S   UNL A   1      50.883  27.426  26.414  1.00  0.00     0.124 S 
ATOM     66  O   UNL A   1      51.697  27.539  27.621  1.00  0.00    -0.237 OA
ATOM     67  O   UNL A   1      50.550  26.067  25.999  1.00  0.00    -0.237 OA
ATOM     68  O   UNL A   1      51.237  28.340  25.332  1.00  0.00    -0.744 OA
ENDBRANCH  64  65
ENDBRANCH  43  57
BRANCH  44  69
ATOM     69  C   UNL A   1      37.974  32.617  30.779  1.00  0.00     0.058 A 
ATOM     70  C   UNL A   1      37.150  33.397  29.954  1.00  0.00     0.135 A 
ATOM     71  C   UNL A   1      37.548  32.389  32.097  1.00  0.00     0.135 A 
ATOM     72  F   UNL A   1      37.517  33.655  28.690  1.00  0.00    -0.206 F 
ATOM     73  C   UNL A   1      35.966  33.958  30.426  1.00  0.00     0.059 A 
ATOM     74  C   UNL A   1      36.354  32.912  32.583  1.00  0.00     0.059 A 
ATOM     75  F   UNL A   1      38.293  31.640  32.925  1.00  0.00    -0.206 F 
ATOM     76  C   UNL A   1      35.578  33.709  31.743  1.00  0.00     0.060 A 
BRANCH  76  77
ATOM     77  S   UNL A   1      34.025  34.414  32.337  1.00  0.00     0.124 S 
ATOM     78  O   UNL A   1      34.499  35.536  33.139  1.00  0.00    -0.237 OA
ATOM     79  O   UNL A   1      33.350  34.758  31.089  1.00  0.00    -0.237 OA
ATOM     80  O   UNL A   1      33.422  33.314  33.083  1.00  0.00    -0.744 OA
ENDBRANCH  76  77
ENDBRANCH  44  69
BRANCH  56  81
ATOM     81  C   UNL A   1      44.431  35.245  30.692  1.00  0.00     0.058 A 
ATOM     82  C   UNL A   1      44.920  35.472  31.989  1.00  0.00     0.135 A 
ATOM     83  C   UNL A   1      44.491  36.311  29.779  1.00  0.00     0.135 A 
ATOM     84  F   UNL A   1      44.888  34.489  32.904  1.00  0.00    -0.206 F 
ATOM     85  C   UNL A   1      45.404  36.717  32.379  1.00  0.00     0.059 A 
ATOM     86  C   UNL A   1      45.001  37.557  30.138  1.00  0.00     0.059 A 
ATOM     87  F   UNL A   1      44.052  36.150  28.520  1.00  0.00    -0.206 F 
ATOM     88  C   UNL A   1      45.434  37.755  31.448  1.00  0.00     0.060 A 
BRANCH  88  89
ATOM     89  S   UNL A   1      46.055  39.369  31.968  1.00  0.00     0.124 S 
ATOM     90  O   UNL A   1      46.143  39.196  33.415  1.00  0.00    -0.237 OA
ATOM     91  O   UNL A   1      47.329  39.458  31.262  1.00  0.00    -0.237 OA
ATOM     92  O   UNL A   1      45.025  40.295  31.509  1.00  0.00    -0.744 OA
ENDBRANCH  88  89
ENDBRANCH  56  81
ENDBRANCH  30  31
ENDBRANCH  23  25
ENDBRANCH  22  23
ENDBRANCH  21  22
ENDBRANCH   1  21
TORSDOF 17
ENDMDL
MODEL 3
REMARK VINA RESULT:      -9.9      3.767     12.719
REMARK SMILES O=C(CS(=O)(=O)Nc1ccc2ccccc2c1)OCCOC(=O)c1ccc(-c2c3nc(c(-c4c(F)cc(S(=O)(=O)[O-])cc4F)c4ccc([nH]4)c(-c4c(F)cc(S(=O)(=O)[O-])cc4F)c4nc(c(-c5c(F)cc(S(=O)(=O)[O-])cc5F)c5ccc2[nH]5)C=C4)C=C3)cc1
REMARK SMILES IDX 19 1 18 2 2 3 1 4 3 5 4 6 5 7 6 8 7 9 8 11 9 12 17 13 10 14
REMARK SMILES IDX 16 15 11 16 15 17 12 18 14 19 13 20 20 21 21 22 22 23 23 24
REMARK SMILES IDX 24 25 25 26 89 27 26 28 88 29 27 30 28 31 29 32 82 33 30 34
REMARK SMILES IDX 87 35 81 36 83 37 31 38 86 39 80 40 79 41 32 43 66 44 45 45
REMARK SMILES IDX 65 46 46 47 49 48 64 49 84 50 47 51 48 52 63 54 85 55 50 56
REMARK SMILES IDX 33 57 34 58 43 59 35 60 36 61 42 62 44 63 37 64 38 65 39 66
REMARK SMILES IDX 40 67 41 68 67 69 68 70 77 71 69 72 70 73 76 74 78 75 71 76
REMARK SMILES IDX 72 77 73 78 74 79 75 80 51 81 52 82 61 83 53 84 54 85 60 86
REMARK SMILES IDX 62 87 55 88 56 89 57 90 58 91 59 92
REMARK H PARENT 7 10 83 42 49 53
REMARK Flexibility Score: inf
ROOT
ATOM      1  C   UNL A   1      42.124  21.163  26.513  1.00  0.00     0.274 C 
ENDROOT
BRANCH   1   2
ATOM      2  O   UNL A   1      42.100  20.032  25.616  1.00  0.00    -0.461 OA
BRANCH   2   3
ATOM      3  C   UNL A   1      43.025  19.051  25.684  1.00  0.00     0.323 C 
ATOM      4  O   UNL A   1      42.644  17.883  25.742  1.00  0.00    -0.251 OA
BRANCH   3   5
ATOM      5  C   UNL A   1      44.475  19.385  25.739  1.00  0.00     0.282 C 
BRANCH   5   6
ATOM      6  S   UNL A   1      45.197  19.729  24.158  1.00  0.00     0.243 S 
ATOM      7  O   UNL A   1      45.794  18.528  23.612  1.00  0.00    -0.206 OA
ATOM      8  O   UNL A   1      44.163  20.399  23.389  1.00  0.00    -0.206 OA
BRANCH   6   9
ATOM      9  N   UNL A   1      46.402  20.881  24.274  1.00  0.00    -0.283 N 
ATOM     10  H   UNL A   1      47.281  20.689  23.874  1.00  0.00     0.180 HD
BRANCH   9  11
ATOM     11  C   UNL A   1      46.207  22.130  24.930  1.00  0.00     0.049 A 
ATOM     12  C   UNL A   1      46.402  23.327  24.254  1.00  0.00     0.027 A 
ATOM     13  C   UNL A   1      45.757  22.142  26.252  1.00  0.00     0.035 A 
ATOM     14  C   UNL A   1      46.261  24.542  24.931  1.00  0.00     0.011 A 
ATOM     15  C   UNL A   1      45.530  23.357  26.920  1.00  0.00    -0.016 A 
ATOM     16  C   UNL A   1      45.822  24.574  26.261  1.00  0.00    -0.018 A 
ATOM     17  C   UNL A   1      45.008  23.395  28.222  1.00  0.00     0.009 A 
ATOM     18  C   UNL A   1      45.643  25.788  26.940  1.00  0.00     0.009 A 
ATOM     19  C   UNL A   1      44.792  24.613  28.869  1.00  0.00     0.001 A 
ATOM     20  C   UNL A   1      45.125  25.807  28.236  1.00  0.00     0.001 A 
ENDBRANCH   9  11
ENDBRANCH   6   9
ENDBRANCH   5   6
ENDBRANCH   3   5
ENDBRANCH   2   3
ENDBRANCH   1   2
BRANCH   1  21
ATOM     21  C   UNL A   1      42.071  22.483  25.740  1.00  0.00     0.275 C 
BRANCH  21  22
ATOM     22  O   UNL A   1      41.869  23.568  26.668  1.00  0.00    -0.458 OA
BRANCH  22  23
ATOM     23  C   UNL A   1      42.052  24.822  26.179  1.00  0.00     0.338 C 
ATOM     24  O   UNL A   1      42.382  25.123  25.045  1.00  0.00    -0.246 OA
BRANCH  23  25
ATOM     25  C   UNL A   1      41.615  25.796  27.205  1.00  0.00     0.060 A 
ATOM     26  C   UNL A   1      42.222  27.056  27.229  1.00  0.00     0.016 A 
ATOM     27  C   UNL A   1      40.615  25.480  28.132  1.00  0.00     0.016 A 
ATOM     28  C   UNL A   1      41.856  27.991  28.201  1.00  0.00     0.010 A 
ATOM     29  C   UNL A   1      40.255  26.417  29.110  1.00  0.00     0.010 A 
ATOM     30  C   UNL A   1      40.894  27.669  29.168  1.00  0.00    -0.014 A 
BRANCH  30  31
ATOM     31  C   UNL A   1      40.658  28.593  30.308  1.00  0.00     0.031 A 
ATOM     32  C   UNL A   1      41.493  28.452  31.554  1.00  0.00     0.074 A 
ATOM     33  C   UNL A   1      39.742  29.576  30.225  1.00  0.00     0.049 A 
ATOM     34  N   UNL A   1      41.486  29.176  32.644  1.00  0.00    -0.248 NA
ATOM     35  C   UNL A   1      42.466  27.348  31.572  1.00  0.00     0.031 C 
ATOM     36  C   UNL A   1      38.869  29.827  29.078  1.00  0.00     0.029 A 
ATOM     37  N   UNL A   1      39.392  30.549  31.132  1.00  0.00    -0.354 N 
ATOM     38  C   UNL A   1      42.466  28.634  33.467  1.00  0.00     0.074 A 
ATOM     39  C   UNL A   1      43.009  27.486  32.773  1.00  0.00     0.031 C 
ATOM     40  C   UNL A   1      38.078  30.879  29.354  1.00  0.00     0.029 A 
ATOM     41  C   UNL A   1      38.376  31.370  30.700  1.00  0.00     0.049 A 
ATOM     42  H   UNL A   1      39.827  30.649  32.008  1.00  0.00     0.167 HD
ATOM     43  C   UNL A   1      42.892  29.063  34.679  1.00  0.00     0.037 A 
ATOM     44  C   UNL A   1      37.753  32.392  31.321  1.00  0.00     0.037 A 
ATOM     45  C   UNL A   1      42.343  30.196  35.381  1.00  0.00     0.049 A 
ATOM     46  C   UNL A   1      38.206  32.814  32.698  1.00  0.00     0.074 A 
ATOM     47  C   UNL A   1      42.715  30.706  36.614  1.00  0.00     0.029 A 
ATOM     48  N   UNL A   1      41.304  30.988  34.921  1.00  0.00    -0.354 N 
ATOM     49  N   UNL A   1      39.165  32.318  33.442  1.00  0.00    -0.248 NA
ATOM     50  C   UNL A   1      37.499  33.948  33.311  1.00  0.00     0.031 C 
ATOM     51  C   UNL A   1      41.869  31.778  36.919  1.00  0.00     0.029 A 
ATOM     52  C   UNL A   1      41.006  31.971  35.853  1.00  0.00     0.049 A 
ATOM     53  H   UNL A   1      40.843  30.871  34.059  1.00  0.00     0.167 HD
ATOM     54  C   UNL A   1      39.192  33.094  34.599  1.00  0.00     0.074 A 
ATOM     55  C   UNL A   1      38.171  34.109  34.442  1.00  0.00     0.031 C 
ATOM     56  C   UNL A   1      39.987  32.977  35.692  1.00  0.00     0.037 A 
BRANCH  43  57
ATOM     57  C   UNL A   1      44.017  28.306  35.331  1.00  0.00     0.058 A 
ATOM     58  C   UNL A   1      43.767  27.223  36.190  1.00  0.00     0.135 A 
ATOM     59  C   UNL A   1      45.355  28.625  35.053  1.00  0.00     0.135 A 
ATOM     60  F   UNL A   1      42.506  26.886  36.505  1.00  0.00    -0.206 F 
ATOM     61  C   UNL A   1      44.804  26.493  36.761  1.00  0.00     0.059 A 
ATOM     62  C   UNL A   1      46.409  27.892  35.591  1.00  0.00     0.059 A 
ATOM     63  F   UNL A   1      45.649  29.654  34.242  1.00  0.00    -0.206 F 
ATOM     64  C   UNL A   1      46.122  26.832  36.451  1.00  0.00     0.060 A 
BRANCH  64  65
ATOM     65  S   UNL A   1      47.456  25.856  37.178  1.00  0.00     0.124 S 
ATOM     66  O   UNL A   1      47.147  25.956  38.602  1.00  0.00    -0.237 OA
ATOM     67  O   UNL A   1      47.245  24.544  36.575  1.00  0.00    -0.237 OA
ATOM     68  O   UNL A   1      48.663  26.554  36.748  1.00  0.00    -0.744 OA
ENDBRANCH  64  65
ENDBRANCH  43  57
BRANCH  44  69
ATOM     69  C   UNL A   1      36.618  33.091  30.658  1.00  0.00     0.058 A 
ATOM     70  C   UNL A   1      36.834  34.059  29.665  1.00  0.00     0.135 A 
ATOM     71  C   UNL A   1      35.292  32.834  31.039  1.00  0.00     0.135 A 
ATOM     72  F   UNL A   1      38.083  34.352  29.273  1.00  0.00    -0.206 F 
ATOM     73  C   UNL A   1      35.779  34.768  29.095  1.00  0.00     0.059 A 
ATOM     74  C   UNL A   1      34.219  33.505  30.462  1.00  0.00     0.059 A 
ATOM     75  F   UNL A   1      35.029  31.910  31.977  1.00  0.00    -0.206 F 
ATOM     76  C   UNL A   1      34.475  34.482  29.502  1.00  0.00     0.060 A 
BRANCH  76  77
ATOM     77  S   UNL A   1      33.111  35.384  28.734  1.00  0.00     0.124 S 
ATOM     78  O   UNL A   1      33.825  36.385  27.950  1.00  0.00    -0.237 OA
ATOM     79  O   UNL A   1      32.440  34.333  27.974  1.00  0.00    -0.237 OA
ATOM     80  O   UNL A   1      32.362  35.894  29.879  1.00  0.00    -0.744 OA
ENDBRANCH  76  77
ENDBRANCH  44  69
BRANCH  56  81
ATOM     81  C   UNL A   1      39.802  33.987  36.796  1.00  0.00     0.058 A 
ATOM     82  C   UNL A   1      40.379  35.266  36.735  1.00  0.00     0.135 A 
ATOM     83  C   UNL A   1      39.026  33.676  37.925  1.00  0.00     0.135 A 
ATOM     84  F   UNL A   1      41.131  35.618  35.679  1.00  0.00    -0.206 F 
ATOM     85  C   UNL A   1      40.233  36.182  37.772  1.00  0.00     0.059 A 
ATOM     86  C   UNL A   1      38.839  34.589  38.960  1.00  0.00     0.059 A 
ATOM     87  F   UNL A   1      38.437  32.475  38.032  1.00  0.00    -0.206 F 
ATOM     88  C   UNL A   1      39.466  35.832  38.884  1.00  0.00     0.060 A 
BRANCH  88  89
ATOM     89  S   UNL A   1      39.291  37.026  40.228  1.00  0.00     0.124 S 
ATOM     90  O   UNL A   1      40.678  37.199  40.647  1.00  0.00    -0.237 OA
ATOM     91  O   UNL A   1      38.684  38.169  39.555  1.00  0.00    -0.237 OA
ATOM     92  O   UNL A   1      38.428  36.338  41.184  1.00  0.00    -0.744 OA
ENDBRANCH  88  89
ENDBRANCH  56  81
ENDBRANCH  30  31
ENDBRANCH  23  25
ENDBRANCH  22  23
ENDBRANCH  21  22
ENDBRANCH   1  21
TORSDOF 17
ENDMDL
