MODEL 1
REMARK VINA RESULT:     -11.1      0.000      0.000
REMARK SMILES C[C@H](c1cnccn1)[N@@H+]1[C@@H](C(=O)OCCOC(=O)c2ccc(-c3c4nc(c(-c5c(F)cc(S(=O)(=O)[O-])cc5F)c5ccc([nH]5)c(-c5c(F)cc(S(=O)(=O)[O-])cc5F)c5nc(c(-c6c(F)cc(S(=O)(=O)[O-])cc6F)c6ccc3[nH]6)C=C5)C=C4)cc2)CC[C@H]2CCCC[C@H]21
REMARK SMILES IDX 15 1 14 2 13 3 11 4 12 5 10 6 9 7 92 8 85 10 87 11 91 12
REMARK SMILES IDX 86 13 88 14 90 15 89 16 2 17 1 18 3 19 4 20 8 21 5 22 7 23
REMARK SMILES IDX 6 24 16 25 17 26 18 27 19 28 20 29 84 30 21 31 83 32 22 33
REMARK SMILES IDX 23 34 24 35 77 36 25 37 82 38 76 39 78 40 26 41 81 42 75 43
REMARK SMILES IDX 74 44 27 46 61 47 40 48 60 49 41 50 44 51 59 52 79 53 42 54
REMARK SMILES IDX 43 55 58 57 80 58 45 59 28 60 29 61 38 62 30 63 31 64 37 65
REMARK SMILES IDX 39 66 32 67 33 68 34 69 35 70 36 71 62 72 63 73 72 74 64 75
REMARK SMILES IDX 65 76 71 77 73 78 66 79 67 80 68 81 69 82 70 83 46 84 47 85
REMARK SMILES IDX 56 86 48 87 49 88 55 89 57 90 50 91 51 92 52 93 53 94 54 95
REMARK H PARENT 9 9 78 45 44 56
REMARK Flexibility Score: inf
ROOT
ATOM      1  C   UNL A   1      32.251  28.462  27.342  1.00  0.00     0.275 C 
ENDROOT
BRANCH   1   2
ATOM      2  C   UNL A   1      31.927  27.564  26.133  1.00  0.00     0.274 C 
BRANCH   2   3
ATOM      3  O   UNL A   1      32.905  26.533  25.875  1.00  0.00    -0.458 OA
BRANCH   3   4
ATOM      4  C   UNL A   1      33.597  26.684  24.713  1.00  0.00     0.365 C 
ATOM      5  O   UNL A   1      33.869  27.784  24.240  1.00  0.00    -0.245 OA
BRANCH   4   6
ATOM      6  C   UNL A   1      34.079  25.368  24.072  1.00  0.00     0.295 C 
ATOM      7  N   UNL A   1      33.017  24.470  23.481  1.00  0.00    -0.313 N 
ATOM      8  C   UNL A   1      33.711  23.233  22.932  1.00  0.00     0.188 C 
ATOM      9  H   UNL A   1      32.354  24.269  24.230  1.00  0.00     0.349 HD
ATOM     10  C   UNL A   1      34.933  24.645  25.134  1.00  0.00     0.078 C 
ATOM     11  C   UNL A   1      34.647  22.494  23.926  1.00  0.00     0.048 C 
ATOM     12  C   UNL A   1      32.810  22.129  22.336  1.00  0.00     0.065 C 
ATOM     13  C   UNL A   1      35.655  23.450  24.547  1.00  0.00     0.016 C 
ATOM     14  C   UNL A   1      33.913  21.648  24.987  1.00  0.00     0.010 C 
ATOM     15  C   UNL A   1      31.958  21.379  23.358  1.00  0.00     0.006 C 
ATOM     16  C   UNL A   1      32.405  21.554  24.802  1.00  0.00     0.001 C 
BRANCH   7  17
ATOM     17  C   UNL A   1      32.218  25.092  22.351  1.00  0.00     0.233 C 
ATOM     18  C   UNL A   1      32.900  25.920  21.251  1.00  0.00     0.083 C 
BRANCH  17  19
ATOM     19  C   UNL A   1      31.090  26.000  22.841  1.00  0.00     0.116 A 
ATOM     20  C   UNL A   1      30.914  27.289  22.347  1.00  0.00     0.141 A 
ATOM     21  N   UNL A   1      30.183  25.450  23.698  1.00  0.00    -0.252 NA
ATOM     22  N   UNL A   1      29.855  28.070  22.682  1.00  0.00    -0.261 NA
ATOM     23  C   UNL A   1      29.126  26.221  24.025  1.00  0.00     0.131 A 
ATOM     24  C   UNL A   1      28.965  27.500  23.527  1.00  0.00     0.131 A 
ENDBRANCH  17  19
ENDBRANCH   7  17
ENDBRANCH   4   6
ENDBRANCH   3   4
ENDBRANCH   2   3
ENDBRANCH   1   2
BRANCH   1  25
ATOM     25  O   UNL A   1      33.662  28.527  27.634  1.00  0.00    -0.458 OA
BRANCH  25  26
ATOM     26  C   UNL A   1      34.174  29.781  27.699  1.00  0.00     0.338 C 
ATOM     27  O   UNL A   1      33.550  30.821  27.563  1.00  0.00    -0.246 OA
BRANCH  26  28
ATOM     28  C   UNL A   1      35.583  29.768  28.146  1.00  0.00     0.060 A 
ATOM     29  C   UNL A   1      36.552  30.102  27.193  1.00  0.00     0.016 A 
ATOM     30  C   UNL A   1      35.972  29.336  29.414  1.00  0.00     0.016 A 
ATOM     31  C   UNL A   1      37.907  29.997  27.487  1.00  0.00     0.010 A 
ATOM     32  C   UNL A   1      37.340  29.202  29.705  1.00  0.00     0.010 A 
ATOM     33  C   UNL A   1      38.311  29.507  28.732  1.00  0.00    -0.014 A 
BRANCH  33  34
ATOM     34  C   UNL A   1      39.744  29.164  28.912  1.00  0.00     0.031 A 
ATOM     35  C   UNL A   1      40.657  30.180  29.543  1.00  0.00     0.074 A 
ATOM     36  C   UNL A   1      40.199  27.931  28.628  1.00  0.00     0.049 A 
ATOM     37  N   UNL A   1      41.933  30.093  29.819  1.00  0.00    -0.248 NA
ATOM     38  C   UNL A   1      40.046  31.464  29.924  1.00  0.00     0.031 C 
ATOM     39  C   UNL A   1      39.395  26.837  28.085  1.00  0.00     0.029 A 
ATOM     40  N   UNL A   1      41.451  27.387  28.775  1.00  0.00    -0.354 N 
ATOM     41  C   UNL A   1      42.281  31.311  30.392  1.00  0.00     0.074 A 
ATOM     42  C   UNL A   1      41.085  32.127  30.411  1.00  0.00     0.031 C 
ATOM     43  C   UNL A   1      40.174  25.751  27.945  1.00  0.00     0.029 A 
ATOM     44  C   UNL A   1      41.537  26.079  28.359  1.00  0.00     0.049 A 
ATOM     45  H   UNL A   1      42.216  27.886  29.142  1.00  0.00     0.167 HD
ATOM     46  C   UNL A   1      43.485  31.712  30.863  1.00  0.00     0.037 A 
ATOM     47  C   UNL A   1      42.597  25.250  28.306  1.00  0.00     0.037 A 
ATOM     48  C   UNL A   1      44.670  30.896  30.855  1.00  0.00     0.049 A 
ATOM     49  C   UNL A   1      43.939  25.736  28.788  1.00  0.00     0.074 A 
ATOM     50  C   UNL A   1      45.943  31.217  31.294  1.00  0.00     0.029 A 
ATOM     51  N   UNL A   1      44.728  29.593  30.382  1.00  0.00    -0.354 N 
ATOM     52  N   UNL A   1      44.260  26.901  29.302  1.00  0.00    -0.248 NA
ATOM     53  C   UNL A   1      45.064  24.796  28.682  1.00  0.00     0.031 C 
ATOM     54  C   UNL A   1      46.777  30.118  31.058  1.00  0.00     0.029 A 
ATOM     55  C   UNL A   1      46.016  29.099  30.509  1.00  0.00     0.049 A 
ATOM     56  H   UNL A   1      43.966  29.092  30.013  1.00  0.00     0.167 HD
ATOM     57  C   UNL A   1      45.618  26.827  29.596  1.00  0.00     0.074 A 
ATOM     58  C   UNL A   1      46.054  25.497  29.219  1.00  0.00     0.031 C 
ATOM     59  C   UNL A   1      46.432  27.773  30.128  1.00  0.00     0.037 A 
BRANCH  46  60
ATOM     60  C   UNL A   1      43.583  33.114  31.393  1.00  0.00     0.058 A 
ATOM     61  C   UNL A   1      44.014  34.182  30.590  1.00  0.00     0.135 A 
ATOM     62  C   UNL A   1      43.236  33.394  32.725  1.00  0.00     0.135 A 
ATOM     63  F   UNL A   1      44.378  33.965  29.317  1.00  0.00    -0.206 F 
ATOM     64  C   UNL A   1      44.126  35.473  31.097  1.00  0.00     0.059 A 
ATOM     65  C   UNL A   1      43.319  34.681  33.246  1.00  0.00     0.059 A 
ATOM     66  F   UNL A   1      42.822  32.408  33.537  1.00  0.00    -0.206 F 
ATOM     67  C   UNL A   1      43.781  35.711  32.429  1.00  0.00     0.060 A 
BRANCH  67  68
ATOM     68  S   UNL A   1      43.943  37.387  33.079  1.00  0.00     0.124 S 
ATOM     69  O   UNL A   1      43.742  38.188  31.875  1.00  0.00    -0.237 OA
ATOM     70  O   UNL A   1      42.869  37.447  34.066  1.00  0.00    -0.237 OA
ATOM     71  O   UNL A   1      45.296  37.409  33.628  1.00  0.00    -0.744 OA
ENDBRANCH  67  68
ENDBRANCH  46  60
BRANCH  47  72
ATOM     72  C   UNL A   1      42.442  23.876  27.758  1.00  0.00     0.058 A 
ATOM     73  C   UNL A   1      42.313  22.763  28.601  1.00  0.00     0.135 A 
ATOM     74  C   UNL A   1      42.429  23.650  26.372  1.00  0.00     0.135 A 
ATOM     75  F   UNL A   1      42.334  22.926  29.933  1.00  0.00    -0.206 F 
ATOM     76  C   UNL A   1      42.190  21.473  28.093  1.00  0.00     0.059 A 
ATOM     77  C   UNL A   1      42.283  22.374  25.840  1.00  0.00     0.059 A 
ATOM     78  F   UNL A   1      42.543  24.683  25.522  1.00  0.00    -0.206 F 
ATOM     79  C   UNL A   1      42.175  21.289  26.709  1.00  0.00     0.060 A 
BRANCH  79  80
ATOM     80  S   UNL A   1      41.965  19.619  26.054  1.00  0.00     0.124 S 
ATOM     81  O   UNL A   1      42.367  18.804  27.195  1.00  0.00    -0.237 OA
ATOM     82  O   UNL A   1      40.544  19.594  25.720  1.00  0.00    -0.237 OA
ATOM     83  O   UNL A   1      42.870  19.594  24.909  1.00  0.00    -0.744 OA
ENDBRANCH  79  80
ENDBRANCH  47  72
BRANCH  59  84
ATOM     84  C   UNL A   1      47.868  27.392  30.357  1.00  0.00     0.058 A 
ATOM     85  C   UNL A   1      48.284  26.775  31.547  1.00  0.00     0.135 A 
ATOM     86  C   UNL A   1      48.833  27.624  29.365  1.00  0.00     0.135 A 
ATOM     87  F   UNL A   1      47.401  26.533  32.528  1.00  0.00    -0.206 F 
ATOM     88  C   UNL A   1      49.616  26.430  31.758  1.00  0.00     0.059 A 
ATOM     89  C   UNL A   1      50.166  27.266  29.546  1.00  0.00     0.059 A 
ATOM     90  F   UNL A   1      48.485  28.201  28.203  1.00  0.00    -0.206 F 
ATOM     91  C   UNL A   1      50.550  26.686  30.754  1.00  0.00     0.060 A 
BRANCH  91  92
ATOM     92  S   UNL A   1      52.276  26.230  31.032  1.00  0.00     0.124 S 
ATOM     93  O   UNL A   1      52.769  26.105  29.665  1.00  0.00    -0.237 OA
ATOM     94  O   UNL A   1      52.785  27.371  31.788  1.00  0.00    -0.237 OA
ATOM     95  O   UNL A   1      52.180  24.984  31.785  1.00  0.00    -0.744 OA
ENDBRANCH  91  92
ENDBRANCH  59  84
ENDBRANCH  33  34
ENDBRANCH  26  28
ENDBRANCH  25  26
ENDBRANCH   1  25
TORSDOF 16
ENDMDL
MODEL 2
REMARK VINA RESULT:     -11.0      2.823      3.629
REMARK SMILES C[C@H](c1cnccn1)[N@@H+]1[C@@H](C(=O)OCCOC(=O)c2ccc(-c3c4nc(c(-c5c(F)cc(S(=O)(=O)[O-])cc5F)c5ccc([nH]5)c(-c5c(F)cc(S(=O)(=O)[O-])cc5F)c5nc(c(-c6c(F)cc(S(=O)(=O)[O-])cc6F)c6ccc3[nH]6)C=C5)C=C4)cc2)CC[C@H]2CCCC[C@H]21
REMARK SMILES IDX 15 1 14 2 13 3 11 4 12 5 10 6 9 7 92 8 85 10 87 11 91 12
REMARK SMILES IDX 86 13 88 14 90 15 89 16 2 17 1 18 3 19 4 20 8 21 5 22 7 23
REMARK SMILES IDX 6 24 16 25 17 26 18 27 19 28 20 29 84 30 21 31 83 32 22 33
REMARK SMILES IDX 23 34 24 35 77 36 25 37 82 38 76 39 78 40 26 41 81 42 75 43
REMARK SMILES IDX 74 44 27 46 61 47 40 48 60 49 41 50 44 51 59 52 79 53 42 54
REMARK SMILES IDX 43 55 58 57 80 58 45 59 28 60 29 61 38 62 30 63 31 64 37 65
REMARK SMILES IDX 39 66 32 67 33 68 34 69 35 70 36 71 62 72 63 73 72 74 64 75
REMARK SMILES IDX 65 76 71 77 73 78 66 79 67 80 68 81 69 82 70 83 46 84 47 85
REMARK SMILES IDX 56 86 48 87 49 88 55 89 57 90 50 91 51 92 52 93 53 94 54 95
REMARK H PARENT 9 9 78 45 44 56
REMARK Flexibility Score: inf
ROOT
ATOM      1  C   UNL A   1      34.985  30.710  27.820  1.00  0.00     0.275 C 
ENDROOT
BRANCH   1   2
ATOM      2  C   UNL A   1      33.602  30.452  27.193  1.00  0.00     0.274 C 
BRANCH   2   3
ATOM      3  O   UNL A   1      33.642  29.789  25.911  1.00  0.00    -0.458 OA
BRANCH   3   4
ATOM      4  C   UNL A   1      32.644  28.887  25.705  1.00  0.00     0.365 C 
ATOM      5  O   UNL A   1      31.464  29.140  25.931  1.00  0.00    -0.245 OA
BRANCH   4   6
ATOM      6  C   UNL A   1      33.099  27.546  25.096  1.00  0.00     0.295 C 
ATOM      7  N   UNL A   1      32.193  26.928  24.058  1.00  0.00    -0.313 N 
ATOM      8  C   UNL A   1      32.823  25.615  23.618  1.00  0.00     0.188 C 
ATOM      9  H   UNL A   1      31.279  26.817  24.496  1.00  0.00     0.349 HD
ATOM     10  C   UNL A   1      33.373  26.593  26.278  1.00  0.00     0.078 C 
ATOM     11  C   UNL A   1      33.194  24.634  24.763  1.00  0.00     0.048 C 
ATOM     12  C   UNL A   1      32.033  24.762  22.602  1.00  0.00     0.065 C 
ATOM     13  C   UNL A   1      34.049  25.319  25.820  1.00  0.00     0.016 C 
ATOM     14  C   UNL A   1      31.993  23.887  25.378  1.00  0.00     0.010 C 
ATOM     15  C   UNL A   1      30.754  24.135  23.152  1.00  0.00     0.006 C 
ATOM     16  C   UNL A   1      30.664  24.116  24.672  1.00  0.00     0.001 C 
BRANCH   7  17
ATOM     17  C   UNL A   1      31.980  27.776  22.817  1.00  0.00     0.233 C 
ATOM     18  C   UNL A   1      32.912  28.950  22.480  1.00  0.00     0.083 C 
BRANCH  17  19
ATOM     19  C   UNL A   1      30.581  28.389  22.743  1.00  0.00     0.116 A 
ATOM     20  C   UNL A   1      30.321  29.543  22.011  1.00  0.00     0.141 A 
ATOM     21  N   UNL A   1      29.568  27.687  23.326  1.00  0.00    -0.252 NA
ATOM     22  N   UNL A   1      29.070  30.041  21.836  1.00  0.00    -0.261 NA
ATOM     23  C   UNL A   1      28.324  28.175  23.146  1.00  0.00     0.131 A 
ATOM     24  C   UNL A   1      28.081  29.324  22.417  1.00  0.00     0.131 A 
ENDBRANCH  17  19
ENDBRANCH   7  17
ENDBRANCH   4   6
ENDBRANCH   3   4
ENDBRANCH   2   3
ENDBRANCH   1   2
BRANCH   1  25
ATOM     25  O   UNL A   1      35.587  29.520  28.368  1.00  0.00    -0.458 OA
BRANCH  25  26
ATOM     26  C   UNL A   1      36.303  29.713  29.504  1.00  0.00     0.338 C 
ATOM     27  O   UNL A   1      35.855  29.770  30.637  1.00  0.00    -0.246 OA
BRANCH  26  28
ATOM     28  C   UNL A   1      37.757  29.669  29.240  1.00  0.00     0.060 A 
ATOM     29  C   UNL A   1      38.155  29.565  27.902  1.00  0.00     0.016 A 
ATOM     30  C   UNL A   1      38.711  29.613  30.257  1.00  0.00     0.016 A 
ATOM     31  C   UNL A   1      39.494  29.392  27.569  1.00  0.00     0.010 A 
ATOM     32  C   UNL A   1      40.060  29.411  29.924  1.00  0.00     0.010 A 
ATOM     33  C   UNL A   1      40.452  29.273  28.579  1.00  0.00    -0.014 A 
BRANCH  33  34
ATOM     34  C   UNL A   1      41.816  28.832  28.195  1.00  0.00     0.031 A 
ATOM     35  C   UNL A   1      42.938  29.833  28.234  1.00  0.00     0.074 A 
ATOM     36  C   UNL A   1      42.073  27.538  27.929  1.00  0.00     0.049 A 
ATOM     37  N   UNL A   1      44.208  29.669  27.965  1.00  0.00    -0.248 NA
ATOM     38  C   UNL A   1      42.583  31.201  28.644  1.00  0.00     0.031 C 
ATOM     39  C   UNL A   1      41.084  26.461  27.934  1.00  0.00     0.029 A 
ATOM     40  N   UNL A   1      43.253  26.909  27.619  1.00  0.00    -0.354 N 
ATOM     41  C   UNL A   1      44.800  30.912  28.158  1.00  0.00     0.074 A 
ATOM     42  C   UNL A   1      43.749  31.825  28.553  1.00  0.00     0.031 C 
ATOM     43  C   UNL A   1      41.699  25.302  27.641  1.00  0.00     0.029 A 
ATOM     44  C   UNL A   1      43.118  25.559  27.399  1.00  0.00     0.049 A 
ATOM     45  H   UNL A   1      44.115  27.381  27.558  1.00  0.00     0.167 HD
ATOM     46  C   UNL A   1      46.101  31.260  28.023  1.00  0.00     0.037 A 
ATOM     47  C   UNL A   1      44.032  24.640  27.031  1.00  0.00     0.037 A 
ATOM     48  C   UNL A   1      47.147  30.349  27.640  1.00  0.00     0.049 A 
ATOM     49  C   UNL A   1      45.465  25.063  26.835  1.00  0.00     0.074 A 
ATOM     50  C   UNL A   1      48.495  30.609  27.459  1.00  0.00     0.029 A 
ATOM     51  N   UNL A   1      46.963  28.999  27.381  1.00  0.00    -0.354 N 
ATOM     52  N   UNL A   1      46.006  26.248  26.994  1.00  0.00    -0.248 NA
ATOM     53  C   UNL A   1      46.412  24.023  26.408  1.00  0.00     0.031 C 
ATOM     54  C   UNL A   1      49.119  29.422  27.059  1.00  0.00     0.029 A 
ATOM     55  C   UNL A   1      48.169  28.414  27.030  1.00  0.00     0.049 A 
ATOM     56  H   UNL A   1      46.103  28.526  27.438  1.00  0.00     0.167 HD
ATOM     57  C   UNL A   1      47.358  26.092  26.705  1.00  0.00     0.074 A 
ATOM     58  C   UNL A   1      47.555  24.695  26.377  1.00  0.00     0.031 C 
ATOM     59  C   UNL A   1      48.347  27.021  26.707  1.00  0.00     0.037 A 
BRANCH  46  60
ATOM     60  C   UNL A   1      46.454  32.702  28.255  1.00  0.00     0.058 A 
ATOM     61  C   UNL A   1      46.445  33.644  27.214  1.00  0.00     0.135 A 
ATOM     62  C   UNL A   1      46.803  33.148  29.540  1.00  0.00     0.135 A 
ATOM     63  F   UNL A   1      46.139  33.265  25.963  1.00  0.00    -0.206 F 
ATOM     64  C   UNL A   1      46.798  34.972  27.434  1.00  0.00     0.059 A 
ATOM     65  C   UNL A   1      47.138  34.475  29.786  1.00  0.00     0.059 A 
ATOM     66  F   UNL A   1      46.832  32.286  30.569  1.00  0.00    -0.206 F 
ATOM     67  C   UNL A   1      47.148  35.376  28.723  1.00  0.00     0.060 A 
BRANCH  67  68
ATOM     68  S   UNL A   1      47.617  37.098  28.994  1.00  0.00     0.124 S 
ATOM     69  O   UNL A   1      47.909  37.099  30.424  1.00  0.00    -0.237 OA
ATOM     70  O   UNL A   1      48.770  37.253  28.112  1.00  0.00    -0.237 OA
ATOM     71  O   UNL A   1      46.425  37.842  28.597  1.00  0.00    -0.744 OA
ENDBRANCH  67  68
ENDBRANCH  46  60
BRANCH  47  72
ATOM     72  C   UNL A   1      43.620  23.230  26.802  1.00  0.00     0.058 A 
ATOM     73  C   UNL A   1      43.280  22.386  27.868  1.00  0.00     0.135 A 
ATOM     74  C   UNL A   1      43.569  22.695  25.505  1.00  0.00     0.135 A 
ATOM     75  F   UNL A   1      43.328  22.846  29.128  1.00  0.00    -0.206 F 
ATOM     76  C   UNL A   1      42.916  21.058  27.661  1.00  0.00     0.059 A 
ATOM     77  C   UNL A   1      43.185  21.380  25.270  1.00  0.00     0.059 A 
ATOM     78  F   UNL A   1      43.879  23.463  24.448  1.00  0.00    -0.206 F 
ATOM     79  C   UNL A   1      42.870  20.565  26.356  1.00  0.00     0.060 A 
BRANCH  79  80
ATOM     80  S   UNL A   1      42.349  18.856  26.088  1.00  0.00     0.124 S 
ATOM     81  O   UNL A   1      40.938  19.027  25.765  1.00  0.00    -0.237 OA
ATOM     82  O   UNL A   1      43.211  18.439  24.987  1.00  0.00    -0.237 OA
ATOM     83  O   UNL A   1      42.631  18.217  27.371  1.00  0.00    -0.744 OA
ENDBRANCH  79  80
ENDBRANCH  47  72
BRANCH  59  84
ATOM     84  C   UNL A   1      49.733  26.548  26.372  1.00  0.00     0.058 A 
ATOM     85  C   UNL A   1      50.599  26.049  27.357  1.00  0.00     0.135 A 
ATOM     86  C   UNL A   1      50.191  26.569  25.045  1.00  0.00     0.135 A 
ATOM     87  F   UNL A   1      50.211  26.008  28.641  1.00  0.00    -0.206 F 
ATOM     88  C   UNL A   1      51.885  25.618  27.043  1.00  0.00     0.059 A 
ATOM     89  C   UNL A   1      51.465  26.121  24.705  1.00  0.00     0.059 A 
ATOM     90  F   UNL A   1      49.398  27.025  24.062  1.00  0.00    -0.206 F 
ATOM     91  C   UNL A   1      52.310  25.664  25.715  1.00  0.00     0.060 A 
BRANCH  91  92
ATOM     92  S   UNL A   1      53.977  25.097  25.313  1.00  0.00     0.124 S 
ATOM     93  O   UNL A   1      54.682  25.350  26.566  1.00  0.00    -0.237 OA
ATOM     94  O   UNL A   1      53.762  23.692  24.980  1.00  0.00    -0.237 OA
ATOM     95  O   UNL A   1      54.362  25.947  24.191  1.00  0.00    -0.744 OA
ENDBRANCH  91  92
ENDBRANCH  59  84
ENDBRANCH  33  34
ENDBRANCH  26  28
ENDBRANCH  25  26
ENDBRANCH   1  25
TORSDOF 16
ENDMDL
MODEL 3
REMARK VINA RESULT:     -10.9      0.639      8.354
REMARK SMILES C[C@H](c1cnccn1)[N@@H+]1[C@@H](C(=O)OCCOC(=O)c2ccc(-c3c4nc(c(-c5c(F)cc(S(=O)(=O)[O-])cc5F)c5ccc([nH]5)c(-c5c(F)cc(S(=O)(=O)[O-])cc5F)c5nc(c(-c6c(F)cc(S(=O)(=O)[O-])cc6F)c6ccc3[nH]6)C=C5)C=C4)cc2)CC[C@H]2CCCC[C@H]21
REMARK SMILES IDX 15 1 14 2 13 3 11 4 12 5 10 6 9 7 92 8 85 10 87 11 91 12
REMARK SMILES IDX 86 13 88 14 90 15 89 16 2 17 1 18 3 19 4 20 8 21 5 22 7 23
REMARK SMILES IDX 6 24 16 25 17 26 18 27 19 28 20 29 84 30 21 31 83 32 22 33
REMARK SMILES IDX 23 34 24 35 77 36 25 37 82 38 76 39 78 40 26 41 81 42 75 43
REMARK SMILES IDX 74 44 27 46 61 47 40 48 60 49 41 50 44 51 59 52 79 53 42 54
REMARK SMILES IDX 43 55 58 57 80 58 45 59 28 60 29 61 38 62 30 63 31 64 37 65
REMARK SMILES IDX 39 66 32 67 33 68 34 69 35 70 36 71 62 72 63 73 72 74 64 75
REMARK SMILES IDX 65 76 71 77 73 78 66 79 67 80 68 81 69 82 70 83 46 84 47 85
REMARK SMILES IDX 56 86 48 87 49 88 55 89 57 90 50 91 51 92 52 93 53 94 54 95
REMARK H PARENT 9 9 78 45 44 56
REMARK Flexibility Score: inf
ROOT
ATOM      1  C   UNL A   1      32.874  30.217  26.494  1.00  0.00     0.275 C 
ENDROOT
BRANCH   1   2
ATOM      2  C   UNL A   1      33.007  29.267  25.288  1.00  0.00     0.274 C 
BRANCH   2   3
ATOM      3  O   UNL A   1      33.955  28.194  25.475  1.00  0.00    -0.458 OA
BRANCH   3   4
ATOM      4  C   UNL A   1      33.398  26.960  25.611  1.00  0.00     0.365 C 
ATOM      5  O   UNL A   1      32.402  26.754  26.298  1.00  0.00    -0.245 OA
BRANCH   4   6
ATOM      6  C   UNL A   1      34.070  25.852  24.777  1.00  0.00     0.295 C 
ATOM      7  N   UNL A   1      33.203  25.141  23.764  1.00  0.00    -0.313 N 
ATOM      8  C   UNL A   1      34.060  24.086  23.083  1.00  0.00     0.188 C 
ATOM      9  H   UNL A   1      32.410  24.757  24.277  1.00  0.00     0.349 HD
ATOM     10  C   UNL A   1      34.721  24.876  25.779  1.00  0.00     0.078 C 
ATOM     11  C   UNL A   1      34.805  23.112  24.034  1.00  0.00     0.048 C 
ATOM     12  C   UNL A   1      33.363  23.176  22.047  1.00  0.00     0.065 C 
ATOM     13  C   UNL A   1      35.610  23.871  25.079  1.00  0.00     0.016 C 
ATOM     14  C   UNL A   1      33.912  22.023  24.663  1.00  0.00     0.010 C 
ATOM     15  C   UNL A   1      32.356  22.191  22.637  1.00  0.00     0.006 C 
ATOM     16  C   UNL A   1      32.482  21.986  24.140  1.00  0.00     0.001 C 
BRANCH   7  17
ATOM     17  C   UNL A   1      32.628  26.038  22.683  1.00  0.00     0.233 C 
ATOM     18  C   UNL A   1      33.399  27.259  22.162  1.00  0.00     0.083 C 
BRANCH  17  19
ATOM     19  C   UNL A   1      31.252  26.602  23.041  1.00  0.00     0.116 A 
ATOM     20  C   UNL A   1      30.813  27.831  22.560  1.00  0.00     0.141 A 
ATOM     21  N   UNL A   1      30.420  25.792  23.756  1.00  0.00    -0.252 NA
ATOM     22  N   UNL A   1      29.556  28.299  22.769  1.00  0.00    -0.261 NA
ATOM     23  C   UNL A   1      29.168  26.252  23.957  1.00  0.00     0.131 A 
ATOM     24  C   UNL A   1      28.746  27.476  23.473  1.00  0.00     0.131 A 
ENDBRANCH  17  19
ENDBRANCH   7  17
ENDBRANCH   4   6
ENDBRANCH   3   4
ENDBRANCH   2   3
ENDBRANCH   1   2
BRANCH   1  25
ATOM     25  O   UNL A   1      33.574  29.744  27.663  1.00  0.00    -0.458 OA
BRANCH  25  26
ATOM     26  C   UNL A   1      34.444  30.632  28.205  1.00  0.00     0.338 C 
ATOM     27  O   UNL A   1      34.159  31.710  28.701  1.00  0.00    -0.246 OA
BRANCH  26  28
ATOM     28  C   UNL A   1      35.806  30.065  28.300  1.00  0.00     0.060 A 
ATOM     29  C   UNL A   1      36.237  29.663  29.570  1.00  0.00     0.016 A 
ATOM     30  C   UNL A   1      36.688  30.025  27.220  1.00  0.00     0.016 A 
ATOM     31  C   UNL A   1      37.543  29.234  29.776  1.00  0.00     0.010 A 
ATOM     32  C   UNL A   1      38.016  29.619  27.431  1.00  0.00     0.010 A 
ATOM     33  C   UNL A   1      38.455  29.248  28.716  1.00  0.00    -0.014 A 
BRANCH  33  34
ATOM     34  C   UNL A   1      39.889  29.036  29.030  1.00  0.00     0.031 A 
ATOM     35  C   UNL A   1      40.520  27.715  28.682  1.00  0.00     0.074 A 
ATOM     36  C   UNL A   1      40.646  30.040  29.509  1.00  0.00     0.049 A 
ATOM     37  N   UNL A   1      41.755  27.315  28.842  1.00  0.00    -0.248 NA
ATOM     38  C   UNL A   1      39.640  26.712  28.059  1.00  0.00     0.031 C 
ATOM     39  C   UNL A   1      40.168  31.388  29.814  1.00  0.00     0.029 A 
ATOM     40  N   UNL A   1      41.985  30.083  29.806  1.00  0.00    -0.354 N 
ATOM     41  C   UNL A   1      41.799  26.015  28.353  1.00  0.00     0.074 A 
ATOM     42  C   UNL A   1      40.462  25.685  27.905  1.00  0.00     0.031 C 
ATOM     43  C   UNL A   1      41.200  32.127  30.256  1.00  0.00     0.029 A 
ATOM     44  C   UNL A   1      42.404  31.300  30.292  1.00  0.00     0.049 A 
ATOM     45  H   UNL A   1      42.590  29.316  29.684  1.00  0.00     0.167 HD
ATOM     46  C   UNL A   1      42.857  25.172  28.281  1.00  0.00     0.037 A 
ATOM     47  C   UNL A   1      43.616  31.693  30.730  1.00  0.00     0.037 A 
ATOM     48  C   UNL A   1      44.187  25.504  28.717  1.00  0.00     0.049 A 
ATOM     49  C   UNL A   1      44.766  30.720  30.688  1.00  0.00     0.074 A 
ATOM     50  C   UNL A   1      45.323  24.714  28.702  1.00  0.00     0.029 A 
ATOM     51  N   UNL A   1      44.561  26.731  29.247  1.00  0.00    -0.354 N 
ATOM     52  N   UNL A   1      44.787  29.483  30.250  1.00  0.00    -0.248 NA
ATOM     53  C   UNL A   1      46.058  31.196  31.202  1.00  0.00     0.031 C 
ATOM     54  C   UNL A   1      46.377  25.453  29.251  1.00  0.00     0.029 A 
ATOM     55  C   UNL A   1      45.907  26.716  29.572  1.00  0.00     0.049 A 
ATOM     56  H   UNL A   1      43.959  27.499  29.372  1.00  0.00     0.167 HD
ATOM     57  C   UNL A   1      46.095  29.041  30.418  1.00  0.00     0.074 A 
ATOM     58  C   UNL A   1      46.840  30.148  30.983  1.00  0.00     0.031 C 
ATOM     59  C   UNL A   1      46.633  27.828  30.134  1.00  0.00     0.037 A 
BRANCH  46  60
ATOM     60  C   UNL A   1      42.600  23.793  27.743  1.00  0.00     0.058 A 
ATOM     61  C   UNL A   1      42.416  22.689  28.590  1.00  0.00     0.135 A 
ATOM     62  C   UNL A   1      42.536  23.575  26.357  1.00  0.00     0.135 A 
ATOM     63  F   UNL A   1      42.489  22.840  29.921  1.00  0.00    -0.206 F 
ATOM     64  C   UNL A   1      42.205  21.411  28.081  1.00  0.00     0.059 A 
ATOM     65  C   UNL A   1      42.304  22.310  25.827  1.00  0.00     0.059 A 
ATOM     66  F   UNL A   1      42.710  24.596  25.503  1.00  0.00    -0.206 F 
ATOM     67  C   UNL A   1      42.156  21.231  26.698  1.00  0.00     0.060 A 
BRANCH  67  68
ATOM     68  S   UNL A   1      41.896  19.567  26.049  1.00  0.00     0.124 S 
ATOM     69  O   UNL A   1      42.808  19.552  24.909  1.00  0.00    -0.237 OA
ATOM     70  O   UNL A   1      42.279  18.725  27.178  1.00  0.00    -0.237 OA
ATOM     71  O   UNL A   1      40.474  19.551  25.715  1.00  0.00    -0.744 OA
ENDBRANCH  67  68
ENDBRANCH  46  60
BRANCH  47  72
ATOM     72  C   UNL A   1      43.805  33.067  31.265  1.00  0.00     0.058 A 
ATOM     73  C   UNL A   1      44.159  34.135  30.429  1.00  0.00     0.135 A 
ATOM     74  C   UNL A   1      43.644  33.335  32.634  1.00  0.00     0.135 A 
ATOM     75  F   UNL A   1      44.339  33.926  29.115  1.00  0.00    -0.206 F 
ATOM     76  C   UNL A   1      44.359  35.418  30.929  1.00  0.00     0.059 A 
ATOM     77  C   UNL A   1      43.815  34.614  33.154  1.00  0.00     0.059 A 
ATOM     78  F   UNL A   1      43.300  32.349  33.477  1.00  0.00    -0.206 F 
ATOM     79  C   UNL A   1      44.183  35.648  32.295  1.00  0.00     0.060 A 
BRANCH  79  80
ATOM     80  S   UNL A   1      44.395  37.325  32.931  1.00  0.00     0.124 S 
ATOM     81  O   UNL A   1      44.259  38.119  31.716  1.00  0.00    -0.237 OA
ATOM     82  O   UNL A   1      43.301  37.432  33.891  1.00  0.00    -0.237 OA
ATOM     83  O   UNL A   1      45.732  37.292  33.518  1.00  0.00    -0.744 OA
ENDBRANCH  79  80
ENDBRANCH  47  72
BRANCH  59  84
ATOM     84  C   UNL A   1      48.100  27.647  30.405  1.00  0.00     0.058 A 
ATOM     85  C   UNL A   1      49.070  27.962  29.441  1.00  0.00     0.135 A 
ATOM     86  C   UNL A   1      48.541  27.177  31.652  1.00  0.00     0.135 A 
ATOM     87  F   UNL A   1      48.701  28.413  28.232  1.00  0.00    -0.206 F 
ATOM     88  C   UNL A   1      50.427  27.787  29.694  1.00  0.00     0.059 A 
ATOM     89  C   UNL A   1      49.895  27.016  31.934  1.00  0.00     0.059 A 
ATOM     90  F   UNL A   1      47.654  26.873  32.614  1.00  0.00    -0.206 F 
ATOM     91  C   UNL A   1      50.829  27.307  30.941  1.00  0.00     0.060 A 
BRANCH  91  92
ATOM     92  S   UNL A   1      52.593  27.088  31.264  1.00  0.00     0.124 S 
ATOM     93  O   UNL A   1      52.641  25.692  31.685  1.00  0.00    -0.237 OA
ATOM     94  O   UNL A   1      53.190  27.379  29.964  1.00  0.00    -0.237 OA
ATOM     95  O   UNL A   1      52.870  28.070  32.306  1.00  0.00    -0.744 OA
ENDBRANCH  91  92
ENDBRANCH  59  84
ENDBRANCH  33  34
ENDBRANCH  26  28
ENDBRANCH  25  26
ENDBRANCH   1  25
TORSDOF 16
ENDMDL
