MODEL 1
REMARK VINA RESULT:     -11.8      0.000      0.000
REMARK SMILES COC(=O)c1ccc(NC(=O)[C@H]2CC=CC[C@@H]2C(=O)OCCOC(=O)c2ccc(-c3c4nc(c(-c5c(F)cc(S(=O)(=O)[O-])cc5F)c5ccc([nH]5)c(-c5c(F)cc(S(=O)(=O)[O-])cc5F)c5nc(c(-c6c(F)cc(S(=O)(=O)[O-])cc6F)c6ccc3[nH]6)C=C5)C=C4)cc2)c(C)c1
REMARK SMILES IDX 21 1 20 2 18 3 19 4 17 5 12 6 13 7 14 8 16 9 15 10 10 11
REMARK SMILES IDX 9 12 11 14 8 15 5 16 6 17 94 18 7 19 92 20 93 21 3 22 4 23
REMARK SMILES IDX 2 24 1 25 22 26 23 27 24 28 25 29 26 30 27 31 91 32 28 33
REMARK SMILES IDX 90 34 29 35 30 36 31 37 84 38 32 39 89 40 83 41 85 42 33 43
REMARK SMILES IDX 88 44 82 45 81 46 34 48 68 49 47 50 67 51 48 52 51 53 66 54
REMARK SMILES IDX 86 55 49 56 50 57 65 59 87 60 52 61 35 62 36 63 45 64 37 65
REMARK SMILES IDX 38 66 44 67 46 68 39 69 40 70 41 71 42 72 43 73 69 74 70 75
REMARK SMILES IDX 79 76 71 77 72 78 78 79 80 80 73 81 74 82 75 83 76 84 77 85
REMARK SMILES IDX 53 86 54 87 63 88 55 89 56 90 62 91 64 92 57 93 58 94 59 95
REMARK SMILES IDX 60 96 61 97
REMARK H PARENT 9 13 85 47 51 58
REMARK Flexibility Score: inf
ROOT
ATOM      1  C   UNL A   1      34.435  31.127  27.641  1.00  0.00     0.274 C 
ENDROOT
BRANCH   1   2
ATOM      2  O   UNL A   1      33.789  30.440  26.568  1.00  0.00    -0.462 OA
BRANCH   2   3
ATOM      3  C   UNL A   1      32.468  30.612  26.597  1.00  0.00     0.310 C 
ATOM      4  O   UNL A   1      31.982  31.692  26.951  1.00  0.00    -0.252 OA
BRANCH   3   5
ATOM      5  C   UNL A   1      31.532  29.417  26.103  1.00  0.00     0.116 C 
ATOM      6  C   UNL A   1      31.374  27.214  25.658  1.00  0.00     0.097 C 
ATOM      7  C   UNL A   1      30.774  26.937  23.791  1.00  0.00     0.041 C 
ATOM      8  C   UNL A   1      30.005  28.296  22.925  1.00  0.00    -0.030 C 
ATOM      9  C   UNL A   1      30.655  30.487  24.696  1.00  0.00     0.043 C 
ATOM     10  C   UNL A   1      29.960  29.670  23.269  1.00  0.00    -0.030 C 
BRANCH   6  11
ATOM     11  C   UNL A   1      30.964  25.637  26.355  1.00  0.00     0.228 C 
ATOM     12  N   UNL A   1      31.913  24.720  26.853  1.00  0.00    -0.326 N 
ATOM     13  H   UNL A   1      31.622  24.315  27.702  1.00  0.00     0.169 HD
ATOM     14  O   UNL A   1      29.832  25.160  26.420  1.00  0.00    -0.274 OA
BRANCH  12  15
ATOM     15  C   UNL A   1      33.192  24.229  26.436  1.00  0.00     0.044 A 
ATOM     16  C   UNL A   1      35.843  23.373  25.814  1.00  0.00     0.060 A 
ATOM     17  C   UNL A   1      35.264  24.435  25.132  1.00  0.00     0.018 A 
ATOM     18  C   UNL A   1      35.076  22.696  26.766  1.00  0.00     0.021 A 
ATOM     19  C   UNL A   1      33.945  24.815  25.414  1.00  0.00     0.027 A 
ATOM     20  C   UNL A   1      33.740  23.078  27.046  1.00  0.00    -0.027 A 
ATOM     21  C   UNL A   1      32.950  22.201  27.978  1.00  0.00     0.046 C 
BRANCH  16  22
ATOM     22  C   UNL A   1      37.230  22.962  25.443  1.00  0.00     0.337 C 
ATOM     23  O   UNL A   1      37.519  21.843  25.046  1.00  0.00    -0.246 OA
BRANCH  22  24
ATOM     24  O   UNL A   1      38.141  23.959  25.582  1.00  0.00    -0.465 OA
ATOM     25  C   UNL A   1      38.710  24.048  26.891  1.00  0.00     0.282 C 
ENDBRANCH  22  24
ENDBRANCH  16  22
ENDBRANCH  12  15
ENDBRANCH   6  11
ENDBRANCH   3   5
ENDBRANCH   2   3
ENDBRANCH   1   2
BRANCH   1  26
ATOM     26  C   UNL A   1      35.505  30.313  28.475  1.00  0.00     0.275 C 
BRANCH  26  27
ATOM     27  O   UNL A   1      36.391  31.122  29.326  1.00  0.00    -0.458 OA
BRANCH  27  28
ATOM     28  C   UNL A   1      37.772  31.324  29.196  1.00  0.00     0.338 C 
ATOM     29  O   UNL A   1      38.360  32.315  29.586  1.00  0.00    -0.246 OA
BRANCH  28  30
ATOM     30  C   UNL A   1      38.461  29.961  28.801  1.00  0.00     0.060 A 
ATOM     31  C   UNL A   1      38.391  29.297  27.170  1.00  0.00     0.016 A 
ATOM     32  C   UNL A   1      39.840  30.043  29.668  1.00  0.00     0.016 A 
ATOM     33  C   UNL A   1      40.021  28.950  26.345  1.00  0.00     0.010 A 
ATOM     34  C   UNL A   1      41.218  29.910  29.076  1.00  0.00     0.010 A 
ATOM     35  C   UNL A   1      41.572  29.357  27.509  1.00  0.00    -0.014 A 
BRANCH  35  36
ATOM     36  C   UNL A   1      43.163  29.302  27.853  1.00  0.00     0.031 A 
ATOM     37  C   UNL A   1      44.001  30.467  27.588  1.00  0.00     0.074 A 
ATOM     38  C   UNL A   1      43.837  28.211  28.419  1.00  0.00     0.049 A 
ATOM     39  N   UNL A   1      44.865  30.547  26.630  1.00  0.00    -0.248 NA
ATOM     40  C   UNL A   1      43.759  31.712  28.311  1.00  0.00     0.031 C 
ATOM     41  C   UNL A   1      45.165  28.167  29.048  1.00  0.00     0.029 A 
ATOM     42  N   UNL A   1      43.422  26.870  28.630  1.00  0.00    -0.354 N 
ATOM     43  C   UNL A   1      45.420  31.796  26.782  1.00  0.00     0.074 A 
ATOM     44  C   UNL A   1      44.459  32.556  27.551  1.00  0.00     0.031 C 
ATOM     45  C   UNL A   1      45.514  26.895  29.351  1.00  0.00     0.029 A 
ATOM     46  C   UNL A   1      44.469  25.993  28.908  1.00  0.00     0.049 A 
ATOM     47  H   UNL A   1      42.480  26.586  28.586  1.00  0.00     0.167 HD
ATOM     48  C   UNL A   1      46.772  31.959  26.835  1.00  0.00     0.037 A 
ATOM     49  C   UNL A   1      44.603  24.826  28.209  1.00  0.00     0.037 A 
ATOM     50  C   UNL A   1      47.417  30.661  27.015  1.00  0.00     0.049 A 
ATOM     51  C   UNL A   1      45.655  25.071  27.149  1.00  0.00     0.074 A 
ATOM     52  C   UNL A   1      47.897  30.028  28.151  1.00  0.00     0.029 A 
ATOM     53  N   UNL A   1      47.309  29.680  26.040  1.00  0.00    -0.354 N 
ATOM     54  N   UNL A   1      46.097  26.267  26.866  1.00  0.00    -0.248 NA
ATOM     55  C   UNL A   1      46.363  24.033  26.407  1.00  0.00     0.031 C 
ATOM     56  C   UNL A   1      48.104  28.660  27.839  1.00  0.00     0.029 A 
ATOM     57  C   UNL A   1      47.737  28.456  26.518  1.00  0.00     0.049 A 
ATOM     58  H   UNL A   1      46.973  29.836  25.128  1.00  0.00     0.167 HD
ATOM     59  C   UNL A   1      47.156  26.191  26.012  1.00  0.00     0.074 A 
ATOM     60  C   UNL A   1      47.285  24.766  25.755  1.00  0.00     0.031 C 
ATOM     61  C   UNL A   1      47.848  27.305  25.628  1.00  0.00     0.037 A 
BRANCH  48  62
ATOM     62  C   UNL A   1      47.425  33.288  27.148  1.00  0.00     0.058 A 
ATOM     63  C   UNL A   1      47.437  34.332  26.205  1.00  0.00     0.135 A 
ATOM     64  C   UNL A   1      47.999  33.611  28.402  1.00  0.00     0.135 A 
ATOM     65  F   UNL A   1      46.850  34.200  25.008  1.00  0.00    -0.206 F 
ATOM     66  C   UNL A   1      48.028  35.571  26.454  1.00  0.00     0.059 A 
ATOM     67  C   UNL A   1      48.645  34.824  28.656  1.00  0.00     0.059 A 
ATOM     68  F   UNL A   1      47.915  32.772  29.447  1.00  0.00    -0.206 F 
ATOM     69  C   UNL A   1      48.645  35.804  27.676  1.00  0.00     0.060 A 
BRANCH  69  70
ATOM     70  S   UNL A   1      49.377  37.422  27.976  1.00  0.00     0.124 S 
ATOM     71  O   UNL A   1      48.896  37.730  29.319  1.00  0.00    -0.237 OA
ATOM     72  O   UNL A   1      50.803  37.135  27.861  1.00  0.00    -0.237 OA
ATOM     73  O   UNL A   1      48.820  38.253  26.911  1.00  0.00    -0.744 OA
ENDBRANCH  69  70
ENDBRANCH  48  62
BRANCH  49  74
ATOM     74  C   UNL A   1      43.305  24.068  28.052  1.00  0.00     0.058 A 
ATOM     75  C   UNL A   1      42.733  23.919  26.760  1.00  0.00     0.135 A 
ATOM     76  C   UNL A   1      43.067  23.028  28.936  1.00  0.00     0.135 A 
ATOM     77  F   UNL A   1      42.878  24.900  25.856  1.00  0.00    -0.206 F 
ATOM     78  C   UNL A   1      42.115  22.731  26.321  1.00  0.00     0.059 A 
ATOM     79  C   UNL A   1      42.656  21.803  28.419  1.00  0.00     0.059 A 
ATOM     80  F   UNL A   1      43.552  23.066  30.188  1.00  0.00    -0.206 F 
ATOM     81  C   UNL A   1      42.145  21.628  27.149  1.00  0.00     0.060 A 
BRANCH  81  82
ATOM     82  S   UNL A   1      41.689  19.986  26.495  1.00  0.00     0.124 S 
ATOM     83  O   UNL A   1      40.284  20.180  26.160  1.00  0.00    -0.237 OA
ATOM     84  O   UNL A   1      42.613  19.862  25.370  1.00  0.00    -0.237 OA
ATOM     85  O   UNL A   1      41.943  19.033  27.562  1.00  0.00    -0.744 OA
ENDBRANCH  81  82
ENDBRANCH  49  74
BRANCH  61  86
ATOM     86  C   UNL A   1      48.805  27.385  24.462  1.00  0.00     0.058 A 
ATOM     87  C   UNL A   1      48.400  27.598  23.137  1.00  0.00     0.135 A 
ATOM     88  C   UNL A   1      50.211  27.368  24.666  1.00  0.00     0.135 A 
ATOM     89  F   UNL A   1      47.122  27.828  22.812  1.00  0.00    -0.206 F 
ATOM     90  C   UNL A   1      49.302  27.643  22.081  1.00  0.00     0.059 A 
ATOM     91  C   UNL A   1      51.132  27.517  23.638  1.00  0.00     0.059 A 
ATOM     92  F   UNL A   1      50.761  27.223  25.879  1.00  0.00    -0.206 F 
ATOM     93  C   UNL A   1      50.666  27.600  22.340  1.00  0.00     0.060 A 
BRANCH  93  94
ATOM     94  S   UNL A   1      51.809  27.685  20.962  1.00  0.00     0.124 S 
ATOM     95  O   UNL A   1      52.216  26.290  20.840  1.00  0.00    -0.237 OA
ATOM     96  O   UNL A   1      50.959  28.193  19.889  1.00  0.00    -0.237 OA
ATOM     97  O   UNL A   1      52.840  28.607  21.428  1.00  0.00    -0.744 OA
ENDBRANCH  93  94
ENDBRANCH  61  86
ENDBRANCH  35  36
ENDBRANCH  28  30
ENDBRANCH  27  28
ENDBRANCH  26  27
ENDBRANCH   1  26
TORSDOF 18
ENDMDL
MODEL 2
REMARK VINA RESULT:     -11.6      7.413     11.988
REMARK SMILES COC(=O)c1ccc(NC(=O)[C@H]2CC=CC[C@@H]2C(=O)OCCOC(=O)c2ccc(-c3c4nc(c(-c5c(F)cc(S(=O)(=O)[O-])cc5F)c5ccc([nH]5)c(-c5c(F)cc(S(=O)(=O)[O-])cc5F)c5nc(c(-c6c(F)cc(S(=O)(=O)[O-])cc6F)c6ccc3[nH]6)C=C5)C=C4)cc2)c(C)c1
REMARK SMILES IDX 21 1 20 2 18 3 19 4 17 5 12 6 13 7 14 8 16 9 15 10 10 11
REMARK SMILES IDX 9 12 11 14 8 15 5 16 6 17 94 18 7 19 92 20 93 21 3 22 4 23
REMARK SMILES IDX 2 24 1 25 22 26 23 27 24 28 25 29 26 30 27 31 91 32 28 33
REMARK SMILES IDX 90 34 29 35 30 36 31 37 84 38 32 39 89 40 83 41 85 42 33 43
REMARK SMILES IDX 88 44 82 45 81 46 34 48 68 49 47 50 67 51 48 52 51 53 66 54
REMARK SMILES IDX 86 55 49 56 50 57 65 59 87 60 52 61 35 62 36 63 45 64 37 65
REMARK SMILES IDX 38 66 44 67 46 68 39 69 40 70 41 71 42 72 43 73 69 74 70 75
REMARK SMILES IDX 79 76 71 77 72 78 78 79 80 80 73 81 74 82 75 83 76 84 77 85
REMARK SMILES IDX 53 86 54 87 63 88 55 89 56 90 62 91 64 92 57 93 58 94 59 95
REMARK SMILES IDX 60 96 61 97
REMARK H PARENT 9 13 85 47 51 58
REMARK Flexibility Score: inf
ROOT
ATOM      1  C   UNL A   1      44.391  27.814  27.951  1.00  0.00     0.274 C 
ENDROOT
BRANCH   1   2
ATOM      2  O   UNL A   1      44.573  29.182  27.582  1.00  0.00    -0.462 OA
BRANCH   2   3
ATOM      3  C   UNL A   1      43.413  29.836  27.521  1.00  0.00     0.310 C 
ATOM      4  O   UNL A   1      43.056  30.388  26.475  1.00  0.00    -0.252 OA
BRANCH   3   5
ATOM      5  C   UNL A   1      42.470  29.836  28.809  1.00  0.00     0.116 C 
ATOM      6  C   UNL A   1      40.362  29.709  29.595  1.00  0.00     0.097 C 
ATOM      7  C   UNL A   1      39.951  31.297  30.703  1.00  0.00     0.041 C 
ATOM      8  C   UNL A   1      41.303  32.285  31.323  1.00  0.00    -0.030 C 
ATOM      9  C   UNL A   1      43.487  31.248  29.739  1.00  0.00     0.043 C 
ATOM     10  C   UNL A   1      42.670  32.271  30.951  1.00  0.00    -0.030 C 
BRANCH   6  11
ATOM     11  C   UNL A   1      39.113  28.593  30.174  1.00  0.00     0.228 C 
ATOM     12  N   UNL A   1      37.727  28.810  30.025  1.00  0.00    -0.326 N 
ATOM     13  H   UNL A   1      37.254  27.990  29.755  1.00  0.00     0.169 HD
ATOM     14  O   UNL A   1      39.320  27.560  30.809  1.00  0.00    -0.274 OA
BRANCH  12  15
ATOM     15  C   UNL A   1      36.834  29.920  30.169  1.00  0.00     0.044 A 
ATOM     16  C   UNL A   1      35.261  32.289  30.417  1.00  0.00     0.060 A 
ATOM     17  C   UNL A   1      35.659  31.583  31.544  1.00  0.00     0.018 A 
ATOM     18  C   UNL A   1      35.597  31.780  29.159  1.00  0.00     0.021 A 
ATOM     19  C   UNL A   1      36.391  30.395  31.406  1.00  0.00     0.027 A 
ATOM     20  C   UNL A   1      36.331  30.576  29.022  1.00  0.00    -0.027 A 
ATOM     21  C   UNL A   1      36.517  30.033  27.632  1.00  0.00     0.046 C 
BRANCH  16  22
ATOM     22  C   UNL A   1      34.433  33.518  30.604  1.00  0.00     0.337 C 
ATOM     23  O   UNL A   1      33.899  33.817  31.662  1.00  0.00    -0.246 OA
BRANCH  22  24
ATOM     24  O   UNL A   1      34.338  34.278  29.483  1.00  0.00    -0.465 OA
ATOM     25  C   UNL A   1      33.442  35.385  29.605  1.00  0.00     0.282 C 
ENDBRANCH  22  24
ENDBRANCH  16  22
ENDBRANCH  12  15
ENDBRANCH   6  11
ENDBRANCH   3   5
ENDBRANCH   2   3
ENDBRANCH   1   2
BRANCH   1  26
ATOM     26  C   UNL A   1      43.989  26.806  26.800  1.00  0.00     0.275 C 
BRANCH  26  27
ATOM     27  O   UNL A   1      44.287  25.390  27.069  1.00  0.00    -0.458 OA
BRANCH  27  28
ATOM     28  C   UNL A   1      45.486  24.699  26.849  1.00  0.00     0.338 C 
ATOM     29  O   UNL A   1      46.004  24.554  25.757  1.00  0.00    -0.246 OA
BRANCH  28  30
ATOM     30  C   UNL A   1      46.210  24.460  28.230  1.00  0.00     0.060 A 
ATOM     31  C   UNL A   1      47.563  25.446  28.779  1.00  0.00     0.016 A 
ATOM     32  C   UNL A   1      44.945  24.076  29.185  1.00  0.00     0.016 A 
ATOM     33  C   UNL A   1      47.361  26.291  30.423  1.00  0.00     0.010 A 
ATOM     34  C   UNL A   1      44.613  24.787  30.471  1.00  0.00     0.010 A 
ATOM     35  C   UNL A   1      45.632  25.867  31.295  1.00  0.00    -0.014 A 
BRANCH  35  36
ATOM     36  C   UNL A   1      44.627  25.890  32.576  1.00  0.00     0.031 A 
ATOM     37  C   UNL A   1      43.889  27.108  32.895  1.00  0.00     0.074 A 
ATOM     38  C   UNL A   1      44.370  24.808  33.429  1.00  0.00     0.049 A 
ATOM     39  N   UNL A   1      44.148  27.881  33.897  1.00  0.00    -0.248 NA
ATOM     40  C   UNL A   1      42.902  27.624  31.951  1.00  0.00     0.031 C 
ATOM     41  C   UNL A   1      43.274  24.627  34.392  1.00  0.00     0.029 A 
ATOM     42  N   UNL A   1      45.022  23.555  33.562  1.00  0.00    -0.354 N 
ATOM     43  C   UNL A   1      43.198  28.873  33.810  1.00  0.00     0.074 A 
ATOM     44  C   UNL A   1      42.746  28.858  32.436  1.00  0.00     0.031 C 
ATOM     45  C   UNL A   1      43.456  23.502  35.124  1.00  0.00     0.029 A 
ATOM     46  C   UNL A   1      44.703  22.875  34.737  1.00  0.00     0.049 A 
ATOM     47  H   UNL A   1      45.642  23.197  32.886  1.00  0.00     0.167 HD
ATOM     48  C   UNL A   1      42.427  29.199  34.886  1.00  0.00     0.037 A 
ATOM     49  C   UNL A   1      45.689  22.387  35.549  1.00  0.00     0.037 A 
ATOM     50  C   UNL A   1      42.567  28.175  35.919  1.00  0.00     0.049 A 
ATOM     51  C   UNL A   1      45.859  23.384  36.675  1.00  0.00     0.074 A 
ATOM     52  C   UNL A   1      41.772  27.087  36.243  1.00  0.00     0.029 A 
ATOM     53  N   UNL A   1      43.792  27.958  36.532  1.00  0.00    -0.354 N 
ATOM     54  N   UNL A   1      45.313  24.570  36.648  1.00  0.00    -0.248 NA
ATOM     55  C   UNL A   1      46.539  23.120  37.939  1.00  0.00     0.031 C 
ATOM     56  C   UNL A   1      42.525  26.225  37.081  1.00  0.00     0.029 A 
ATOM     57  C   UNL A   1      43.782  26.781  37.257  1.00  0.00     0.049 A 
ATOM     58  H   UNL A   1      44.566  28.562  36.460  1.00  0.00     0.167 HD
ATOM     59  C   UNL A   1      45.470  25.191  37.849  1.00  0.00     0.074 A 
ATOM     60  C   UNL A   1      46.245  24.239  38.627  1.00  0.00     0.031 C 
ATOM     61  C   UNL A   1      44.915  26.415  38.101  1.00  0.00     0.037 A 
BRANCH  48  62
ATOM     62  C   UNL A   1      41.272  30.174  34.801  1.00  0.00     0.058 A 
ATOM     63  C   UNL A   1      41.409  31.501  35.248  1.00  0.00     0.135 A 
ATOM     64  C   UNL A   1      40.019  29.867  34.218  1.00  0.00     0.135 A 
ATOM     65  F   UNL A   1      42.568  31.959  35.739  1.00  0.00    -0.206 F 
ATOM     66  C   UNL A   1      40.370  32.430  35.187  1.00  0.00     0.059 A 
ATOM     67  C   UNL A   1      38.947  30.763  34.196  1.00  0.00     0.059 A 
ATOM     68  F   UNL A   1      39.801  28.692  33.605  1.00  0.00    -0.206 F 
ATOM     69  C   UNL A   1      39.137  32.050  34.676  1.00  0.00     0.060 A 
BRANCH  69  70
ATOM     70  S   UNL A   1      37.824  33.280  34.588  1.00  0.00     0.124 S 
ATOM     71  O   UNL A   1      38.343  34.341  35.445  1.00  0.00    -0.237 OA
ATOM     72  O   UNL A   1      37.782  33.577  33.161  1.00  0.00    -0.237 OA
ATOM     73  O   UNL A   1      36.658  32.574  35.113  1.00  0.00    -0.744 OA
ENDBRANCH  69  70
ENDBRANCH  48  62
BRANCH  49  74
ATOM     74  C   UNL A   1      46.782  21.662  34.796  1.00  0.00     0.058 A 
ATOM     75  C   UNL A   1      47.936  22.376  34.378  1.00  0.00     0.135 A 
ATOM     76  C   UNL A   1      46.981  20.325  35.102  1.00  0.00     0.135 A 
ATOM     77  F   UNL A   1      47.824  23.665  34.022  1.00  0.00    -0.206 F 
ATOM     78  C   UNL A   1      49.238  21.839  34.431  1.00  0.00     0.059 A 
ATOM     79  C   UNL A   1      48.281  19.893  35.354  1.00  0.00     0.059 A 
ATOM     80  F   UNL A   1      45.958  19.551  35.500  1.00  0.00    -0.206 F 
ATOM     81  C   UNL A   1      49.415  20.595  35.001  1.00  0.00     0.060 A 
BRANCH  81  82
ATOM     82  S   UNL A   1      51.094  20.016  35.421  1.00  0.00     0.124 S 
ATOM     83  O   UNL A   1      50.900  18.574  35.500  1.00  0.00    -0.237 OA
ATOM     84  O   UNL A   1      51.858  20.505  34.276  1.00  0.00    -0.237 OA
ATOM     85  O   UNL A   1      51.450  20.660  36.674  1.00  0.00    -0.744 OA
ENDBRANCH  81  82
ENDBRANCH  49  74
BRANCH  61  86
ATOM     86  C   UNL A   1      45.284  27.327  39.247  1.00  0.00     0.058 A 
ATOM     87  C   UNL A   1      44.899  27.102  40.575  1.00  0.00     0.135 A 
ATOM     88  C   UNL A   1      46.166  28.425  39.054  1.00  0.00     0.135 A 
ATOM     89  F   UNL A   1      44.230  26.004  40.945  1.00  0.00    -0.206 F 
ATOM     90  C   UNL A   1      45.234  27.973  41.605  1.00  0.00     0.059 A 
ATOM     91  C   UNL A   1      46.598  29.246  40.087  1.00  0.00     0.059 A 
ATOM     92  F   UNL A   1      46.665  28.745  37.852  1.00  0.00    -0.206 F 
ATOM     93  C   UNL A   1      46.083  29.043  41.352  1.00  0.00     0.060 A 
BRANCH  93  94
ATOM     94  S   UNL A   1      46.520  30.136  42.703  1.00  0.00     0.124 S 
ATOM     95  O   UNL A   1      47.755  30.730  42.202  1.00  0.00    -0.237 OA
ATOM     96  O   UNL A   1      45.367  31.028  42.763  1.00  0.00    -0.237 OA
ATOM     97  O   UNL A   1      46.668  29.234  43.841  1.00  0.00    -0.744 OA
ENDBRANCH  93  94
ENDBRANCH  61  86
ENDBRANCH  35  36
ENDBRANCH  28  30
ENDBRANCH  27  28
ENDBRANCH  26  27
ENDBRANCH   1  26
TORSDOF 18
ENDMDL
MODEL 3
REMARK VINA RESULT:     -11.5      7.202     11.602
REMARK SMILES COC(=O)c1ccc(NC(=O)[C@H]2CC=CC[C@@H]2C(=O)OCCOC(=O)c2ccc(-c3c4nc(c(-c5c(F)cc(S(=O)(=O)[O-])cc5F)c5ccc([nH]5)c(-c5c(F)cc(S(=O)(=O)[O-])cc5F)c5nc(c(-c6c(F)cc(S(=O)(=O)[O-])cc6F)c6ccc3[nH]6)C=C5)C=C4)cc2)c(C)c1
REMARK SMILES IDX 21 1 20 2 18 3 19 4 17 5 12 6 13 7 14 8 16 9 15 10 10 11
REMARK SMILES IDX 9 12 11 14 8 15 5 16 6 17 94 18 7 19 92 20 93 21 3 22 4 23
REMARK SMILES IDX 2 24 1 25 22 26 23 27 24 28 25 29 26 30 27 31 91 32 28 33
REMARK SMILES IDX 90 34 29 35 30 36 31 37 84 38 32 39 89 40 83 41 85 42 33 43
REMARK SMILES IDX 88 44 82 45 81 46 34 48 68 49 47 50 67 51 48 52 51 53 66 54
REMARK SMILES IDX 86 55 49 56 50 57 65 59 87 60 52 61 35 62 36 63 45 64 37 65
REMARK SMILES IDX 38 66 44 67 46 68 39 69 40 70 41 71 42 72 43 73 69 74 70 75
REMARK SMILES IDX 79 76 71 77 72 78 78 79 80 80 73 81 74 82 75 83 76 84 77 85
REMARK SMILES IDX 53 86 54 87 63 88 55 89 56 90 62 91 64 92 57 93 58 94 59 95
REMARK SMILES IDX 60 96 61 97
REMARK H PARENT 9 13 85 47 51 58
REMARK Flexibility Score: inf
ROOT
ATOM      1  C   UNL A   1      44.969  27.997  27.750  1.00  0.00     0.274 C 
ENDROOT
BRANCH   1   2
ATOM      2  O   UNL A   1      44.898  29.419  27.640  1.00  0.00    -0.462 OA
BRANCH   2   3
ATOM      3  C   UNL A   1      43.690  29.824  27.251  1.00  0.00     0.310 C 
ATOM      4  O   UNL A   1      43.521  30.308  26.126  1.00  0.00    -0.252 OA
BRANCH   3   5
ATOM      5  C   UNL A   1      42.457  29.613  28.243  1.00  0.00     0.116 C 
ATOM      6  C   UNL A   1      40.232  29.327  28.442  1.00  0.00     0.097 C 
ATOM      7  C   UNL A   1      39.468  30.723  29.620  1.00  0.00     0.041 C 
ATOM      8  C   UNL A   1      40.564  31.635  30.695  1.00  0.00    -0.030 C 
ATOM      9  C   UNL A   1      43.129  30.891  29.588  1.00  0.00     0.043 C 
ATOM     10  C   UNL A   1      41.979  31.705  30.684  1.00  0.00    -0.030 C 
BRANCH   6  11
ATOM     11  C   UNL A   1      38.944  28.111  28.523  1.00  0.00     0.228 C 
ATOM     12  N   UNL A   1      39.169  26.729  28.688  1.00  0.00    -0.326 N 
ATOM     13  H   UNL A   1      38.540  26.328  29.330  1.00  0.00     0.169 HD
ATOM     14  O   UNL A   1      37.743  28.337  28.387  1.00  0.00    -0.274 OA
BRANCH  12  15
ATOM     15  C   UNL A   1      40.081  25.760  28.156  1.00  0.00     0.044 A 
ATOM     16  C   UNL A   1      41.830  23.674  27.299  1.00  0.00     0.060 A 
ATOM     17  C   UNL A   1      42.327  24.782  27.972  1.00  0.00     0.018 A 
ATOM     18  C   UNL A   1      40.465  23.635  26.998  1.00  0.00     0.021 A 
ATOM     19  C   UNL A   1      41.464  25.822  28.346  1.00  0.00     0.027 A 
ATOM     20  C   UNL A   1      39.596  24.690  27.371  1.00  0.00    -0.027 A 
ATOM     21  C   UNL A   1      38.177  24.625  26.877  1.00  0.00     0.046 C 
BRANCH  16  22
ATOM     22  C   UNL A   1      42.791  22.616  26.866  1.00  0.00     0.337 C 
ATOM     23  O   UNL A   1      42.716  21.450  27.224  1.00  0.00    -0.246 OA
BRANCH  22  24
ATOM     24  O   UNL A   1      43.754  23.075  26.026  1.00  0.00    -0.465 OA
ATOM     25  C   UNL A   1      43.404  22.996  24.642  1.00  0.00     0.282 C 
ENDBRANCH  22  24
ENDBRANCH  16  22
ENDBRANCH  12  15
ENDBRANCH   6  11
ENDBRANCH   3   5
ENDBRANCH   2   3
ENDBRANCH   1   2
BRANCH   1  26
ATOM     26  C   UNL A   1      44.969  27.171  26.400  1.00  0.00     0.275 C 
BRANCH  26  27
ATOM     27  O   UNL A   1      45.291  25.741  26.535  1.00  0.00    -0.458 OA
BRANCH  27  28
ATOM     28  C   UNL A   1      46.523  25.107  26.330  1.00  0.00     0.338 C 
ATOM     29  O   UNL A   1      47.137  25.124  25.279  1.00  0.00    -0.246 OA
BRANCH  28  30
ATOM     30  C   UNL A   1      47.131  24.688  27.725  1.00  0.00     0.060 A 
ATOM     31  C   UNL A   1      48.428  25.589  28.506  1.00  0.00     0.016 A 
ATOM     32  C   UNL A   1      45.794  24.191  28.514  1.00  0.00     0.016 A 
ATOM     33  C   UNL A   1      48.084  26.216  30.223  1.00  0.00     0.010 A 
ATOM     34  C   UNL A   1      45.351  24.732  29.848  1.00  0.00     0.010 A 
ATOM     35  C   UNL A   1      46.292  25.693  30.887  1.00  0.00    -0.014 A 
BRANCH  35  36
ATOM     36  C   UNL A   1      45.183  25.555  32.072  1.00  0.00     0.031 A 
ATOM     37  C   UNL A   1      44.283  26.669  32.352  1.00  0.00     0.074 A 
ATOM     38  C   UNL A   1      44.982  24.422  32.871  1.00  0.00     0.049 A 
ATOM     39  N   UNL A   1      44.362  27.431  33.393  1.00  0.00    -0.248 NA
ATOM     40  C   UNL A   1      43.328  27.101  31.336  1.00  0.00     0.031 C 
ATOM     41  C   UNL A   1      43.836  24.082  33.727  1.00  0.00     0.029 A 
ATOM     42  N   UNL A   1      45.763  23.247  33.032  1.00  0.00    -0.354 N 
ATOM     43  C   UNL A   1      43.313  28.309  33.245  1.00  0.00     0.074 A 
ATOM     44  C   UNL A   1      42.988  28.291  31.836  1.00  0.00     0.031 C 
ATOM     45  C   UNL A   1      44.084  22.961  34.444  1.00  0.00     0.029 A 
ATOM     46  C   UNL A   1      45.425  22.495  34.155  1.00  0.00     0.049 A 
ATOM     47  H   UNL A   1      46.477  22.987  32.405  1.00  0.00     0.167 HD
ATOM     48  C   UNL A   1      42.418  28.507  34.254  1.00  0.00     0.037 A 
ATOM     49  C   UNL A   1      46.387  22.095  35.041  1.00  0.00     0.037 A 
ATOM     50  C   UNL A   1      42.588  27.471  35.270  1.00  0.00     0.049 A 
ATOM     51  C   UNL A   1      46.340  23.064  36.202  1.00  0.00     0.074 A 
ATOM     52  C   UNL A   1      41.900  26.288  35.493  1.00  0.00     0.029 A 
ATOM     53  N   UNL A   1      43.772  27.374  35.986  1.00  0.00    -0.354 N 
ATOM     54  N   UNL A   1      45.663  24.181  36.155  1.00  0.00    -0.248 NA
ATOM     55  C   UNL A   1      46.934  22.836  37.515  1.00  0.00     0.031 C 
ATOM     56  C   UNL A   1      42.673  25.489  36.375  1.00  0.00     0.029 A 
ATOM     57  C   UNL A   1      43.837  26.179  36.678  1.00  0.00     0.049 A 
ATOM     58  H   UNL A   1      44.473  28.064  35.999  1.00  0.00     0.167 HD
ATOM     59  C   UNL A   1      45.641  24.773  37.380  1.00  0.00     0.074 A 
ATOM     60  C   UNL A   1      46.452  23.890  38.201  1.00  0.00     0.031 C 
ATOM     61  C   UNL A   1      44.927  25.916  37.611  1.00  0.00     0.037 A 
BRANCH  48  62
ATOM     62  C   UNL A   1      41.170  29.346  34.089  1.00  0.00     0.058 A 
ATOM     63  C   UNL A   1      41.134  30.687  34.516  1.00  0.00     0.135 A 
ATOM     64  C   UNL A   1      39.991  28.893  33.448  1.00  0.00     0.135 A 
ATOM     65  F   UNL A   1      42.207  31.277  35.058  1.00  0.00    -0.206 F 
ATOM     66  C   UNL A   1      40.003  31.493  34.383  1.00  0.00     0.059 A 
ATOM     67  C   UNL A   1      38.830  29.663  33.352  1.00  0.00     0.059 A 
ATOM     68  F   UNL A   1      39.938  27.693  32.848  1.00  0.00    -0.206 F 
ATOM     69  C   UNL A   1      38.849  30.970  33.815  1.00  0.00     0.060 A 
BRANCH  69  70
ATOM     70  S   UNL A   1      37.415  32.044  33.634  1.00  0.00     0.124 S 
ATOM     71  O   UNL A   1      37.973  33.177  32.902  1.00  0.00    -0.237 OA
ATOM     72  O   UNL A   1      36.493  31.195  32.887  1.00  0.00    -0.237 OA
ATOM     73  O   UNL A   1      37.024  32.328  35.013  1.00  0.00    -0.744 OA
ENDBRANCH  69  70
ENDBRANCH  48  62
BRANCH  49  74
ATOM     74  C   UNL A   1      47.618  21.527  34.372  1.00  0.00     0.058 A 
ATOM     75  C   UNL A   1      48.825  22.276  34.374  1.00  0.00     0.135 A 
ATOM     76  C   UNL A   1      47.768  20.149  34.387  1.00  0.00     0.135 A 
ATOM     77  F   UNL A   1      48.772  23.616  34.318  1.00  0.00    -0.206 F 
ATOM     78  C   UNL A   1      50.095  21.694  34.558  1.00  0.00     0.059 A 
ATOM     79  C   UNL A   1      48.994  19.623  34.784  1.00  0.00     0.059 A 
ATOM     80  F   UNL A   1      46.695  19.341  34.378  1.00  0.00    -0.206 F 
ATOM     81  C   UNL A   1      50.168  20.346  34.841  1.00  0.00     0.060 A 
BRANCH  81  82
ATOM     82  S   UNL A   1      51.734  19.624  35.440  1.00  0.00     0.124 S 
ATOM     83  O   UNL A   1      51.255  18.561  36.314  1.00  0.00    -0.237 OA
ATOM     84  O   UNL A   1      52.350  19.203  34.184  1.00  0.00    -0.237 OA
ATOM     85  O   UNL A   1      52.452  20.696  36.108  1.00  0.00    -0.744 OA
ENDBRANCH  81  82
ENDBRANCH  49  74
BRANCH  61  86
ATOM     86  C   UNL A   1      45.086  26.824  38.808  1.00  0.00     0.058 A 
ATOM     87  C   UNL A   1      44.780  26.440  40.121  1.00  0.00     0.135 A 
ATOM     88  C   UNL A   1      45.683  28.107  38.679  1.00  0.00     0.135 A 
ATOM     89  F   UNL A   1      44.392  25.196  40.426  1.00  0.00    -0.206 F 
ATOM     90  C   UNL A   1      44.914  27.306  41.199  1.00  0.00     0.059 A 
ATOM     91  C   UNL A   1      45.923  28.947  39.758  1.00  0.00     0.059 A 
ATOM     92  F   UNL A   1      46.079  28.602  37.499  1.00  0.00    -0.206 F 
ATOM     93  C   UNL A   1      45.485  28.558  41.009  1.00  0.00     0.060 A 
BRANCH  93  94
ATOM     94  S   UNL A   1      45.671  29.646  42.421  1.00  0.00     0.124 S 
ATOM     95  O   UNL A   1      46.665  28.925  43.209  1.00  0.00    -0.237 OA
ATOM     96  O   UNL A   1      46.132  30.882  41.798  1.00  0.00    -0.237 OA
ATOM     97  O   UNL A   1      44.329  29.700  42.992  1.00  0.00    -0.744 OA
ENDBRANCH  93  94
ENDBRANCH  61  86
ENDBRANCH  35  36
ENDBRANCH  28  30
ENDBRANCH  27  28
ENDBRANCH  26  27
ENDBRANCH   1  26
TORSDOF 18
ENDMDL
