MODEL 1
REMARK VINA RESULT:     -10.6      0.000      0.000
REMARK SMILES CSCc1ccc(C(=O)N[C@H]2C=C[C@@H](C(=O)OCCOC(=O)c3ccc(-c4c5nc(c(-c6c(F)cc(S(=O)(=O)[O-])cc6F)c6ccc([nH]6)c(-c6c(F)cc(S(=O)(=O)[O-])cc6F)c6nc(c(-c7c(F)cc(S(=O)(=O)[O-])cc7F)c7ccc4[nH]7)C=C6)C=C5)cc3)C2)o1
REMARK SMILES IDX 18 1 17 2 15 3 16 4 14 5 11 6 12 7 89 8 13 9 10 10 8 11 9 12
REMARK SMILES IDX 7 14 4 15 5 16 90 17 6 18 3 19 2 20 1 21 19 22 20 23 21 24
REMARK SMILES IDX 22 25 23 26 24 27 88 28 25 29 87 30 26 31 27 32 28 33 81 34
REMARK SMILES IDX 29 35 86 36 80 37 82 38 30 39 85 40 79 41 78 42 31 44 65 45
REMARK SMILES IDX 44 46 64 47 45 48 48 49 63 50 83 51 46 52 47 53 62 55 84 56
REMARK SMILES IDX 49 57 32 58 33 59 42 60 34 61 35 62 41 63 43 64 36 65 37 66
REMARK SMILES IDX 38 67 39 68 40 69 66 70 67 71 76 72 68 73 69 74 75 75 77 76
REMARK SMILES IDX 70 77 71 78 72 79 73 80 74 81 50 82 51 83 60 84 52 85 53 86
REMARK SMILES IDX 59 87 61 88 54 89 55 90 56 91 57 92 58 93
REMARK H PARENT 10 13 82 43 48 54
REMARK Flexibility Score: inf
ROOT
ATOM      1  C   UNL A   1      40.276  21.590  26.730  1.00  0.00     0.274 C 
ENDROOT
BRANCH   1   2
ATOM      2  O   UNL A   1      39.272  21.424  25.715  1.00  0.00    -0.462 OA
BRANCH   2   3
ATOM      3  C   UNL A   1      38.304  22.371  25.684  1.00  0.00     0.312 C 
ATOM      4  O   UNL A   1      38.337  23.424  26.313  1.00  0.00    -0.252 OA
BRANCH   3   5
ATOM      5  C   UNL A   1      37.146  22.013  24.776  1.00  0.00     0.124 C 
ATOM      6  C   UNL A   1      34.792  21.705  24.443  1.00  0.00     0.106 C 
ATOM      7  C   UNL A   1      35.215  23.086  24.044  1.00  0.00    -0.006 C 
ATOM      8  C   UNL A   1      35.932  21.298  25.380  1.00  0.00     0.048 C 
ATOM      9  C   UNL A   1      36.531  23.251  24.200  1.00  0.00    -0.014 C 
BRANCH   6  10
ATOM     10  N   UNL A   1      33.485  21.711  25.044  1.00  0.00    -0.343 N 
ATOM     11  C   UNL A   1      32.458  20.803  24.868  1.00  0.00     0.287 C 
ATOM     12  O   UNL A   1      31.411  21.020  25.480  1.00  0.00    -0.266 OA
ATOM     13  H   UNL A   1      33.299  22.458  25.658  1.00  0.00     0.164 HD
BRANCH  11  14
ATOM     14  C   UNL A   1      32.628  19.703  23.933  1.00  0.00     0.191 A 
ATOM     15  C   UNL A   1      33.300  17.671  23.377  1.00  0.00     0.114 A 
ATOM     16  C   UNL A   1      32.469  18.096  22.367  1.00  0.00     0.047 A 
ATOM     17  O   UNL A   1      33.395  18.636  24.337  1.00  0.00    -0.455 OA
ATOM     18  C   UNL A   1      32.133  19.431  22.668  1.00  0.00     0.056 A 
BRANCH  15  19
ATOM     19  C   UNL A   1      34.047  16.411  23.605  1.00  0.00     0.144 C 
BRANCH  19  20
ATOM     20  S   UNL A   1      34.062  15.901  25.359  1.00  0.00    -0.157 SA
ATOM     21  C   UNL A   1      32.325  15.436  25.582  1.00  0.00     0.085 C 
ENDBRANCH  19  20
ENDBRANCH  15  19
ENDBRANCH  11  14
ENDBRANCH   6  10
ENDBRANCH   3   5
ENDBRANCH   2   3
ENDBRANCH   1   2
BRANCH   1  22
ATOM     22  C   UNL A   1      41.483  22.352  26.177  1.00  0.00     0.275 C 
BRANCH  22  23
ATOM     23  O   UNL A   1      41.885  23.441  27.032  1.00  0.00    -0.458 OA
BRANCH  23  24
ATOM     24  C   UNL A   1      41.740  24.681  26.505  1.00  0.00     0.338 C 
ATOM     25  O   UNL A   1      41.554  24.967  25.334  1.00  0.00    -0.246 OA
BRANCH  24  26
ATOM     26  C   UNL A   1      41.692  25.679  27.584  1.00  0.00     0.060 A 
ATOM     27  C   UNL A   1      40.659  25.586  28.520  1.00  0.00     0.016 A 
ATOM     28  C   UNL A   1      42.603  26.733  27.642  1.00  0.00     0.016 A 
ATOM     29  C   UNL A   1      40.527  26.542  29.519  1.00  0.00     0.010 A 
ATOM     30  C   UNL A   1      42.479  27.687  28.658  1.00  0.00     0.010 A 
ATOM     31  C   UNL A   1      41.441  27.596  29.603  1.00  0.00    -0.014 A 
BRANCH  31  32
ATOM     32  C   UNL A   1      41.317  28.593  30.693  1.00  0.00     0.031 A 
ATOM     33  C   UNL A   1      42.223  28.521  31.887  1.00  0.00     0.074 A 
ATOM     34  C   UNL A   1      40.387  29.562  30.597  1.00  0.00     0.049 A 
ATOM     35  N   UNL A   1      42.180  29.213  32.995  1.00  0.00    -0.248 NA
ATOM     36  C   UNL A   1      43.320  27.542  31.827  1.00  0.00     0.031 C 
ATOM     37  C   UNL A   1      39.487  29.758  29.458  1.00  0.00     0.029 A 
ATOM     38  N   UNL A   1      40.037  30.558  31.473  1.00  0.00    -0.354 N 
ATOM     39  C   UNL A   1      43.224  28.737  33.779  1.00  0.00     0.074 A 
ATOM     40  C   UNL A   1      43.880  27.694  33.020  1.00  0.00     0.031 C 
ATOM     41  C   UNL A   1      38.685  30.806  29.708  1.00  0.00     0.029 A 
ATOM     42  C   UNL A   1      38.972  31.314  31.045  1.00  0.00     0.049 A 
ATOM     43  H   UNL A   1      40.504  30.717  32.326  1.00  0.00     0.167 HD
ATOM     44  C   UNL A   1      43.591  29.136  35.019  1.00  0.00     0.037 A 
ATOM     45  C   UNL A   1      38.273  32.276  31.678  1.00  0.00     0.037 A 
ATOM     46  C   UNL A   1      42.940  30.190  35.753  1.00  0.00     0.049 A 
ATOM     47  C   UNL A   1      38.658  32.654  33.081  1.00  0.00     0.074 A 
ATOM     48  C   UNL A   1      43.252  30.686  37.007  1.00  0.00     0.029 A 
ATOM     49  N   UNL A   1      41.841  30.906  35.302  1.00  0.00    -0.354 N 
ATOM     50  N   UNL A   1      39.639  32.188  33.816  1.00  0.00    -0.248 NA
ATOM     51  C   UNL A   1      37.834  33.670  33.746  1.00  0.00     0.031 C 
ATOM     52  C   UNL A   1      42.315  31.675  37.331  1.00  0.00     0.029 A 
ATOM     53  C   UNL A   1      41.444  31.822  36.263  1.00  0.00     0.049 A 
ATOM     54  H   UNL A   1      41.406  30.782  34.428  1.00  0.00     0.167 HD
ATOM     55  C   UNL A   1      39.554  32.858  35.031  1.00  0.00     0.074 A 
ATOM     56  C   UNL A   1      38.437  33.775  34.924  1.00  0.00     0.031 C 
ATOM     57  C   UNL A   1      40.326  32.723  36.136  1.00  0.00     0.037 A 
BRANCH  44  58
ATOM     58  C   UNL A   1      44.730  28.410  35.677  1.00  0.00     0.058 A 
ATOM     59  C   UNL A   1      44.525  27.264  36.461  1.00  0.00     0.135 A 
ATOM     60  C   UNL A   1      46.051  28.847  35.487  1.00  0.00     0.135 A 
ATOM     61  F   UNL A   1      43.281  26.814  36.688  1.00  0.00    -0.206 F 
ATOM     62  C   UNL A   1      45.589  26.588  37.051  1.00  0.00     0.059 A 
ATOM     63  C   UNL A   1      47.132  28.175  36.050  1.00  0.00     0.059 A 
ATOM     64  F   UNL A   1      46.302  29.940  34.749  1.00  0.00    -0.206 F 
ATOM     65  C   UNL A   1      46.890  27.053  36.840  1.00  0.00     0.060 A 
BRANCH  65  66
ATOM     66  S   UNL A   1      48.261  26.164  37.609  1.00  0.00     0.124 S 
ATOM     67  O   UNL A   1      47.577  24.997  38.159  1.00  0.00    -0.237 OA
ATOM     68  O   UNL A   1      49.142  25.905  36.474  1.00  0.00    -0.237 OA
ATOM     69  O   UNL A   1      48.773  27.113  38.592  1.00  0.00    -0.744 OA
ENDBRANCH  65  66
ENDBRANCH  44  58
BRANCH  45  70
ATOM     70  C   UNL A   1      37.107  32.906  31.006  1.00  0.00     0.058 A 
ATOM     71  C   UNL A   1      37.271  33.991  30.133  1.00  0.00     0.135 A 
ATOM     72  C   UNL A   1      35.805  32.420  31.207  1.00  0.00     0.135 A 
ATOM     73  F   UNL A   1      38.495  34.497  29.915  1.00  0.00    -0.206 F 
ATOM     74  C   UNL A   1      36.187  34.577  29.488  1.00  0.00     0.059 A 
ATOM     75  C   UNL A   1      34.708  32.973  30.556  1.00  0.00     0.059 A 
ATOM     76  F   UNL A   1      35.596  31.376  32.025  1.00  0.00    -0.206 F 
ATOM     77  C   UNL A   1      34.908  34.058  29.704  1.00  0.00     0.060 A 
BRANCH  77  78
ATOM     78  S   UNL A   1      33.513  34.786  28.819  1.00  0.00     0.124 S 
ATOM     79  O   UNL A   1      33.173  33.722  27.882  1.00  0.00    -0.237 OA
ATOM     80  O   UNL A   1      32.554  35.023  29.894  1.00  0.00    -0.237 OA
ATOM     81  O   UNL A   1      34.086  35.992  28.227  1.00  0.00    -0.744 OA
ENDBRANCH  77  78
ENDBRANCH  45  70
BRANCH  57  82
ATOM     82  C   UNL A   1      39.995  33.591  37.316  1.00  0.00     0.058 A 
ATOM     83  C   UNL A   1      40.629  34.827  37.513  1.00  0.00     0.135 A 
ATOM     84  C   UNL A   1      38.993  33.211  38.223  1.00  0.00     0.135 A 
ATOM     85  F   UNL A   1      41.600  35.229  36.678  1.00  0.00    -0.206 F 
ATOM     86  C   UNL A   1      40.287  35.655  38.577  1.00  0.00     0.059 A 
ATOM     87  C   UNL A   1      38.621  34.032  39.282  1.00  0.00     0.059 A 
ATOM     88  F   UNL A   1      38.354  32.041  38.073  1.00  0.00    -0.206 F 
ATOM     89  C   UNL A   1      39.280  35.250  39.454  1.00  0.00     0.060 A 
BRANCH  89  90
ATOM     90  S   UNL A   1      38.809  36.355  40.802  1.00  0.00     0.124 S 
ATOM     91  O   UNL A   1      37.791  35.565  41.487  1.00  0.00    -0.237 OA
ATOM     92  O   UNL A   1      40.067  36.528  41.520  1.00  0.00    -0.237 OA
ATOM     93  O   UNL A   1      38.320  37.544  40.111  1.00  0.00    -0.744 OA
ENDBRANCH  89  90
ENDBRANCH  57  82
ENDBRANCH  31  32
ENDBRANCH  24  26
ENDBRANCH  23  24
ENDBRANCH  22  23
ENDBRANCH   1  22
TORSDOF 18
ENDMDL
MODEL 2
REMARK VINA RESULT:     -10.6      0.806      8.360
REMARK SMILES CSCc1ccc(C(=O)N[C@H]2C=C[C@@H](C(=O)OCCOC(=O)c3ccc(-c4c5nc(c(-c6c(F)cc(S(=O)(=O)[O-])cc6F)c6ccc([nH]6)c(-c6c(F)cc(S(=O)(=O)[O-])cc6F)c6nc(c(-c7c(F)cc(S(=O)(=O)[O-])cc7F)c7ccc4[nH]7)C=C6)C=C5)cc3)C2)o1
REMARK SMILES IDX 18 1 17 2 15 3 16 4 14 5 11 6 12 7 89 8 13 9 10 10 8 11 9 12
REMARK SMILES IDX 7 14 4 15 5 16 90 17 6 18 3 19 2 20 1 21 19 22 20 23 21 24
REMARK SMILES IDX 22 25 23 26 24 27 88 28 25 29 87 30 26 31 27 32 28 33 81 34
REMARK SMILES IDX 29 35 86 36 80 37 82 38 30 39 85 40 79 41 78 42 31 44 65 45
REMARK SMILES IDX 44 46 64 47 45 48 48 49 63 50 83 51 46 52 47 53 62 55 84 56
REMARK SMILES IDX 49 57 32 58 33 59 42 60 34 61 35 62 41 63 43 64 36 65 37 66
REMARK SMILES IDX 38 67 39 68 40 69 66 70 67 71 76 72 68 73 69 74 75 75 77 76
REMARK SMILES IDX 70 77 71 78 72 79 73 80 74 81 50 82 51 83 60 84 52 85 53 86
REMARK SMILES IDX 59 87 61 88 54 89 55 90 56 91 57 92 58 93
REMARK H PARENT 10 13 82 43 48 54
REMARK Flexibility Score: inf
ROOT
ATOM      1  C   UNL A   1      40.442  21.925  26.744  1.00  0.00     0.274 C 
ENDROOT
BRANCH   1   2
ATOM      2  O   UNL A   1      39.417  21.659  25.772  1.00  0.00    -0.462 OA
BRANCH   2   3
ATOM      3  C   UNL A   1      38.351  22.495  25.799  1.00  0.00     0.312 C 
ATOM      4  O   UNL A   1      38.288  23.526  26.462  1.00  0.00    -0.252 OA
BRANCH   3   5
ATOM      5  C   UNL A   1      37.213  22.041  24.909  1.00  0.00     0.124 C 
ATOM      6  C   UNL A   1      34.866  21.698  24.559  1.00  0.00     0.106 C 
ATOM      7  C   UNL A   1      35.301  23.028  24.021  1.00  0.00    -0.006 C 
ATOM      8  C   UNL A   1      35.984  21.395  25.559  1.00  0.00     0.048 C 
ATOM      9  C   UNL A   1      36.614  23.208  24.188  1.00  0.00    -0.014 C 
BRANCH   6  10
ATOM     10  N   UNL A   1      33.546  21.768  25.125  1.00  0.00    -0.343 N 
ATOM     11  C   UNL A   1      32.470  20.933  24.896  1.00  0.00     0.287 C 
ATOM     12  O   UNL A   1      31.422  21.197  25.488  1.00  0.00    -0.266 OA
ATOM     13  H   UNL A   1      33.390  22.508  25.757  1.00  0.00     0.164 HD
BRANCH  11  14
ATOM     14  C   UNL A   1      32.597  19.851  23.933  1.00  0.00     0.191 A 
ATOM     15  C   UNL A   1      33.062  17.768  23.354  1.00  0.00     0.114 A 
ATOM     16  C   UNL A   1      32.402  18.330  22.286  1.00  0.00     0.047 A 
ATOM     17  O   UNL A   1      33.176  18.680  24.362  1.00  0.00    -0.455 OA
ATOM     18  C   UNL A   1      32.208  19.687  22.613  1.00  0.00     0.056 A 
BRANCH  15  19
ATOM     19  C   UNL A   1      33.616  16.415  23.597  1.00  0.00     0.144 C 
BRANCH  19  20
ATOM     20  S   UNL A   1      33.857  16.054  25.372  1.00  0.00    -0.157 SA
ATOM     21  C   UNL A   1      32.579  14.794  25.628  1.00  0.00     0.085 C 
ENDBRANCH  19  20
ENDBRANCH  15  19
ENDBRANCH  11  14
ENDBRANCH   6  10
ENDBRANCH   3   5
ENDBRANCH   2   3
ENDBRANCH   1   2
BRANCH   1  22
ATOM     22  C   UNL A   1      41.564  22.767  26.131  1.00  0.00     0.275 C 
BRANCH  22  23
ATOM     23  O   UNL A   1      41.979  23.845  26.995  1.00  0.00    -0.458 OA
BRANCH  23  24
ATOM     24  C   UNL A   1      41.727  25.093  26.534  1.00  0.00     0.338 C 
ATOM     25  O   UNL A   1      41.646  25.447  25.370  1.00  0.00    -0.246 OA
BRANCH  24  26
ATOM     26  C   UNL A   1      41.410  25.986  27.659  1.00  0.00     0.060 A 
ATOM     27  C   UNL A   1      42.341  26.971  27.998  1.00  0.00     0.016 A 
ATOM     28  C   UNL A   1      40.251  25.820  28.416  1.00  0.00     0.016 A 
ATOM     29  C   UNL A   1      42.124  27.796  29.095  1.00  0.00     0.010 A 
ATOM     30  C   UNL A   1      40.025  26.661  29.511  1.00  0.00     0.010 A 
ATOM     31  C   UNL A   1      40.959  27.655  29.855  1.00  0.00    -0.014 A 
BRANCH  31  32
ATOM     32  C   UNL A   1      40.716  28.562  31.002  1.00  0.00     0.031 A 
ATOM     33  C   UNL A   1      39.658  29.622  30.913  1.00  0.00     0.074 A 
ATOM     34  C   UNL A   1      41.450  28.420  32.123  1.00  0.00     0.049 A 
ATOM     35  N   UNL A   1      39.390  30.589  31.750  1.00  0.00    -0.248 NA
ATOM     36  C   UNL A   1      38.790  29.592  29.725  1.00  0.00     0.031 C 
ATOM     37  C   UNL A   1      42.469  27.391  32.338  1.00  0.00     0.029 A 
ATOM     38  N   UNL A   1      41.459  29.147  33.285  1.00  0.00    -0.354 N 
ATOM     39  C   UNL A   1      38.341  31.302  31.182  1.00  0.00     0.074 A 
ATOM     40  C   UNL A   1      38.025  30.657  29.925  1.00  0.00     0.031 C 
ATOM     41  C   UNL A   1      43.008  27.556  33.557  1.00  0.00     0.029 A 
ATOM     42  C   UNL A   1      42.418  28.736  34.180  1.00  0.00     0.049 A 
ATOM     43  H   UNL A   1      40.839  29.892  33.463  1.00  0.00     0.167 HD
ATOM     44  C   UNL A   1      37.709  32.396  31.668  1.00  0.00     0.037 A 
ATOM     45  C   UNL A   1      42.811  29.277  35.349  1.00  0.00     0.037 A 
ATOM     46  C   UNL A   1      38.023  33.014  32.931  1.00  0.00     0.049 A 
ATOM     47  C   UNL A   1      42.140  30.531  35.835  1.00  0.00     0.074 A 
ATOM     48  C   UNL A   1      37.425  34.111  33.524  1.00  0.00     0.029 A 
ATOM     49  N   UNL A   1      39.026  32.591  33.791  1.00  0.00    -0.354 N 
ATOM     50  N   UNL A   1      41.158  31.203  35.282  1.00  0.00    -0.248 NA
ATOM     51  C   UNL A   1      42.639  31.111  37.087  1.00  0.00     0.031 C 
ATOM     52  C   UNL A   1      38.093  34.376  34.726  1.00  0.00     0.029 A 
ATOM     53  C   UNL A   1      39.082  33.421  34.898  1.00  0.00     0.049 A 
ATOM     54  H   UNL A   1      39.613  31.816  33.637  1.00  0.00     0.167 HD
ATOM     55  C   UNL A   1      40.918  32.283  36.123  1.00  0.00     0.074 A 
ATOM     56  C   UNL A   1      41.845  32.165  37.231  1.00  0.00     0.031 C 
ATOM     57  C   UNL A   1      40.016  33.286  35.988  1.00  0.00     0.037 A 
BRANCH  44  58
ATOM     58  C   UNL A   1      36.636  33.017  30.819  1.00  0.00     0.058 A 
ATOM     59  C   UNL A   1      36.938  33.888  29.762  1.00  0.00     0.135 A 
ATOM     60  C   UNL A   1      35.286  32.704  31.046  1.00  0.00     0.135 A 
ATOM     61  F   UNL A   1      38.211  34.233  29.513  1.00  0.00    -0.206 F 
ATOM     62  C   UNL A   1      35.937  34.443  28.970  1.00  0.00     0.059 A 
ATOM     63  C   UNL A   1      34.270  33.230  30.254  1.00  0.00     0.059 A 
ATOM     64  F   UNL A   1      34.943  31.879  32.048  1.00  0.00    -0.206 F 
ATOM     65  C   UNL A   1      34.605  34.109  29.225  1.00  0.00     0.060 A 
BRANCH  65  66
ATOM     66  S   UNL A   1      33.317  34.834  28.188  1.00  0.00     0.124 S 
ATOM     67  O   UNL A   1      32.581  33.646  27.767  1.00  0.00    -0.237 OA
ATOM     68  O   UNL A   1      32.620  35.713  29.122  1.00  0.00    -0.237 OA
ATOM     69  O   UNL A   1      34.069  35.512  27.137  1.00  0.00    -0.744 OA
ENDBRANCH  65  66
ENDBRANCH  44  58
BRANCH  45  70
ATOM     70  C   UNL A   1      43.931  28.662  36.109  1.00  0.00     0.058 A 
ATOM     71  C   UNL A   1      45.244  29.134  35.975  1.00  0.00     0.135 A 
ATOM     72  C   UNL A   1      43.704  27.603  37.003  1.00  0.00     0.135 A 
ATOM     73  F   UNL A   1      45.512  30.139  35.127  1.00  0.00    -0.206 F 
ATOM     74  C   UNL A   1      46.295  28.575  36.694  1.00  0.00     0.059 A 
ATOM     75  C   UNL A   1      44.734  27.044  37.751  1.00  0.00     0.059 A 
ATOM     76  F   UNL A   1      42.463  27.122  37.175  1.00  0.00    -0.206 F 
ATOM     77  C   UNL A   1      46.029  27.531  37.583  1.00  0.00     0.060 A 
BRANCH  77  78
ATOM     78  S   UNL A   1      47.389  26.848  38.556  1.00  0.00     0.124 S 
ATOM     79  O   UNL A   1      47.878  28.034  39.248  1.00  0.00    -0.237 OA
ATOM     80  O   UNL A   1      46.710  25.858  39.385  1.00  0.00    -0.237 OA
ATOM     81  O   UNL A   1      48.281  26.295  37.539  1.00  0.00    -0.744 OA
ENDBRANCH  77  78
ENDBRANCH  45  70
BRANCH  57  82
ATOM     82  C   UNL A   1      39.982  34.330  37.067  1.00  0.00     0.058 A 
ATOM     83  C   UNL A   1      40.765  35.491  36.984  1.00  0.00     0.135 A 
ATOM     84  C   UNL A   1      39.114  34.195  38.162  1.00  0.00     0.135 A 
ATOM     85  F   UNL A   1      41.618  35.659  35.961  1.00  0.00    -0.206 F 
ATOM     86  C   UNL A   1      40.697  36.482  37.958  1.00  0.00     0.059 A 
ATOM     87  C   UNL A   1      39.014  35.183  39.136  1.00  0.00     0.059 A 
ATOM     88  F   UNL A   1      38.340  33.106  38.282  1.00  0.00    -0.206 F 
ATOM     89  C   UNL A   1      39.815  36.320  39.028  1.00  0.00     0.060 A 
BRANCH  89  90
ATOM     90  S   UNL A   1      39.697  37.636  40.259  1.00  0.00     0.124 S 
ATOM     91  O   UNL A   1      41.067  38.140  40.281  1.00  0.00    -0.237 OA
ATOM     92  O   UNL A   1      38.703  38.527  39.673  1.00  0.00    -0.237 OA
ATOM     93  O   UNL A   1      39.268  36.934  41.465  1.00  0.00    -0.744 OA
ENDBRANCH  89  90
ENDBRANCH  57  82
ENDBRANCH  31  32
ENDBRANCH  24  26
ENDBRANCH  23  24
ENDBRANCH  22  23
ENDBRANCH   1  22
TORSDOF 18
ENDMDL
MODEL 3
REMARK VINA RESULT:     -10.6      7.181     12.440
REMARK SMILES CSCc1ccc(C(=O)N[C@H]2C=C[C@@H](C(=O)OCCOC(=O)c3ccc(-c4c5nc(c(-c6c(F)cc(S(=O)(=O)[O-])cc6F)c6ccc([nH]6)c(-c6c(F)cc(S(=O)(=O)[O-])cc6F)c6nc(c(-c7c(F)cc(S(=O)(=O)[O-])cc7F)c7ccc4[nH]7)C=C6)C=C5)cc3)C2)o1
REMARK SMILES IDX 18 1 17 2 15 3 16 4 14 5 11 6 12 7 89 8 13 9 10 10 8 11 9 12
REMARK SMILES IDX 7 14 4 15 5 16 90 17 6 18 3 19 2 20 1 21 19 22 20 23 21 24
REMARK SMILES IDX 22 25 23 26 24 27 88 28 25 29 87 30 26 31 27 32 28 33 81 34
REMARK SMILES IDX 29 35 86 36 80 37 82 38 30 39 85 40 79 41 78 42 31 44 65 45
REMARK SMILES IDX 44 46 64 47 45 48 48 49 63 50 83 51 46 52 47 53 62 55 84 56
REMARK SMILES IDX 49 57 32 58 33 59 42 60 34 61 35 62 41 63 43 64 36 65 37 66
REMARK SMILES IDX 38 67 39 68 40 69 66 70 67 71 76 72 68 73 69 74 75 75 77 76
REMARK SMILES IDX 70 77 71 78 72 79 73 80 74 81 50 82 51 83 60 84 52 85 53 86
REMARK SMILES IDX 59 87 61 88 54 89 55 90 56 91 57 92 58 93
REMARK H PARENT 10 13 82 43 48 54
REMARK Flexibility Score: inf
ROOT
ATOM      1  C   UNL A   1      34.229  32.040  28.424  1.00  0.00     0.274 C 
ENDROOT
BRANCH   1   2
ATOM      2  O   UNL A   1      34.921  31.243  27.447  1.00  0.00    -0.462 OA
BRANCH   2   3
ATOM      3  C   UNL A   1      34.479  29.970  27.308  1.00  0.00     0.312 C 
ATOM      4  O   UNL A   1      34.987  28.992  27.847  1.00  0.00    -0.252 OA
BRANCH   3   5
ATOM      5  C   UNL A   1      33.265  29.853  26.411  1.00  0.00     0.124 C 
ATOM      6  C   UNL A   1      32.117  28.767  24.608  1.00  0.00     0.106 C 
ATOM      7  C   UNL A   1      31.707  28.193  25.930  1.00  0.00    -0.006 C 
ATOM      8  C   UNL A   1      33.464  29.403  24.959  1.00  0.00     0.048 C 
ATOM      9  C   UNL A   1      32.322  28.817  26.938  1.00  0.00    -0.014 C 
BRANCH   6  10
ATOM     10  N   UNL A   1      32.171  27.752  23.591  1.00  0.00    -0.343 N 
ATOM     11  C   UNL A   1      31.179  27.372  22.707  1.00  0.00     0.287 C 
ATOM     12  O   UNL A   1      31.449  26.460  21.924  1.00  0.00    -0.266 OA
ATOM     13  H   UNL A   1      33.025  27.267  23.515  1.00  0.00     0.164 HD
BRANCH  11  14
ATOM     14  C   UNL A   1      29.869  27.997  22.790  1.00  0.00     0.191 A 
ATOM     15  C   UNL A   1      28.331  29.450  22.146  1.00  0.00     0.114 A 
ATOM     16  C   UNL A   1      27.693  28.543  22.961  1.00  0.00     0.047 A 
ATOM     17  O   UNL A   1      29.650  29.121  22.029  1.00  0.00    -0.455 OA
ATOM     18  C   UNL A   1      28.696  27.688  23.459  1.00  0.00     0.056 A 
BRANCH  15  19
ATOM     19  C   UNL A   1      27.859  30.638  21.397  1.00  0.00     0.144 C 
BRANCH  19  20
ATOM     20  S   UNL A   1      28.796  32.153  21.805  1.00  0.00    -0.157 SA
ATOM     21  C   UNL A   1      28.760  32.086  23.616  1.00  0.00     0.085 C 
ENDBRANCH  19  20
ENDBRANCH  15  19
ENDBRANCH  11  14
ENDBRANCH   6  10
ENDBRANCH   3   5
ENDBRANCH   2   3
ENDBRANCH   1   2
BRANCH   1  22
ATOM     22  C   UNL A   1      34.917  31.943  29.788  1.00  0.00     0.275 C 
BRANCH  22  23
ATOM     23  O   UNL A   1      36.338  31.729  29.674  1.00  0.00    -0.458 OA
BRANCH  23  24
ATOM     24  C   UNL A   1      36.832  30.690  30.389  1.00  0.00     0.338 C 
ATOM     25  O   UNL A   1      36.240  30.016  31.216  1.00  0.00    -0.246 OA
BRANCH  24  26
ATOM     26  C   UNL A   1      38.192  30.368  29.928  1.00  0.00     0.060 A 
ATOM     27  C   UNL A   1      38.395  30.188  28.558  1.00  0.00     0.016 A 
ATOM     28  C   UNL A   1      39.239  30.176  30.828  1.00  0.00     0.016 A 
ATOM     29  C   UNL A   1      39.643  29.816  28.075  1.00  0.00     0.010 A 
ATOM     30  C   UNL A   1      40.501  29.817  30.341  1.00  0.00     0.010 A 
ATOM     31  C   UNL A   1      40.710  29.636  28.961  1.00  0.00    -0.014 A 
BRANCH  31  32
ATOM     32  C   UNL A   1      42.048  29.274  28.437  1.00  0.00     0.031 A 
ATOM     33  C   UNL A   1      42.334  27.865  28.008  1.00  0.00     0.074 A 
ATOM     34  C   UNL A   1      43.000  30.223  28.348  1.00  0.00     0.049 A 
ATOM     35  N   UNL A   1      43.470  27.327  27.653  1.00  0.00    -0.248 NA
ATOM     36  C   UNL A   1      41.190  26.939  27.975  1.00  0.00     0.031 C 
ATOM     37  C   UNL A   1      42.818  31.635  28.689  1.00  0.00     0.029 A 
ATOM     38  N   UNL A   1      44.311  30.141  27.953  1.00  0.00    -0.354 N 
ATOM     39  C   UNL A   1      43.190  25.994  27.381  1.00  0.00     0.074 A 
ATOM     40  C   UNL A   1      41.774  25.804  27.615  1.00  0.00     0.031 C 
ATOM     41  C   UNL A   1      43.976  32.286  28.493  1.00  0.00     0.029 A 
ATOM     42  C   UNL A   1      44.994  31.328  28.075  1.00  0.00     0.049 A 
ATOM     43  H   UNL A   1      44.724  29.314  27.615  1.00  0.00     0.167 HD
ATOM     44  C   UNL A   1      44.042  25.022  26.977  1.00  0.00     0.037 A 
ATOM     45  C   UNL A   1      46.302  31.604  27.914  1.00  0.00     0.037 A 
ATOM     46  C   UNL A   1      45.445  25.233  26.728  1.00  0.00     0.049 A 
ATOM     47  C   UNL A   1      47.240  30.494  27.532  1.00  0.00     0.074 A 
ATOM     48  C   UNL A   1      46.388  24.319  26.293  1.00  0.00     0.029 A 
ATOM     49  N   UNL A   1      46.107  26.440  26.899  1.00  0.00    -0.354 N 
ATOM     50  N   UNL A   1      46.965  29.234  27.289  1.00  0.00    -0.248 NA
ATOM     51  C   UNL A   1      48.664  30.834  27.420  1.00  0.00     0.031 C 
ATOM     52  C   UNL A   1      47.629  24.964  26.239  1.00  0.00     0.029 A 
ATOM     53  C   UNL A   1      47.451  26.290  26.604  1.00  0.00     0.049 A 
ATOM     54  H   UNL A   1      45.683  27.280  27.188  1.00  0.00     0.167 HD
ATOM     55  C   UNL A   1      48.181  28.631  26.991  1.00  0.00     0.074 A 
ATOM     56  C   UNL A   1      49.190  29.668  27.065  1.00  0.00     0.031 C 
ATOM     57  C   UNL A   1      48.440  27.336  26.688  1.00  0.00     0.037 A 
BRANCH  44  58
ATOM     58  C   UNL A   1      43.490  23.635  26.809  1.00  0.00     0.058 A 
ATOM     59  C   UNL A   1      43.257  23.078  25.544  1.00  0.00     0.135 A 
ATOM     60  C   UNL A   1      43.228  22.838  27.936  1.00  0.00     0.135 A 
ATOM     61  F   UNL A   1      43.474  23.802  24.435  1.00  0.00    -0.206 F 
ATOM     62  C   UNL A   1      42.762  21.784  25.399  1.00  0.00     0.059 A 
ATOM     63  C   UNL A   1      42.754  21.535  27.816  1.00  0.00     0.059 A 
ATOM     64  F   UNL A   1      43.431  23.325  29.170  1.00  0.00    -0.206 F 
ATOM     65  C   UNL A   1      42.513  21.021  26.543  1.00  0.00     0.060 A 
BRANCH  65  66
ATOM     66  S   UNL A   1      41.876  19.344  26.341  1.00  0.00     0.124 S 
ATOM     67  O   UNL A   1      42.489  18.951  25.076  1.00  0.00    -0.237 OA
ATOM     68  O   UNL A   1      42.389  18.669  27.530  1.00  0.00    -0.237 OA
ATOM     69  O   UNL A   1      40.429  19.532  26.305  1.00  0.00    -0.744 OA
ENDBRANCH  65  66
ENDBRANCH  44  58
BRANCH  45  70
ATOM     70  C   UNL A   1      46.805  32.980  28.169  1.00  0.00     0.058 A 
ATOM     71  C   UNL A   1      46.794  33.954  27.161  1.00  0.00     0.135 A 
ATOM     72  C   UNL A   1      47.286  33.352  29.435  1.00  0.00     0.135 A 
ATOM     73  F   UNL A   1      46.351  33.644  25.933  1.00  0.00    -0.206 F 
ATOM     74  C   UNL A   1      47.248  35.248  27.395  1.00  0.00     0.059 A 
ATOM     75  C   UNL A   1      47.723  34.645  29.700  1.00  0.00     0.059 A 
ATOM     76  F   UNL A   1      47.307  32.458  30.435  1.00  0.00    -0.206 F 
ATOM     77  C   UNL A   1      47.708  35.585  28.670  1.00  0.00     0.060 A 
BRANCH  77  78
ATOM     78  S   UNL A   1      48.242  37.282  28.983  1.00  0.00     0.124 S 
ATOM     79  O   UNL A   1      47.464  38.020  27.996  1.00  0.00    -0.237 OA
ATOM     80  O   UNL A   1      47.856  37.476  30.377  1.00  0.00    -0.237 OA
ATOM     81  O   UNL A   1      49.682  37.227  28.743  1.00  0.00    -0.744 OA
ENDBRANCH  77  78
ENDBRANCH  45  70
BRANCH  57  82
ATOM     82  C   UNL A   1      49.868  26.968  26.407  1.00  0.00     0.058 A 
ATOM     83  C   UNL A   1      50.701  26.455  27.413  1.00  0.00     0.135 A 
ATOM     84  C   UNL A   1      50.389  27.072  25.108  1.00  0.00     0.135 A 
ATOM     85  F   UNL A   1      50.251  26.347  28.673  1.00  0.00    -0.206 F 
ATOM     86  C   UNL A   1      52.009  26.067  27.142  1.00  0.00     0.059 A 
ATOM     87  C   UNL A   1      51.687  26.670  24.810  1.00  0.00     0.059 A 
ATOM     88  F   UNL A   1      49.629  27.550  24.110  1.00  0.00    -0.206 F 
ATOM     89  C   UNL A   1      52.491  26.175  25.837  1.00  0.00     0.060 A 
BRANCH  89  90
ATOM     90  S   UNL A   1      54.174  25.620  25.487  1.00  0.00     0.124 S 
ATOM     91  O   UNL A   1      54.279  25.890  24.056  1.00  0.00    -0.237 OA
ATOM     92  O   UNL A   1      54.974  26.477  26.354  1.00  0.00    -0.237 OA
ATOM     93  O   UNL A   1      54.150  24.209  25.859  1.00  0.00    -0.744 OA
ENDBRANCH  89  90
ENDBRANCH  57  82
ENDBRANCH  31  32
ENDBRANCH  24  26
ENDBRANCH  23  24
ENDBRANCH  22  23
ENDBRANCH   1  22
TORSDOF 18
ENDMDL
