MODEL 1
REMARK VINA RESULT:     -11.9      0.000      0.000
REMARK SMILES CC(C)(C)OC(=O)N1CCN(C(=O)c2ccc3c(c2)OCO3)[C@H](C(=O)OCCOC(=O)c2ccc(-c3c4nc(c(-c5c(F)cc(S(=O)(=O)[O-])cc5F)c5ccc([nH]5)c(-c5c(F)cc(S(=O)(=O)[O-])cc5F)c5nc(c(-c6c(F)cc(S(=O)(=O)[O-])cc6F)c6ccc3[nH]6)C=C5)C=C4)cc2)C1
REMARK SMILES IDX 27 1 26 2 24 3 25 4 23 5 8 6 9 7 98 8 10 9 11 10 6 11 7 12
REMARK SMILES IDX 5 13 2 14 1 15 3 16 4 17 12 18 13 19 14 20 15 21 19 22 16 23
REMARK SMILES IDX 18 24 17 25 20 26 22 27 21 28 28 29 29 30 30 31 31 32 32 33
REMARK SMILES IDX 33 34 97 35 34 36 96 37 35 38 36 39 37 40 90 41 38 42 95 43
REMARK SMILES IDX 89 44 91 45 39 46 94 47 88 48 87 49 40 51 74 52 53 53 73 54
REMARK SMILES IDX 54 55 57 56 72 57 92 58 55 59 56 60 71 62 93 63 58 64 41 65
REMARK SMILES IDX 42 66 51 67 43 68 44 69 50 70 52 71 45 72 46 73 47 74 48 75
REMARK SMILES IDX 49 76 75 77 76 78 85 79 77 80 78 81 84 82 86 83 79 84 80 85
REMARK SMILES IDX 81 86 82 87 83 88 59 89 60 90 69 91 61 92 62 93 68 94 70 95
REMARK SMILES IDX 63 96 64 97 65 98 66 99 67 100
REMARK H PARENT 91 50 57 61
REMARK Flexibility Score: inf
ROOT
ATOM      1  C   UNL A   1      38.032  21.758  25.673  1.00  0.00     0.274 C 
ENDROOT
BRANCH   1   2
ATOM      2  O   UNL A   1      37.397  21.299  24.453  1.00  0.00    -0.460 OA
BRANCH   2   3
ATOM      3  C   UNL A   1      36.223  21.934  24.217  1.00  0.00     0.330 C 
ATOM      4  O   UNL A   1      36.088  22.683  23.266  1.00  0.00    -0.250 OA
BRANCH   3   5
ATOM      5  C   UNL A   1      35.085  21.612  25.174  1.00  0.00     0.215 C 
ATOM      6  N   UNL A   1      33.280  19.751  25.087  1.00  0.00    -0.304 N 
ATOM      7  C   UNL A   1      32.252  20.775  24.981  1.00  0.00     0.144 C 
ATOM      8  C   UNL A   1      34.659  20.152  24.791  1.00  0.00     0.160 C 
ATOM      9  C   UNL A   1      32.674  22.050  25.689  1.00  0.00     0.142 C 
ATOM     10  N   UNL A   1      33.925  22.594  25.149  1.00  0.00    -0.321 N 
BRANCH   6  11
ATOM     11  C   UNL A   1      32.874  18.426  25.053  1.00  0.00     0.410 C 
ATOM     12  O   UNL A   1      31.793  18.064  24.595  1.00  0.00    -0.224 OA
BRANCH  11  13
ATOM     13  O   UNL A   1      33.776  17.593  25.625  1.00  0.00    -0.444 OA
BRANCH  13  14
ATOM     14  C   UNL A   1      34.104  16.314  25.020  1.00  0.00     0.106 C 
ATOM     15  C   UNL A   1      34.055  16.592  23.510  1.00  0.00     0.056 C 
ATOM     16  C   UNL A   1      33.053  15.256  25.368  1.00  0.00     0.056 C 
ATOM     17  C   UNL A   1      35.521  15.838  25.371  1.00  0.00     0.056 C 
ENDBRANCH  13  14
ENDBRANCH  11  13
ENDBRANCH   6  11
BRANCH  10  18
ATOM     18  C   UNL A   1      33.978  24.006  25.142  1.00  0.00     0.254 C 
ATOM     19  O   UNL A   1      34.729  24.652  25.872  1.00  0.00    -0.269 OA
BRANCH  18  20
ATOM     20  C   UNL A   1      33.056  24.821  24.328  1.00  0.00     0.044 A 
ATOM     21  C   UNL A   1      32.728  24.392  23.016  1.00  0.00     0.018 A 
ATOM     22  C   UNL A   1      32.527  26.004  24.849  1.00  0.00     0.064 A 
ATOM     23  C   UNL A   1      31.994  25.226  22.162  1.00  0.00     0.051 A 
ATOM     24  C   UNL A   1      31.781  26.786  23.989  1.00  0.00     0.166 A 
ATOM     25  C   UNL A   1      31.547  26.424  22.678  1.00  0.00     0.165 A 
ATOM     26  O   UNL A   1      31.240  27.999  24.291  1.00  0.00    -0.454 OA
ATOM     27  O   UNL A   1      30.869  27.381  21.989  1.00  0.00    -0.454 OA
ATOM     28  C   UNL A   1      30.624  28.343  23.032  1.00  0.00     0.468 C 
ENDBRANCH  18  20
ENDBRANCH  10  18
ENDBRANCH   3   5
ENDBRANCH   2   3
ENDBRANCH   1   2
BRANCH   1  29
ATOM     29  C   UNL A   1      38.298  23.282  25.786  1.00  0.00     0.275 C 
BRANCH  29  30
ATOM     30  O   UNL A   1      39.181  23.695  26.861  1.00  0.00    -0.458 OA
BRANCH  30  31
ATOM     31  C   UNL A   1      40.017  24.725  26.565  1.00  0.00     0.338 C 
ATOM     32  O   UNL A   1      40.435  24.997  25.448  1.00  0.00    -0.246 OA
BRANCH  31  33
ATOM     33  C   UNL A   1      40.240  25.630  27.725  1.00  0.00     0.060 A 
ATOM     34  C   UNL A   1      39.271  25.667  28.737  1.00  0.00     0.016 A 
ATOM     35  C   UNL A   1      41.296  26.534  27.770  1.00  0.00     0.016 A 
ATOM     36  C   UNL A   1      39.321  26.598  29.770  1.00  0.00     0.010 A 
ATOM     37  C   UNL A   1      41.354  27.478  28.812  1.00  0.00     0.010 A 
ATOM     38  C   UNL A   1      40.354  27.529  29.806  1.00  0.00    -0.014 A 
BRANCH  38  39
ATOM     39  C   UNL A   1      40.312  28.615  30.818  1.00  0.00     0.031 A 
ATOM     40  C   UNL A   1      41.289  28.595  31.960  1.00  0.00     0.074 A 
ATOM     41  C   UNL A   1      39.453  29.645  30.689  1.00  0.00     0.049 A 
ATOM     42  N   UNL A   1      41.363  29.376  33.006  1.00  0.00    -0.248 NA
ATOM     43  C   UNL A   1      42.324  27.551  31.913  1.00  0.00     0.031 C 
ATOM     44  C   UNL A   1      38.532  29.842  29.569  1.00  0.00     0.029 A 
ATOM     45  N   UNL A   1      39.218  30.722  31.508  1.00  0.00    -0.354 N 
ATOM     46  C   UNL A   1      42.430  28.901  33.760  1.00  0.00     0.074 A 
ATOM     47  C   UNL A   1      42.958  27.749  33.058  1.00  0.00     0.031 C 
ATOM     48  C   UNL A   1      37.830  30.969  29.774  1.00  0.00     0.029 A 
ATOM     49  C   UNL A   1      38.207  31.540  31.064  1.00  0.00     0.049 A 
ATOM     50  H   UNL A   1      39.726  30.891  32.334  1.00  0.00     0.167 HD
ATOM     51  C   UNL A   1      42.922  29.380  34.929  1.00  0.00     0.037 A 
ATOM     52  C   UNL A   1      37.624  32.606  31.648  1.00  0.00     0.037 A 
ATOM     53  C   UNL A   1      42.387  30.530  35.613  1.00  0.00     0.049 A 
ATOM     54  C   UNL A   1      38.109  33.056  33.002  1.00  0.00     0.074 A 
ATOM     55  C   UNL A   1      42.803  31.093  36.807  1.00  0.00     0.029 A 
ATOM     56  N   UNL A   1      41.313  31.290  35.168  1.00  0.00    -0.354 N 
ATOM     57  N   UNL A   1      39.091  32.576  33.729  1.00  0.00    -0.248 NA
ATOM     58  C   UNL A   1      37.402  34.186  33.619  1.00  0.00     0.031 C 
ATOM     59  C   UNL A   1      41.943  32.154  37.114  1.00  0.00     0.029 A 
ATOM     60  C   UNL A   1      41.033  32.297  36.078  1.00  0.00     0.049 A 
ATOM     61  H   UNL A   1      40.824  31.138  34.328  1.00  0.00     0.167 HD
ATOM     62  C   UNL A   1      39.140  33.365  34.873  1.00  0.00     0.074 A 
ATOM     63  C   UNL A   1      38.092  34.355  34.739  1.00  0.00     0.031 C 
ATOM     64  C   UNL A   1      39.984  33.280  35.934  1.00  0.00     0.037 A 
BRANCH  51  65
ATOM     65  C   UNL A   1      44.051  28.612  35.566  1.00  0.00     0.058 A 
ATOM     66  C   UNL A   1      45.400  28.887  35.283  1.00  0.00     0.135 A 
ATOM     67  C   UNL A   1      43.776  27.560  36.456  1.00  0.00     0.135 A 
ATOM     68  F   UNL A   1      45.724  29.872  34.430  1.00  0.00    -0.206 F 
ATOM     69  C   UNL A   1      46.428  28.111  35.810  1.00  0.00     0.059 A 
ATOM     70  C   UNL A   1      44.790  26.794  37.023  1.00  0.00     0.059 A 
ATOM     71  F   UNL A   1      42.508  27.253  36.769  1.00  0.00    -0.206 F 
ATOM     72  C   UNL A   1      46.112  27.058  36.670  1.00  0.00     0.060 A 
BRANCH  72  73
ATOM     73  S   UNL A   1      47.450  26.023  37.301  1.00  0.00     0.124 S 
ATOM     74  O   UNL A   1      46.778  25.303  38.377  1.00  0.00    -0.237 OA
ATOM     75  O   UNL A   1      47.806  25.226  36.131  1.00  0.00    -0.237 OA
ATOM     76  O   UNL A   1      48.457  26.989  37.727  1.00  0.00    -0.744 OA
ENDBRANCH  72  73
ENDBRANCH  51  65
BRANCH  52  77
ATOM     77  C   UNL A   1      36.511  33.311  30.958  1.00  0.00     0.058 A 
ATOM     78  C   UNL A   1      35.184  33.155  31.383  1.00  0.00     0.135 A 
ATOM     79  C   UNL A   1      36.752  34.180  29.881  1.00  0.00     0.135 A 
ATOM     80  F   UNL A   1      34.898  32.323  32.395  1.00  0.00    -0.206 F 
ATOM     81  C   UNL A   1      34.137  33.837  30.771  1.00  0.00     0.059 A 
ATOM     82  C   UNL A   1      35.726  34.894  29.270  1.00  0.00     0.059 A 
ATOM     83  F   UNL A   1      38.005  34.367  29.434  1.00  0.00    -0.206 F 
ATOM     84  C   UNL A   1      34.420  34.714  29.723  1.00  0.00     0.060 A 
BRANCH  84  85
ATOM     85  S   UNL A   1      33.060  35.652  28.989  1.00  0.00     0.124 S 
ATOM     86  O   UNL A   1      32.367  34.618  28.227  1.00  0.00    -0.237 OA
ATOM     87  O   UNL A   1      32.362  36.151  30.169  1.00  0.00    -0.237 OA
ATOM     88  O   UNL A   1      33.742  36.669  28.195  1.00  0.00    -0.744 OA
ENDBRANCH  84  85
ENDBRANCH  52  77
BRANCH  64  89
ATOM     89  C   UNL A   1      39.839  34.312  37.023  1.00  0.00     0.058 A 
ATOM     90  C   UNL A   1      40.389  35.598  36.907  1.00  0.00     0.135 A 
ATOM     91  C   UNL A   1      39.089  34.024  38.176  1.00  0.00     0.135 A 
ATOM     92  F   UNL A   1      41.122  35.927  35.832  1.00  0.00    -0.206 F 
ATOM     93  C   UNL A   1      40.219  36.554  37.905  1.00  0.00     0.059 A 
ATOM     94  C   UNL A   1      38.879  34.974  39.170  1.00  0.00     0.059 A 
ATOM     95  F   UNL A   1      38.532  32.813  38.334  1.00  0.00    -0.206 F 
ATOM     96  C   UNL A   1      39.458  36.234  39.031  1.00  0.00     0.060 A 
BRANCH  96  97
ATOM     97  S   UNL A   1      39.212  37.497  40.298  1.00  0.00     0.124 S 
ATOM     98  O   UNL A   1      40.571  37.996  40.485  1.00  0.00    -0.237 OA
ATOM     99  O   UNL A   1      38.284  38.416  39.645  1.00  0.00    -0.237 OA
ATOM    100  O   UNL A   1      38.657  36.749  41.422  1.00  0.00    -0.744 OA
ENDBRANCH  96  97
ENDBRANCH  64  89
ENDBRANCH  38  39
ENDBRANCH  31  33
ENDBRANCH  30  31
ENDBRANCH  29  30
ENDBRANCH   1  29
TORSDOF 19
ENDMDL
MODEL 2
REMARK VINA RESULT:     -11.6      4.578     10.010
REMARK SMILES CC(C)(C)OC(=O)N1CCN(C(=O)c2ccc3c(c2)OCO3)[C@H](C(=O)OCCOC(=O)c2ccc(-c3c4nc(c(-c5c(F)cc(S(=O)(=O)[O-])cc5F)c5ccc([nH]5)c(-c5c(F)cc(S(=O)(=O)[O-])cc5F)c5nc(c(-c6c(F)cc(S(=O)(=O)[O-])cc6F)c6ccc3[nH]6)C=C5)C=C4)cc2)C1
REMARK SMILES IDX 27 1 26 2 24 3 25 4 23 5 8 6 9 7 98 8 10 9 11 10 6 11 7 12
REMARK SMILES IDX 5 13 2 14 1 15 3 16 4 17 12 18 13 19 14 20 15 21 19 22 16 23
REMARK SMILES IDX 18 24 17 25 20 26 22 27 21 28 28 29 29 30 30 31 31 32 32 33
REMARK SMILES IDX 33 34 97 35 34 36 96 37 35 38 36 39 37 40 90 41 38 42 95 43
REMARK SMILES IDX 89 44 91 45 39 46 94 47 88 48 87 49 40 51 74 52 53 53 73 54
REMARK SMILES IDX 54 55 57 56 72 57 92 58 55 59 56 60 71 62 93 63 58 64 41 65
REMARK SMILES IDX 42 66 51 67 43 68 44 69 50 70 52 71 45 72 46 73 47 74 48 75
REMARK SMILES IDX 49 76 75 77 76 78 85 79 77 80 78 81 84 82 86 83 79 84 80 85
REMARK SMILES IDX 81 86 82 87 83 88 59 89 60 90 69 91 61 92 62 93 68 94 70 95
REMARK SMILES IDX 63 96 64 97 65 98 66 99 67 100
REMARK H PARENT 91 50 57 61
REMARK Flexibility Score: inf
ROOT
ATOM      1  C   UNL A   1      32.127  28.305  27.500  1.00  0.00     0.274 C 
ENDROOT
BRANCH   1   2
ATOM      2  O   UNL A   1      31.696  27.529  26.353  1.00  0.00    -0.460 OA
BRANCH   2   3
ATOM      3  C   UNL A   1      32.704  26.790  25.827  1.00  0.00     0.330 C 
ATOM      4  O   UNL A   1      33.836  26.857  26.269  1.00  0.00    -0.250 OA
BRANCH   3   5
ATOM      5  C   UNL A   1      32.320  25.845  24.698  1.00  0.00     0.215 C 
ATOM      6  N   UNL A   1      33.428  23.644  23.888  1.00  0.00    -0.304 N 
ATOM      7  C   UNL A   1      33.711  24.275  22.608  1.00  0.00     0.144 C 
ATOM      8  C   UNL A   1      33.106  24.526  25.015  1.00  0.00     0.160 C 
ATOM      9  C   UNL A   1      32.667  25.326  22.273  1.00  0.00     0.142 C 
ATOM     10  N   UNL A   1      32.587  26.372  23.297  1.00  0.00    -0.321 N 
BRANCH   6  11
ATOM     11  C   UNL A   1      33.863  22.341  24.072  1.00  0.00     0.410 C 
ATOM     12  O   UNL A   1      33.104  21.404  24.309  1.00  0.00    -0.224 OA
BRANCH  11  13
ATOM     13  O   UNL A   1      35.211  22.231  24.010  1.00  0.00    -0.444 OA
BRANCH  13  14
ATOM     14  C   UNL A   1      35.964  21.617  25.089  1.00  0.00     0.106 C 
ATOM     15  C   UNL A   1      37.422  22.005  24.796  1.00  0.00     0.056 C 
ATOM     16  C   UNL A   1      35.835  20.091  25.050  1.00  0.00     0.056 C 
ATOM     17  C   UNL A   1      35.590  22.178  26.468  1.00  0.00     0.056 C 
ENDBRANCH  13  14
ENDBRANCH  11  13
ENDBRANCH   6  11
BRANCH  10  18
ATOM     18  C   UNL A   1      32.304  27.657  22.781  1.00  0.00     0.254 C 
ATOM     19  O   UNL A   1      33.182  28.457  22.455  1.00  0.00    -0.269 OA
BRANCH  18  20
ATOM     20  C   UNL A   1      30.928  28.180  22.691  1.00  0.00     0.044 A 
ATOM     21  C   UNL A   1      30.712  29.472  22.147  1.00  0.00     0.018 A 
ATOM     22  C   UNL A   1      29.858  27.407  23.149  1.00  0.00     0.064 A 
ATOM     23  C   UNL A   1      29.443  30.061  22.204  1.00  0.00     0.051 A 
ATOM     24  C   UNL A   1      28.614  28.008  23.161  1.00  0.00     0.166 A 
ATOM     25  C   UNL A   1      28.417  29.305  22.731  1.00  0.00     0.165 A 
ATOM     26  O   UNL A   1      27.467  27.442  23.629  1.00  0.00    -0.454 OA
ATOM     27  O   UNL A   1      27.136  29.722  22.915  1.00  0.00    -0.454 OA
ATOM     28  C   UNL A   1      26.529  28.519  23.423  1.00  0.00     0.468 C 
ENDBRANCH  18  20
ENDBRANCH  10  18
ENDBRANCH   3   5
ENDBRANCH   2   3
ENDBRANCH   1   2
BRANCH   1  29
ATOM     29  C   UNL A   1      32.416  29.808  27.252  1.00  0.00     0.275 C 
BRANCH  29  30
ATOM     30  O   UNL A   1      33.782  30.141  26.893  1.00  0.00    -0.458 OA
BRANCH  30  31
ATOM     31  C   UNL A   1      34.518  30.719  27.880  1.00  0.00     0.338 C 
ATOM     32  O   UNL A   1      34.111  31.567  28.661  1.00  0.00    -0.246 OA
BRANCH  31  33
ATOM     33  C   UNL A   1      35.850  30.077  28.047  1.00  0.00     0.060 A 
ATOM     34  C   UNL A   1      36.205  29.599  29.316  1.00  0.00     0.016 A 
ATOM     35  C   UNL A   1      36.800  30.061  27.031  1.00  0.00     0.016 A 
ATOM     36  C   UNL A   1      37.486  29.134  29.595  1.00  0.00     0.010 A 
ATOM     37  C   UNL A   1      38.097  29.591  27.306  1.00  0.00     0.010 A 
ATOM     38  C   UNL A   1      38.454  29.145  28.596  1.00  0.00    -0.014 A 
BRANCH  38  39
ATOM     39  C   UNL A   1      39.855  28.798  28.944  1.00  0.00     0.031 A 
ATOM     40  C   UNL A   1      40.704  29.806  29.669  1.00  0.00     0.074 A 
ATOM     41  C   UNL A   1      40.351  27.574  28.676  1.00  0.00     0.049 A 
ATOM     42  N   UNL A   1      41.974  29.757  29.976  1.00  0.00    -0.248 NA
ATOM     43  C   UNL A   1      40.024  31.035  30.106  1.00  0.00     0.031 C 
ATOM     44  C   UNL A   1      39.598  26.471  28.080  1.00  0.00     0.029 A 
ATOM     45  N   UNL A   1      41.606  27.055  28.873  1.00  0.00    -0.354 N 
ATOM     46  C   UNL A   1      42.256  30.960  30.613  1.00  0.00     0.074 A 
ATOM     47  C   UNL A   1      41.026  31.725  30.628  1.00  0.00     0.031 C 
ATOM     48  C   UNL A   1      40.408  25.405  27.957  1.00  0.00     0.029 A 
ATOM     49  C   UNL A   1      41.749  25.770  28.408  1.00  0.00     0.049 A 
ATOM     50  H   UNL A   1      42.335  27.556  29.306  1.00  0.00     0.167 HD
ATOM     51  C   UNL A   1      43.432  31.387  31.137  1.00  0.00     0.037 A 
ATOM     52  C   UNL A   1      42.843  24.988  28.320  1.00  0.00     0.037 A 
ATOM     53  C   UNL A   1      44.647  30.611  31.118  1.00  0.00     0.049 A 
ATOM     54  C   UNL A   1      44.166  25.522  28.803  1.00  0.00     0.074 A 
ATOM     55  C   UNL A   1      45.894  30.952  31.610  1.00  0.00     0.029 A 
ATOM     56  N   UNL A   1      44.768  29.340  30.572  1.00  0.00    -0.354 N 
ATOM     57  N   UNL A   1      44.435  26.676  29.365  1.00  0.00    -0.248 NA
ATOM     58  C   UNL A   1      45.337  24.651  28.630  1.00  0.00     0.031 C 
ATOM     59  C   UNL A   1      46.783  29.915  31.306  1.00  0.00     0.029 A 
ATOM     60  C   UNL A   1      46.077  28.896  30.686  1.00  0.00     0.049 A 
ATOM     61  H   UNL A   1      44.033  28.828  30.164  1.00  0.00     0.167 HD
ATOM     62  C   UNL A   1      45.797  26.658  29.644  1.00  0.00     0.074 A 
ATOM     63  C   UNL A   1      46.296  25.376  29.190  1.00  0.00     0.031 C 
ATOM     64  C   UNL A   1      46.563  27.615  30.230  1.00  0.00     0.037 A 
BRANCH  51  65
ATOM     65  C   UNL A   1      43.465  32.781  31.708  1.00  0.00     0.058 A 
ATOM     66  C   UNL A   1      43.905  33.888  30.961  1.00  0.00     0.135 A 
ATOM     67  C   UNL A   1      43.076  33.008  33.039  1.00  0.00     0.135 A 
ATOM     68  F   UNL A   1      44.302  33.730  29.688  1.00  0.00    -0.206 F 
ATOM     69  C   UNL A   1      44.015  35.153  31.531  1.00  0.00     0.059 A 
ATOM     70  C   UNL A   1      43.144  34.272  33.618  1.00  0.00     0.059 A 
ATOM     71  F   UNL A   1      42.642  31.992  33.800  1.00  0.00    -0.206 F 
ATOM     72  C   UNL A   1      43.642  35.333  32.864  1.00  0.00     0.060 A 
BRANCH  72  73
ATOM     73  S   UNL A   1      43.845  36.965  33.608  1.00  0.00     0.124 S 
ATOM     74  O   UNL A   1      42.987  36.858  34.784  1.00  0.00    -0.237 OA
ATOM     75  O   UNL A   1      45.279  37.013  33.872  1.00  0.00    -0.237 OA
ATOM     76  O   UNL A   1      43.372  37.874  32.569  1.00  0.00    -0.744 OA
ENDBRANCH  72  73
ENDBRANCH  51  65
BRANCH  52  77
ATOM     77  C   UNL A   1      42.732  23.622  27.740  1.00  0.00     0.058 A 
ATOM     78  C   UNL A   1      42.557  22.501  28.565  1.00  0.00     0.135 A 
ATOM     79  C   UNL A   1      42.763  23.411  26.352  1.00  0.00     0.135 A 
ATOM     80  F   UNL A   1      42.539  22.645  29.898  1.00  0.00    -0.206 F 
ATOM     81  C   UNL A   1      42.414  21.221  28.035  1.00  0.00     0.059 A 
ATOM     82  C   UNL A   1      42.594  22.146  25.797  1.00  0.00     0.059 A 
ATOM     83  F   UNL A   1      42.927  24.451  25.517  1.00  0.00    -0.206 F 
ATOM     84  C   UNL A   1      42.422  21.056  26.649  1.00  0.00     0.060 A 
BRANCH  84  85
ATOM     85  S   UNL A   1      42.156  19.401  25.974  1.00  0.00     0.124 S 
ATOM     86  O   UNL A   1      42.598  18.557  27.080  1.00  0.00    -0.237 OA
ATOM     87  O   UNL A   1      40.721  19.407  25.710  1.00  0.00    -0.237 OA
ATOM     88  O   UNL A   1      43.005  19.381  24.788  1.00  0.00    -0.744 OA
ENDBRANCH  84  85
ENDBRANCH  52  77
BRANCH  64  89
ATOM     89  C   UNL A   1      48.019  27.300  30.455  1.00  0.00     0.058 A 
ATOM     90  C   UNL A   1      49.012  27.672  29.534  1.00  0.00     0.135 A 
ATOM     91  C   UNL A   1      48.432  26.664  31.638  1.00  0.00     0.135 A 
ATOM     92  F   UNL A   1      48.676  28.275  28.383  1.00  0.00    -0.206 F 
ATOM     93  C   UNL A   1      50.358  27.406  29.769  1.00  0.00     0.059 A 
ATOM     94  C   UNL A   1      49.774  26.418  31.908  1.00  0.00     0.059 A 
ATOM     95  F   UNL A   1      47.526  26.295  32.557  1.00  0.00    -0.206 F 
ATOM     96  C   UNL A   1      50.730  26.783  30.962  1.00  0.00     0.060 A 
BRANCH  96  97
ATOM     97  S   UNL A   1      52.484  26.481  31.271  1.00  0.00     0.124 S 
ATOM     98  O   UNL A   1      52.996  26.299  29.917  1.00  0.00    -0.237 OA
ATOM     99  O   UNL A   1      52.896  27.709  31.945  1.00  0.00    -0.237 OA
ATOM    100  O   UNL A   1      52.481  25.285  32.108  1.00  0.00    -0.744 OA
ENDBRANCH  96  97
ENDBRANCH  64  89
ENDBRANCH  38  39
ENDBRANCH  31  33
ENDBRANCH  30  31
ENDBRANCH  29  30
ENDBRANCH   1  29
TORSDOF 19
ENDMDL
MODEL 3
REMARK VINA RESULT:     -11.4      3.680      9.511
REMARK SMILES CC(C)(C)OC(=O)N1CCN(C(=O)c2ccc3c(c2)OCO3)[C@H](C(=O)OCCOC(=O)c2ccc(-c3c4nc(c(-c5c(F)cc(S(=O)(=O)[O-])cc5F)c5ccc([nH]5)c(-c5c(F)cc(S(=O)(=O)[O-])cc5F)c5nc(c(-c6c(F)cc(S(=O)(=O)[O-])cc6F)c6ccc3[nH]6)C=C5)C=C4)cc2)C1
REMARK SMILES IDX 27 1 26 2 24 3 25 4 23 5 8 6 9 7 98 8 10 9 11 10 6 11 7 12
REMARK SMILES IDX 5 13 2 14 1 15 3 16 4 17 12 18 13 19 14 20 15 21 19 22 16 23
REMARK SMILES IDX 18 24 17 25 20 26 22 27 21 28 28 29 29 30 30 31 31 32 32 33
REMARK SMILES IDX 33 34 97 35 34 36 96 37 35 38 36 39 37 40 90 41 38 42 95 43
REMARK SMILES IDX 89 44 91 45 39 46 94 47 88 48 87 49 40 51 74 52 53 53 73 54
REMARK SMILES IDX 54 55 57 56 72 57 92 58 55 59 56 60 71 62 93 63 58 64 41 65
REMARK SMILES IDX 42 66 51 67 43 68 44 69 50 70 52 71 45 72 46 73 47 74 48 75
REMARK SMILES IDX 49 76 75 77 76 78 85 79 77 80 78 81 84 82 86 83 79 84 80 85
REMARK SMILES IDX 81 86 82 87 83 88 59 89 60 90 69 91 61 92 62 93 68 94 70 95
REMARK SMILES IDX 63 96 64 97 65 98 66 99 67 100
REMARK H PARENT 91 50 57 61
REMARK Flexibility Score: inf
ROOT
ATOM      1  C   UNL A   1      31.994  28.766  27.327  1.00  0.00     0.274 C 
ENDROOT
BRANCH   1   2
ATOM      2  O   UNL A   1      31.224  27.820  26.542  1.00  0.00    -0.460 OA
BRANCH   2   3
ATOM      3  C   UNL A   1      31.942  26.714  26.225  1.00  0.00     0.330 C 
ATOM      4  O   UNL A   1      33.013  26.480  26.755  1.00  0.00    -0.250 OA
BRANCH   3   5
ATOM      5  C   UNL A   1      31.304  25.770  25.217  1.00  0.00     0.215 C 
ATOM      6  N   UNL A   1      31.937  23.349  24.534  1.00  0.00    -0.304 N 
ATOM      7  C   UNL A   1      32.214  23.819  23.186  1.00  0.00     0.144 C 
ATOM      8  C   UNL A   1      31.871  24.358  25.596  1.00  0.00     0.160 C 
ATOM      9  C   UNL A   1      31.344  25.012  22.831  1.00  0.00     0.142 C 
ATOM     10  N   UNL A   1      31.537  26.131  23.759  1.00  0.00    -0.321 N 
BRANCH   6  11
ATOM     11  C   UNL A   1      32.152  22.007  24.805  1.00  0.00     0.410 C 
ATOM     12  O   UNL A   1      31.431  21.345  25.548  1.00  0.00    -0.224 OA
BRANCH  11  13
ATOM     13  O   UNL A   1      33.266  21.529  24.201  1.00  0.00    -0.444 OA
BRANCH  13  14
ATOM     14  C   UNL A   1      34.407  21.079  24.980  1.00  0.00     0.106 C 
ATOM     15  C   UNL A   1      34.378  19.550  24.835  1.00  0.00     0.056 C 
ATOM     16  C   UNL A   1      34.242  21.445  26.458  1.00  0.00     0.056 C 
ATOM     17  C   UNL A   1      35.744  21.586  24.420  1.00  0.00     0.056 C 
ENDBRANCH  13  14
ENDBRANCH  11  13
ENDBRANCH   6  11
BRANCH  10  18
ATOM     18  C   UNL A   1      31.439  27.402  23.149  1.00  0.00     0.254 C 
ATOM     19  O   UNL A   1      32.370  27.926  22.539  1.00  0.00    -0.269 OA
BRANCH  18  20
ATOM     20  C   UNL A   1      30.238  28.248  23.288  1.00  0.00     0.044 A 
ATOM     21  C   UNL A   1      28.958  27.637  23.284  1.00  0.00     0.018 A 
ATOM     22  C   UNL A   1      30.372  29.633  23.411  1.00  0.00     0.064 A 
ATOM     23  C   UNL A   1      27.799  28.424  23.244  1.00  0.00     0.051 A 
ATOM     24  C   UNL A   1      29.208  30.376  23.401  1.00  0.00     0.166 A 
ATOM     25  C   UNL A   1      27.962  29.793  23.291  1.00  0.00     0.165 A 
ATOM     26  O   UNL A   1      29.136  31.735  23.446  1.00  0.00    -0.454 OA
ATOM     27  O   UNL A   1      26.964  30.713  23.210  1.00  0.00    -0.454 OA
ATOM     28  C   UNL A   1      27.709  31.935  23.373  1.00  0.00     0.468 C 
ENDBRANCH  18  20
ENDBRANCH  10  18
ENDBRANCH   3   5
ENDBRANCH   2   3
ENDBRANCH   1   2
BRANCH   1  29
ATOM     29  C   UNL A   1      32.525  30.017  26.580  1.00  0.00     0.275 C 
BRANCH  29  30
ATOM     30  O   UNL A   1      33.967  30.174  26.550  1.00  0.00    -0.458 OA
BRANCH  30  31
ATOM     31  C   UNL A   1      34.510  30.765  27.648  1.00  0.00     0.338 C 
ATOM     32  O   UNL A   1      33.951  31.591  28.356  1.00  0.00    -0.246 OA
BRANCH  31  33
ATOM     33  C   UNL A   1      35.817  30.164  28.031  1.00  0.00     0.060 A 
ATOM     34  C   UNL A   1      35.944  29.603  29.310  1.00  0.00     0.016 A 
ATOM     35  C   UNL A   1      36.945  30.264  27.223  1.00  0.00     0.016 A 
ATOM     36  C   UNL A   1      37.170  29.168  29.803  1.00  0.00     0.010 A 
ATOM     37  C   UNL A   1      38.188  29.825  27.716  1.00  0.00     0.010 A 
ATOM     38  C   UNL A   1      38.311  29.294  29.017  1.00  0.00    -0.014 A 
BRANCH  38  39
ATOM     39  C   UNL A   1      39.635  28.977  29.611  1.00  0.00     0.031 A 
ATOM     40  C   UNL A   1      40.140  29.799  30.764  1.00  0.00     0.074 A 
ATOM     41  C   UNL A   1      40.354  27.926  29.171  1.00  0.00     0.049 A 
ATOM     42  N   UNL A   1      41.302  29.767  31.363  1.00  0.00    -0.248 NA
ATOM     43  C   UNL A   1      39.205  30.791  31.315  1.00  0.00     0.031 C 
ATOM     44  C   UNL A   1      39.926  26.983  28.138  1.00  0.00     0.029 A 
ATOM     45  N   UNL A   1      41.597  27.475  29.542  1.00  0.00    -0.354 N 
ATOM     46  C   UNL A   1      41.252  30.755  32.340  1.00  0.00     0.074 A 
ATOM     47  C   UNL A   1      39.950  31.381  32.236  1.00  0.00     0.031 C 
ATOM     48  C   UNL A   1      40.893  26.067  27.955  1.00  0.00     0.029 A 
ATOM     49  C   UNL A   1      42.030  26.394  28.813  1.00  0.00     0.049 A 
ATOM     50  H   UNL A   1      42.127  27.887  30.261  1.00  0.00     0.167 HD
ATOM     51  C   UNL A   1      42.204  31.106  33.239  1.00  0.00     0.037 A 
ATOM     52  C   UNL A   1      43.220  25.761  28.808  1.00  0.00     0.037 A 
ATOM     53  C   UNL A   1      43.495  30.470  33.332  1.00  0.00     0.049 A 
ATOM     54  C   UNL A   1      44.307  26.239  29.735  1.00  0.00     0.074 A 
ATOM     55  C   UNL A   1      44.535  30.754  34.198  1.00  0.00     0.029 A 
ATOM     56  N   UNL A   1      43.923  29.424  32.525  1.00  0.00    -0.354 N 
ATOM     57  N   UNL A   1      44.268  27.201  30.627  1.00  0.00    -0.248 NA
ATOM     58  C   UNL A   1      45.603  25.552  29.649  1.00  0.00     0.031 C 
ATOM     59  C   UNL A   1      45.614  29.924  33.873  1.00  0.00     0.029 A 
ATOM     60  C   UNL A   1      45.224  29.073  32.852  1.00  0.00     0.049 A 
ATOM     61  H   UNL A   1      43.382  28.993  31.824  1.00  0.00     0.167 HD
ATOM     62  C   UNL A   1      45.521  27.214  31.230  1.00  0.00     0.074 A 
ATOM     63  C   UNL A   1      46.293  26.161  30.604  1.00  0.00     0.031 C 
ATOM     64  C   UNL A   1      45.985  28.020  32.219  1.00  0.00     0.037 A 
BRANCH  51  65
ATOM     65  C   UNL A   1      41.901  32.275  34.140  1.00  0.00     0.058 A 
ATOM     66  C   UNL A   1      41.138  32.142  35.312  1.00  0.00     0.135 A 
ATOM     67  C   UNL A   1      42.360  33.561  33.807  1.00  0.00     0.135 A 
ATOM     68  F   UNL A   1      40.661  30.940  35.675  1.00  0.00    -0.206 F 
ATOM     69  C   UNL A   1      40.791  33.246  36.086  1.00  0.00     0.059 A 
ATOM     70  C   UNL A   1      42.056  34.674  34.585  1.00  0.00     0.059 A 
ATOM     71  F   UNL A   1      43.098  33.751  32.702  1.00  0.00    -0.206 F 
ATOM     72  C   UNL A   1      41.246  34.510  35.707  1.00  0.00     0.060 A 
BRANCH  72  73
ATOM     73  S   UNL A   1      40.741  35.941  36.685  1.00  0.00     0.124 S 
ATOM     74  O   UNL A   1      39.689  36.509  35.848  1.00  0.00    -0.237 OA
ATOM     75  O   UNL A   1      40.296  35.326  37.931  1.00  0.00    -0.237 OA
ATOM     76  O   UNL A   1      41.961  36.735  36.783  1.00  0.00    -0.744 OA
ENDBRANCH  72  73
ENDBRANCH  51  65
BRANCH  52  77
ATOM     77  C   UNL A   1      43.445  24.615  27.886  1.00  0.00     0.058 A 
ATOM     78  C   UNL A   1      44.037  24.806  26.630  1.00  0.00     0.135 A 
ATOM     79  C   UNL A   1      43.104  23.303  28.254  1.00  0.00     0.135 A 
ATOM     80  F   UNL A   1      44.365  26.041  26.223  1.00  0.00    -0.206 F 
ATOM     81  C   UNL A   1      44.288  23.738  25.772  1.00  0.00     0.059 A 
ATOM     82  C   UNL A   1      43.370  22.216  27.426  1.00  0.00     0.059 A 
ATOM     83  F   UNL A   1      42.535  23.064  29.447  1.00  0.00    -0.206 F 
ATOM     84  C   UNL A   1      43.961  22.446  26.185  1.00  0.00     0.060 A 
BRANCH  84  85
ATOM     85  S   UNL A   1      44.364  21.062  25.095  1.00  0.00     0.124 S 
ATOM     86  O   UNL A   1      44.344  21.704  23.784  1.00  0.00    -0.237 OA
ATOM     87  O   UNL A   1      45.677  20.658  25.587  1.00  0.00    -0.237 OA
ATOM     88  O   UNL A   1      43.288  20.110  25.346  1.00  0.00    -0.744 OA
ENDBRANCH  84  85
ENDBRANCH  52  77
BRANCH  64  89
ATOM     89  C   UNL A   1      47.384  27.773  32.720  1.00  0.00     0.058 A 
ATOM     90  C   UNL A   1      47.656  26.853  33.745  1.00  0.00     0.135 A 
ATOM     91  C   UNL A   1      48.476  28.427  32.125  1.00  0.00     0.135 A 
ATOM     92  F   UNL A   1      46.652  26.204  34.357  1.00  0.00    -0.206 F 
ATOM     93  C   UNL A   1      48.957  26.607  34.177  1.00  0.00     0.059 A 
ATOM     94  C   UNL A   1      49.786  28.173  32.518  1.00  0.00     0.059 A 
ATOM     95  F   UNL A   1      48.275  29.310  31.134  1.00  0.00    -0.206 F 
ATOM     96  C   UNL A   1      50.017  27.269  33.553  1.00  0.00     0.060 A 
BRANCH  96  97
ATOM     97  S   UNL A   1      51.701  26.910  34.095  1.00  0.00     0.124 S 
ATOM     98  O   UNL A   1      51.473  26.378  35.435  1.00  0.00    -0.237 OA
ATOM     99  O   UNL A   1      52.149  25.943  33.097  1.00  0.00    -0.237 OA
ATOM    100  O   UNL A   1      52.362  28.211  34.039  1.00  0.00    -0.744 OA
ENDBRANCH  96  97
ENDBRANCH  64  89
ENDBRANCH  38  39
ENDBRANCH  31  33
ENDBRANCH  30  31
ENDBRANCH  29  30
ENDBRANCH   1  29
TORSDOF 19
ENDMDL
