MODEL 1
REMARK VINA RESULT:     -10.8      0.000      0.000
REMARK SMILES CCC[C@@H]1CCc2nc3c(F)cccc3c(C(=O)OCCOC(=O)c3ccc(-c4c5nc(c(-c6c(F)cc(S(=O)(=O)[O-])cc6F)c6ccc([nH]6)c(-c6c(F)cc(S(=O)(=O)[O-])cc6F)c6nc(c(-c7c(F)cc(S(=O)(=O)[O-])cc7F)c7ccc4[nH]7)C=C6)C=C5)cc3)c2C1
REMARK SMILES IDX 21 1 20 2 19 3 17 4 18 5 16 6 4 7 5 8 92 9 6 10 91 11 7 12
REMARK SMILES IDX 8 13 15 14 9 15 14 16 10 17 13 18 11 19 12 20 3 21 2 22 1 23
REMARK SMILES IDX 22 24 23 25 24 26 25 27 26 28 90 29 27 30 89 31 28 32 29 33
REMARK SMILES IDX 30 34 83 35 31 36 88 37 82 38 84 39 32 40 87 41 81 42 80 43
REMARK SMILES IDX 33 45 67 46 46 47 66 48 47 49 50 50 65 51 85 52 48 53 49 54
REMARK SMILES IDX 64 56 86 57 51 58 34 59 35 60 44 61 36 62 37 63 43 64 45 65
REMARK SMILES IDX 38 66 39 67 40 68 41 69 42 70 68 71 69 72 78 73 70 74 71 75
REMARK SMILES IDX 77 76 79 77 72 78 73 79 74 80 75 81 76 82 52 83 53 84 62 85
REMARK SMILES IDX 54 86 55 87 61 88 63 89 56 90 57 91 58 92 59 93 60 94
REMARK H PARENT 84 44 50 55
REMARK Flexibility Score: inf
ROOT
ATOM      1  C   UNL A   1      33.111  31.922  27.600  1.00  0.00     0.275 C 
ENDROOT
BRANCH   1   2
ATOM      2  C   UNL A   1      33.681  33.096  28.400  1.00  0.00     0.275 C 
BRANCH   2   3
ATOM      3  O   UNL A   1      34.321  32.631  29.610  1.00  0.00    -0.458 OA
BRANCH   3   4
ATOM      4  C   UNL A   1      35.543  33.151  29.909  1.00  0.00     0.339 C 
ATOM      5  O   UNL A   1      36.525  33.139  29.189  1.00  0.00    -0.246 OA
BRANCH   4   6
ATOM      6  C   UNL A   1      35.523  33.755  31.275  1.00  0.00     0.074 A 
ATOM      7  C   UNL A   1      38.091  31.650  33.307  1.00  0.00    -0.006 C 
ATOM      8  C   UNL A   1      37.503  31.969  34.679  1.00  0.00     0.010 C 
ATOM      9  C   UNL A   1      36.955  31.802  32.253  1.00  0.00     0.042 C 
ATOM     10  C   UNL A   1      37.103  33.427  34.714  1.00  0.00     0.057 C 
ATOM     11  C   UNL A   1      36.259  33.155  32.327  1.00  0.00    -0.011 A 
ATOM     12  C   UNL A   1      36.244  33.829  33.548  1.00  0.00     0.045 A 
ATOM     13  N   UNL A   1      35.523  34.945  33.772  1.00  0.00    -0.249 NA
ATOM     14  C   UNL A   1      34.712  34.917  31.510  1.00  0.00     0.018 A 
ATOM     15  C   UNL A   1      34.753  35.455  32.809  1.00  0.00     0.107 A 
ATOM     16  C   UNL A   1      33.838  35.551  30.574  1.00  0.00     0.011 A 
ATOM     17  C   UNL A   1      33.955  36.552  33.126  1.00  0.00     0.149 A 
ATOM     18  C   UNL A   1      33.053  36.656  30.916  1.00  0.00     0.004 A 
ATOM     19  F   UNL A   1      33.970  37.052  34.374  1.00  0.00    -0.205 F 
ATOM     20  C   UNL A   1      33.108  37.154  32.205  1.00  0.00     0.041 A 
BRANCH   7  21
ATOM     21  C   UNL A   1      38.758  30.258  33.313  1.00  0.00     0.003 C 
BRANCH  21  22
ATOM     22  C   UNL A   1      37.781  29.107  32.987  1.00  0.00    -0.003 C 
ATOM     23  C   UNL A   1      38.404  27.827  32.457  1.00  0.00     0.004 C 
ENDBRANCH  21  22
ENDBRANCH   7  21
ENDBRANCH   4   6
ENDBRANCH   3   4
ENDBRANCH   2   3
ENDBRANCH   1   2
BRANCH   1  24
ATOM     24  O   UNL A   1      34.189  31.111  27.099  1.00  0.00    -0.458 OA
BRANCH  24  25
ATOM     25  C   UNL A   1      34.288  29.873  27.634  1.00  0.00     0.338 C 
ATOM     26  O   UNL A   1      33.451  28.983  27.616  1.00  0.00    -0.246 OA
BRANCH  25  27
ATOM     27  C   UNL A   1      35.693  29.673  28.018  1.00  0.00     0.060 A 
ATOM     28  C   UNL A   1      36.619  29.803  26.997  1.00  0.00     0.016 A 
ATOM     29  C   UNL A   1      36.115  29.351  29.309  1.00  0.00     0.016 A 
ATOM     30  C   UNL A   1      37.971  29.645  27.270  1.00  0.00     0.010 A 
ATOM     31  C   UNL A   1      37.491  29.161  29.569  1.00  0.00     0.010 A 
ATOM     32  C   UNL A   1      38.437  29.309  28.542  1.00  0.00    -0.014 A 
BRANCH  32  33
ATOM     33  C   UNL A   1      39.884  28.956  28.666  1.00  0.00     0.031 A 
ATOM     34  C   UNL A   1      40.788  29.875  29.450  1.00  0.00     0.074 A 
ATOM     35  C   UNL A   1      40.356  27.730  28.349  1.00  0.00     0.049 A 
ATOM     36  N   UNL A   1      42.059  29.747  29.736  1.00  0.00    -0.248 NA
ATOM     37  C   UNL A   1      40.155  31.065  30.040  1.00  0.00     0.031 C 
ATOM     38  C   UNL A   1      39.552  26.617  27.846  1.00  0.00     0.029 A 
ATOM     39  N   UNL A   1      41.618  27.188  28.492  1.00  0.00    -0.354 N 
ATOM     40  C   UNL A   1      42.384  30.845  30.523  1.00  0.00     0.074 A 
ATOM     41  C   UNL A   1      41.171  31.620  30.685  1.00  0.00     0.031 C 
ATOM     42  C   UNL A   1      40.327  25.520  27.764  1.00  0.00     0.029 A 
ATOM     43  C   UNL A   1      41.703  25.859  28.137  1.00  0.00     0.049 A 
ATOM     44  H   UNL A   1      42.389  27.705  28.817  1.00  0.00     0.167 HD
ATOM     45  C   UNL A   1      43.580  31.191  31.055  1.00  0.00     0.037 A 
ATOM     46  C   UNL A   1      42.760  25.017  28.094  1.00  0.00     0.037 A 
ATOM     47  C   UNL A   1      44.797  30.435  30.914  1.00  0.00     0.049 A 
ATOM     48  C   UNL A   1      44.133  25.509  28.497  1.00  0.00     0.074 A 
ATOM     49  C   UNL A   1      46.072  30.781  31.329  1.00  0.00     0.029 A 
ATOM     50  N   UNL A   1      44.896  29.185  30.327  1.00  0.00    -0.354 N 
ATOM     51  N   UNL A   1      44.467  26.623  29.102  1.00  0.00    -0.248 NA
ATOM     52  C   UNL A   1      45.280  24.637  28.184  1.00  0.00     0.031 C 
ATOM     53  C   UNL A   1      46.952  29.768  30.938  1.00  0.00     0.029 A 
ATOM     54  C   UNL A   1      46.217  28.763  30.334  1.00  0.00     0.049 A 
ATOM     55  H   UNL A   1      44.140  28.672  29.960  1.00  0.00     0.167 HD
ATOM     56  C   UNL A   1      45.854  26.579  29.248  1.00  0.00     0.074 A 
ATOM     57  C   UNL A   1      46.297  25.320  28.694  1.00  0.00     0.031 C 
ATOM     58  C   UNL A   1      46.679  27.512  29.788  1.00  0.00     0.037 A 
BRANCH  45  59
ATOM     59  C   UNL A   1      43.663  32.509  31.767  1.00  0.00     0.058 A 
ATOM     60  C   UNL A   1      43.924  33.711  31.093  1.00  0.00     0.135 A 
ATOM     61  C   UNL A   1      43.424  32.565  33.150  1.00  0.00     0.135 A 
ATOM     62  F   UNL A   1      44.184  33.705  29.776  1.00  0.00    -0.206 F 
ATOM     63  C   UNL A   1      43.952  34.925  31.770  1.00  0.00     0.059 A 
ATOM     64  C   UNL A   1      43.421  33.769  33.841  1.00  0.00     0.059 A 
ATOM     65  F   UNL A   1      43.176  31.439  33.837  1.00  0.00    -0.206 F 
ATOM     66  C   UNL A   1      43.695  34.943  33.145  1.00  0.00     0.060 A 
BRANCH  66  67
ATOM     67  S   UNL A   1      43.728  36.527  34.009  1.00  0.00     0.124 S 
ATOM     68  O   UNL A   1      42.559  36.412  34.875  1.00  0.00    -0.237 OA
ATOM     69  O   UNL A   1      45.022  36.486  34.681  1.00  0.00    -0.237 OA
ATOM     70  O   UNL A   1      43.614  37.506  32.932  1.00  0.00    -0.744 OA
ENDBRANCH  66  67
ENDBRANCH  45  59
BRANCH  46  71
ATOM     71  C   UNL A   1      42.603  23.624  27.577  1.00  0.00     0.058 A 
ATOM     72  C   UNL A   1      42.444  22.527  28.440  1.00  0.00     0.135 A 
ATOM     73  C   UNL A   1      42.676  23.354  26.200  1.00  0.00     0.135 A 
ATOM     74  F   UNL A   1      42.404  22.719  29.767  1.00  0.00    -0.206 F 
ATOM     75  C   UNL A   1      42.367  21.222  27.959  1.00  0.00     0.059 A 
ATOM     76  C   UNL A   1      42.566  22.064  25.693  1.00  0.00     0.059 A 
ATOM     77  F   UNL A   1      42.850  24.358  25.325  1.00  0.00    -0.206 F 
ATOM     78  C   UNL A   1      42.423  21.001  26.582  1.00  0.00     0.060 A 
BRANCH  78  79
ATOM     79  S   UNL A   1      42.282  19.310  25.961  1.00  0.00     0.124 S 
ATOM     80  O   UNL A   1      42.817  18.539  27.076  1.00  0.00    -0.237 OA
ATOM     81  O   UNL A   1      40.845  19.190  25.731  1.00  0.00    -0.237 OA
ATOM     82  O   UNL A   1      43.103  19.326  24.754  1.00  0.00    -0.744 OA
ENDBRANCH  78  79
ENDBRANCH  46  71
BRANCH  58  83
ATOM     83  C   UNL A   1      48.162  27.238  29.817  1.00  0.00     0.058 A 
ATOM     84  C   UNL A   1      49.002  27.636  28.765  1.00  0.00     0.135 A 
ATOM     85  C   UNL A   1      48.769  26.671  30.951  1.00  0.00     0.135 A 
ATOM     86  F   UNL A   1      48.480  28.182  27.654  1.00  0.00    -0.206 F 
ATOM     87  C   UNL A   1      50.384  27.477  28.831  1.00  0.00     0.059 A 
ATOM     88  C   UNL A   1      50.153  26.527  31.051  1.00  0.00     0.059 A 
ATOM     89  F   UNL A   1      48.020  26.282  31.996  1.00  0.00    -0.206 F 
ATOM     90  C   UNL A   1      50.952  26.930  29.984  1.00  0.00     0.060 A 
BRANCH  90  91
ATOM     91  S   UNL A   1      52.751  26.786  30.075  1.00  0.00     0.124 S 
ATOM     92  O   UNL A   1      53.137  28.133  30.481  1.00  0.00    -0.237 OA
ATOM     93  O   UNL A   1      52.928  25.745  31.084  1.00  0.00    -0.237 OA
ATOM     94  O   UNL A   1      53.133  26.408  28.717  1.00  0.00    -0.744 OA
ENDBRANCH  90  91
ENDBRANCH  58  83
ENDBRANCH  32  33
ENDBRANCH  25  27
ENDBRANCH  24  25
ENDBRANCH   1  24
TORSDOF 16
ENDMDL
MODEL 2
REMARK VINA RESULT:     -10.6      3.723      6.030
REMARK SMILES CCC[C@@H]1CCc2nc3c(F)cccc3c(C(=O)OCCOC(=O)c3ccc(-c4c5nc(c(-c6c(F)cc(S(=O)(=O)[O-])cc6F)c6ccc([nH]6)c(-c6c(F)cc(S(=O)(=O)[O-])cc6F)c6nc(c(-c7c(F)cc(S(=O)(=O)[O-])cc7F)c7ccc4[nH]7)C=C6)C=C5)cc3)c2C1
REMARK SMILES IDX 21 1 20 2 19 3 17 4 18 5 16 6 4 7 5 8 92 9 6 10 91 11 7 12
REMARK SMILES IDX 8 13 15 14 9 15 14 16 10 17 13 18 11 19 12 20 3 21 2 22 1 23
REMARK SMILES IDX 22 24 23 25 24 26 25 27 26 28 90 29 27 30 89 31 28 32 29 33
REMARK SMILES IDX 30 34 83 35 31 36 88 37 82 38 84 39 32 40 87 41 81 42 80 43
REMARK SMILES IDX 33 45 67 46 46 47 66 48 47 49 50 50 65 51 85 52 48 53 49 54
REMARK SMILES IDX 64 56 86 57 51 58 34 59 35 60 44 61 36 62 37 63 43 64 45 65
REMARK SMILES IDX 38 66 39 67 40 68 41 69 42 70 68 71 69 72 78 73 70 74 71 75
REMARK SMILES IDX 77 76 79 77 72 78 73 79 74 80 75 81 76 82 52 83 53 84 62 85
REMARK SMILES IDX 54 86 55 87 61 88 63 89 56 90 57 91 58 92 59 93 60 94
REMARK H PARENT 84 44 50 55
REMARK Flexibility Score: inf
ROOT
ATOM      1  C   UNL A   1      33.196  29.034  25.936  1.00  0.00     0.275 C 
ENDROOT
BRANCH   1   2
ATOM      2  C   UNL A   1      34.062  28.369  24.862  1.00  0.00     0.275 C 
BRANCH   2   3
ATOM      3  O   UNL A   1      33.637  28.769  23.539  1.00  0.00    -0.458 OA
BRANCH   3   4
ATOM      4  C   UNL A   1      33.338  27.779  22.654  1.00  0.00     0.339 C 
ATOM      5  O   UNL A   1      33.988  27.475  21.671  1.00  0.00    -0.246 OA
BRANCH   4   6
ATOM      6  C   UNL A   1      32.073  27.096  23.058  1.00  0.00     0.074 A 
ATOM      7  C   UNL A   1      33.215  23.576  24.268  1.00  0.00    -0.006 C 
ATOM      8  C   UNL A   1      31.870  22.889  24.042  1.00  0.00     0.010 C 
ATOM      9  C   UNL A   1      33.294  24.800  23.309  1.00  0.00     0.042 C 
ATOM     10  C   UNL A   1      30.764  23.824  24.477  1.00  0.00     0.057 C 
ATOM     11  C   UNL A   1      32.095  25.731  23.441  1.00  0.00    -0.011 A 
ATOM     12  C   UNL A   1      30.883  25.196  23.877  1.00  0.00     0.045 A 
ATOM     13  N   UNL A   1      29.724  25.884  23.874  1.00  0.00    -0.249 NA
ATOM     14  C   UNL A   1      30.838  27.828  23.005  1.00  0.00     0.018 A 
ATOM     15  C   UNL A   1      29.685  27.138  23.420  1.00  0.00     0.107 A 
ATOM     16  C   UNL A   1      30.659  29.163  22.531  1.00  0.00     0.011 A 
ATOM     17  C   UNL A   1      28.444  27.766  23.350  1.00  0.00     0.149 A 
ATOM     18  C   UNL A   1      29.401  29.773  22.477  1.00  0.00     0.004 A 
ATOM     19  F   UNL A   1      27.335  27.101  23.720  1.00  0.00    -0.205 F 
ATOM     20  C   UNL A   1      28.286  29.065  22.883  1.00  0.00     0.041 A 
BRANCH   7  21
ATOM     21  C   UNL A   1      34.373  22.570  24.096  1.00  0.00     0.003 C 
BRANCH  21  22
ATOM     22  C   UNL A   1      35.595  23.160  23.359  1.00  0.00    -0.003 C 
ATOM     23  C   UNL A   1      36.874  23.283  24.169  1.00  0.00     0.004 C 
ENDBRANCH  21  22
ENDBRANCH   7  21
ENDBRANCH   4   6
ENDBRANCH   3   4
ENDBRANCH   2   3
ENDBRANCH   1   2
BRANCH   1  24
ATOM     24  O   UNL A   1      33.858  28.947  27.211  1.00  0.00    -0.458 OA
BRANCH  24  25
ATOM     25  C   UNL A   1      34.354  30.108  27.694  1.00  0.00     0.338 C 
ATOM     26  O   UNL A   1      33.736  31.124  27.976  1.00  0.00    -0.246 OA
BRANCH  25  27
ATOM     27  C   UNL A   1      35.750  29.861  28.082  1.00  0.00     0.060 A 
ATOM     28  C   UNL A   1      36.695  30.074  27.091  1.00  0.00     0.016 A 
ATOM     29  C   UNL A   1      36.148  29.422  29.346  1.00  0.00     0.016 A 
ATOM     30  C   UNL A   1      38.041  29.880  27.372  1.00  0.00     0.010 A 
ATOM     31  C   UNL A   1      37.517  29.197  29.610  1.00  0.00     0.010 A 
ATOM     32  C   UNL A   1      38.482  29.427  28.616  1.00  0.00    -0.014 A 
BRANCH  32  33
ATOM     33  C   UNL A   1      39.924  29.051  28.732  1.00  0.00     0.031 A 
ATOM     34  C   UNL A   1      40.846  29.952  29.516  1.00  0.00     0.074 A 
ATOM     35  C   UNL A   1      40.376  27.820  28.408  1.00  0.00     0.049 A 
ATOM     36  N   UNL A   1      42.116  29.804  29.796  1.00  0.00    -0.248 NA
ATOM     37  C   UNL A   1      40.234  31.149  30.115  1.00  0.00     0.031 C 
ATOM     38  C   UNL A   1      39.552  26.722  27.903  1.00  0.00     0.029 A 
ATOM     39  N   UNL A   1      41.630  27.258  28.542  1.00  0.00    -0.354 N 
ATOM     40  C   UNL A   1      42.461  30.893  30.587  1.00  0.00     0.074 A 
ATOM     41  C   UNL A   1      41.261  31.685  30.758  1.00  0.00     0.031 C 
ATOM     42  C   UNL A   1      40.310  25.613  27.812  1.00  0.00     0.029 A 
ATOM     43  C   UNL A   1      41.693  25.929  28.180  1.00  0.00     0.049 A 
ATOM     44  H   UNL A   1      42.410  27.761  28.866  1.00  0.00     0.167 HD
ATOM     45  C   UNL A   1      43.665  31.217  31.115  1.00  0.00     0.037 A 
ATOM     46  C   UNL A   1      42.737  25.071  28.129  1.00  0.00     0.037 A 
ATOM     47  C   UNL A   1      44.869  30.443  30.964  1.00  0.00     0.049 A 
ATOM     48  C   UNL A   1      44.119  25.539  28.528  1.00  0.00     0.074 A 
ATOM     49  C   UNL A   1      46.151  30.768  31.376  1.00  0.00     0.029 A 
ATOM     50  N   UNL A   1      44.946  29.195  30.372  1.00  0.00    -0.354 N 
ATOM     51  N   UNL A   1      44.473  26.646  29.136  1.00  0.00    -0.248 NA
ATOM     52  C   UNL A   1      45.250  24.652  28.205  1.00  0.00     0.031 C 
ATOM     53  C   UNL A   1      47.014  29.744  30.975  1.00  0.00     0.029 A 
ATOM     54  C   UNL A   1      46.261  28.753  30.370  1.00  0.00     0.049 A 
ATOM     55  H   UNL A   1      44.181  28.695  30.005  1.00  0.00     0.167 HD
ATOM     56  C   UNL A   1      45.859  26.580  29.276  1.00  0.00     0.074 A 
ATOM     57  C   UNL A   1      46.280  25.316  28.714  1.00  0.00     0.031 C 
ATOM     58  C   UNL A   1      46.701  27.497  29.816  1.00  0.00     0.037 A 
BRANCH  45  59
ATOM     59  C   UNL A   1      43.772  32.531  31.832  1.00  0.00     0.058 A 
ATOM     60  C   UNL A   1      44.063  33.729  31.165  1.00  0.00     0.135 A 
ATOM     61  C   UNL A   1      43.524  32.587  33.214  1.00  0.00     0.135 A 
ATOM     62  F   UNL A   1      44.332  33.723  29.850  1.00  0.00    -0.206 F 
ATOM     63  C   UNL A   1      44.113  34.940  31.847  1.00  0.00     0.059 A 
ATOM     64  C   UNL A   1      43.542  33.788  33.910  1.00  0.00     0.059 A 
ATOM     65  F   UNL A   1      43.247  31.463  33.895  1.00  0.00    -0.206 F 
ATOM     66  C   UNL A   1      43.847  34.959  33.220  1.00  0.00     0.060 A 
BRANCH  66  67
ATOM     67  S   UNL A   1      43.908  36.538  34.091  1.00  0.00     0.124 S 
ATOM     68  O   UNL A   1      42.580  36.591  34.694  1.00  0.00    -0.237 OA
ATOM     69  O   UNL A   1      45.018  36.338  35.016  1.00  0.00    -0.237 OA
ATOM     70  O   UNL A   1      44.149  37.506  33.025  1.00  0.00    -0.744 OA
ENDBRANCH  66  67
ENDBRANCH  45  59
BRANCH  46  71
ATOM     71  C   UNL A   1      42.556  23.683  27.606  1.00  0.00     0.058 A 
ATOM     72  C   UNL A   1      42.425  22.580  28.465  1.00  0.00     0.135 A 
ATOM     73  C   UNL A   1      42.576  23.425  26.225  1.00  0.00     0.135 A 
ATOM     74  F   UNL A   1      42.436  22.760  29.794  1.00  0.00    -0.206 F 
ATOM     75  C   UNL A   1      42.326  21.278  27.976  1.00  0.00     0.059 A 
ATOM     76  C   UNL A   1      42.443  22.140  25.712  1.00  0.00     0.059 A 
ATOM     77  F   UNL A   1      42.720  24.436  25.353  1.00  0.00    -0.206 F 
ATOM     78  C   UNL A   1      42.330  21.069  26.596  1.00  0.00     0.060 A 
BRANCH  78  79
ATOM     79  S   UNL A   1      42.160  19.385  25.966  1.00  0.00     0.124 S 
ATOM     80  O   UNL A   1      42.700  18.600  27.069  1.00  0.00    -0.237 OA
ATOM     81  O   UNL A   1      40.719  19.283  25.754  1.00  0.00    -0.237 OA
ATOM     82  O   UNL A   1      42.965  19.399  24.748  1.00  0.00    -0.744 OA
ENDBRANCH  78  79
ENDBRANCH  46  71
BRANCH  58  83
ATOM     83  C   UNL A   1      48.180  27.201  29.837  1.00  0.00     0.058 A 
ATOM     84  C   UNL A   1      49.024  27.605  28.791  1.00  0.00     0.135 A 
ATOM     85  C   UNL A   1      48.780  26.604  30.960  1.00  0.00     0.135 A 
ATOM     86  F   UNL A   1      48.509  28.178  27.692  1.00  0.00    -0.206 F 
ATOM     87  C   UNL A   1      50.404  27.424  28.852  1.00  0.00     0.059 A 
ATOM     88  C   UNL A   1      50.162  26.437  31.055  1.00  0.00     0.059 A 
ATOM     89  F   UNL A   1      48.027  26.207  31.999  1.00  0.00    -0.206 F 
ATOM     90  C   UNL A   1      50.965  26.847  29.993  1.00  0.00     0.060 A 
BRANCH  90  91
ATOM     91  S   UNL A   1      52.762  26.674  30.078  1.00  0.00     0.124 S 
ATOM     92  O   UNL A   1      53.171  28.018  30.473  1.00  0.00    -0.237 OA
ATOM     93  O   UNL A   1      52.925  25.638  31.094  1.00  0.00    -0.237 OA
ATOM     94  O   UNL A   1      53.132  26.279  28.722  1.00  0.00    -0.744 OA
ENDBRANCH  90  91
ENDBRANCH  58  83
ENDBRANCH  32  33
ENDBRANCH  25  27
ENDBRANCH  24  25
ENDBRANCH   1  24
TORSDOF 16
ENDMDL
MODEL 3
REMARK VINA RESULT:     -10.5      3.573      6.513
REMARK SMILES CCC[C@@H]1CCc2nc3c(F)cccc3c(C(=O)OCCOC(=O)c3ccc(-c4c5nc(c(-c6c(F)cc(S(=O)(=O)[O-])cc6F)c6ccc([nH]6)c(-c6c(F)cc(S(=O)(=O)[O-])cc6F)c6nc(c(-c7c(F)cc(S(=O)(=O)[O-])cc7F)c7ccc4[nH]7)C=C6)C=C5)cc3)c2C1
REMARK SMILES IDX 21 1 20 2 19 3 17 4 18 5 16 6 4 7 5 8 92 9 6 10 91 11 7 12
REMARK SMILES IDX 8 13 15 14 9 15 14 16 10 17 13 18 11 19 12 20 3 21 2 22 1 23
REMARK SMILES IDX 22 24 23 25 24 26 25 27 26 28 90 29 27 30 89 31 28 32 29 33
REMARK SMILES IDX 30 34 83 35 31 36 88 37 82 38 84 39 32 40 87 41 81 42 80 43
REMARK SMILES IDX 33 45 67 46 46 47 66 48 47 49 50 50 65 51 85 52 48 53 49 54
REMARK SMILES IDX 64 56 86 57 51 58 34 59 35 60 44 61 36 62 37 63 43 64 45 65
REMARK SMILES IDX 38 66 39 67 40 68 41 69 42 70 68 71 69 72 78 73 70 74 71 75
REMARK SMILES IDX 77 76 79 77 72 78 73 79 74 80 75 81 76 82 52 83 53 84 62 85
REMARK SMILES IDX 54 86 55 87 61 88 63 89 56 90 57 91 58 92 59 93 60 94
REMARK H PARENT 84 44 50 55
REMARK Flexibility Score: inf
ROOT
ATOM      1  C   UNL A   1      33.071  29.138  27.224  1.00  0.00     0.275 C 
ENDROOT
BRANCH   1   2
ATOM      2  C   UNL A   1      33.249  29.370  25.721  1.00  0.00     0.275 C 
BRANCH   2   3
ATOM      3  O   UNL A   1      34.024  28.305  25.124  1.00  0.00    -0.458 OA
BRANCH   3   4
ATOM      4  C   UNL A   1      33.518  27.714  24.007  1.00  0.00     0.339 C 
ATOM      5  O   UNL A   1      33.957  27.822  22.876  1.00  0.00    -0.246 OA
BRANCH   4   6
ATOM      6  C   UNL A   1      32.322  26.893  24.359  1.00  0.00     0.074 A 
ATOM      7  C   UNL A   1      29.364  28.663  22.547  1.00  0.00    -0.006 C 
ATOM      8  C   UNL A   1      28.271  28.116  23.462  1.00  0.00     0.010 C 
ATOM      9  C   UNL A   1      30.699  28.674  23.350  1.00  0.00     0.042 C 
ATOM     10  C   UNL A   1      28.574  26.668  23.776  1.00  0.00     0.057 C 
ATOM     11  C   UNL A   1      31.028  27.320  23.965  1.00  0.00    -0.011 A 
ATOM     12  C   UNL A   1      29.977  26.454  24.268  1.00  0.00     0.045 A 
ATOM     13  N   UNL A   1      30.135  25.308  24.961  1.00  0.00    -0.249 NA
ATOM     14  C   UNL A   1      32.500  25.700  25.137  1.00  0.00     0.018 A 
ATOM     15  C   UNL A   1      31.339  24.956  25.416  1.00  0.00     0.107 A 
ATOM     16  C   UNL A   1      33.725  25.219  25.693  1.00  0.00     0.011 A 
ATOM     17  C   UNL A   1      31.426  23.813  26.207  1.00  0.00     0.149 A 
ATOM     18  C   UNL A   1      33.786  24.064  26.478  1.00  0.00     0.004 A 
ATOM     19  F   UNL A   1      30.315  23.115  26.499  1.00  0.00    -0.205 F 
ATOM     20  C   UNL A   1      32.625  23.361  26.743  1.00  0.00     0.041 A 
BRANCH   7  21
ATOM     21  C   UNL A   1      28.960  30.042  21.984  1.00  0.00     0.003 C 
BRANCH  21  22
ATOM     22  C   UNL A   1      27.937  30.791  22.866  1.00  0.00    -0.003 C 
ATOM     23  C   UNL A   1      28.376  32.142  23.403  1.00  0.00     0.004 C 
ENDBRANCH  21  22
ENDBRANCH   7  21
ENDBRANCH   4   6
ENDBRANCH   3   4
ENDBRANCH   2   3
ENDBRANCH   1   2
BRANCH   1  24
ATOM     24  O   UNL A   1      34.361  28.970  27.841  1.00  0.00    -0.458 OA
BRANCH  24  25
ATOM     25  C   UNL A   1      34.939  30.101  28.304  1.00  0.00     0.338 C 
ATOM     26  O   UNL A   1      34.386  31.096  28.747  1.00  0.00    -0.246 OA
BRANCH  25  27
ATOM     27  C   UNL A   1      36.379  29.834  28.438  1.00  0.00     0.060 A 
ATOM     28  C   UNL A   1      37.148  30.116  27.320  1.00  0.00     0.016 A 
ATOM     29  C   UNL A   1      36.977  29.312  29.586  1.00  0.00     0.016 A 
ATOM     30  C   UNL A   1      38.520  29.909  27.360  1.00  0.00     0.010 A 
ATOM     31  C   UNL A   1      38.370  29.075  29.603  1.00  0.00     0.010 A 
ATOM     32  C   UNL A   1      39.158  29.375  28.481  1.00  0.00    -0.014 A 
BRANCH  32  33
ATOM     33  C   UNL A   1      40.596  28.997  28.330  1.00  0.00     0.031 A 
ATOM     34  C   UNL A   1      41.651  29.947  28.843  1.00  0.00     0.074 A 
ATOM     35  C   UNL A   1      40.982  27.742  28.013  1.00  0.00     0.049 A 
ATOM     36  N   UNL A   1      42.952  29.809  28.871  1.00  0.00    -0.248 NA
ATOM     37  C   UNL A   1      41.163  31.189  29.464  1.00  0.00     0.031 C 
ATOM     38  C   UNL A   1      40.082  26.617  27.767  1.00  0.00     0.029 A 
ATOM     39  N   UNL A   1      42.242  27.182  27.932  1.00  0.00    -0.354 N 
ATOM     40  C   UNL A   1      43.442  30.951  29.493  1.00  0.00     0.074 A 
ATOM     41  C   UNL A   1      42.296  31.763  29.845  1.00  0.00     0.031 C 
ATOM     42  C   UNL A   1      40.813  25.498  27.607  1.00  0.00     0.029 A 
ATOM     43  C   UNL A   1      42.240  25.830  27.663  1.00  0.00     0.049 A 
ATOM     44  H   UNL A   1      43.068  27.702  28.054  1.00  0.00     0.167 HD
ATOM     45  C   UNL A   1      44.726  31.304  29.742  1.00  0.00     0.037 A 
ATOM     46  C   UNL A   1      43.259  24.962  27.465  1.00  0.00     0.037 A 
ATOM     47  C   UNL A   1      45.880  30.512  29.408  1.00  0.00     0.049 A 
ATOM     48  C   UNL A   1      44.689  25.448  27.542  1.00  0.00     0.074 A 
ATOM     49  C   UNL A   1      47.216  30.856  29.527  1.00  0.00     0.029 A 
ATOM     50  N   UNL A   1      45.845  29.223  28.906  1.00  0.00    -0.354 N 
ATOM     51  N   UNL A   1      45.150  26.594  27.983  1.00  0.00    -0.248 NA
ATOM     52  C   UNL A   1      45.739  24.531  27.063  1.00  0.00     0.031 C 
ATOM     53  C   UNL A   1      47.988  29.799  29.037  1.00  0.00     0.029 A 
ATOM     54  C   UNL A   1      47.135  28.772  28.671  1.00  0.00     0.049 A 
ATOM     55  H   UNL A   1      45.026  28.704  28.739  1.00  0.00     0.167 HD
ATOM     56  C   UNL A   1      46.537  26.528  27.844  1.00  0.00     0.074 A 
ATOM     57  C   UNL A   1      46.845  25.223  27.303  1.00  0.00     0.031 C 
ATOM     58  C   UNL A   1      47.464  27.476  28.134  1.00  0.00     0.037 A 
BRANCH  45  59
ATOM     59  C   UNL A   1      44.965  32.666  30.324  1.00  0.00     0.058 A 
ATOM     60  C   UNL A   1      45.040  33.820  29.531  1.00  0.00     0.135 A 
ATOM     61  C   UNL A   1      45.070  32.814  31.717  1.00  0.00     0.135 A 
ATOM     62  F   UNL A   1      44.971  33.726  28.193  1.00  0.00    -0.206 F 
ATOM     63  C   UNL A   1      45.220  35.076  30.100  1.00  0.00     0.059 A 
ATOM     64  C   UNL A   1      45.223  34.061  32.309  1.00  0.00     0.059 A 
ATOM     65  F   UNL A   1      45.010  31.737  32.516  1.00  0.00    -0.206 F 
ATOM     66  C   UNL A   1      45.306  35.186  31.491  1.00  0.00     0.060 A 
BRANCH  66  67
ATOM     67  S   UNL A   1      45.531  36.823  32.216  1.00  0.00     0.124 S 
ATOM     68  O   UNL A   1      45.020  36.617  33.567  1.00  0.00    -0.237 OA
ATOM     69  O   UNL A   1      46.973  37.014  32.106  1.00  0.00    -0.237 OA
ATOM     70  O   UNL A   1      44.719  37.688  31.366  1.00  0.00    -0.744 OA
ENDBRANCH  66  67
ENDBRANCH  45  59
BRANCH  46  71
ATOM     71  C   UNL A   1      42.986  23.541  27.094  1.00  0.00     0.058 A 
ATOM     72  C   UNL A   1      42.677  22.569  28.059  1.00  0.00     0.135 A 
ATOM     73  C   UNL A   1      43.094  23.112  25.760  1.00  0.00     0.135 A 
ATOM     74  F   UNL A   1      42.596  22.913  29.354  1.00  0.00    -0.206 F 
ATOM     75  C   UNL A   1      42.492  21.231  27.719  1.00  0.00     0.059 A 
ATOM     76  C   UNL A   1      42.879  21.789  25.390  1.00  0.00     0.059 A 
ATOM     77  F   UNL A   1      43.408  23.989  24.793  1.00  0.00    -0.206 F 
ATOM     78  C   UNL A   1      42.588  20.852  26.379  1.00  0.00     0.060 A 
BRANCH  78  79
ATOM     79  S   UNL A   1      42.306  19.123  25.937  1.00  0.00     0.124 S 
ATOM     80  O   UNL A   1      40.871  19.111  25.685  1.00  0.00    -0.237 OA
ATOM     81  O   UNL A   1      43.163  18.965  24.766  1.00  0.00    -0.237 OA
ATOM     82  O   UNL A   1      42.744  18.396  27.125  1.00  0.00    -0.744 OA
ENDBRANCH  78  79
ENDBRANCH  46  71
BRANCH  58  83
ATOM     83  C   UNL A   1      48.919  27.170  27.877  1.00  0.00     0.058 A 
ATOM     84  C   UNL A   1      49.691  26.450  28.801  1.00  0.00     0.135 A 
ATOM     85  C   UNL A   1      49.521  27.505  26.651  1.00  0.00     0.135 A 
ATOM     86  F   UNL A   1      49.172  26.104  29.990  1.00  0.00    -0.206 F 
ATOM     87  C   UNL A   1      51.005  26.078  28.526  1.00  0.00     0.059 A 
ATOM     88  C   UNL A   1      50.825  27.120  26.342  1.00  0.00     0.059 A 
ATOM     89  F   UNL A   1      48.829  28.184  25.721  1.00  0.00    -0.206 F 
ATOM     90  C   UNL A   1      51.561  26.409  27.288  1.00  0.00     0.060 A 
BRANCH  90  91
ATOM     91  S   UNL A   1      53.246  25.868  26.926  1.00  0.00     0.124 S 
ATOM     92  O   UNL A   1      53.010  24.609  26.227  1.00  0.00    -0.237 OA
ATOM     93  O   UNL A   1      53.753  26.963  26.104  1.00  0.00    -0.237 OA
ATOM     94  O   UNL A   1      53.858  25.746  28.246  1.00  0.00    -0.744 OA
ENDBRANCH  90  91
ENDBRANCH  58  83
ENDBRANCH  32  33
ENDBRANCH  25  27
ENDBRANCH  24  25
ENDBRANCH   1  24
TORSDOF 16
ENDMDL
