MODEL 1
REMARK VINA RESULT:     -13.9      0.000      0.000
REMARK SMILES Cc1ccccc1[C@@H]1[NH2+][C@H](C(=O)OCCOC(=O)c2ccc(-c3c4nc(c(-c5c(F)cc(S(=O)(=O)[O-])cc5F)c5ccc([nH]5)c(-c5c(F)cc(S(=O)(=O)[O-])cc5F)c5nc(c(-c6c(F)cc(S(=O)(=O)[O-])cc6F)c6ccc3[nH]6)C=C5)C=C4)cc2)CC2=c3ccccc3=N[C@@H]21
REMARK SMILES IDX 15 1 14 2 13 3 11 4 12 5 10 6 8 7 9 8 94 9 86 12 93 13 85 14
REMARK SMILES IDX 87 15 92 16 88 17 91 18 89 19 90 20 7 21 1 22 2 23 3 24 4 25
REMARK SMILES IDX 6 26 5 27 16 28 17 29 18 30 19 31 20 32 84 33 21 34 83 35
REMARK SMILES IDX 22 36 23 37 24 38 77 39 25 40 82 41 76 42 78 43 26 44 81 45
REMARK SMILES IDX 75 46 74 47 27 49 61 50 40 51 60 52 41 53 44 54 59 55 79 56
REMARK SMILES IDX 42 57 43 58 58 60 80 61 45 62 28 63 29 64 38 65 30 66 31 67
REMARK SMILES IDX 37 68 39 69 32 70 33 71 34 72 35 73 36 74 62 75 63 76 72 77
REMARK SMILES IDX 64 78 65 79 71 80 73 81 66 82 67 83 68 84 69 85 70 86 46 87
REMARK SMILES IDX 47 88 56 89 48 90 49 91 55 92 57 93 50 94 51 95 52 96 53 97
REMARK SMILES IDX 54 98
REMARK H PARENT 9 10 9 11 78 48 44 59
REMARK Flexibility Score: inf
ROOT
ATOM      1  C   UNL A   1      34.190  31.466  27.846  1.00  0.00     0.275 C 
ENDROOT
BRANCH   1   2
ATOM      2  C   UNL A   1      32.965  30.833  27.147  1.00  0.00     0.274 C 
BRANCH   2   3
ATOM      3  O   UNL A   1      33.123  29.993  25.966  1.00  0.00    -0.458 OA
BRANCH   3   4
ATOM      4  C   UNL A   1      32.589  28.785  25.606  1.00  0.00     0.365 C 
ATOM      5  O   UNL A   1      31.445  28.495  25.942  1.00  0.00    -0.245 OA
BRANCH   4   6
ATOM      6  C   UNL A   1      33.463  27.892  24.723  1.00  0.00     0.298 C 
ATOM      7  C   UNL A   1      33.280  25.485  24.157  1.00  0.00     0.243 C 
ATOM      8  N   UNL A   1      33.070  26.556  25.108  1.00  0.00    -0.326 N 
ATOM      9  C   UNL A   1      32.291  25.800  22.956  1.00  0.00     0.196 C 
ATOM     10  H   UNL A   1      33.592  26.319  25.953  1.00  0.00     0.347 HD
ATOM     11  H   UNL A   1      32.057  26.609  25.214  1.00  0.00     0.347 HD
ATOM     12  C   UNL A   1      32.341  27.304  22.634  1.00  0.00    -0.024 C 
ATOM     13  N   UNL A   1      30.841  25.599  23.277  1.00  0.00    -0.270 NA
ATOM     14  C   UNL A   1      33.466  28.120  23.199  1.00  0.00     0.111 C 
ATOM     15  C   UNL A   1      31.131  27.845  22.508  1.00  0.00     0.002 A 
ATOM     16  C   UNL A   1      30.288  26.751  23.019  1.00  0.00     0.066 A 
ATOM     17  C   UNL A   1      30.702  29.213  22.545  1.00  0.00     0.010 A 
ATOM     18  C   UNL A   1      28.890  27.128  23.342  1.00  0.00     0.028 A 
ATOM     19  C   UNL A   1      29.468  29.491  22.986  1.00  0.00     0.001 A 
ATOM     20  C   UNL A   1      28.547  28.429  23.342  1.00  0.00     0.002 A 
BRANCH   7  21
ATOM     21  C   UNL A   1      33.236  24.278  25.120  1.00  0.00     0.015 A 
ATOM     22  C   UNL A   1      35.834  24.079  25.225  1.00  0.00     0.045 C 
ATOM     23  C   UNL A   1      34.435  23.779  25.713  1.00  0.00    -0.042 A 
ATOM     24  C   UNL A   1      34.375  23.090  26.947  1.00  0.00     0.004 A 
ATOM     25  C   UNL A   1      33.171  22.918  27.626  1.00  0.00     0.000 A 
ATOM     26  C   UNL A   1      32.020  24.010  25.802  1.00  0.00     0.010 A 
ATOM     27  C   UNL A   1      31.994  23.377  27.051  1.00  0.00     0.001 A 
ENDBRANCH   7  21
ENDBRANCH   4   6
ENDBRANCH   3   4
ENDBRANCH   2   3
ENDBRANCH   1   2
BRANCH   1  28
ATOM     28  O   UNL A   1      35.534  30.930  27.625  1.00  0.00    -0.458 OA
BRANCH  28  29
ATOM     29  C   UNL A   1      36.090  29.688  27.874  1.00  0.00     0.338 C 
ATOM     30  O   UNL A   1      35.693  28.701  27.299  1.00  0.00    -0.246 OA
BRANCH  29  31
ATOM     31  C   UNL A   1      37.325  29.710  28.699  1.00  0.00     0.060 A 
ATOM     32  C   UNL A   1      37.469  28.984  29.900  1.00  0.00     0.016 A 
ATOM     33  C   UNL A   1      38.418  30.063  27.974  1.00  0.00     0.016 A 
ATOM     34  C   UNL A   1      38.692  28.332  30.173  1.00  0.00     0.010 A 
ATOM     35  C   UNL A   1      39.406  29.136  28.043  1.00  0.00     0.010 A 
ATOM     36  C   UNL A   1      39.643  28.310  29.156  1.00  0.00    -0.014 A 
BRANCH  36  37
ATOM     37  C   UNL A   1      40.904  27.546  29.033  1.00  0.00     0.031 A 
ATOM     38  C   UNL A   1      40.993  26.142  28.531  1.00  0.00     0.074 A 
ATOM     39  C   UNL A   1      41.995  28.290  29.372  1.00  0.00     0.049 A 
ATOM     40  N   UNL A   1      41.580  25.169  29.150  1.00  0.00    -0.248 NA
ATOM     41  C   UNL A   1      40.448  25.699  27.242  1.00  0.00     0.031 C 
ATOM     42  C   UNL A   1      43.418  28.051  29.342  1.00  0.00     0.029 A 
ATOM     43  N   UNL A   1      41.933  29.555  29.998  1.00  0.00    -0.354 N 
ATOM     44  C   UNL A   1      41.787  24.161  28.208  1.00  0.00     0.074 A 
ATOM     45  C   UNL A   1      40.866  24.429  27.142  1.00  0.00     0.031 C 
ATOM     46  C   UNL A   1      44.000  28.879  30.247  1.00  0.00     0.029 A 
ATOM     47  C   UNL A   1      42.942  29.638  30.919  1.00  0.00     0.049 A 
ATOM     48  H   UNL A   1      41.273  30.259  29.804  1.00  0.00     0.167 HD
ATOM     49  C   UNL A   1      42.950  23.438  28.197  1.00  0.00     0.037 A 
ATOM     50  C   UNL A   1      42.539  29.658  32.221  1.00  0.00     0.037 A 
ATOM     51  C   UNL A   1      43.884  24.076  29.110  1.00  0.00     0.049 A 
ATOM     52  C   UNL A   1      43.057  28.408  32.851  1.00  0.00     0.074 A 
ATOM     53  C   UNL A   1      44.920  24.961  28.864  1.00  0.00     0.029 A 
ATOM     54  N   UNL A   1      43.608  24.139  30.464  1.00  0.00    -0.354 N 
ATOM     55  N   UNL A   1      43.125  27.255  32.241  1.00  0.00    -0.248 NA
ATOM     56  C   UNL A   1      43.741  28.435  34.133  1.00  0.00     0.031 C 
ATOM     57  C   UNL A   1      45.278  25.559  30.094  1.00  0.00     0.029 A 
ATOM     58  C   UNL A   1      44.427  25.067  31.071  1.00  0.00     0.049 A 
ATOM     59  H   UNL A   1      42.928  23.600  30.927  1.00  0.00     0.167 HD
ATOM     60  C   UNL A   1      43.958  26.440  32.961  1.00  0.00     0.074 A 
ATOM     61  C   UNL A   1      44.295  27.214  34.144  1.00  0.00     0.031 C 
ATOM     62  C   UNL A   1      44.399  25.231  32.508  1.00  0.00     0.037 A 
BRANCH  49  63
ATOM     63  C   UNL A   1      43.430  22.435  27.146  1.00  0.00     0.058 A 
ATOM     64  C   UNL A   1      42.793  21.175  27.003  1.00  0.00     0.135 A 
ATOM     65  C   UNL A   1      44.454  22.669  26.204  1.00  0.00     0.135 A 
ATOM     66  F   UNL A   1      41.741  20.823  27.754  1.00  0.00    -0.206 F 
ATOM     67  C   UNL A   1      43.180  20.206  26.077  1.00  0.00     0.059 A 
ATOM     68  C   UNL A   1      44.871  21.702  25.266  1.00  0.00     0.059 A 
ATOM     69  F   UNL A   1      45.067  23.861  26.134  1.00  0.00    -0.206 F 
ATOM     70  C   UNL A   1      44.230  20.469  25.216  1.00  0.00     0.060 A 
BRANCH  70  71
ATOM     71  S   UNL A   1      44.694  19.186  24.031  1.00  0.00     0.124 S 
ATOM     72  O   UNL A   1      46.093  18.947  24.373  1.00  0.00    -0.237 OA
ATOM     73  O   UNL A   1      43.769  18.108  24.364  1.00  0.00    -0.237 OA
ATOM     74  O   UNL A   1      44.472  19.823  22.736  1.00  0.00    -0.744 OA
ENDBRANCH  70  71
ENDBRANCH  49  63
BRANCH  50  75
ATOM     75  C   UNL A   1      41.196  30.330  32.452  1.00  0.00     0.058 A 
ATOM     76  C   UNL A   1      40.172  29.574  33.072  1.00  0.00     0.135 A 
ATOM     77  C   UNL A   1      40.982  31.719  32.403  1.00  0.00     0.135 A 
ATOM     78  F   UNL A   1      40.303  28.240  33.184  1.00  0.00    -0.206 F 
ATOM     79  C   UNL A   1      39.055  30.155  33.684  1.00  0.00     0.059 A 
ATOM     80  C   UNL A   1      39.859  32.327  33.005  1.00  0.00     0.059 A 
ATOM     81  F   UNL A   1      41.899  32.523  31.846  1.00  0.00    -0.206 F 
ATOM     82  C   UNL A   1      38.916  31.539  33.670  1.00  0.00     0.060 A 
BRANCH  82  83
ATOM     83  S   UNL A   1      37.595  32.273  34.688  1.00  0.00     0.124 S 
ATOM     84  O   UNL A   1      36.413  32.047  33.863  1.00  0.00    -0.237 OA
ATOM     85  O   UNL A   1      37.664  31.467  35.907  1.00  0.00    -0.237 OA
ATOM     86  O   UNL A   1      38.010  33.664  34.830  1.00  0.00    -0.744 OA
ENDBRANCH  82  83
ENDBRANCH  50  75
BRANCH  62  87
ATOM     87  C   UNL A   1      44.968  24.118  33.352  1.00  0.00     0.058 A 
ATOM     88  C   UNL A   1      46.269  24.130  33.872  1.00  0.00     0.135 A 
ATOM     89  C   UNL A   1      44.138  23.060  33.815  1.00  0.00     0.135 A 
ATOM     90  F   UNL A   1      47.116  25.143  33.649  1.00  0.00    -0.206 F 
ATOM     91  C   UNL A   1      46.747  23.123  34.701  1.00  0.00     0.059 A 
ATOM     92  C   UNL A   1      44.569  22.095  34.713  1.00  0.00     0.059 A 
ATOM     93  F   UNL A   1      42.857  22.932  33.439  1.00  0.00    -0.206 F 
ATOM     94  C   UNL A   1      45.889  22.113  35.118  1.00  0.00     0.060 A 
BRANCH  94  95
ATOM     95  S   UNL A   1      46.512  20.853  36.232  1.00  0.00     0.124 S 
ATOM     96  O   UNL A   1      45.656  19.722  35.886  1.00  0.00    -0.237 OA
ATOM     97  O   UNL A   1      47.908  20.735  35.824  1.00  0.00    -0.237 OA
ATOM     98  O   UNL A   1      46.296  21.430  37.554  1.00  0.00    -0.744 OA
ENDBRANCH  94  95
ENDBRANCH  62  87
ENDBRANCH  36  37
ENDBRANCH  29  31
ENDBRANCH  28  29
ENDBRANCH   1  28
TORSDOF 15
ENDMDL
MODEL 2
REMARK VINA RESULT:     -13.8      2.106      3.096
REMARK SMILES Cc1ccccc1[C@@H]1[NH2+][C@H](C(=O)OCCOC(=O)c2ccc(-c3c4nc(c(-c5c(F)cc(S(=O)(=O)[O-])cc5F)c5ccc([nH]5)c(-c5c(F)cc(S(=O)(=O)[O-])cc5F)c5nc(c(-c6c(F)cc(S(=O)(=O)[O-])cc6F)c6ccc3[nH]6)C=C5)C=C4)cc2)CC2=c3ccccc3=N[C@@H]21
REMARK SMILES IDX 15 1 14 2 13 3 11 4 12 5 10 6 8 7 9 8 94 9 86 12 93 13 85 14
REMARK SMILES IDX 87 15 92 16 88 17 91 18 89 19 90 20 7 21 1 22 2 23 3 24 4 25
REMARK SMILES IDX 6 26 5 27 16 28 17 29 18 30 19 31 20 32 84 33 21 34 83 35
REMARK SMILES IDX 22 36 23 37 24 38 77 39 25 40 82 41 76 42 78 43 26 44 81 45
REMARK SMILES IDX 75 46 74 47 27 49 61 50 40 51 60 52 41 53 44 54 59 55 79 56
REMARK SMILES IDX 42 57 43 58 58 60 80 61 45 62 28 63 29 64 38 65 30 66 31 67
REMARK SMILES IDX 37 68 39 69 32 70 33 71 34 72 35 73 36 74 62 75 63 76 72 77
REMARK SMILES IDX 64 78 65 79 71 80 73 81 66 82 67 83 68 84 69 85 70 86 46 87
REMARK SMILES IDX 47 88 56 89 48 90 49 91 55 92 57 93 50 94 51 95 52 96 53 97
REMARK SMILES IDX 54 98
REMARK H PARENT 9 10 9 11 78 48 44 59
REMARK Flexibility Score: inf
ROOT
ATOM      1  C   UNL A   1      32.921  31.366  26.877  1.00  0.00     0.275 C 
ENDROOT
BRANCH   1   2
ATOM      2  C   UNL A   1      31.772  30.346  27.044  1.00  0.00     0.274 C 
BRANCH   2   3
ATOM      3  O   UNL A   1      32.019  29.013  27.579  1.00  0.00    -0.458 OA
BRANCH   3   4
ATOM      4  C   UNL A   1      32.080  27.775  26.998  1.00  0.00     0.365 C 
ATOM      5  O   UNL A   1      31.068  27.087  26.910  1.00  0.00    -0.245 OA
BRANCH   4   6
ATOM      6  C   UNL A   1      33.436  27.363  26.420  1.00  0.00     0.298 C 
ATOM      7  C   UNL A   1      34.122  25.334  25.172  1.00  0.00     0.243 C 
ATOM      8  N   UNL A   1      33.276  25.948  26.172  1.00  0.00    -0.326 N 
ATOM      9  C   UNL A   1      33.667  25.976  23.793  1.00  0.00     0.196 C 
ATOM     10  H   UNL A   1      33.448  25.465  27.054  1.00  0.00     0.347 HD
ATOM     11  H   UNL A   1      32.332  25.861  25.796  1.00  0.00     0.347 HD
ATOM     12  C   UNL A   1      33.457  27.489  23.980  1.00  0.00    -0.024 C 
ATOM     13  N   UNL A   1      32.317  25.532  23.318  1.00  0.00    -0.270 NA
ATOM     14  C   UNL A   1      34.003  28.141  25.216  1.00  0.00     0.111 C 
ATOM     15  C   UNL A   1      32.310  27.919  23.458  1.00  0.00     0.002 A 
ATOM     16  C   UNL A   1      31.643  26.638  23.172  1.00  0.00     0.066 A 
ATOM     17  C   UNL A   1      31.570  29.127  23.678  1.00  0.00     0.010 A 
ATOM     18  C   UNL A   1      30.190  26.733  22.888  1.00  0.00     0.028 A 
ATOM     19  C   UNL A   1      30.237  29.102  23.542  1.00  0.00     0.001 A 
ATOM     20  C   UNL A   1      29.556  27.901  23.099  1.00  0.00     0.002 A 
BRANCH   7  21
ATOM     21  C   UNL A   1      33.998  23.856  25.607  1.00  0.00     0.015 A 
ATOM     22  C   UNL A   1      36.317  23.213  24.602  1.00  0.00     0.045 C 
ATOM     23  C   UNL A   1      35.105  22.966  25.473  1.00  0.00    -0.042 A 
ATOM     24  C   UNL A   1      35.207  21.838  26.320  1.00  0.00     0.004 A 
ATOM     25  C   UNL A   1      34.269  21.591  27.319  1.00  0.00     0.000 A 
ATOM     26  C   UNL A   1      33.020  23.526  26.581  1.00  0.00     0.010 A 
ATOM     27  C   UNL A   1      33.174  22.435  27.447  1.00  0.00     0.001 A 
ENDBRANCH   7  21
ENDBRANCH   4   6
ENDBRANCH   3   4
ENDBRANCH   2   3
ENDBRANCH   1   2
BRANCH   1  28
ATOM     28  O   UNL A   1      34.158  31.228  27.648  1.00  0.00    -0.458 OA
BRANCH  28  29
ATOM     29  C   UNL A   1      35.138  32.140  28.001  1.00  0.00     0.338 C 
ATOM     30  O   UNL A   1      35.136  33.262  27.550  1.00  0.00    -0.246 OA
BRANCH  29  31
ATOM     31  C   UNL A   1      36.019  31.709  29.116  1.00  0.00     0.060 A 
ATOM     32  C   UNL A   1      35.973  30.420  29.688  1.00  0.00     0.016 A 
ATOM     33  C   UNL A   1      37.154  32.452  29.187  1.00  0.00     0.016 A 
ATOM     34  C   UNL A   1      37.180  29.767  30.026  1.00  0.00     0.010 A 
ATOM     35  C   UNL A   1      38.275  31.690  29.133  1.00  0.00     0.010 A 
ATOM     36  C   UNL A   1      38.365  30.375  29.623  1.00  0.00    -0.014 A 
BRANCH  36  37
ATOM     37  C   UNL A   1      39.755  29.866  29.618  1.00  0.00     0.031 A 
ATOM     38  C   UNL A   1      40.180  28.583  28.982  1.00  0.00     0.074 A 
ATOM     39  C   UNL A   1      40.625  30.732  30.210  1.00  0.00     0.049 A 
ATOM     40  N   UNL A   1      40.853  27.649  29.573  1.00  0.00    -0.248 NA
ATOM     41  C   UNL A   1      39.913  28.239  27.580  1.00  0.00     0.031 C 
ATOM     42  C   UNL A   1      42.059  30.750  30.383  1.00  0.00     0.029 A 
ATOM     43  N   UNL A   1      40.236  31.866  30.957  1.00  0.00    -0.354 N 
ATOM     44  C   UNL A   1      41.378  26.835  28.569  1.00  0.00     0.074 A 
ATOM     45  C   UNL A   1      40.577  27.087  27.405  1.00  0.00     0.031 C 
ATOM     46  C   UNL A   1      42.341  31.530  31.457  1.00  0.00     0.029 A 
ATOM     47  C   UNL A   1      41.075  31.992  32.032  1.00  0.00     0.049 A 
ATOM     48  H   UNL A   1      39.486  32.466  30.741  1.00  0.00     0.167 HD
ATOM     49  C   UNL A   1      42.648  26.333  28.663  1.00  0.00     0.037 A 
ATOM     50  C   UNL A   1      40.500  31.759  33.246  1.00  0.00     0.037 A 
ATOM     51  C   UNL A   1      43.308  26.989  29.780  1.00  0.00     0.049 A 
ATOM     52  C   UNL A   1      41.158  30.541  33.806  1.00  0.00     0.074 A 
ATOM     53  C   UNL A   1      44.177  28.065  29.806  1.00  0.00     0.029 A 
ATOM     54  N   UNL A   1      42.842  26.812  31.071  1.00  0.00    -0.354 N 
ATOM     55  N   UNL A   1      41.529  29.515  33.088  1.00  0.00    -0.248 NA
ATOM     56  C   UNL A   1      41.641  30.506  35.176  1.00  0.00     0.031 C 
ATOM     57  C   UNL A   1      44.242  28.537  31.137  1.00  0.00     0.029 A 
ATOM     58  C   UNL A   1      43.376  27.772  31.902  1.00  0.00     0.049 A 
ATOM     59  H   UNL A   1      42.221  26.103  31.354  1.00  0.00     0.167 HD
ATOM     60  C   UNL A   1      42.397  28.764  33.836  1.00  0.00     0.074 A 
ATOM     61  C   UNL A   1      42.413  29.409  35.137  1.00  0.00     0.031 C 
ATOM     62  C   UNL A   1      43.120  27.724  33.326  1.00  0.00     0.037 A 
BRANCH  49  63
ATOM     63  C   UNL A   1      43.452  25.587  27.596  1.00  0.00     0.058 A 
ATOM     64  C   UNL A   1      43.571  24.173  27.637  1.00  0.00     0.135 A 
ATOM     65  C   UNL A   1      44.066  26.182  26.474  1.00  0.00     0.135 A 
ATOM     66  F   UNL A   1      42.972  23.438  28.583  1.00  0.00    -0.206 F 
ATOM     67  C   UNL A   1      44.295  23.425  26.708  1.00  0.00     0.059 A 
ATOM     68  C   UNL A   1      44.812  25.449  25.528  1.00  0.00     0.059 A 
ATOM     69  F   UNL A   1      43.936  27.495  26.233  1.00  0.00    -0.206 F 
ATOM     70  C   UNL A   1      44.926  24.069  25.659  1.00  0.00     0.060 A 
BRANCH  70  71
ATOM     71  S   UNL A   1      45.848  23.059  24.478  1.00  0.00     0.124 S 
ATOM     72  O   UNL A   1      46.381  22.001  25.332  1.00  0.00    -0.237 OA
ATOM     73  O   UNL A   1      44.808  22.650  23.541  1.00  0.00    -0.237 OA
ATOM     74  O   UNL A   1      46.843  23.984  23.944  1.00  0.00    -0.744 OA
ENDBRANCH  70  71
ENDBRANCH  49  63
BRANCH  50  75
ATOM     75  C   UNL A   1      39.035  32.149  33.332  1.00  0.00     0.058 A 
ATOM     76  C   UNL A   1      38.708  33.526  33.266  1.00  0.00     0.135 A 
ATOM     77  C   UNL A   1      37.962  31.260  33.145  1.00  0.00     0.135 A 
ATOM     78  F   UNL A   1      39.676  34.448  33.411  1.00  0.00    -0.206 F 
ATOM     79  C   UNL A   1      37.428  33.994  32.947  1.00  0.00     0.059 A 
ATOM     80  C   UNL A   1      36.660  31.709  32.832  1.00  0.00     0.059 A 
ATOM     81  F   UNL A   1      38.170  29.936  33.178  1.00  0.00    -0.206 F 
ATOM     82  C   UNL A   1      36.410  33.078  32.705  1.00  0.00     0.060 A 
BRANCH  82  83
ATOM     83  S   UNL A   1      34.833  33.710  32.048  1.00  0.00     0.124 S 
ATOM     84  O   UNL A   1      34.337  34.510  33.162  1.00  0.00    -0.237 OA
ATOM     85  O   UNL A   1      35.272  34.477  30.881  1.00  0.00    -0.237 OA
ATOM     86  O   UNL A   1      34.077  32.498  31.754  1.00  0.00    -0.744 OA
ENDBRANCH  82  83
ENDBRANCH  50  75
BRANCH  62  87
ATOM     87  C   UNL A   1      43.771  26.620  34.118  1.00  0.00     0.058 A 
ATOM     88  C   UNL A   1      43.052  25.624  34.793  1.00  0.00     0.135 A 
ATOM     89  C   UNL A   1      45.180  26.430  34.078  1.00  0.00     0.135 A 
ATOM     90  F   UNL A   1      41.715  25.584  34.787  1.00  0.00    -0.206 F 
ATOM     91  C   UNL A   1      43.679  24.579  35.462  1.00  0.00     0.059 A 
ATOM     92  C   UNL A   1      45.817  25.346  34.664  1.00  0.00     0.059 A 
ATOM     93  F   UNL A   1      46.002  27.275  33.439  1.00  0.00    -0.206 F 
ATOM     94  C   UNL A   1      45.060  24.448  35.388  1.00  0.00     0.060 A 
BRANCH  94  95
ATOM     95  S   UNL A   1      45.843  23.062  36.214  1.00  0.00     0.124 S 
ATOM     96  O   UNL A   1      45.642  23.417  37.615  1.00  0.00    -0.237 OA
ATOM     97  O   UNL A   1      45.062  21.927  35.731  1.00  0.00    -0.237 OA
ATOM     98  O   UNL A   1      47.221  23.116  35.738  1.00  0.00    -0.744 OA
ENDBRANCH  94  95
ENDBRANCH  62  87
ENDBRANCH  36  37
ENDBRANCH  29  31
ENDBRANCH  28  29
ENDBRANCH   1  28
TORSDOF 15
ENDMDL
MODEL 3
REMARK VINA RESULT:     -13.8      2.388      4.336
REMARK SMILES Cc1ccccc1[C@@H]1[NH2+][C@H](C(=O)OCCOC(=O)c2ccc(-c3c4nc(c(-c5c(F)cc(S(=O)(=O)[O-])cc5F)c5ccc([nH]5)c(-c5c(F)cc(S(=O)(=O)[O-])cc5F)c5nc(c(-c6c(F)cc(S(=O)(=O)[O-])cc6F)c6ccc3[nH]6)C=C5)C=C4)cc2)CC2=c3ccccc3=N[C@@H]21
REMARK SMILES IDX 15 1 14 2 13 3 11 4 12 5 10 6 8 7 9 8 94 9 86 12 93 13 85 14
REMARK SMILES IDX 87 15 92 16 88 17 91 18 89 19 90 20 7 21 1 22 2 23 3 24 4 25
REMARK SMILES IDX 6 26 5 27 16 28 17 29 18 30 19 31 20 32 84 33 21 34 83 35
REMARK SMILES IDX 22 36 23 37 24 38 77 39 25 40 82 41 76 42 78 43 26 44 81 45
REMARK SMILES IDX 75 46 74 47 27 49 61 50 40 51 60 52 41 53 44 54 59 55 79 56
REMARK SMILES IDX 42 57 43 58 58 60 80 61 45 62 28 63 29 64 38 65 30 66 31 67
REMARK SMILES IDX 37 68 39 69 32 70 33 71 34 72 35 73 36 74 62 75 63 76 72 77
REMARK SMILES IDX 64 78 65 79 71 80 73 81 66 82 67 83 68 84 69 85 70 86 46 87
REMARK SMILES IDX 47 88 56 89 48 90 49 91 55 92 57 93 50 94 51 95 52 96 53 97
REMARK SMILES IDX 54 98
REMARK H PARENT 9 10 9 11 78 48 44 59
REMARK Flexibility Score: inf
ROOT
ATOM      1  C   UNL A   1      33.908  30.264  26.817  1.00  0.00     0.275 C 
ENDROOT
BRANCH   1   2
ATOM      2  C   UNL A   1      34.583  28.900  27.084  1.00  0.00     0.274 C 
BRANCH   2   3
ATOM      3  O   UNL A   1      34.141  27.693  26.395  1.00  0.00    -0.458 OA
BRANCH   3   4
ATOM      4  C   UNL A   1      33.318  27.485  25.322  1.00  0.00     0.365 C 
ATOM      5  O   UNL A   1      33.793  27.364  24.197  1.00  0.00    -0.245 OA
BRANCH   4   6
ATOM      6  C   UNL A   1      31.825  27.342  25.630  1.00  0.00     0.298 C 
ATOM      7  C   UNL A   1      29.869  27.115  24.124  1.00  0.00     0.243 C 
ATOM      8  N   UNL A   1      31.194  27.644  24.365  1.00  0.00    -0.326 N 
ATOM      9  C   UNL A   1      30.060  25.542  24.043  1.00  0.00     0.196 C 
ATOM     10  H   UNL A   1      31.134  28.660  24.291  1.00  0.00     0.347 HD
ATOM     11  H   UNL A   1      31.783  27.184  23.670  1.00  0.00     0.347 HD
ATOM     12  C   UNL A   1      31.014  25.085  25.161  1.00  0.00    -0.024 C 
ATOM     13  N   UNL A   1      30.772  25.065  22.814  1.00  0.00    -0.270 NA
ATOM     14  C   UNL A   1      31.317  26.040  26.279  1.00  0.00     0.111 C 
ATOM     15  C   UNL A   1      31.962  24.258  24.725  1.00  0.00     0.002 A 
ATOM     16  C   UNL A   1      31.790  24.390  23.269  1.00  0.00     0.066 A 
ATOM     17  C   UNL A   1      33.211  23.865  25.309  1.00  0.00     0.010 A 
ATOM     18  C   UNL A   1      32.909  23.860  22.450  1.00  0.00     0.028 A 
ATOM     19  C   UNL A   1      34.227  23.535  24.500  1.00  0.00     0.001 A 
ATOM     20  C   UNL A   1      34.050  23.492  23.061  1.00  0.00     0.002 A 
BRANCH   7  21
ATOM     21  C   UNL A   1      29.418  28.067  22.993  1.00  0.00     0.015 A 
ATOM     22  C   UNL A   1      26.911  27.957  23.700  1.00  0.00     0.045 C 
ATOM     23  C   UNL A   1      28.078  28.554  22.947  1.00  0.00    -0.042 A 
ATOM     24  C   UNL A   1      27.798  29.782  22.303  1.00  0.00     0.004 A 
ATOM     25  C   UNL A   1      28.811  30.556  21.740  1.00  0.00     0.000 A 
ATOM     26  C   UNL A   1      30.409  28.842  22.336  1.00  0.00     0.010 A 
ATOM     27  C   UNL A   1      30.116  30.084  21.756  1.00  0.00     0.001 A 
ENDBRANCH   7  21
ENDBRANCH   4   6
ENDBRANCH   3   4
ENDBRANCH   2   3
ENDBRANCH   1   2
BRANCH   1  28
ATOM     28  O   UNL A   1      33.983  31.340  27.806  1.00  0.00    -0.458 OA
BRANCH  28  29
ATOM     29  C   UNL A   1      34.961  32.280  28.083  1.00  0.00     0.338 C 
ATOM     30  O   UNL A   1      34.939  33.373  27.567  1.00  0.00    -0.246 OA
BRANCH  29  31
ATOM     31  C   UNL A   1      35.869  31.924  29.205  1.00  0.00     0.060 A 
ATOM     32  C   UNL A   1      35.853  30.668  29.847  1.00  0.00     0.016 A 
ATOM     33  C   UNL A   1      36.992  32.687  29.213  1.00  0.00     0.016 A 
ATOM     34  C   UNL A   1      37.076  30.053  30.197  1.00  0.00     0.010 A 
ATOM     35  C   UNL A   1      38.124  31.940  29.180  1.00  0.00     0.010 A 
ATOM     36  C   UNL A   1      38.245  30.656  29.740  1.00  0.00    -0.014 A 
BRANCH  36  37
ATOM     37  C   UNL A   1      39.642  30.169  29.737  1.00  0.00     0.031 A 
ATOM     38  C   UNL A   1      40.088  28.894  29.099  1.00  0.00     0.074 A 
ATOM     39  C   UNL A   1      40.497  31.047  30.332  1.00  0.00     0.049 A 
ATOM     40  N   UNL A   1      40.775  27.969  29.690  1.00  0.00    -0.248 NA
ATOM     41  C   UNL A   1      39.829  28.547  27.696  1.00  0.00     0.031 C 
ATOM     42  C   UNL A   1      41.930  31.087  30.508  1.00  0.00     0.029 A 
ATOM     43  N   UNL A   1      40.089  32.173  31.080  1.00  0.00    -0.354 N 
ATOM     44  C   UNL A   1      41.313  27.165  28.686  1.00  0.00     0.074 A 
ATOM     45  C   UNL A   1      40.511  27.407  27.521  1.00  0.00     0.031 C 
ATOM     46  C   UNL A   1      42.198  31.869  31.584  1.00  0.00     0.029 A 
ATOM     47  C   UNL A   1      40.924  32.311  32.157  1.00  0.00     0.049 A 
ATOM     48  H   UNL A   1      39.330  32.762  30.863  1.00  0.00     0.167 HD
ATOM     49  C   UNL A   1      42.591  26.682  28.781  1.00  0.00     0.037 A 
ATOM     50  C   UNL A   1      40.350  32.066  33.370  1.00  0.00     0.037 A 
ATOM     51  C   UNL A   1      43.238  27.346  29.901  1.00  0.00     0.049 A 
ATOM     52  C   UNL A   1      41.026  30.858  33.928  1.00  0.00     0.074 A 
ATOM     53  C   UNL A   1      44.091  28.436  29.931  1.00  0.00     0.029 A 
ATOM     54  N   UNL A   1      42.773  27.160  31.190  1.00  0.00    -0.354 N 
ATOM     55  N   UNL A   1      41.414  29.839  33.210  1.00  0.00    -0.248 NA
ATOM     56  C   UNL A   1      41.507  30.828  35.300  1.00  0.00     0.031 C 
ATOM     57  C   UNL A   1      44.146  28.906  31.263  1.00  0.00     0.029 A 
ATOM     58  C   UNL A   1      43.290  28.127  32.025  1.00  0.00     0.049 A 
ATOM     59  H   UNL A   1      42.162  26.441  31.472  1.00  0.00     0.167 HD
ATOM     60  C   UNL A   1      42.292  29.100  33.958  1.00  0.00     0.074 A 
ATOM     61  C   UNL A   1      42.295  29.743  35.261  1.00  0.00     0.031 C 
ATOM     62  C   UNL A   1      43.032  28.073  33.447  1.00  0.00     0.037 A 
BRANCH  49  63
ATOM     63  C   UNL A   1      43.409  25.951  27.715  1.00  0.00     0.058 A 
ATOM     64  C   UNL A   1      43.636  24.553  27.811  1.00  0.00     0.135 A 
ATOM     65  C   UNL A   1      43.934  26.539  26.545  1.00  0.00     0.135 A 
ATOM     66  F   UNL A   1      43.131  23.819  28.810  1.00  0.00    -0.206 F 
ATOM     67  C   UNL A   1      44.379  23.819  26.884  1.00  0.00     0.059 A 
ATOM     68  C   UNL A   1      44.697  25.821  25.601  1.00  0.00     0.059 A 
ATOM     69  F   UNL A   1      43.695  27.826  26.254  1.00  0.00    -0.206 F 
ATOM     70  C   UNL A   1      44.920  24.460  25.785  1.00  0.00     0.060 A 
BRANCH  70  71
ATOM     71  S   UNL A   1      45.871  23.470  24.611  1.00  0.00     0.124 S 
ATOM     72  O   UNL A   1      46.409  22.416  25.467  1.00  0.00    -0.237 OA
ATOM     73  O   UNL A   1      44.848  23.049  23.660  1.00  0.00    -0.237 OA
ATOM     74  O   UNL A   1      46.858  24.412  24.092  1.00  0.00    -0.744 OA
ENDBRANCH  70  71
ENDBRANCH  49  63
BRANCH  50  75
ATOM     75  C   UNL A   1      38.879  32.433  33.453  1.00  0.00     0.058 A 
ATOM     76  C   UNL A   1      38.530  33.804  33.376  1.00  0.00     0.135 A 
ATOM     77  C   UNL A   1      37.820  31.526  33.274  1.00  0.00     0.135 A 
ATOM     78  F   UNL A   1      39.483  34.743  33.513  1.00  0.00    -0.206 F 
ATOM     79  C   UNL A   1      37.243  34.250  33.054  1.00  0.00     0.059 A 
ATOM     80  C   UNL A   1      36.511  31.952  32.958  1.00  0.00     0.059 A 
ATOM     81  F   UNL A   1      38.049  30.206  33.318  1.00  0.00    -0.206 F 
ATOM     82  C   UNL A   1      36.239  33.315  32.820  1.00  0.00     0.060 A 
BRANCH  82  83
ATOM     83  S   UNL A   1      34.652  33.916  32.158  1.00  0.00     0.124 S 
ATOM     84  O   UNL A   1      35.071  34.617  30.949  1.00  0.00    -0.237 OA
ATOM     85  O   UNL A   1      33.922  32.668  31.930  1.00  0.00    -0.237 OA
ATOM     86  O   UNL A   1      34.135  34.759  33.230  1.00  0.00    -0.744 OA
ENDBRANCH  82  83
ENDBRANCH  50  75
BRANCH  62  87
ATOM     87  C   UNL A   1      43.699  26.977  34.240  1.00  0.00     0.058 A 
ATOM     88  C   UNL A   1      45.078  26.928  34.483  1.00  0.00     0.135 A 
ATOM     89  C   UNL A   1      42.924  26.012  34.940  1.00  0.00     0.135 A 
ATOM     90  F   UNL A   1      45.917  27.861  34.017  1.00  0.00    -0.206 F 
ATOM     91  C   UNL A   1      45.659  25.943  35.272  1.00  0.00     0.059 A 
ATOM     92  C   UNL A   1      43.476  25.076  35.802  1.00  0.00     0.059 A 
ATOM     93  F   UNL A   1      41.588  25.953  34.843  1.00  0.00    -0.206 F 
ATOM     94  C   UNL A   1      44.849  25.024  35.929  1.00  0.00     0.060 A 
BRANCH  94  95
ATOM     95  S   UNL A   1      45.616  23.795  36.986  1.00  0.00     0.124 S 
ATOM     96  O   UNL A   1      44.992  24.097  38.270  1.00  0.00    -0.237 OA
ATOM     97  O   UNL A   1      45.201  22.542  36.361  1.00  0.00    -0.237 OA
ATOM     98  O   UNL A   1      47.039  24.098  36.885  1.00  0.00    -0.744 OA
ENDBRANCH  94  95
ENDBRANCH  62  87
ENDBRANCH  36  37
ENDBRANCH  29  31
ENDBRANCH  28  29
ENDBRANCH   1  28
TORSDOF 15
ENDMDL
