MODEL 1
REMARK VINA RESULT:     -12.6      0.000      0.000
REMARK SMILES Cc1ccc(C(=O)OCCOC(=O)c2ccc(-c3c4nc(c(-c5c(F)cc(S(=O)(=O)[O-])cc5F)c5ccc([nH]5)c(-c5c(F)cc(S(=O)(=O)[O-])cc5F)c5nc(c(-c6c(F)cc(S(=O)(=O)[O-])cc6F)c6ccc3[nH]6)C=C5)C=C4)cc2)c2c1N[C@H](c1ccccc1F)[C@H]1CC=C[C@@H]21
REMARK SMILES IDX 10 1 9 2 8 3 6 4 7 5 5 6 1 7 2 8 3 9 81 10 4 11 80 12 82 13
REMARK SMILES IDX 95 14 83 15 91 17 94 18 92 19 93 20 84 21 85 22 89 23 86 24
REMARK SMILES IDX 88 25 90 26 87 27 11 28 12 29 13 30 14 31 15 32 79 33 16 34
REMARK SMILES IDX 78 35 17 36 18 37 19 38 72 39 20 40 77 41 71 42 73 43 21 44
REMARK SMILES IDX 76 45 70 46 69 47 22 49 56 50 35 51 55 52 36 53 39 54 54 55
REMARK SMILES IDX 74 56 37 57 38 58 53 60 75 61 40 62 23 63 24 64 33 65 25 66
REMARK SMILES IDX 26 67 32 68 34 69 27 70 28 71 29 72 30 73 31 74 57 75 58 76
REMARK SMILES IDX 67 77 59 78 60 79 66 80 68 81 61 82 62 83 63 84 64 85 65 86
REMARK SMILES IDX 41 87 42 88 51 89 43 90 44 91 50 92 52 93 45 94 46 95 47 96
REMARK SMILES IDX 48 97 49 98
REMARK H PARENT 82 16 73 48 39 59
REMARK Flexibility Score: inf
ROOT
ATOM      1  C   UNL A   1      33.336  29.137  27.659  1.00  0.00     0.275 C 
ENDROOT
BRANCH   1   2
ATOM      2  C   UNL A   1      32.762  28.631  26.338  1.00  0.00     0.275 C 
BRANCH   2   3
ATOM      3  O   UNL A   1      33.225  27.292  26.062  1.00  0.00    -0.458 OA
BRANCH   3   4
ATOM      4  C   UNL A   1      32.259  26.343  25.898  1.00  0.00     0.338 C 
ATOM      5  O   UNL A   1      31.312  26.179  26.635  1.00  0.00    -0.246 OA
BRANCH   4   6
ATOM      6  C   UNL A   1      32.561  25.527  24.675  1.00  0.00     0.065 A 
ATOM      7  C   UNL A   1      33.278  23.425  20.973  1.00  0.00     0.046 C 
ATOM      8  C   UNL A   1      32.984  24.120  22.278  1.00  0.00    -0.028 A 
ATOM      9  C   UNL A   1      32.751  25.499  22.258  1.00  0.00     0.006 A 
ATOM     10  C   UNL A   1      33.013  23.424  23.508  1.00  0.00     0.042 A 
ATOM     11  C   UNL A   1      32.519  26.191  23.440  1.00  0.00     0.016 A 
ATOM     12  C   UNL A   1      32.872  24.140  24.723  1.00  0.00    -0.003 A 
ATOM     13  N   UNL A   1      33.207  22.053  23.511  1.00  0.00    -0.377 N 
ATOM     14  C   UNL A   1      32.949  23.385  26.034  1.00  0.00     0.050 C 
ATOM     15  C   UNL A   1      33.709  21.372  24.685  1.00  0.00     0.117 C 
ATOM     16  H   UNL A   1      32.999  21.533  22.702  1.00  0.00     0.161 HD
ATOM     17  C   UNL A   1      32.964  21.842  25.940  1.00  0.00     0.031 C 
ATOM     18  C   UNL A   1      34.160  23.641  26.892  1.00  0.00    -0.023 C 
ATOM     19  C   UNL A   1      33.715  21.360  27.196  1.00  0.00     0.034 C 
ATOM     20  C   UNL A   1      34.544  22.547  27.558  1.00  0.00    -0.030 C 
BRANCH  15  21
ATOM     21  C   UNL A   1      33.709  19.870  24.446  1.00  0.00     0.010 A 
ATOM     22  C   UNL A   1      32.516  19.249  24.034  1.00  0.00     0.009 A 
ATOM     23  C   UNL A   1      34.846  19.062  24.582  1.00  0.00     0.128 A 
ATOM     24  C   UNL A   1      32.483  17.888  23.723  1.00  0.00     0.001 A 
ATOM     25  C   UNL A   1      34.822  17.707  24.257  1.00  0.00     0.039 A 
ATOM     26  F   UNL A   1      36.000  19.569  25.030  1.00  0.00    -0.207 F 
ATOM     27  C   UNL A   1      33.639  17.119  23.821  1.00  0.00     0.003 A 
ENDBRANCH  15  21
ENDBRANCH   4   6
ENDBRANCH   3   4
ENDBRANCH   2   3
ENDBRANCH   1   2
BRANCH   1  28
ATOM     28  O   UNL A   1      33.697  30.521  27.518  1.00  0.00    -0.458 OA
BRANCH  28  29
ATOM     29  C   UNL A   1      34.540  31.032  28.448  1.00  0.00     0.338 C 
ATOM     30  O   UNL A   1      34.302  31.953  29.213  1.00  0.00    -0.246 OA
BRANCH  29  31
ATOM     31  C   UNL A   1      35.823  30.285  28.440  1.00  0.00     0.060 A 
ATOM     32  C   UNL A   1      36.329  29.718  29.604  1.00  0.00     0.016 A 
ATOM     33  C   UNL A   1      36.600  30.244  27.279  1.00  0.00     0.016 A 
ATOM     34  C   UNL A   1      37.648  29.254  29.638  1.00  0.00     0.010 A 
ATOM     35  C   UNL A   1      37.890  29.680  27.303  1.00  0.00     0.010 A 
ATOM     36  C   UNL A   1      38.479  29.243  28.504  1.00  0.00    -0.014 A 
BRANCH  36  37
ATOM     37  C   UNL A   1      39.951  28.896  28.588  1.00  0.00     0.031 A 
ATOM     38  C   UNL A   1      40.949  29.884  29.184  1.00  0.00     0.074 A 
ATOM     39  C   UNL A   1      40.439  27.681  28.239  1.00  0.00     0.049 A 
ATOM     40  N   UNL A   1      42.261  29.880  29.126  1.00  0.00    -0.248 NA
ATOM     41  C   UNL A   1      40.404  31.026  29.933  1.00  0.00     0.031 C 
ATOM     42  C   UNL A   1      39.658  26.549  27.746  1.00  0.00     0.029 A 
ATOM     43  N   UNL A   1      41.724  27.176  28.295  1.00  0.00    -0.354 N 
ATOM     44  C   UNL A   1      42.684  31.050  29.752  1.00  0.00     0.074 A 
ATOM     45  C   UNL A   1      41.491  31.740  30.192  1.00  0.00     0.031 C 
ATOM     46  C   UNL A   1      40.442  25.463  27.665  1.00  0.00     0.029 A 
ATOM     47  C   UNL A   1      41.822  25.850  27.937  1.00  0.00     0.049 A 
ATOM     48  H   UNL A   1      42.501  27.717  28.567  1.00  0.00     0.167 HD
ATOM     49  C   UNL A   1      43.944  31.511  29.953  1.00  0.00     0.037 A 
ATOM     50  C   UNL A   1      42.887  25.037  27.776  1.00  0.00     0.037 A 
ATOM     51  C   UNL A   1      45.147  30.788  29.623  1.00  0.00     0.049 A 
ATOM     52  C   UNL A   1      44.279  25.591  27.917  1.00  0.00     0.074 A 
ATOM     53  C   UNL A   1      46.463  31.202  29.757  1.00  0.00     0.029 A 
ATOM     54  N   UNL A   1      45.188  29.490  29.144  1.00  0.00    -0.354 N 
ATOM     55  N   UNL A   1      44.659  26.775  28.330  1.00  0.00    -0.248 NA
ATOM     56  C   UNL A   1      45.388  24.713  27.510  1.00  0.00     0.031 C 
ATOM     57  C   UNL A   1      47.299  30.163  29.335  1.00  0.00     0.029 A 
ATOM     58  C   UNL A   1      46.504  29.090  28.975  1.00  0.00     0.049 A 
ATOM     59  H   UNL A   1      44.398  28.934  28.951  1.00  0.00     0.167 HD
ATOM     60  C   UNL A   1      46.046  26.782  28.231  1.00  0.00     0.074 A 
ATOM     61  C   UNL A   1      46.444  25.478  27.748  1.00  0.00     0.031 C 
ATOM     62  C   UNL A   1      46.909  27.791  28.502  1.00  0.00     0.037 A 
BRANCH  49  63
ATOM     63  C   UNL A   1      44.115  32.888  30.539  1.00  0.00     0.058 A 
ATOM     64  C   UNL A   1      43.932  34.052  29.778  1.00  0.00     0.135 A 
ATOM     65  C   UNL A   1      44.365  33.040  31.914  1.00  0.00     0.135 A 
ATOM     66  F   UNL A   1      43.698  33.967  28.459  1.00  0.00    -0.206 F 
ATOM     67  C   UNL A   1      44.000  35.316  30.354  1.00  0.00     0.059 A 
ATOM     68  C   UNL A   1      44.410  34.293  32.518  1.00  0.00     0.059 A 
ATOM     69  F   UNL A   1      44.538  31.960  32.691  1.00  0.00    -0.206 F 
ATOM     70  C   UNL A   1      44.232  35.427  31.728  1.00  0.00     0.060 A 
BRANCH  70  71
ATOM     71  S   UNL A   1      44.270  37.075  32.466  1.00  0.00     0.124 S 
ATOM     72  O   UNL A   1      43.044  37.069  33.258  1.00  0.00    -0.237 OA
ATOM     73  O   UNL A   1      45.515  37.047  33.226  1.00  0.00    -0.237 OA
ATOM     74  O   UNL A   1      44.264  37.966  31.310  1.00  0.00    -0.744 OA
ENDBRANCH  70  71
ENDBRANCH  49  63
BRANCH  50  75
ATOM     75  C   UNL A   1      42.694  23.615  27.371  1.00  0.00     0.058 A 
ATOM     76  C   UNL A   1      42.656  23.247  26.018  1.00  0.00     0.135 A 
ATOM     77  C   UNL A   1      42.529  22.598  28.326  1.00  0.00     0.135 A 
ATOM     78  F   UNL A   1      42.778  24.184  25.065  1.00  0.00    -0.206 F 
ATOM     79  C   UNL A   1      42.463  21.926  25.625  1.00  0.00     0.059 A 
ATOM     80  C   UNL A   1      42.372  21.266  27.959  1.00  0.00     0.059 A 
ATOM     81  F   UNL A   1      42.547  22.893  29.635  1.00  0.00    -0.206 F 
ATOM     82  C   UNL A   1      42.330  20.941  26.605  1.00  0.00     0.060 A 
BRANCH  82  83
ATOM     83  S   UNL A   1      42.140  19.219  26.094  1.00  0.00     0.124 S 
ATOM     84  O   UNL A   1      42.542  18.509  27.303  1.00  0.00    -0.237 OA
ATOM     85  O   UNL A   1      40.722  19.153  25.755  1.00  0.00    -0.237 OA
ATOM     86  O   UNL A   1      43.052  19.105  24.960  1.00  0.00    -0.744 OA
ENDBRANCH  82  83
ENDBRANCH  50  75
BRANCH  62  87
ATOM     87  C   UNL A   1      48.376  27.534  28.305  1.00  0.00     0.058 A 
ATOM     88  C   UNL A   1      49.159  26.952  29.314  1.00  0.00     0.135 A 
ATOM     89  C   UNL A   1      48.995  27.814  27.076  1.00  0.00     0.135 A 
ATOM     90  F   UNL A   1      48.618  26.671  30.510  1.00  0.00    -0.206 F 
ATOM     91  C   UNL A   1      50.507  26.669  29.117  1.00  0.00     0.059 A 
ATOM     92  C   UNL A   1      50.337  27.518  26.849  1.00  0.00     0.059 A 
ATOM     93  F   UNL A   1      48.290  28.363  26.074  1.00  0.00    -0.206 F 
ATOM     94  C   UNL A   1      51.086  26.952  27.879  1.00  0.00     0.060 A 
BRANCH  94  95
ATOM     95  S   UNL A   1      52.827  26.541  27.626  1.00  0.00     0.124 S 
ATOM     96  O   UNL A   1      52.730  25.311  26.845  1.00  0.00    -0.237 OA
ATOM     97  O   UNL A   1      53.322  27.710  26.907  1.00  0.00    -0.237 OA
ATOM     98  O   UNL A   1      53.341  26.382  28.983  1.00  0.00    -0.744 OA
ENDBRANCH  94  95
ENDBRANCH  62  87
ENDBRANCH  36  37
ENDBRANCH  29  31
ENDBRANCH  28  29
ENDBRANCH   1  28
TORSDOF 15
ENDMDL
MODEL 2
REMARK VINA RESULT:     -12.4      4.062      8.657
REMARK SMILES Cc1ccc(C(=O)OCCOC(=O)c2ccc(-c3c4nc(c(-c5c(F)cc(S(=O)(=O)[O-])cc5F)c5ccc([nH]5)c(-c5c(F)cc(S(=O)(=O)[O-])cc5F)c5nc(c(-c6c(F)cc(S(=O)(=O)[O-])cc6F)c6ccc3[nH]6)C=C5)C=C4)cc2)c2c1N[C@H](c1ccccc1F)[C@H]1CC=C[C@@H]21
REMARK SMILES IDX 10 1 9 2 8 3 6 4 7 5 5 6 1 7 2 8 3 9 81 10 4 11 80 12 82 13
REMARK SMILES IDX 95 14 83 15 91 17 94 18 92 19 93 20 84 21 85 22 89 23 86 24
REMARK SMILES IDX 88 25 90 26 87 27 11 28 12 29 13 30 14 31 15 32 79 33 16 34
REMARK SMILES IDX 78 35 17 36 18 37 19 38 72 39 20 40 77 41 71 42 73 43 21 44
REMARK SMILES IDX 76 45 70 46 69 47 22 49 56 50 35 51 55 52 36 53 39 54 54 55
REMARK SMILES IDX 74 56 37 57 38 58 53 60 75 61 40 62 23 63 24 64 33 65 25 66
REMARK SMILES IDX 26 67 32 68 34 69 27 70 28 71 29 72 30 73 31 74 57 75 58 76
REMARK SMILES IDX 67 77 59 78 60 79 66 80 68 81 61 82 62 83 63 84 64 85 65 86
REMARK SMILES IDX 41 87 42 88 51 89 43 90 44 91 50 92 52 93 45 94 46 95 47 96
REMARK SMILES IDX 48 97 49 98
REMARK H PARENT 82 16 73 48 39 59
REMARK Flexibility Score: inf
ROOT
ATOM      1  C   UNL A   1      32.087  29.559  26.914  1.00  0.00     0.275 C 
ENDROOT
BRANCH   1   2
ATOM      2  C   UNL A   1      32.226  28.118  27.398  1.00  0.00     0.275 C 
BRANCH   2   3
ATOM      3  O   UNL A   1      32.543  27.240  26.298  1.00  0.00    -0.458 OA
BRANCH   3   4
ATOM      4  C   UNL A   1      31.616  26.283  26.004  1.00  0.00     0.338 C 
ATOM      5  O   UNL A   1      30.617  26.059  26.652  1.00  0.00    -0.246 OA
BRANCH   4   6
ATOM      6  C   UNL A   1      32.034  25.543  24.766  1.00  0.00     0.065 A 
ATOM      7  C   UNL A   1      33.073  23.658  21.025  1.00  0.00     0.046 C 
ATOM      8  C   UNL A   1      32.670  24.274  22.340  1.00  0.00    -0.028 A 
ATOM      9  C   UNL A   1      32.334  25.632  22.362  1.00  0.00     0.006 A 
ATOM     10  C   UNL A   1      32.695  23.531  23.542  1.00  0.00     0.042 A 
ATOM     11  C   UNL A   1      31.998  26.254  23.558  1.00  0.00     0.016 A 
ATOM     12  C   UNL A   1      32.445  24.183  24.776  1.00  0.00    -0.003 A 
ATOM     13  N   UNL A   1      32.991  22.178  23.502  1.00  0.00    -0.377 N 
ATOM     14  C   UNL A   1      32.520  23.381  26.059  1.00  0.00     0.050 C 
ATOM     15  C   UNL A   1      33.490  21.487  24.672  1.00  0.00     0.117 C 
ATOM     16  H   UNL A   1      32.860  21.679  22.664  1.00  0.00     0.161 HD
ATOM     17  C   UNL A   1      32.655  21.848  25.906  1.00  0.00     0.031 C 
ATOM     18  C   UNL A   1      33.667  23.689  26.983  1.00  0.00    -0.023 C 
ATOM     19  C   UNL A   1      33.382  21.370  27.178  1.00  0.00     0.034 C 
ATOM     20  C   UNL A   1      34.102  22.598  27.625  1.00  0.00    -0.030 C 
BRANCH  15  21
ATOM     21  C   UNL A   1      33.613  20.001  24.375  1.00  0.00     0.010 A 
ATOM     22  C   UNL A   1      32.530  19.338  23.769  1.00  0.00     0.009 A 
ATOM     23  C   UNL A   1      34.765  19.249  24.642  1.00  0.00     0.128 A 
ATOM     24  C   UNL A   1      32.623  17.993  23.402  1.00  0.00     0.001 A 
ATOM     25  C   UNL A   1      34.869  17.912  24.263  1.00  0.00     0.039 A 
ATOM     26  F   UNL A   1      35.811  19.794  25.274  1.00  0.00    -0.207 F 
ATOM     27  C   UNL A   1      33.797  17.284  23.637  1.00  0.00     0.003 A 
ENDBRANCH  15  21
ENDBRANCH   4   6
ENDBRANCH   3   4
ENDBRANCH   2   3
ENDBRANCH   1   2
BRANCH   1  28
ATOM     28  O   UNL A   1      33.385  30.064  26.558  1.00  0.00    -0.458 OA
BRANCH  28  29
ATOM     29  C   UNL A   1      33.888  31.059  27.330  1.00  0.00     0.338 C 
ATOM     30  O   UNL A   1      33.303  32.071  27.679  1.00  0.00    -0.246 OA
BRANCH  29  31
ATOM     31  C   UNL A   1      35.279  30.736  27.735  1.00  0.00     0.060 A 
ATOM     32  C   UNL A   1      35.705  29.417  27.843  1.00  0.00     0.016 A 
ATOM     33  C   UNL A   1      36.148  31.757  28.128  1.00  0.00     0.016 A 
ATOM     34  C   UNL A   1      36.919  29.125  28.475  1.00  0.00     0.010 A 
ATOM     35  C   UNL A   1      37.412  31.452  28.668  1.00  0.00     0.010 A 
ATOM     36  C   UNL A   1      37.797  30.124  28.930  1.00  0.00    -0.014 A 
BRANCH  36  37
ATOM     37  C   UNL A   1      39.025  29.800  29.757  1.00  0.00     0.031 A 
ATOM     38  C   UNL A   1      40.101  28.864  29.215  1.00  0.00     0.074 A 
ATOM     39  C   UNL A   1      39.280  30.385  30.952  1.00  0.00     0.049 A 
ATOM     40  N   UNL A   1      41.089  28.277  29.850  1.00  0.00    -0.248 NA
ATOM     41  C   UNL A   1      40.055  28.540  27.781  1.00  0.00     0.031 C 
ATOM     42  C   UNL A   1      38.447  31.388  31.614  1.00  0.00     0.029 A 
ATOM     43  N   UNL A   1      40.355  30.253  31.809  1.00  0.00    -0.354 N 
ATOM     44  C   UNL A   1      41.721  27.458  28.916  1.00  0.00     0.074 A 
ATOM     45  C   UNL A   1      41.012  27.628  27.667  1.00  0.00     0.031 C 
ATOM     46  C   UNL A   1      39.090  31.864  32.691  1.00  0.00     0.029 A 
ATOM     47  C   UNL A   1      40.307  31.089  32.903  1.00  0.00     0.049 A 
ATOM     48  H   UNL A   1      41.090  29.617  31.652  1.00  0.00     0.167 HD
ATOM     49  C   UNL A   1      42.796  26.645  29.073  1.00  0.00     0.037 A 
ATOM     50  C   UNL A   1      41.099  31.196  33.990  1.00  0.00     0.037 A 
ATOM     51  C   UNL A   1      43.584  26.545  30.276  1.00  0.00     0.049 A 
ATOM     52  C   UNL A   1      42.233  30.226  34.188  1.00  0.00     0.074 A 
ATOM     53  C   UNL A   1      44.664  25.715  30.530  1.00  0.00     0.029 A 
ATOM     54  N   UNL A   1      43.415  27.330  31.404  1.00  0.00    -0.354 N 
ATOM     55  N   UNL A   1      42.698  29.320  33.363  1.00  0.00    -0.248 NA
ATOM     56  C   UNL A   1      42.911  30.254  35.494  1.00  0.00     0.031 C 
ATOM     57  C   UNL A   1      45.132  25.980  31.821  1.00  0.00     0.029 A 
ATOM     58  C   UNL A   1      44.368  27.002  32.355  1.00  0.00     0.049 A 
ATOM     59  H   UNL A   1      42.719  28.019  31.513  1.00  0.00     0.167 HD
ATOM     60  C   UNL A   1      43.719  28.673  34.051  1.00  0.00     0.074 A 
ATOM     61  C   UNL A   1      43.826  29.306  35.347  1.00  0.00     0.031 C 
ATOM     62  C   UNL A   1      44.486  27.632  33.644  1.00  0.00     0.037 A 
BRANCH  49  63
ATOM     63  C   UNL A   1      43.191  25.755  27.923  1.00  0.00     0.058 A 
ATOM     64  C   UNL A   1      44.144  26.144  26.971  1.00  0.00     0.135 A 
ATOM     65  C   UNL A   1      42.677  24.449  27.837  1.00  0.00     0.135 A 
ATOM     66  F   UNL A   1      44.662  27.381  27.000  1.00  0.00    -0.206 F 
ATOM     67  C   UNL A   1      44.569  25.276  25.970  1.00  0.00     0.059 A 
ATOM     68  C   UNL A   1      43.107  23.554  26.862  1.00  0.00     0.059 A 
ATOM     69  F   UNL A   1      41.769  24.022  28.728  1.00  0.00    -0.206 F 
ATOM     70  C   UNL A   1      44.049  23.979  25.928  1.00  0.00     0.060 A 
BRANCH  70  71
ATOM     71  S   UNL A   1      44.647  22.852  24.649  1.00  0.00     0.124 S 
ATOM     72  O   UNL A   1      45.116  21.725  25.449  1.00  0.00    -0.237 OA
ATOM     73  O   UNL A   1      43.443  22.611  23.860  1.00  0.00    -0.237 OA
ATOM     74  O   UNL A   1      45.690  23.621  23.977  1.00  0.00    -0.744 OA
ENDBRANCH  70  71
ENDBRANCH  49  63
BRANCH  50  75
ATOM     75  C   UNL A   1      40.803  32.211  35.041  1.00  0.00     0.058 A 
ATOM     76  C   UNL A   1      41.433  33.464  35.033  1.00  0.00     0.135 A 
ATOM     77  C   UNL A   1      39.899  31.946  36.083  1.00  0.00     0.135 A 
ATOM     78  F   UNL A   1      42.329  33.759  34.077  1.00  0.00    -0.206 F 
ATOM     79  C   UNL A   1      41.178  34.417  36.015  1.00  0.00     0.059 A 
ATOM     80  C   UNL A   1      39.600  32.894  37.054  1.00  0.00     0.059 A 
ATOM     81  F   UNL A   1      39.274  30.759  36.147  1.00  0.00    -0.206 F 
ATOM     82  C   UNL A   1      40.252  34.125  37.018  1.00  0.00     0.060 A 
BRANCH  82  83
ATOM     83  S   UNL A   1      39.878  35.384  38.256  1.00  0.00     0.124 S 
ATOM     84  O   UNL A   1      38.665  34.846  38.862  1.00  0.00    -0.237 OA
ATOM     85  O   UNL A   1      41.074  35.360  39.092  1.00  0.00    -0.237 OA
ATOM     86  O   UNL A   1      39.705  36.595  37.460  1.00  0.00    -0.744 OA
ENDBRANCH  82  83
ENDBRANCH  50  75
BRANCH  62  87
ATOM     87  C   UNL A   1      45.529  27.114  34.594  1.00  0.00     0.058 A 
ATOM     88  C   UNL A   1      46.816  27.671  34.643  1.00  0.00     0.135 A 
ATOM     89  C   UNL A   1      45.223  26.093  35.508  1.00  0.00     0.135 A 
ATOM     90  F   UNL A   1      47.163  28.645  33.787  1.00  0.00    -0.206 F 
ATOM     91  C   UNL A   1      47.768  27.226  35.554  1.00  0.00     0.059 A 
ATOM     92  C   UNL A   1      46.152  25.646  36.444  1.00  0.00     0.059 A 
ATOM     93  F   UNL A   1      44.004  25.531  35.510  1.00  0.00    -0.206 F 
ATOM     94  C   UNL A   1      47.425  26.215  36.454  1.00  0.00     0.060 A 
BRANCH  94  95
ATOM     95  S   UNL A   1      48.659  25.675  37.658  1.00  0.00     0.124 S 
ATOM     96  O   UNL A   1      49.029  24.363  37.134  1.00  0.00    -0.237 OA
ATOM     97  O   UNL A   1      49.679  26.713  37.545  1.00  0.00    -0.237 OA
ATOM     98  O   UNL A   1      47.923  25.661  38.919  1.00  0.00    -0.744 OA
ENDBRANCH  94  95
ENDBRANCH  62  87
ENDBRANCH  36  37
ENDBRANCH  29  31
ENDBRANCH  28  29
ENDBRANCH   1  28
TORSDOF 15
ENDMDL
MODEL 3
REMARK VINA RESULT:     -12.3      3.236      8.013
REMARK SMILES Cc1ccc(C(=O)OCCOC(=O)c2ccc(-c3c4nc(c(-c5c(F)cc(S(=O)(=O)[O-])cc5F)c5ccc([nH]5)c(-c5c(F)cc(S(=O)(=O)[O-])cc5F)c5nc(c(-c6c(F)cc(S(=O)(=O)[O-])cc6F)c6ccc3[nH]6)C=C5)C=C4)cc2)c2c1N[C@H](c1ccccc1F)[C@H]1CC=C[C@@H]21
REMARK SMILES IDX 10 1 9 2 8 3 6 4 7 5 5 6 1 7 2 8 3 9 81 10 4 11 80 12 82 13
REMARK SMILES IDX 95 14 83 15 91 17 94 18 92 19 93 20 84 21 85 22 89 23 86 24
REMARK SMILES IDX 88 25 90 26 87 27 11 28 12 29 13 30 14 31 15 32 79 33 16 34
REMARK SMILES IDX 78 35 17 36 18 37 19 38 72 39 20 40 77 41 71 42 73 43 21 44
REMARK SMILES IDX 76 45 70 46 69 47 22 49 56 50 35 51 55 52 36 53 39 54 54 55
REMARK SMILES IDX 74 56 37 57 38 58 53 60 75 61 40 62 23 63 24 64 33 65 25 66
REMARK SMILES IDX 26 67 32 68 34 69 27 70 28 71 29 72 30 73 31 74 57 75 58 76
REMARK SMILES IDX 67 77 59 78 60 79 66 80 68 81 61 82 62 83 63 84 64 85 65 86
REMARK SMILES IDX 41 87 42 88 51 89 43 90 44 91 50 92 52 93 45 94 46 95 47 96
REMARK SMILES IDX 48 97 49 98
REMARK H PARENT 82 16 73 48 39 59
REMARK Flexibility Score: inf
ROOT
ATOM      1  C   UNL A   1      37.015  21.942  24.477  1.00  0.00     0.275 C 
ENDROOT
BRANCH   1   2
ATOM      2  C   UNL A   1      36.517  23.253  23.874  1.00  0.00     0.275 C 
BRANCH   2   3
ATOM      3  O   UNL A   1      35.235  23.614  24.430  1.00  0.00    -0.458 OA
BRANCH   3   4
ATOM      4  C   UNL A   1      34.231  23.835  23.533  1.00  0.00     0.338 C 
ATOM      5  O   UNL A   1      34.341  23.753  22.330  1.00  0.00    -0.246 OA
BRANCH   4   6
ATOM      6  C   UNL A   1      32.977  24.211  24.268  1.00  0.00     0.065 A 
ATOM      7  C   UNL A   1      29.328  24.957  26.451  1.00  0.00     0.046 C 
ATOM      8  C   UNL A   1      30.573  24.706  25.638  1.00  0.00    -0.028 A 
ATOM      9  C   UNL A   1      31.291  23.528  25.872  1.00  0.00     0.006 A 
ATOM     10  C   UNL A   1      31.055  25.658  24.712  1.00  0.00     0.042 A 
ATOM     11  C   UNL A   1      32.468  23.273  25.178  1.00  0.00     0.016 A 
ATOM     12  C   UNL A   1      32.302  25.447  24.073  1.00  0.00    -0.003 A 
ATOM     13  N   UNL A   1      30.315  26.802  24.461  1.00  0.00    -0.377 N 
ATOM     14  C   UNL A   1      32.826  26.498  23.116  1.00  0.00     0.050 C 
ATOM     15  C   UNL A   1      30.938  27.992  23.924  1.00  0.00     0.117 C 
ATOM     16  H   UNL A   1      29.349  26.804  24.652  1.00  0.00     0.161 HD
ATOM     17  C   UNL A   1      31.849  27.637  22.744  1.00  0.00     0.031 C 
ATOM     18  C   UNL A   1      34.033  27.278  23.563  1.00  0.00    -0.023 C 
ATOM     19  C   UNL A   1      32.739  28.846  22.397  1.00  0.00     0.034 C 
ATOM     20  C   UNL A   1      34.003  28.543  23.129  1.00  0.00    -0.030 C 
BRANCH  15  21
ATOM     21  C   UNL A   1      29.875  29.043  23.641  1.00  0.00     0.010 A 
ATOM     22  C   UNL A   1      28.749  28.680  22.879  1.00  0.00     0.009 A 
ATOM     23  C   UNL A   1      29.933  30.357  24.124  1.00  0.00     0.128 A 
ATOM     24  C   UNL A   1      27.707  29.584  22.659  1.00  0.00     0.001 A 
ATOM     25  C   UNL A   1      28.890  31.257  23.921  1.00  0.00     0.039 A 
ATOM     26  F   UNL A   1      31.002  30.793  24.802  1.00  0.00    -0.207 F 
ATOM     27  C   UNL A   1      27.771  30.869  23.191  1.00  0.00     0.003 A 
ENDBRANCH  15  21
ENDBRANCH   4   6
ENDBRANCH   3   4
ENDBRANCH   2   3
ENDBRANCH   1   2
BRANCH   1  28
ATOM     28  O   UNL A   1      37.419  22.171  25.837  1.00  0.00    -0.458 OA
BRANCH  28  29
ATOM     29  C   UNL A   1      38.730  21.991  26.126  1.00  0.00     0.338 C 
ATOM     30  O   UNL A   1      39.411  21.023  25.830  1.00  0.00    -0.246 OA
BRANCH  29  31
ATOM     31  C   UNL A   1      39.261  23.175  26.850  1.00  0.00     0.060 A 
ATOM     32  C   UNL A   1      38.660  24.421  26.720  1.00  0.00     0.016 A 
ATOM     33  C   UNL A   1      40.447  23.073  27.582  1.00  0.00     0.016 A 
ATOM     34  C   UNL A   1      39.318  25.564  27.187  1.00  0.00     0.010 A 
ATOM     35  C   UNL A   1      41.046  24.220  28.136  1.00  0.00     0.010 A 
ATOM     36  C   UNL A   1      40.538  25.508  27.883  1.00  0.00    -0.014 A 
BRANCH  36  37
ATOM     37  C   UNL A   1      41.320  26.756  28.237  1.00  0.00     0.031 A 
ATOM     38  C   UNL A   1      40.662  27.892  29.013  1.00  0.00     0.074 A 
ATOM     39  C   UNL A   1      42.644  26.889  27.979  1.00  0.00     0.049 A 
ATOM     40  N   UNL A   1      41.077  29.124  29.199  1.00  0.00    -0.248 NA
ATOM     41  C   UNL A   1      39.368  27.611  29.653  1.00  0.00     0.031 C 
ATOM     42  C   UNL A   1      43.502  25.891  27.343  1.00  0.00     0.029 A 
ATOM     43  N   UNL A   1      43.519  27.918  28.269  1.00  0.00    -0.354 N 
ATOM     44  C   UNL A   1      40.064  29.776  29.898  1.00  0.00     0.074 A 
ATOM     45  C   UNL A   1      39.015  28.805  30.113  1.00  0.00     0.031 C 
ATOM     46  C   UNL A   1      44.780  26.293  27.404  1.00  0.00     0.029 A 
ATOM     47  C   UNL A   1      44.828  27.653  27.929  1.00  0.00     0.049 A 
ATOM     48  H   UNL A   1      43.234  28.764  28.683  1.00  0.00     0.167 HD
ATOM     49  C   UNL A   1      40.008  31.061  30.331  1.00  0.00     0.037 A 
ATOM     50  C   UNL A   1      45.939  28.418  27.964  1.00  0.00     0.037 A 
ATOM     51  C   UNL A   1      41.085  32.013  30.226  1.00  0.00     0.049 A 
ATOM     52  C   UNL A   1      45.839  29.866  28.364  1.00  0.00     0.074 A 
ATOM     53  C   UNL A   1      41.095  33.346  30.604  1.00  0.00     0.029 A 
ATOM     54  N   UNL A   1      42.356  31.726  29.757  1.00  0.00    -0.354 N 
ATOM     55  N   UNL A   1      44.812  30.520  28.846  1.00  0.00    -0.248 NA
ATOM     56  C   UNL A   1      47.039  30.694  28.165  1.00  0.00     0.031 C 
ATOM     57  C   UNL A   1      42.363  33.872  30.340  1.00  0.00     0.029 A 
ATOM     58  C   UNL A   1      43.154  32.856  29.833  1.00  0.00     0.049 A 
ATOM     59  H   UNL A   1      42.648  30.849  29.418  1.00  0.00     0.167 HD
ATOM     60  C   UNL A   1      45.242  31.834  29.006  1.00  0.00     0.074 A 
ATOM     61  C   UNL A   1      46.628  31.878  28.598  1.00  0.00     0.031 C 
ATOM     62  C   UNL A   1      44.538  32.908  29.436  1.00  0.00     0.037 A 
BRANCH  49  63
ATOM     63  C   UNL A   1      38.722  31.551  30.945  1.00  0.00     0.058 A 
ATOM     64  C   UNL A   1      38.478  31.479  32.324  1.00  0.00     0.135 A 
ATOM     65  C   UNL A   1      37.764  32.197  30.146  1.00  0.00     0.135 A 
ATOM     66  F   UNL A   1      39.355  30.866  33.134  1.00  0.00    -0.206 F 
ATOM     67  C   UNL A   1      37.328  32.021  32.889  1.00  0.00     0.059 A 
ATOM     68  C   UNL A   1      36.619  32.772  30.691  1.00  0.00     0.059 A 
ATOM     69  F   UNL A   1      37.951  32.304  28.821  1.00  0.00    -0.206 F 
ATOM     70  C   UNL A   1      36.407  32.673  32.065  1.00  0.00     0.060 A 
BRANCH  70  71
ATOM     71  S   UNL A   1      34.943  33.411  32.822  1.00  0.00     0.124 S 
ATOM     72  O   UNL A   1      33.869  32.690  32.146  1.00  0.00    -0.237 OA
ATOM     73  O   UNL A   1      35.129  33.091  34.234  1.00  0.00    -0.237 OA
ATOM     74  O   UNL A   1      35.059  34.825  32.482  1.00  0.00    -0.744 OA
ENDBRANCH  70  71
ENDBRANCH  49  63
BRANCH  50  75
ATOM     75  C   UNL A   1      47.251  27.862  27.524  1.00  0.00     0.058 A 
ATOM     76  C   UNL A   1      47.641  27.910  26.177  1.00  0.00     0.135 A 
ATOM     77  C   UNL A   1      48.132  27.256  28.434  1.00  0.00     0.135 A 
ATOM     78  F   UNL A   1      46.822  28.451  25.261  1.00  0.00    -0.206 F 
ATOM     79  C   UNL A   1      48.856  27.383  25.749  1.00  0.00     0.059 A 
ATOM     80  C   UNL A   1      49.367  26.755  28.038  1.00  0.00     0.059 A 
ATOM     81  F   UNL A   1      47.807  27.173  29.734  1.00  0.00    -0.206 F 
ATOM     82  C   UNL A   1      49.716  26.814  26.690  1.00  0.00     0.060 A 
BRANCH  82  83
ATOM     83  S   UNL A   1      51.317  26.184  26.143  1.00  0.00     0.124 S 
ATOM     84  O   UNL A   1      51.288  24.821  26.661  1.00  0.00    -0.237 OA
ATOM     85  O   UNL A   1      51.222  26.319  24.692  1.00  0.00    -0.237 OA
ATOM     86  O   UNL A   1      52.269  27.085  26.786  1.00  0.00    -0.744 OA
ENDBRANCH  82  83
ENDBRANCH  50  75
BRANCH  62  87
ATOM     87  C   UNL A   1      45.249  34.230  29.514  1.00  0.00     0.058 A 
ATOM     88  C   UNL A   1      45.193  35.154  28.460  1.00  0.00     0.135 A 
ATOM     89  C   UNL A   1      45.943  34.603  30.676  1.00  0.00     0.135 A 
ATOM     90  F   UNL A   1      44.548  34.845  27.324  1.00  0.00    -0.206 F 
ATOM     91  C   UNL A   1      45.810  36.398  28.550  1.00  0.00     0.059 A 
ATOM     92  C   UNL A   1      46.549  35.851  30.797  1.00  0.00     0.059 A 
ATOM     93  F   UNL A   1      46.021  33.759  31.718  1.00  0.00    -0.206 F 
ATOM     94  C   UNL A   1      46.483  36.739  29.724  1.00  0.00     0.060 A 
BRANCH  94  95
ATOM     95  S   UNL A   1      47.245  38.372  29.840  1.00  0.00     0.124 S 
ATOM     96  O   UNL A   1      47.133  38.848  28.464  1.00  0.00    -0.237 OA
ATOM     97  O   UNL A   1      46.392  39.046  30.814  1.00  0.00    -0.237 OA
ATOM     98  O   UNL A   1      48.602  38.085  30.295  1.00  0.00    -0.744 OA
ENDBRANCH  94  95
ENDBRANCH  62  87
ENDBRANCH  36  37
ENDBRANCH  29  31
ENDBRANCH  28  29
ENDBRANCH   1  28
TORSDOF 15
ENDMDL
