MODEL 1
REMARK VINA RESULT:     -11.7      0.000      0.000
REMARK SMILES O=C(CC(=O)c1ccccc1)Nc1cccc(C(=O)OCCOC(=O)c2ccc(-c3c4nc(c(-c5c(F)cc(S(=O)(=O)[O-])cc5F)c5ccc([nH]5)c(-c5c(F)cc(S(=O)(=O)[O-])cc5F)c5nc(c(-c6c(F)cc(S(=O)(=O)[O-])cc6F)c6ccc3[nH]6)C=C5)C=C4)cc2)c1
REMARK SMILES IDX 21 1 20 2 18 3 19 4 17 5 13 6 14 7 92 8 15 9 16 10 12 11
REMARK SMILES IDX 1 12 2 13 3 15 4 16 5 17 6 18 7 19 11 20 8 21 10 22 9 23
REMARK SMILES IDX 22 24 23 25 24 26 25 27 26 28 27 29 91 30 28 31 90 32 29 33
REMARK SMILES IDX 30 34 31 35 84 36 32 37 89 38 83 39 85 40 33 41 88 42 82 43
REMARK SMILES IDX 81 44 34 46 68 47 47 48 67 49 48 50 51 51 66 52 86 53 49 54
REMARK SMILES IDX 50 55 65 57 87 58 52 59 35 60 36 61 45 62 37 63 38 64 44 65
REMARK SMILES IDX 46 66 39 67 40 68 41 69 42 70 43 71 69 72 70 73 79 74 71 75
REMARK SMILES IDX 72 76 78 77 80 78 73 79 74 80 75 81 76 82 77 83 53 84 54 85
REMARK SMILES IDX 63 86 55 87 56 88 62 89 64 90 57 91 58 92 59 93 60 94 61 95
REMARK H PARENT 12 14 85 45 51 56
REMARK Flexibility Score: inf
ROOT
ATOM      1  C   UNL A   1      42.867  22.104  26.253  1.00  0.00     0.275 C 
ENDROOT
BRANCH   1   2
ATOM      2  O   UNL A   1      41.689  21.433  25.767  1.00  0.00    -0.458 OA
BRANCH   2   3
ATOM      3  C   UNL A   1      40.709  21.181  26.674  1.00  0.00     0.338 C 
ATOM      4  O   UNL A   1      40.793  20.496  27.671  1.00  0.00    -0.246 OA
BRANCH   3   5
ATOM      5  C   UNL A   1      39.507  21.977  26.324  1.00  0.00     0.062 A 
ATOM      6  C   UNL A   1      37.366  22.160  25.218  1.00  0.00     0.042 A 
ATOM      7  C   UNL A   1      37.294  23.509  25.587  1.00  0.00     0.026 A 
ATOM      8  C   UNL A   1      38.502  21.417  25.537  1.00  0.00     0.041 A 
ATOM      9  C   UNL A   1      38.282  24.062  26.399  1.00  0.00     0.003 A 
ATOM     10  C   UNL A   1      39.359  23.280  26.809  1.00  0.00     0.016 A 
BRANCH   6  11
ATOM     11  N   UNL A   1      36.228  21.585  24.621  1.00  0.00    -0.326 N 
ATOM     12  O   UNL A   1      34.860  21.413  26.505  1.00  0.00    -0.274 OA
ATOM     13  C   UNL A   1      35.039  21.340  25.292  1.00  0.00     0.232 C 
ATOM     14  H   UNL A   1      36.279  21.340  23.669  1.00  0.00     0.169 HD
BRANCH  13  15
ATOM     15  C   UNL A   1      33.884  21.013  24.396  1.00  0.00     0.181 C 
BRANCH  15  16
ATOM     16  C   UNL A   1      32.931  19.962  24.896  1.00  0.00     0.172 C 
ATOM     17  O   UNL A   1      31.796  20.271  25.261  1.00  0.00    -0.294 OA
BRANCH  16  18
ATOM     18  C   UNL A   1      33.307  18.522  24.896  1.00  0.00     0.018 A 
ATOM     19  C   UNL A   1      32.538  17.662  25.692  1.00  0.00     0.012 A 
ATOM     20  C   UNL A   1      34.425  18.019  24.225  1.00  0.00     0.012 A 
ATOM     21  C   UNL A   1      32.881  16.313  25.812  1.00  0.00     0.001 A 
ATOM     22  C   UNL A   1      34.777  16.671  24.362  1.00  0.00     0.001 A 
ATOM     23  C   UNL A   1      34.005  15.821  25.152  1.00  0.00     0.000 A 
ENDBRANCH  16  18
ENDBRANCH  15  16
ENDBRANCH  13  15
ENDBRANCH   6  11
ENDBRANCH   3   5
ENDBRANCH   2   3
ENDBRANCH   1   2
BRANCH   1  24
ATOM     24  C   UNL A   1      42.984  23.494  25.630  1.00  0.00     0.275 C 
BRANCH  24  25
ATOM     25  O   UNL A   1      42.796  24.497  26.643  1.00  0.00    -0.458 OA
BRANCH  25  26
ATOM     26  C   UNL A   1      42.387  25.709  26.204  1.00  0.00     0.338 C 
ATOM     27  O   UNL A   1      42.323  26.107  25.053  1.00  0.00    -0.246 OA
BRANCH  26  28
ATOM     28  C   UNL A   1      41.932  26.500  27.357  1.00  0.00     0.060 A 
ATOM     29  C   UNL A   1      42.530  27.734  27.580  1.00  0.00     0.016 A 
ATOM     30  C   UNL A   1      41.011  25.994  28.268  1.00  0.00     0.016 A 
ATOM     31  C   UNL A   1      42.287  28.437  28.754  1.00  0.00     0.010 A 
ATOM     32  C   UNL A   1      40.680  26.755  29.397  1.00  0.00     0.010 A 
ATOM     33  C   UNL A   1      41.333  27.974  29.668  1.00  0.00    -0.014 A 
BRANCH  33  34
ATOM     34  C   UNL A   1      41.027  28.763  30.894  1.00  0.00     0.031 A 
ATOM     35  C   UNL A   1      39.885  29.744  30.898  1.00  0.00     0.074 A 
ATOM     36  C   UNL A   1      41.769  28.599  32.010  1.00  0.00     0.049 A 
ATOM     37  N   UNL A   1      39.579  30.654  31.787  1.00  0.00    -0.248 NA
ATOM     38  C   UNL A   1      38.971  29.703  29.745  1.00  0.00     0.031 C 
ATOM     39  C   UNL A   1      42.874  27.648  32.164  1.00  0.00     0.029 A 
ATOM     40  N   UNL A   1      41.711  29.228  33.230  1.00  0.00    -0.354 N 
ATOM     41  C   UNL A   1      38.479  31.333  31.275  1.00  0.00     0.074 A 
ATOM     42  C   UNL A   1      38.169  30.728  29.996  1.00  0.00     0.031 C 
ATOM     43  C   UNL A   1      43.367  27.736  33.407  1.00  0.00     0.029 A 
ATOM     44  C   UNL A   1      42.685  28.816  34.110  1.00  0.00     0.049 A 
ATOM     45  H   UNL A   1      41.036  29.909  33.453  1.00  0.00     0.167 HD
ATOM     46  C   UNL A   1      37.795  32.367  31.822  1.00  0.00     0.037 A 
ATOM     47  C   UNL A   1      43.035  29.286  35.323  1.00  0.00     0.037 A 
ATOM     48  C   UNL A   1      38.083  32.928  33.118  1.00  0.00     0.049 A 
ATOM     49  C   UNL A   1      42.291  30.461  35.890  1.00  0.00     0.074 A 
ATOM     50  C   UNL A   1      37.435  33.961  33.772  1.00  0.00     0.029 A 
ATOM     51  N   UNL A   1      39.098  32.497  33.962  1.00  0.00    -0.354 N 
ATOM     52  N   UNL A   1      41.283  31.123  35.374  1.00  0.00    -0.248 NA
ATOM     53  C   UNL A   1      42.746  30.971  37.190  1.00  0.00     0.031 C 
ATOM     54  C   UNL A   1      38.085  34.185  34.991  1.00  0.00     0.029 A 
ATOM     55  C   UNL A   1      39.106  33.257  35.120  1.00  0.00     0.049 A 
ATOM     56  H   UNL A   1      39.719  31.759  33.767  1.00  0.00     0.167 HD
ATOM     57  C   UNL A   1      40.975  32.120  36.292  1.00  0.00     0.074 A 
ATOM     58  C   UNL A   1      41.890  31.960  37.404  1.00  0.00     0.031 C 
ATOM     59  C   UNL A   1      40.024  33.084  36.218  1.00  0.00     0.037 A 
BRANCH  46  60
ATOM     60  C   UNL A   1      36.692  32.989  31.009  1.00  0.00     0.058 A 
ATOM     61  C   UNL A   1      35.338  32.695  31.234  1.00  0.00     0.135 A 
ATOM     62  C   UNL A   1      36.998  33.928  30.009  1.00  0.00     0.135 A 
ATOM     63  F   UNL A   1      34.988  31.794  32.164  1.00  0.00    -0.206 F 
ATOM     64  C   UNL A   1      34.329  33.290  30.482  1.00  0.00     0.059 A 
ATOM     65  C   UNL A   1      36.006  34.555  29.262  1.00  0.00     0.059 A 
ATOM     66  F   UNL A   1      38.277  34.247  29.751  1.00  0.00    -0.206 F 
ATOM     67  C   UNL A   1      34.674  34.219  29.497  1.00  0.00     0.060 A 
BRANCH  67  68
ATOM     68  S   UNL A   1      33.353  34.987  28.531  1.00  0.00     0.124 S 
ATOM     69  O   UNL A   1      32.572  35.641  29.576  1.00  0.00    -0.237 OA
ATOM     70  O   UNL A   1      34.093  35.877  27.643  1.00  0.00    -0.237 OA
ATOM     71  O   UNL A   1      32.706  33.853  27.880  1.00  0.00    -0.744 OA
ENDBRANCH  67  68
ENDBRANCH  46  60
BRANCH  47  72
ATOM     72  C   UNL A   1      44.182  28.678  36.052  1.00  0.00     0.058 A 
ATOM     73  C   UNL A   1      45.485  29.169  35.893  1.00  0.00     0.135 A 
ATOM     74  C   UNL A   1      43.992  27.606  36.939  1.00  0.00     0.135 A 
ATOM     75  F   UNL A   1      45.721  30.184  35.048  1.00  0.00    -0.206 F 
ATOM     76  C   UNL A   1      46.561  28.616  36.582  1.00  0.00     0.059 A 
ATOM     77  C   UNL A   1      45.046  27.056  37.661  1.00  0.00     0.059 A 
ATOM     78  F   UNL A   1      42.762  27.103  37.135  1.00  0.00    -0.206 F 
ATOM     79  C   UNL A   1      46.329  27.562  37.468  1.00  0.00     0.060 A 
BRANCH  79  80
ATOM     80  S   UNL A   1      47.723  26.887  38.399  1.00  0.00     0.124 S 
ATOM     81  O   UNL A   1      48.123  25.768  37.556  1.00  0.00    -0.237 OA
ATOM     82  O   UNL A   1      48.643  28.019  38.438  1.00  0.00    -0.237 OA
ATOM     83  O   UNL A   1      47.126  26.531  39.683  1.00  0.00    -0.744 OA
ENDBRANCH  79  80
ENDBRANCH  47  72
BRANCH  59  84
ATOM     84  C   UNL A   1      39.908  34.025  37.385  1.00  0.00     0.058 A 
ATOM     85  C   UNL A   1      40.492  35.300  37.361  1.00  0.00     0.135 A 
ATOM     86  C   UNL A   1      39.171  33.660  38.522  1.00  0.00     0.135 A 
ATOM     87  F   UNL A   1      41.216  35.693  36.301  1.00  0.00    -0.206 F 
ATOM     88  C   UNL A   1      40.364  36.176  38.435  1.00  0.00     0.059 A 
ATOM     89  C   UNL A   1      39.008  34.528  39.596  1.00  0.00     0.059 A 
ATOM     90  F   UNL A   1      38.588  32.453  38.591  1.00  0.00    -0.206 F 
ATOM     91  C   UNL A   1      39.620  35.780  39.548  1.00  0.00     0.060 A 
BRANCH  91  92
ATOM     92  S   UNL A   1      39.436  36.937  40.922  1.00  0.00     0.124 S 
ATOM     93  O   UNL A   1      40.828  37.224  41.252  1.00  0.00    -0.237 OA
ATOM     94  O   UNL A   1      38.691  38.033  40.310  1.00  0.00    -0.237 OA
ATOM     95  O   UNL A   1      38.699  36.165  41.918  1.00  0.00    -0.744 OA
ENDBRANCH  91  92
ENDBRANCH  59  84
ENDBRANCH  33  34
ENDBRANCH  26  28
ENDBRANCH  25  26
ENDBRANCH  24  25
ENDBRANCH   1  24
TORSDOF 18
ENDMDL
MODEL 2
REMARK VINA RESULT:     -11.3      0.784      8.310
REMARK SMILES O=C(CC(=O)c1ccccc1)Nc1cccc(C(=O)OCCOC(=O)c2ccc(-c3c4nc(c(-c5c(F)cc(S(=O)(=O)[O-])cc5F)c5ccc([nH]5)c(-c5c(F)cc(S(=O)(=O)[O-])cc5F)c5nc(c(-c6c(F)cc(S(=O)(=O)[O-])cc6F)c6ccc3[nH]6)C=C5)C=C4)cc2)c1
REMARK SMILES IDX 21 1 20 2 18 3 19 4 17 5 13 6 14 7 92 8 15 9 16 10 12 11
REMARK SMILES IDX 1 12 2 13 3 15 4 16 5 17 6 18 7 19 11 20 8 21 10 22 9 23
REMARK SMILES IDX 22 24 23 25 24 26 25 27 26 28 27 29 91 30 28 31 90 32 29 33
REMARK SMILES IDX 30 34 31 35 84 36 32 37 89 38 83 39 85 40 33 41 88 42 82 43
REMARK SMILES IDX 81 44 34 46 68 47 47 48 67 49 48 50 51 51 66 52 86 53 49 54
REMARK SMILES IDX 50 55 65 57 87 58 52 59 35 60 36 61 45 62 37 63 38 64 44 65
REMARK SMILES IDX 46 66 39 67 40 68 41 69 42 70 43 71 69 72 70 73 79 74 71 75
REMARK SMILES IDX 72 76 78 77 80 78 73 79 74 80 75 81 76 82 77 83 53 84 54 85
REMARK SMILES IDX 63 86 55 87 56 88 62 89 64 90 57 91 58 92 59 93 60 94 61 95
REMARK H PARENT 12 14 85 45 51 56
REMARK Flexibility Score: inf
ROOT
ATOM      1  C   UNL A   1      42.936  21.768  26.025  1.00  0.00     0.275 C 
ENDROOT
BRANCH   1   2
ATOM      2  O   UNL A   1      41.847  21.740  26.967  1.00  0.00    -0.458 OA
BRANCH   2   3
ATOM      3  C   UNL A   1      40.789  20.945  26.657  1.00  0.00     0.338 C 
ATOM      4  O   UNL A   1      40.739  19.735  26.721  1.00  0.00    -0.246 OA
BRANCH   3   5
ATOM      5  C   UNL A   1      39.623  21.798  26.321  1.00  0.00     0.062 A 
ATOM      6  C   UNL A   1      37.483  22.088  25.236  1.00  0.00     0.042 A 
ATOM      7  C   UNL A   1      37.477  23.436  25.611  1.00  0.00     0.026 A 
ATOM      8  C   UNL A   1      38.585  21.290  25.541  1.00  0.00     0.041 A 
ATOM      9  C   UNL A   1      38.498  23.939  26.417  1.00  0.00     0.003 A 
ATOM     10  C   UNL A   1      39.541  23.105  26.814  1.00  0.00     0.016 A 
BRANCH   6  11
ATOM     11  N   UNL A   1      36.313  21.569  24.647  1.00  0.00    -0.326 N 
ATOM     12  O   UNL A   1      34.943  21.490  26.535  1.00  0.00    -0.274 OA
ATOM     13  C   UNL A   1      35.115  21.396  25.323  1.00  0.00     0.232 C 
ATOM     14  H   UNL A   1      36.348  21.314  23.697  1.00  0.00     0.169 HD
BRANCH  13  15
ATOM     15  C   UNL A   1      33.942  21.124  24.432  1.00  0.00     0.181 C 
BRANCH  15  16
ATOM     16  C   UNL A   1      32.964  20.089  24.918  1.00  0.00     0.172 C 
ATOM     17  O   UNL A   1      31.831  20.417  25.274  1.00  0.00    -0.294 OA
BRANCH  16  18
ATOM     18  C   UNL A   1      33.313  18.642  24.915  1.00  0.00     0.018 A 
ATOM     19  C   UNL A   1      32.514  17.790  25.691  1.00  0.00     0.012 A 
ATOM     20  C   UNL A   1      34.432  18.121  24.259  1.00  0.00     0.012 A 
ATOM     21  C   UNL A   1      32.829  16.435  25.807  1.00  0.00     0.001 A 
ATOM     22  C   UNL A   1      34.756  16.767  24.392  1.00  0.00     0.001 A 
ATOM     23  C   UNL A   1      33.955  15.926  25.163  1.00  0.00     0.000 A 
ENDBRANCH  16  18
ENDBRANCH  15  16
ENDBRANCH  13  15
ENDBRANCH   6  11
ENDBRANCH   3   5
ENDBRANCH   2   3
ENDBRANCH   1   2
BRANCH   1  24
ATOM     24  C   UNL A   1      43.035  23.143  25.366  1.00  0.00     0.275 C 
BRANCH  24  25
ATOM     25  O   UNL A   1      42.957  24.169  26.370  1.00  0.00    -0.458 OA
BRANCH  25  26
ATOM     26  C   UNL A   1      42.353  25.319  25.994  1.00  0.00     0.338 C 
ATOM     27  O   UNL A   1      41.870  25.591  24.908  1.00  0.00    -0.246 OA
BRANCH  26  28
ATOM     28  C   UNL A   1      42.283  26.218  27.155  1.00  0.00     0.060 A 
ATOM     29  C   UNL A   1      41.472  25.847  28.221  1.00  0.00     0.016 A 
ATOM     30  C   UNL A   1      42.914  27.457  27.155  1.00  0.00     0.016 A 
ATOM     31  C   UNL A   1      41.209  26.738  29.255  1.00  0.00     0.010 A 
ATOM     32  C   UNL A   1      42.739  28.311  28.252  1.00  0.00     0.010 A 
ATOM     33  C   UNL A   1      41.864  27.973  29.303  1.00  0.00    -0.014 A 
BRANCH  33  34
ATOM     34  C   UNL A   1      41.629  28.900  30.447  1.00  0.00     0.031 A 
ATOM     35  C   UNL A   1      42.521  28.847  31.659  1.00  0.00     0.074 A 
ATOM     36  C   UNL A   1      40.620  29.795  30.400  1.00  0.00     0.049 A 
ATOM     37  N   UNL A   1      42.370  29.424  32.823  1.00  0.00    -0.248 NA
ATOM     38  C   UNL A   1      43.739  28.027  31.552  1.00  0.00     0.031 C 
ATOM     39  C   UNL A   1      39.709  29.990  29.268  1.00  0.00     0.029 A 
ATOM     40  N   UNL A   1      40.185  30.709  31.328  1.00  0.00    -0.354 N 
ATOM     41  C   UNL A   1      43.436  28.993  33.605  1.00  0.00     0.074 A 
ATOM     42  C   UNL A   1      44.229  28.104  32.781  1.00  0.00     0.031 C 
ATOM     43  C   UNL A   1      38.848  30.976  29.555  1.00  0.00     0.029 A 
ATOM     44  C   UNL A   1      39.076  31.417  30.926  1.00  0.00     0.049 A 
ATOM     45  H   UNL A   1      40.625  30.845  32.198  1.00  0.00     0.167 HD
ATOM     46  C   UNL A   1      43.721  29.308  34.891  1.00  0.00     0.037 A 
ATOM     47  C   UNL A   1      38.289  32.281  31.596  1.00  0.00     0.037 A 
ATOM     48  C   UNL A   1      42.952  30.232  35.685  1.00  0.00     0.049 A 
ATOM     49  C   UNL A   1      38.600  32.582  33.036  1.00  0.00     0.074 A 
ATOM     50  C   UNL A   1      43.170  30.636  36.990  1.00  0.00     0.029 A 
ATOM     51  N   UNL A   1      41.819  30.904  35.245  1.00  0.00    -0.354 N 
ATOM     52  N   UNL A   1      39.584  32.130  33.776  1.00  0.00    -0.248 NA
ATOM     53  C   UNL A   1      37.682  33.488  33.738  1.00  0.00     0.031 C 
ATOM     54  C   UNL A   1      42.147  31.517  37.355  1.00  0.00     0.029 A 
ATOM     55  C   UNL A   1      41.317  31.703  36.260  1.00  0.00     0.049 A 
ATOM     56  H   UNL A   1      41.430  30.825  34.344  1.00  0.00     0.167 HD
ATOM     57  C   UNL A   1      39.410  32.706  35.028  1.00  0.00     0.074 A 
ATOM     58  C   UNL A   1      38.239  33.555  34.939  1.00  0.00     0.031 C 
ATOM     59  C   UNL A   1      40.150  32.542  36.153  1.00  0.00     0.037 A 
BRANCH  46  60
ATOM     60  C   UNL A   1      44.894  28.621  35.539  1.00  0.00     0.058 A 
ATOM     61  C   UNL A   1      44.769  27.389  36.199  1.00  0.00     0.135 A 
ATOM     62  C   UNL A   1      46.175  29.194  35.463  1.00  0.00     0.135 A 
ATOM     63  F   UNL A   1      43.567  26.805  36.317  1.00  0.00    -0.206 F 
ATOM     64  C   UNL A   1      45.867  26.761  36.781  1.00  0.00     0.059 A 
ATOM     65  C   UNL A   1      47.291  28.572  36.015  1.00  0.00     0.059 A 
ATOM     66  F   UNL A   1      46.353  30.372  34.844  1.00  0.00    -0.206 F 
ATOM     67  C   UNL A   1      47.124  27.361  36.684  1.00  0.00     0.060 A 
BRANCH  67  68
ATOM     68  S   UNL A   1      48.540  26.532  37.441  1.00  0.00     0.124 S 
ATOM     69  O   UNL A   1      49.577  27.550  37.311  1.00  0.00    -0.237 OA
ATOM     70  O   UNL A   1      48.066  26.281  38.798  1.00  0.00    -0.237 OA
ATOM     71  O   UNL A   1      48.720  25.343  36.613  1.00  0.00    -0.744 OA
ENDBRANCH  67  68
ENDBRANCH  46  60
BRANCH  47  72
ATOM     72  C   UNL A   1      37.100  32.876  30.927  1.00  0.00     0.058 A 
ATOM     73  C   UNL A   1      35.808  32.397  31.183  1.00  0.00     0.135 A 
ATOM     74  C   UNL A   1      37.233  33.952  30.033  1.00  0.00     0.135 A 
ATOM     75  F   UNL A   1      35.630  31.364  32.019  1.00  0.00    -0.206 F 
ATOM     76  C   UNL A   1      34.690  32.956  30.572  1.00  0.00     0.059 A 
ATOM     77  C   UNL A   1      36.128  34.547  29.434  1.00  0.00     0.059 A 
ATOM     78  F   UNL A   1      38.447  34.455  29.760  1.00  0.00    -0.206 F 
ATOM     79  C   UNL A   1      34.860  34.035  29.702  1.00  0.00     0.060 A 
BRANCH  79  80
ATOM     80  S   UNL A   1      33.398  34.791  28.957  1.00  0.00     0.124 S 
ATOM     81  O   UNL A   1      32.532  34.957  30.118  1.00  0.00    -0.237 OA
ATOM     82  O   UNL A   1      33.942  36.018  28.386  1.00  0.00    -0.237 OA
ATOM     83  O   UNL A   1      32.965  33.793  27.983  1.00  0.00    -0.744 OA
ENDBRANCH  79  80
ENDBRANCH  47  72
BRANCH  59  84
ATOM     84  C   UNL A   1      39.730  33.318  37.370  1.00  0.00     0.058 A 
ATOM     85  C   UNL A   1      38.743  32.837  38.244  1.00  0.00     0.135 A 
ATOM     86  C   UNL A   1      40.351  34.536  37.687  1.00  0.00     0.135 A 
ATOM     87  F   UNL A   1      38.111  31.682  37.981  1.00  0.00    -0.206 F 
ATOM     88  C   UNL A   1      38.372  33.548  39.380  1.00  0.00     0.059 A 
ATOM     89  C   UNL A   1      40.015  35.251  38.831  1.00  0.00     0.059 A 
ATOM     90  F   UNL A   1      41.306  35.035  36.887  1.00  0.00    -0.206 F 
ATOM     91  C   UNL A   1      39.015  34.754  39.666  1.00  0.00     0.060 A 
BRANCH  91  92
ATOM     92  S   UNL A   1      38.546  35.652  41.160  1.00  0.00     0.124 S 
ATOM     93  O   UNL A   1      38.495  37.027  40.673  1.00  0.00    -0.237 OA
ATOM     94  O   UNL A   1      37.260  35.050  41.496  1.00  0.00    -0.237 OA
ATOM     95  O   UNL A   1      39.632  35.354  42.089  1.00  0.00    -0.744 OA
ENDBRANCH  91  92
ENDBRANCH  59  84
ENDBRANCH  33  34
ENDBRANCH  26  28
ENDBRANCH  25  26
ENDBRANCH  24  25
ENDBRANCH   1  24
TORSDOF 18
ENDMDL
MODEL 3
REMARK VINA RESULT:     -11.3      3.488      9.907
REMARK SMILES O=C(CC(=O)c1ccccc1)Nc1cccc(C(=O)OCCOC(=O)c2ccc(-c3c4nc(c(-c5c(F)cc(S(=O)(=O)[O-])cc5F)c5ccc([nH]5)c(-c5c(F)cc(S(=O)(=O)[O-])cc5F)c5nc(c(-c6c(F)cc(S(=O)(=O)[O-])cc6F)c6ccc3[nH]6)C=C5)C=C4)cc2)c1
REMARK SMILES IDX 21 1 20 2 18 3 19 4 17 5 13 6 14 7 92 8 15 9 16 10 12 11
REMARK SMILES IDX 1 12 2 13 3 15 4 16 5 17 6 18 7 19 11 20 8 21 10 22 9 23
REMARK SMILES IDX 22 24 23 25 24 26 25 27 26 28 27 29 91 30 28 31 90 32 29 33
REMARK SMILES IDX 30 34 31 35 84 36 32 37 89 38 83 39 85 40 33 41 88 42 82 43
REMARK SMILES IDX 81 44 34 46 68 47 47 48 67 49 48 50 51 51 66 52 86 53 49 54
REMARK SMILES IDX 50 55 65 57 87 58 52 59 35 60 36 61 45 62 37 63 38 64 44 65
REMARK SMILES IDX 46 66 39 67 40 68 41 69 42 70 43 71 69 72 70 73 79 74 71 75
REMARK SMILES IDX 72 76 78 77 80 78 73 79 74 80 75 81 76 82 77 83 53 84 54 85
REMARK SMILES IDX 63 86 55 87 56 88 62 89 64 90 57 91 58 92 59 93 60 94 61 95
REMARK H PARENT 12 14 85 45 51 56
REMARK Flexibility Score: inf
ROOT
ATOM      1  C   UNL A   1      39.757  20.133  25.780  1.00  0.00     0.275 C 
ENDROOT
BRANCH   1   2
ATOM      2  O   UNL A   1      40.932  19.331  25.552  1.00  0.00    -0.458 OA
BRANCH   2   3
ATOM      3  C   UNL A   1      41.919  19.413  26.482  1.00  0.00     0.338 C 
ATOM      4  O   UNL A   1      41.819  19.226  27.676  1.00  0.00    -0.246 OA
BRANCH   3   5
ATOM      5  C   UNL A   1      43.211  19.666  25.797  1.00  0.00     0.062 A 
ATOM      6  C   UNL A   1      45.088  21.116  25.336  1.00  0.00     0.042 A 
ATOM      7  C   UNL A   1      45.591  20.174  24.431  1.00  0.00     0.026 A 
ATOM      8  C   UNL A   1      43.868  20.883  25.969  1.00  0.00     0.041 A 
ATOM      9  C   UNL A   1      44.953  18.944  24.280  1.00  0.00     0.003 A 
ATOM     10  C   UNL A   1      43.794  18.673  25.003  1.00  0.00     0.016 A 
BRANCH   6  11
ATOM     11  N   UNL A   1      45.901  22.224  25.643  1.00  0.00    -0.326 N 
ATOM     12  O   UNL A   1      45.323  23.621  23.865  1.00  0.00    -0.274 OA
ATOM     13  C   UNL A   1      45.888  23.417  24.936  1.00  0.00     0.232 C 
ATOM     14  H   UNL A   1      46.518  22.148  26.407  1.00  0.00     0.169 HD
BRANCH  13  15
ATOM     15  C   UNL A   1      46.600  24.544  25.619  1.00  0.00     0.181 C 
BRANCH  15  16
ATOM     16  C   UNL A   1      45.813  25.297  26.657  1.00  0.00     0.172 C 
ATOM     17  O   UNL A   1      45.934  26.518  26.769  1.00  0.00    -0.294 OA
BRANCH  16  18
ATOM     18  C   UNL A   1      44.821  24.602  27.522  1.00  0.00     0.018 A 
ATOM     19  C   UNL A   1      45.304  24.012  28.699  1.00  0.00     0.012 A 
ATOM     20  C   UNL A   1      43.477  24.437  27.174  1.00  0.00     0.012 A 
ATOM     21  C   UNL A   1      44.451  23.270  29.519  1.00  0.00     0.001 A 
ATOM     22  C   UNL A   1      42.631  23.676  27.988  1.00  0.00     0.001 A 
ATOM     23  C   UNL A   1      43.117  23.096  29.159  1.00  0.00     0.000 A 
ENDBRANCH  16  18
ENDBRANCH  15  16
ENDBRANCH  13  15
ENDBRANCH   6  11
ENDBRANCH   3   5
ENDBRANCH   2   3
ENDBRANCH   1   2
BRANCH   1  24
ATOM     24  C   UNL A   1      40.137  21.607  25.923  1.00  0.00     0.275 C 
BRANCH  24  25
ATOM     25  O   UNL A   1      39.129  22.296  26.682  1.00  0.00    -0.458 OA
BRANCH  25  26
ATOM     26  C   UNL A   1      38.696  23.467  26.161  1.00  0.00     0.338 C 
ATOM     27  O   UNL A   1      37.907  23.634  25.246  1.00  0.00    -0.246 OA
BRANCH  26  28
ATOM     28  C   UNL A   1      39.273  24.572  26.940  1.00  0.00     0.060 A 
ATOM     29  C   UNL A   1      38.971  24.645  28.294  1.00  0.00     0.016 A 
ATOM     30  C   UNL A   1      40.009  25.584  26.332  1.00  0.00     0.016 A 
ATOM     31  C   UNL A   1      39.320  25.765  29.039  1.00  0.00     0.010 A 
ATOM     32  C   UNL A   1      40.458  26.660  27.109  1.00  0.00     0.010 A 
ATOM     33  C   UNL A   1      40.097  26.778  28.466  1.00  0.00    -0.014 A 
BRANCH  33  34
ATOM     34  C   UNL A   1      40.525  27.947  29.284  1.00  0.00     0.031 A 
ATOM     35  C   UNL A   1      41.851  27.927  29.998  1.00  0.00     0.074 A 
ATOM     36  C   UNL A   1      39.729  29.033  29.387  1.00  0.00     0.049 A 
ATOM     37  N   UNL A   1      42.316  28.750  30.903  1.00  0.00    -0.248 NA
ATOM     38  C   UNL A   1      42.772  26.831  29.657  1.00  0.00     0.031 C 
ATOM     39  C   UNL A   1      38.441  29.208  28.709  1.00  0.00     0.029 A 
ATOM     40  N   UNL A   1      39.881  30.195  30.102  1.00  0.00    -0.354 N 
ATOM     41  C   UNL A   1      43.553  28.240  31.282  1.00  0.00     0.074 A 
ATOM     42  C   UNL A   1      43.767  27.035  30.508  1.00  0.00     0.031 C 
ATOM     43  C   UNL A   1      37.938  30.412  29.017  1.00  0.00     0.029 A 
ATOM     44  C   UNL A   1      38.813  31.055  29.989  1.00  0.00     0.049 A 
ATOM     45  H   UNL A   1      40.679  30.395  30.643  1.00  0.00     0.167 HD
ATOM     46  C   UNL A   1      44.425  28.732  32.195  1.00  0.00     0.037 A 
ATOM     47  C   UNL A   1      38.532  32.203  30.635  1.00  0.00     0.037 A 
ATOM     48  C   UNL A   1      44.222  29.959  32.925  1.00  0.00     0.049 A 
ATOM     49  C   UNL A   1      39.493  32.706  31.675  1.00  0.00     0.074 A 
ATOM     50  C   UNL A   1      45.055  30.555  33.855  1.00  0.00     0.029 A 
ATOM     51  N   UNL A   1      43.111  30.782  32.799  1.00  0.00    -0.354 N 
ATOM     52  N   UNL A   1      40.636  32.190  32.058  1.00  0.00    -0.248 NA
ATOM     53  C   UNL A   1      39.116  33.933  32.390  1.00  0.00     0.031 C 
ATOM     54  C   UNL A   1      44.429  31.715  34.325  1.00  0.00     0.029 A 
ATOM     55  C   UNL A   1      43.228  31.869  33.650  1.00  0.00     0.049 A 
ATOM     56  H   UNL A   1      42.352  30.618  32.194  1.00  0.00     0.167 HD
ATOM     57  C   UNL A   1      41.121  33.034  33.049  1.00  0.00     0.074 A 
ATOM     58  C   UNL A   1      40.156  34.106  33.192  1.00  0.00     0.031 C 
ATOM     59  C   UNL A   1      42.258  32.928  33.779  1.00  0.00     0.037 A 
BRANCH  46  60
ATOM     60  C   UNL A   1      45.662  27.928  32.491  1.00  0.00     0.058 A 
ATOM     61  C   UNL A   1      45.660  26.857  33.397  1.00  0.00     0.135 A 
ATOM     62  C   UNL A   1      46.864  28.214  31.821  1.00  0.00     0.135 A 
ATOM     63  F   UNL A   1      44.546  26.549  34.078  1.00  0.00    -0.206 F 
ATOM     64  C   UNL A   1      46.811  26.114  33.648  1.00  0.00     0.059 A 
ATOM     65  C   UNL A   1      48.020  27.469  32.035  1.00  0.00     0.059 A 
ATOM     66  F   UNL A   1      46.923  29.228  30.943  1.00  0.00    -0.206 F 
ATOM     67  C   UNL A   1      47.987  26.429  32.962  1.00  0.00     0.060 A 
BRANCH  67  68
ATOM     68  S   UNL A   1      49.470  25.453  33.295  1.00  0.00     0.124 S 
ATOM     69  O   UNL A   1      50.366  26.465  33.846  1.00  0.00    -0.237 OA
ATOM     70  O   UNL A   1      48.983  24.456  34.243  1.00  0.00    -0.237 OA
ATOM     71  O   UNL A   1      49.840  24.937  31.981  1.00  0.00    -0.744 OA
ENDBRANCH  67  68
ENDBRANCH  46  60
BRANCH  47  72
ATOM     72  C   UNL A   1      37.258  32.921  30.355  1.00  0.00     0.058 A 
ATOM     73  C   UNL A   1      37.136  33.780  29.255  1.00  0.00     0.135 A 
ATOM     74  C   UNL A   1      36.130  32.743  31.173  1.00  0.00     0.135 A 
ATOM     75  F   UNL A   1      38.188  33.994  28.451  1.00  0.00    -0.206 F 
ATOM     76  C   UNL A   1      35.945  34.444  28.978  1.00  0.00     0.059 A 
ATOM     77  C   UNL A   1      34.920  33.371  30.899  1.00  0.00     0.059 A 
ATOM     78  F   UNL A   1      36.190  31.923  32.235  1.00  0.00    -0.206 F 
ATOM     79  C   UNL A   1      34.840  34.229  29.805  1.00  0.00     0.060 A 
BRANCH  79  80
ATOM     80  S   UNL A   1      33.281  35.051  29.405  1.00  0.00     0.124 S 
ATOM     81  O   UNL A   1      32.728  34.153  28.399  1.00  0.00    -0.237 OA
ATOM     82  O   UNL A   1      32.600  35.062  30.695  1.00  0.00    -0.237 OA
ATOM     83  O   UNL A   1      33.709  36.360  28.919  1.00  0.00    -0.744 OA
ENDBRANCH  79  80
ENDBRANCH  47  72
BRANCH  59  84
ATOM     84  C   UNL A   1      42.535  34.015  34.780  1.00  0.00     0.058 A 
ATOM     85  C   UNL A   1      42.084  33.926  36.106  1.00  0.00     0.135 A 
ATOM     86  C   UNL A   1      43.295  35.138  34.418  1.00  0.00     0.135 A 
ATOM     87  F   UNL A   1      41.344  32.878  36.499  1.00  0.00    -0.206 F 
ATOM     88  C   UNL A   1      42.360  34.924  37.034  1.00  0.00     0.059 A 
ATOM     89  C   UNL A   1      43.606  36.135  35.336  1.00  0.00     0.059 A 
ATOM     90  F   UNL A   1      43.757  35.266  33.164  1.00  0.00    -0.206 F 
ATOM     91  C   UNL A   1      43.123  36.025  36.639  1.00  0.00     0.060 A 
BRANCH  91  92
ATOM     92  S   UNL A   1      43.501  37.299  37.862  1.00  0.00     0.124 S 
ATOM     93  O   UNL A   1      42.205  37.482  38.506  1.00  0.00    -0.237 OA
ATOM     94  O   UNL A   1      44.529  36.657  38.675  1.00  0.00    -0.237 OA
ATOM     95  O   UNL A   1      43.964  38.421  37.050  1.00  0.00    -0.744 OA
ENDBRANCH  91  92
ENDBRANCH  59  84
ENDBRANCH  33  34
ENDBRANCH  26  28
ENDBRANCH  25  26
ENDBRANCH  24  25
ENDBRANCH   1  24
TORSDOF 18
ENDMDL
