MODEL 1
REMARK VINA RESULT:     -10.2      0.000      0.000
REMARK SMILES C[C@H]1[C@H](C(=O)OCCOC(=O)c2ccc(-c3c4nc(c(-c5c(F)cc(S(=O)(=O)[O-])cc5F)c5ccc([nH]5)c(-c5c(F)cc(S(=O)(=O)[O-])cc5F)c5nc(c(-c6c(F)cc(S(=O)(=O)[O-])cc6F)c6ccc3[nH]6)C=C5)C=C4)cc2)CC[N@H+]1[C@@H]1CCCC1(C)C
REMARK SMILES IDX 8 1 7 2 6 3 4 4 5 5 3 6 1 7 2 8 80 9 78 10 79 11 81 13 82 14
REMARK SMILES IDX 85 15 83 16 84 17 86 18 87 19 9 20 10 21 11 22 12 23 13 24
REMARK SMILES IDX 77 25 14 26 76 27 15 28 16 29 17 30 70 31 18 32 75 33 69 34
REMARK SMILES IDX 71 35 19 36 74 37 68 38 67 39 20 41 54 42 33 43 53 44 34 45
REMARK SMILES IDX 37 46 52 47 72 48 35 49 36 50 51 52 73 53 38 54 21 55 22 56
REMARK SMILES IDX 31 57 23 58 24 59 30 60 32 61 25 62 26 63 27 64 28 65 29 66
REMARK SMILES IDX 55 67 56 68 65 69 57 70 58 71 64 72 66 73 59 74 60 75 61 76
REMARK SMILES IDX 62 77 63 78 39 79 40 80 49 81 41 82 42 83 48 84 50 85 43 86
REMARK SMILES IDX 44 87 45 88 46 89 47 90
REMARK H PARENT 80 12 71 40 37 51
REMARK Flexibility Score: inf
ROOT
ATOM      1  C   UNL A   1      33.854  32.793  27.995  1.00  0.00     0.275 C 
ENDROOT
BRANCH   1   2
ATOM      2  C   UNL A   1      34.137  34.125  28.686  1.00  0.00     0.274 C 
BRANCH   2   3
ATOM      3  O   UNL A   1      33.406  34.243  29.923  1.00  0.00    -0.462 OA
BRANCH   3   4
ATOM      4  C   UNL A   1      34.140  34.621  30.998  1.00  0.00     0.315 C 
ATOM      5  O   UNL A   1      34.141  35.749  31.477  1.00  0.00    -0.252 OA
BRANCH   4   6
ATOM      6  C   UNL A   1      35.037  33.537  31.546  1.00  0.00     0.162 C 
ATOM      7  C   UNL A   1      37.172  33.250  30.253  1.00  0.00     0.076 C 
ATOM      8  C   UNL A   1      36.557  33.765  31.557  1.00  0.00     0.195 C 
ATOM      9  N   UNL A   1      37.021  33.157  32.831  1.00  0.00    -0.329 N 
ATOM     10  C   UNL A   1      34.690  33.266  32.992  1.00  0.00     0.083 C 
ATOM     11  C   UNL A   1      35.894  32.480  33.462  1.00  0.00     0.263 C 
ATOM     12  H   UNL A   1      37.308  33.921  33.444  1.00  0.00     0.348 HD
BRANCH   9  13
ATOM     13  C   UNL A   1      38.334  32.516  32.873  1.00  0.00     0.189 C 
ATOM     14  C   UNL A   1      38.398  31.007  33.196  1.00  0.00     0.066 C 
ATOM     15  C   UNL A   1      39.433  33.139  33.796  1.00  0.00     0.017 C 
ATOM     16  C   UNL A   1      39.805  30.744  33.742  1.00  0.00     0.007 C 
ATOM     17  C   UNL A   1      40.542  32.077  33.658  1.00  0.00     0.013 C 
ATOM     18  C   UNL A   1      39.908  34.501  33.277  1.00  0.00     0.017 C 
ATOM     19  C   UNL A   1      39.061  33.278  35.284  1.00  0.00     0.017 C 
ENDBRANCH   9  13
ENDBRANCH   4   6
ENDBRANCH   3   4
ENDBRANCH   2   3
ENDBRANCH   1   2
BRANCH   1  20
ATOM     20  O   UNL A   1      34.300  31.693  28.805  1.00  0.00    -0.458 OA
BRANCH  20  21
ATOM     21  C   UNL A   1      34.479  30.527  28.142  1.00  0.00     0.338 C 
ATOM     22  O   UNL A   1      33.674  29.940  27.441  1.00  0.00    -0.246 OA
BRANCH  21  23
ATOM     23  C   UNL A   1      35.848  30.045  28.369  1.00  0.00     0.060 A 
ATOM     24  C   UNL A   1      36.250  29.677  29.655  1.00  0.00     0.016 A 
ATOM     25  C   UNL A   1      36.759  30.063  27.315  1.00  0.00     0.016 A 
ATOM     26  C   UNL A   1      37.582  29.348  29.903  1.00  0.00     0.010 A 
ATOM     27  C   UNL A   1      38.082  29.694  27.557  1.00  0.00     0.010 A 
ATOM     28  C   UNL A   1      38.507  29.349  28.853  1.00  0.00    -0.014 A 
BRANCH  28  29
ATOM     29  C   UNL A   1      39.935  29.025  29.084  1.00  0.00     0.031 A 
ATOM     30  C   UNL A   1      40.875  30.110  29.519  1.00  0.00     0.074 A 
ATOM     31  C   UNL A   1      40.394  27.783  28.839  1.00  0.00     0.049 A 
ATOM     32  N   UNL A   1      42.181  30.126  29.512  1.00  0.00    -0.248 NA
ATOM     33  C   UNL A   1      40.257  31.351  30.018  1.00  0.00     0.031 C 
ATOM     34  C   UNL A   1      39.568  26.631  28.474  1.00  0.00     0.029 A 
ATOM     35  N   UNL A   1      41.675  27.292  28.832  1.00  0.00    -0.354 N 
ATOM     36  C   UNL A   1      42.545  31.390  29.960  1.00  0.00     0.074 A 
ATOM     37  C   UNL A   1      41.322  32.111  30.237  1.00  0.00     0.031 C 
ATOM     38  C   UNL A   1      40.365  25.573  28.257  1.00  0.00     0.029 A 
ATOM     39  C   UNL A   1      41.757  25.990  28.398  1.00  0.00     0.049 A 
ATOM     40  H   UNL A   1      42.458  27.820  29.111  1.00  0.00     0.167 HD
ATOM     41  C   UNL A   1      43.790  31.899  30.113  1.00  0.00     0.037 A 
ATOM     42  C   UNL A   1      42.832  25.238  28.093  1.00  0.00     0.037 A 
ATOM     43  C   UNL A   1      44.997  31.157  29.854  1.00  0.00     0.049 A 
ATOM     44  C   UNL A   1      44.205  25.839  28.216  1.00  0.00     0.074 A 
ATOM     45  C   UNL A   1      46.309  31.577  29.975  1.00  0.00     0.029 A 
ATOM     46  N   UNL A   1      45.035  29.837  29.427  1.00  0.00    -0.354 N 
ATOM     47  N   UNL A   1      44.543  27.048  28.598  1.00  0.00    -0.248 NA
ATOM     48  C   UNL A   1      45.343  24.982  27.854  1.00  0.00     0.031 C 
ATOM     49  C   UNL A   1      47.142  30.519  29.592  1.00  0.00     0.029 A 
ATOM     50  C   UNL A   1      46.348  29.429  29.271  1.00  0.00     0.049 A 
ATOM     51  H   UNL A   1      44.245  29.274  29.259  1.00  0.00     0.167 HD
ATOM     52  C   UNL A   1      45.930  27.090  28.546  1.00  0.00     0.074 A 
ATOM     53  C   UNL A   1      46.372  25.785  28.096  1.00  0.00     0.031 C 
ATOM     54  C   UNL A   1      46.763  28.115  28.846  1.00  0.00     0.037 A 
BRANCH  41  55
ATOM     55  C   UNL A   1      43.911  33.333  30.540  1.00  0.00     0.058 A 
ATOM     56  C   UNL A   1      43.952  33.703  31.893  1.00  0.00     0.135 A 
ATOM     57  C   UNL A   1      44.014  34.351  29.578  1.00  0.00     0.135 A 
ATOM     58  F   UNL A   1      43.840  32.770  32.852  1.00  0.00    -0.206 F 
ATOM     59  C   UNL A   1      44.068  35.035  32.278  1.00  0.00     0.059 A 
ATOM     60  C   UNL A   1      44.152  35.688  29.940  1.00  0.00     0.059 A 
ATOM     61  F   UNL A   1      43.977  34.051  28.270  1.00  0.00    -0.206 F 
ATOM     62  C   UNL A   1      44.163  36.021  31.294  1.00  0.00     0.060 A 
BRANCH  62  63
ATOM     63  S   UNL A   1      44.309  37.746  31.805  1.00  0.00     0.124 S 
ATOM     64  O   UNL A   1      43.448  37.774  32.983  1.00  0.00    -0.237 OA
ATOM     65  O   UNL A   1      45.739  37.878  32.064  1.00  0.00    -0.237 OA
ATOM     66  O   UNL A   1      43.815  38.487  30.649  1.00  0.00    -0.744 OA
ENDBRANCH  62  63
ENDBRANCH  41  55
BRANCH  42  67
ATOM     67  C   UNL A   1      42.643  23.848  27.599  1.00  0.00     0.058 A 
ATOM     68  C   UNL A   1      42.568  22.771  28.491  1.00  0.00     0.135 A 
ATOM     69  C   UNL A   1      42.506  23.576  26.228  1.00  0.00     0.135 A 
ATOM     70  F   UNL A   1      42.704  22.981  29.809  1.00  0.00    -0.206 F 
ATOM     71  C   UNL A   1      42.369  21.469  28.044  1.00  0.00     0.059 A 
ATOM     72  C   UNL A   1      42.282  22.286  25.758  1.00  0.00     0.059 A 
ATOM     73  F   UNL A   1      42.558  24.576  25.335  1.00  0.00    -0.206 F 
ATOM     74  C   UNL A   1      42.223  21.237  26.675  1.00  0.00     0.060 A 
BRANCH  74  75
ATOM     75  S   UNL A   1      41.904  19.552  26.107  1.00  0.00     0.124 S 
ATOM     76  O   UNL A   1      42.770  19.469  24.936  1.00  0.00    -0.237 OA
ATOM     77  O   UNL A   1      42.310  18.755  27.260  1.00  0.00    -0.237 OA
ATOM     78  O   UNL A   1      40.470  19.558  25.833  1.00  0.00    -0.744 OA
ENDBRANCH  74  75
ENDBRANCH  42  67
BRANCH  54  79
ATOM     79  C   UNL A   1      48.240  27.863  28.755  1.00  0.00     0.058 A 
ATOM     80  C   UNL A   1      48.935  27.181  29.764  1.00  0.00     0.135 A 
ATOM     81  C   UNL A   1      48.944  28.221  27.593  1.00  0.00     0.135 A 
ATOM     82  F   UNL A   1      48.307  26.827  30.896  1.00  0.00    -0.206 F 
ATOM     83  C   UNL A   1      50.281  26.858  29.624  1.00  0.00     0.059 A 
ATOM     84  C   UNL A   1      50.285  27.890  27.424  1.00  0.00     0.059 A 
ATOM     85  F   UNL A   1      48.320  28.869  26.597  1.00  0.00    -0.206 F 
ATOM     86  C   UNL A   1      50.944  27.209  28.446  1.00  0.00     0.060 A 
BRANCH  86  87
ATOM     87  S   UNL A   1      52.668  26.712  28.240  1.00  0.00     0.124 S 
ATOM     88  O   UNL A   1      52.542  25.587  27.320  1.00  0.00    -0.237 OA
ATOM     89  O   UNL A   1      53.279  27.917  27.689  1.00  0.00    -0.237 OA
ATOM     90  O   UNL A   1      53.086  26.370  29.597  1.00  0.00    -0.744 OA
ENDBRANCH  86  87
ENDBRANCH  54  79
ENDBRANCH  28  29
ENDBRANCH  21  23
ENDBRANCH  20  21
ENDBRANCH   1  20
TORSDOF 15
ENDMDL
MODEL 2
REMARK VINA RESULT:      -9.9      3.167      5.745
REMARK SMILES C[C@H]1[C@H](C(=O)OCCOC(=O)c2ccc(-c3c4nc(c(-c5c(F)cc(S(=O)(=O)[O-])cc5F)c5ccc([nH]5)c(-c5c(F)cc(S(=O)(=O)[O-])cc5F)c5nc(c(-c6c(F)cc(S(=O)(=O)[O-])cc6F)c6ccc3[nH]6)C=C5)C=C4)cc2)CC[N@H+]1[C@@H]1CCCC1(C)C
REMARK SMILES IDX 8 1 7 2 6 3 4 4 5 5 3 6 1 7 2 8 80 9 78 10 79 11 81 13 82 14
REMARK SMILES IDX 85 15 83 16 84 17 86 18 87 19 9 20 10 21 11 22 12 23 13 24
REMARK SMILES IDX 77 25 14 26 76 27 15 28 16 29 17 30 70 31 18 32 75 33 69 34
REMARK SMILES IDX 71 35 19 36 74 37 68 38 67 39 20 41 54 42 33 43 53 44 34 45
REMARK SMILES IDX 37 46 52 47 72 48 35 49 36 50 51 52 73 53 38 54 21 55 22 56
REMARK SMILES IDX 31 57 23 58 24 59 30 60 32 61 25 62 26 63 27 64 28 65 29 66
REMARK SMILES IDX 55 67 56 68 65 69 57 70 58 71 64 72 66 73 59 74 60 75 61 76
REMARK SMILES IDX 62 77 63 78 39 79 40 80 49 81 41 82 42 83 48 84 50 85 43 86
REMARK SMILES IDX 44 87 45 88 46 89 47 90
REMARK H PARENT 80 12 71 40 37 51
REMARK Flexibility Score: inf
ROOT
ATOM      1  C   UNL A   1      32.663  30.182  26.819  1.00  0.00     0.275 C 
ENDROOT
BRANCH   1   2
ATOM      2  C   UNL A   1      32.594  29.796  25.343  1.00  0.00     0.274 C 
BRANCH   2   3
ATOM      3  O   UNL A   1      31.231  29.616  24.909  1.00  0.00    -0.462 OA
BRANCH   3   4
ATOM      4  C   UNL A   1      30.997  28.496  24.182  1.00  0.00     0.315 C 
ATOM      5  O   UNL A   1      29.910  28.197  23.698  1.00  0.00    -0.252 OA
BRANCH   4   6
ATOM      6  C   UNL A   1      32.188  27.578  24.059  1.00  0.00     0.162 C 
ATOM      7  C   UNL A   1      32.614  26.202  26.118  1.00  0.00     0.076 C 
ATOM      8  C   UNL A   1      32.109  26.171  24.672  1.00  0.00     0.195 C 
ATOM      9  N   UNL A   1      32.822  25.296  23.706  1.00  0.00    -0.329 N 
ATOM     10  C   UNL A   1      32.497  27.331  22.600  1.00  0.00     0.083 C 
ATOM     11  C   UNL A   1      33.419  26.133  22.672  1.00  0.00     0.263 C 
ATOM     12  H   UNL A   1      32.122  24.702  23.261  1.00  0.00     0.348 HD
BRANCH   9  13
ATOM     13  C   UNL A   1      33.589  24.159  24.213  1.00  0.00     0.189 C 
ATOM     14  C   UNL A   1      35.031  23.963  23.696  1.00  0.00     0.066 C 
ATOM     15  C   UNL A   1      32.958  22.731  24.098  1.00  0.00     0.017 C 
ATOM     16  C   UNL A   1      35.361  22.481  23.893  1.00  0.00     0.007 C 
ATOM     17  C   UNL A   1      34.143  21.868  24.577  1.00  0.00     0.013 C 
ATOM     18  C   UNL A   1      31.748  22.567  25.024  1.00  0.00     0.017 C 
ATOM     19  C   UNL A   1      32.561  22.285  22.678  1.00  0.00     0.017 C 
ENDBRANCH   9  13
ENDBRANCH   4   6
ENDBRANCH   3   4
ENDBRANCH   2   3
ENDBRANCH   1   2
BRANCH   1  20
ATOM     20  O   UNL A   1      33.845  29.643  27.433  1.00  0.00    -0.458 OA
BRANCH  20  21
ATOM     21  C   UNL A   1      34.519  30.500  28.234  1.00  0.00     0.338 C 
ATOM     22  O   UNL A   1      34.098  31.519  28.753  1.00  0.00    -0.246 OA
BRANCH  21  23
ATOM     23  C   UNL A   1      35.890  30.009  28.426  1.00  0.00     0.060 A 
ATOM     24  C   UNL A   1      36.319  29.627  29.699  1.00  0.00     0.016 A 
ATOM     25  C   UNL A   1      36.777  30.031  27.352  1.00  0.00     0.016 A 
ATOM     26  C   UNL A   1      37.654  29.289  29.915  1.00  0.00     0.010 A 
ATOM     27  C   UNL A   1      38.103  29.653  27.561  1.00  0.00     0.010 A 
ATOM     28  C   UNL A   1      38.555  29.295  28.845  1.00  0.00    -0.014 A 
BRANCH  28  29
ATOM     29  C   UNL A   1      39.986  28.961  29.041  1.00  0.00     0.031 A 
ATOM     30  C   UNL A   1      40.946  30.043  29.440  1.00  0.00     0.074 A 
ATOM     31  C   UNL A   1      40.428  27.713  28.796  1.00  0.00     0.049 A 
ATOM     32  N   UNL A   1      42.252  30.048  29.398  1.00  0.00    -0.248 NA
ATOM     33  C   UNL A   1      40.352  31.293  29.942  1.00  0.00     0.031 C 
ATOM     34  C   UNL A   1      39.584  26.565  28.464  1.00  0.00     0.029 A 
ATOM     35  N   UNL A   1      41.705  27.212  28.760  1.00  0.00    -0.354 N 
ATOM     36  C   UNL A   1      42.638  31.313  29.823  1.00  0.00     0.074 A 
ATOM     37  C   UNL A   1      41.428  32.047  30.126  1.00  0.00     0.031 C 
ATOM     38  C   UNL A   1      40.366  25.498  28.236  1.00  0.00     0.029 A 
ATOM     39  C   UNL A   1      41.765  25.905  28.337  1.00  0.00     0.049 A 
ATOM     40  H   UNL A   1      42.499  27.736  29.012  1.00  0.00     0.167 HD
ATOM     41  C   UNL A   1      43.891  31.813  29.938  1.00  0.00     0.037 A 
ATOM     42  C   UNL A   1      42.825  25.141  28.011  1.00  0.00     0.037 A 
ATOM     43  C   UNL A   1      45.084  31.058  29.654  1.00  0.00     0.049 A 
ATOM     44  C   UNL A   1      44.206  25.731  28.092  1.00  0.00     0.074 A 
ATOM     45  C   UNL A   1      46.402  31.468  29.736  1.00  0.00     0.029 A 
ATOM     46  N   UNL A   1      45.100  29.734  29.239  1.00  0.00    -0.354 N 
ATOM     47  N   UNL A   1      44.563  26.941  28.452  1.00  0.00    -0.248 NA
ATOM     48  C   UNL A   1      45.327  24.862  27.708  1.00  0.00     0.031 C 
ATOM     49  C   UNL A   1      47.216  30.400  29.342  1.00  0.00     0.029 A 
ATOM     50  C   UNL A   1      46.405  29.314  29.053  1.00  0.00     0.049 A 
ATOM     51  H   UNL A   1      44.302  29.176  29.099  1.00  0.00     0.167 HD
ATOM     52  C   UNL A   1      45.949  26.971  28.363  1.00  0.00     0.074 A 
ATOM     53  C   UNL A   1      46.369  25.659  27.914  1.00  0.00     0.031 C 
ATOM     54  C   UNL A   1      46.798  27.993  28.630  1.00  0.00     0.037 A 
BRANCH  41  55
ATOM     55  C   UNL A   1      44.034  33.250  30.348  1.00  0.00     0.058 A 
ATOM     56  C   UNL A   1      44.046  34.291  29.408  1.00  0.00     0.135 A 
ATOM     57  C   UNL A   1      44.133  33.592  31.706  1.00  0.00     0.135 A 
ATOM     58  F   UNL A   1      43.972  34.019  28.095  1.00  0.00    -0.206 F 
ATOM     59  C   UNL A   1      44.175  35.621  29.799  1.00  0.00     0.059 A 
ATOM     60  C   UNL A   1      44.241  34.915  32.122  1.00  0.00     0.059 A 
ATOM     61  F   UNL A   1      44.128  32.633  32.646  1.00  0.00    -0.206 F 
ATOM     62  C   UNL A   1      44.276  35.922  31.159  1.00  0.00     0.060 A 
BRANCH  62  63
ATOM     63  S   UNL A   1      44.446  37.650  31.654  1.00  0.00     0.124 S 
ATOM     64  O   UNL A   1      45.897  37.787  31.736  1.00  0.00    -0.237 OA
ATOM     65  O   UNL A   1      43.805  38.359  30.552  1.00  0.00    -0.237 OA
ATOM     66  O   UNL A   1      43.738  37.710  32.929  1.00  0.00    -0.744 OA
ENDBRANCH  62  63
ENDBRANCH  41  55
BRANCH  42  67
ATOM     67  C   UNL A   1      42.612  23.748  27.535  1.00  0.00     0.058 A 
ATOM     68  C   UNL A   1      42.537  23.458  26.167  1.00  0.00     0.135 A 
ATOM     69  C   UNL A   1      42.507  22.678  28.439  1.00  0.00     0.135 A 
ATOM     70  F   UNL A   1      42.622  24.450  25.266  1.00  0.00    -0.206 F 
ATOM     71  C   UNL A   1      42.361  22.158  25.706  1.00  0.00     0.059 A 
ATOM     72  C   UNL A   1      42.354  21.366  28.003  1.00  0.00     0.059 A 
ATOM     73  F   UNL A   1      42.585  22.903  29.760  1.00  0.00    -0.206 F 
ATOM     74  C   UNL A   1      42.274  21.117  26.634  1.00  0.00     0.060 A 
BRANCH  74  75
ATOM     75  S   UNL A   1      42.105  19.424  26.027  1.00  0.00     0.124 S 
ATOM     76  O   UNL A   1      43.018  19.429  24.889  1.00  0.00    -0.237 OA
ATOM     77  O   UNL A   1      42.527  18.638  27.181  1.00  0.00    -0.237 OA
ATOM     78  O   UNL A   1      40.686  19.327  25.698  1.00  0.00    -0.744 OA
ENDBRANCH  74  75
ENDBRANCH  42  67
BRANCH  54  79
ATOM     79  C   UNL A   1      48.270  27.727  28.502  1.00  0.00     0.058 A 
ATOM     80  C   UNL A   1      48.997  27.099  29.523  1.00  0.00     0.135 A 
ATOM     81  C   UNL A   1      48.934  28.016  27.299  1.00  0.00     0.135 A 
ATOM     82  F   UNL A   1      48.407  26.813  30.694  1.00  0.00    -0.206 F 
ATOM     83  C   UNL A   1      50.336  26.761  29.355  1.00  0.00     0.059 A 
ATOM     84  C   UNL A   1      50.267  27.669  27.102  1.00  0.00     0.059 A 
ATOM     85  F   UNL A   1      48.278  28.611  26.290  1.00  0.00    -0.206 F 
ATOM     86  C   UNL A   1      50.960  27.042  28.137  1.00  0.00     0.060 A 
BRANCH  86  87
ATOM     87  S   UNL A   1      52.673  26.525  27.900  1.00  0.00     0.124 S 
ATOM     88  O   UNL A   1      53.248  27.698  27.251  1.00  0.00    -0.237 OA
ATOM     89  O   UNL A   1      53.118  26.275  29.268  1.00  0.00    -0.237 OA
ATOM     90  O   UNL A   1      52.554  25.336  27.060  1.00  0.00    -0.744 OA
ENDBRANCH  86  87
ENDBRANCH  54  79
ENDBRANCH  28  29
ENDBRANCH  21  23
ENDBRANCH  20  21
ENDBRANCH   1  20
TORSDOF 15
ENDMDL
MODEL 3
REMARK VINA RESULT:      -9.8      3.121      5.623
REMARK SMILES C[C@H]1[C@H](C(=O)OCCOC(=O)c2ccc(-c3c4nc(c(-c5c(F)cc(S(=O)(=O)[O-])cc5F)c5ccc([nH]5)c(-c5c(F)cc(S(=O)(=O)[O-])cc5F)c5nc(c(-c6c(F)cc(S(=O)(=O)[O-])cc6F)c6ccc3[nH]6)C=C5)C=C4)cc2)CC[N@H+]1[C@@H]1CCCC1(C)C
REMARK SMILES IDX 8 1 7 2 6 3 4 4 5 5 3 6 1 7 2 8 80 9 78 10 79 11 81 13 82 14
REMARK SMILES IDX 85 15 83 16 84 17 86 18 87 19 9 20 10 21 11 22 12 23 13 24
REMARK SMILES IDX 77 25 14 26 76 27 15 28 16 29 17 30 70 31 18 32 75 33 69 34
REMARK SMILES IDX 71 35 19 36 74 37 68 38 67 39 20 41 54 42 33 43 53 44 34 45
REMARK SMILES IDX 37 46 52 47 72 48 35 49 36 50 51 52 73 53 38 54 21 55 22 56
REMARK SMILES IDX 31 57 23 58 24 59 30 60 32 61 25 62 26 63 27 64 28 65 29 66
REMARK SMILES IDX 55 67 56 68 65 69 57 70 58 71 64 72 66 73 59 74 60 75 61 76
REMARK SMILES IDX 62 77 63 78 39 79 40 80 49 81 41 82 42 83 48 84 50 85 43 86
REMARK SMILES IDX 44 87 45 88 46 89 47 90
REMARK H PARENT 80 12 71 40 37 51
REMARK Flexibility Score: inf
ROOT
ATOM      1  C   UNL A   1      32.417  30.076  27.054  1.00  0.00     0.275 C 
ENDROOT
BRANCH   1   2
ATOM      2  C   UNL A   1      31.986  29.541  25.690  1.00  0.00     0.274 C 
BRANCH   2   3
ATOM      3  O   UNL A   1      31.626  28.148  25.760  1.00  0.00    -0.462 OA
BRANCH   3   4
ATOM      4  C   UNL A   1      31.070  27.634  24.635  1.00  0.00     0.315 C 
ATOM      5  O   UNL A   1      30.427  28.284  23.818  1.00  0.00    -0.252 OA
BRANCH   4   6
ATOM      6  C   UNL A   1      31.249  26.143  24.483  1.00  0.00     0.162 C 
ATOM      7  C   UNL A   1      33.155  25.507  22.974  1.00  0.00     0.076 C 
ATOM      8  C   UNL A   1      32.673  25.567  24.426  1.00  0.00     0.195 C 
ATOM      9  N   UNL A   1      32.596  24.292  25.185  1.00  0.00    -0.329 N 
ATOM     10  C   UNL A   1      30.604  25.427  25.648  1.00  0.00     0.083 C 
ATOM     11  C   UNL A   1      31.203  24.042  25.537  1.00  0.00     0.263 C 
ATOM     12  H   UNL A   1      33.117  24.423  26.052  1.00  0.00     0.348 HD
BRANCH   9  13
ATOM     13  C   UNL A   1      33.421  23.163  24.759  1.00  0.00     0.189 C 
ATOM     14  C   UNL A   1      32.717  21.829  24.426  1.00  0.00     0.066 C 
ATOM     15  C   UNL A   1      34.615  22.732  25.675  1.00  0.00     0.017 C 
ATOM     16  C   UNL A   1      33.774  20.733  24.593  1.00  0.00     0.007 C 
ATOM     17  C   UNL A   1      35.071  21.451  24.948  1.00  0.00     0.013 C 
ATOM     18  C   UNL A   1      35.730  23.784  25.689  1.00  0.00     0.017 C 
ATOM     19  C   UNL A   1      34.252  22.375  27.128  1.00  0.00     0.017 C 
ENDBRANCH   9  13
ENDBRANCH   4   6
ENDBRANCH   3   4
ENDBRANCH   2   3
ENDBRANCH   1   2
BRANCH   1  20
ATOM     20  O   UNL A   1      33.777  29.710  27.340  1.00  0.00    -0.458 OA
BRANCH  20  21
ATOM     21  C   UNL A   1      34.467  30.601  28.088  1.00  0.00     0.338 C 
ATOM     22  O   UNL A   1      34.069  31.663  28.534  1.00  0.00    -0.246 OA
BRANCH  21  23
ATOM     23  C   UNL A   1      35.823  30.088  28.326  1.00  0.00     0.060 A 
ATOM     24  C   UNL A   1      36.201  29.694  29.612  1.00  0.00     0.016 A 
ATOM     25  C   UNL A   1      36.748  30.102  27.284  1.00  0.00     0.016 A 
ATOM     26  C   UNL A   1      37.522  29.335  29.872  1.00  0.00     0.010 A 
ATOM     27  C   UNL A   1      38.060  29.703  27.538  1.00  0.00     0.010 A 
ATOM     28  C   UNL A   1      38.460  29.332  28.835  1.00  0.00    -0.014 A 
BRANCH  28  29
ATOM     29  C   UNL A   1      39.879  28.976  29.080  1.00  0.00     0.031 A 
ATOM     30  C   UNL A   1      40.840  30.042  29.518  1.00  0.00     0.074 A 
ATOM     31  C   UNL A   1      40.311  27.723  28.845  1.00  0.00     0.049 A 
ATOM     32  N   UNL A   1      42.146  30.027  29.522  1.00  0.00    -0.248 NA
ATOM     33  C   UNL A   1      40.247  31.298  30.004  1.00  0.00     0.031 C 
ATOM     34  C   UNL A   1      39.461  26.589  28.478  1.00  0.00     0.029 A 
ATOM     35  N   UNL A   1      41.580  27.202  28.852  1.00  0.00    -0.354 N 
ATOM     36  C   UNL A   1      42.536  31.284  29.966  1.00  0.00     0.074 A 
ATOM     37  C   UNL A   1      41.327  32.035  30.229  1.00  0.00     0.031 C 
ATOM     38  C   UNL A   1      40.235  25.511  28.273  1.00  0.00     0.029 A 
ATOM     39  C   UNL A   1      41.635  25.897  28.425  1.00  0.00     0.049 A 
ATOM     40  H   UNL A   1      42.373  27.713  29.134  1.00  0.00     0.167 HD
ATOM     41  C   UNL A   1      43.791  31.765  30.127  1.00  0.00     0.037 A 
ATOM     42  C   UNL A   1      42.695  25.118  28.133  1.00  0.00     0.037 A 
ATOM     43  C   UNL A   1      44.982  30.994  29.883  1.00  0.00     0.049 A 
ATOM     44  C   UNL A   1      44.081  25.687  28.265  1.00  0.00     0.074 A 
ATOM     45  C   UNL A   1      46.303  31.384  30.013  1.00  0.00     0.029 A 
ATOM     46  N   UNL A   1      44.993  29.671  29.462  1.00  0.00    -0.354 N 
ATOM     47  N   UNL A   1      44.443  26.890  28.643  1.00  0.00    -0.248 NA
ATOM     48  C   UNL A   1      45.202  24.803  27.917  1.00  0.00     0.031 C 
ATOM     49  C   UNL A   1      47.114  30.305  29.643  1.00  0.00     0.029 A 
ATOM     50  C   UNL A   1      46.298  29.232  29.320  1.00  0.00     0.049 A 
ATOM     51  H   UNL A   1      44.192  29.126  29.291  1.00  0.00     0.167 HD
ATOM     52  C   UNL A   1      45.832  26.900  28.603  1.00  0.00     0.074 A 
ATOM     53  C   UNL A   1      46.247  25.583  28.163  1.00  0.00     0.031 C 
ATOM     54  C   UNL A   1      46.686  27.907  28.906  1.00  0.00     0.037 A 
BRANCH  41  55
ATOM     55  C   UNL A   1      43.941  33.198  30.549  1.00  0.00     0.058 A 
ATOM     56  C   UNL A   1      44.042  33.568  31.898  1.00  0.00     0.135 A 
ATOM     57  C   UNL A   1      44.011  34.216  29.583  1.00  0.00     0.135 A 
ATOM     58  F   UNL A   1      43.964  32.636  32.862  1.00  0.00    -0.206 F 
ATOM     59  C   UNL A   1      44.186  34.899  32.278  1.00  0.00     0.059 A 
ATOM     60  C   UNL A   1      44.176  35.551  29.938  1.00  0.00     0.059 A 
ATOM     61  F   UNL A   1      43.917  33.916  28.278  1.00  0.00    -0.206 F 
ATOM     62  C   UNL A   1      44.247  35.884  31.290  1.00  0.00     0.060 A 
BRANCH  62  63
ATOM     63  S   UNL A   1      44.429  37.608  31.794  1.00  0.00     0.124 S 
ATOM     64  O   UNL A   1      45.880  37.735  31.878  1.00  0.00    -0.237 OA
ATOM     65  O   UNL A   1      43.794  38.326  30.693  1.00  0.00    -0.237 OA
ATOM     66  O   UNL A   1      43.719  37.667  33.067  1.00  0.00    -0.744 OA
ENDBRANCH  62  63
ENDBRANCH  41  55
BRANCH  42  67
ATOM     67  C   UNL A   1      42.478  23.731  27.643  1.00  0.00     0.058 A 
ATOM     68  C   UNL A   1      42.314  23.467  26.277  1.00  0.00     0.135 A 
ATOM     69  C   UNL A   1      42.458  22.641  28.529  1.00  0.00     0.135 A 
ATOM     70  F   UNL A   1      42.315  24.477  25.394  1.00  0.00    -0.206 F 
ATOM     71  C   UNL A   1      42.133  22.172  25.802  1.00  0.00     0.059 A 
ATOM     72  C   UNL A   1      42.303  21.335  28.077  1.00  0.00     0.059 A 
ATOM     73  F   UNL A   1      42.623  22.841  29.845  1.00  0.00    -0.206 F 
ATOM     74  C   UNL A   1      42.132  21.112  26.711  1.00  0.00     0.060 A 
BRANCH  74  75
ATOM     75  S   UNL A   1      41.957  19.428  26.081  1.00  0.00     0.124 S 
ATOM     76  O   UNL A   1      42.857  19.450  24.933  1.00  0.00    -0.237 OA
ATOM     77  O   UNL A   1      42.392  18.624  27.219  1.00  0.00    -0.237 OA
ATOM     78  O   UNL A   1      40.534  19.335  25.767  1.00  0.00    -0.744 OA
ENDBRANCH  74  75
ENDBRANCH  42  67
BRANCH  54  79
ATOM     79  C   UNL A   1      48.157  27.620  28.828  1.00  0.00     0.058 A 
ATOM     80  C   UNL A   1      48.900  27.892  27.670  1.00  0.00     0.135 A 
ATOM     81  C   UNL A   1      48.846  27.163  29.963  1.00  0.00     0.135 A 
ATOM     82  F   UNL A   1      48.284  28.321  26.557  1.00  0.00    -0.206 F 
ATOM     83  C   UNL A   1      50.280  27.723  27.640  1.00  0.00     0.059 A 
ATOM     84  C   UNL A   1      50.228  27.006  29.962  1.00  0.00     0.059 A 
ATOM     85  F   UNL A   1      48.178  26.896  31.097  1.00  0.00    -0.206 F 
ATOM     86  C   UNL A   1      50.936  27.288  28.794  1.00  0.00     0.060 A 
BRANCH  86  87
ATOM     87  S   UNL A   1      52.737  27.152  28.769  1.00  0.00     0.124 S 
ATOM     88  O   UNL A   1      53.126  28.482  28.311  1.00  0.00    -0.237 OA
ATOM     89  O   UNL A   1      53.048  26.845  30.162  1.00  0.00    -0.237 OA
ATOM     90  O   UNL A   1      52.981  26.066  27.826  1.00  0.00    -0.744 OA
ENDBRANCH  86  87
ENDBRANCH  54  79
ENDBRANCH  28  29
ENDBRANCH  21  23
ENDBRANCH  20  21
ENDBRANCH   1  20
TORSDOF 15
ENDMDL
