MODEL 1
REMARK VINA RESULT:     -11.7      0.000      0.000
REMARK SMILES O=C(OCCOC(=O)c1cc(Br)ccc1OCc1ccc(O)cc1)c1ccc(-c2c3nc(c(-c4c(F)cc(S(=O)(=O)[O-])cc4F)c4ccc([nH]4)c(-c4c(F)cc(S(=O)(=O)[O-])cc4F)c4nc(c(-c5c(F)cc(S(=O)(=O)[O-])cc5F)c5ccc2[nH]5)C=C4)C=C3)cc1
REMARK SMILES IDX 5 1 4 2 3 3 2 4 1 5 25 6 26 7 90 8 27 9 89 10 28 11 29 12
REMARK SMILES IDX 30 13 83 14 31 15 88 16 82 17 84 18 32 19 87 20 81 21 80 22
REMARK SMILES IDX 33 24 67 25 46 26 66 27 47 28 50 29 65 30 85 31 48 32 49 33
REMARK SMILES IDX 64 35 86 36 51 37 34 38 35 39 44 40 36 41 37 42 43 43 45 44
REMARK SMILES IDX 38 45 39 46 40 47 41 48 42 49 68 50 69 51 78 52 70 53 71 54
REMARK SMILES IDX 77 55 79 56 72 57 73 58 74 59 75 60 76 61 52 62 53 63 62 64
REMARK SMILES IDX 54 65 55 66 61 67 63 68 56 69 57 70 58 71 59 72 60 73 6 74
REMARK SMILES IDX 7 75 8 76 9 77 10 78 15 79 11 80 14 81 12 82 13 83 16 84
REMARK SMILES IDX 17 85 18 86 19 87 24 88 20 89 23 90 21 91 22 92
REMARK H PARENT 84 23 50 34 22 93
REMARK Flexibility Score: inf
ROOT
ATOM      1  C   UNL A   1      37.828  22.251  25.719  1.00  0.00     0.275 C 
ENDROOT
BRANCH   1   2
ATOM      2  C   UNL A   1      39.250  22.247  26.272  1.00  0.00     0.275 C 
BRANCH   2   3
ATOM      3  O   UNL A   1      39.541  23.293  27.212  1.00  0.00    -0.458 OA
BRANCH   3   4
ATOM      4  C   UNL A   1      40.514  24.234  27.108  1.00  0.00     0.338 C 
ATOM      5  O   UNL A   1      41.464  24.042  26.352  1.00  0.00    -0.246 OA
BRANCH   4   6
ATOM      6  C   UNL A   1      40.553  25.425  28.003  1.00  0.00     0.060 A 
ATOM      7  C   UNL A   1      41.651  26.274  28.170  1.00  0.00     0.016 A 
ATOM      8  C   UNL A   1      39.399  25.664  28.760  1.00  0.00     0.016 A 
ATOM      9  C   UNL A   1      41.568  27.391  29.012  1.00  0.00     0.010 A 
ATOM     10  C   UNL A   1      39.302  26.781  29.588  1.00  0.00     0.010 A 
ATOM     11  C   UNL A   1      40.400  27.638  29.737  1.00  0.00    -0.014 A 
BRANCH  11  12
ATOM     12  C   UNL A   1      40.413  28.578  30.881  1.00  0.00     0.031 A 
ATOM     13  C   UNL A   1      39.463  29.740  30.815  1.00  0.00     0.074 A 
ATOM     14  C   UNL A   1      41.246  28.434  31.925  1.00  0.00     0.049 A 
ATOM     15  N   UNL A   1      39.300  30.729  31.650  1.00  0.00    -0.248 NA
ATOM     16  C   UNL A   1      38.578  29.792  29.636  1.00  0.00     0.031 C 
ATOM     17  C   UNL A   1      42.200  27.345  32.111  1.00  0.00     0.029 A 
ATOM     18  N   UNL A   1      41.445  29.244  33.017  1.00  0.00    -0.354 N 
ATOM     19  C   UNL A   1      38.280  31.503  31.111  1.00  0.00     0.074 A 
ATOM     20  C   UNL A   1      37.926  30.923  29.836  1.00  0.00     0.031 C 
ATOM     21  C   UNL A   1      42.932  27.589  33.213  1.00  0.00     0.029 A 
ATOM     22  C   UNL A   1      42.497  28.851  33.807  1.00  0.00     0.049 A 
ATOM     23  H   UNL A   1      40.886  30.030  33.214  1.00  0.00     0.167 HD
ATOM     24  C   UNL A   1      37.657  32.574  31.649  1.00  0.00     0.037 A 
ATOM     25  C   UNL A   1      43.056  29.458  34.873  1.00  0.00     0.037 A 
ATOM     26  C   UNL A   1      38.020  33.153  32.909  1.00  0.00     0.049 A 
ATOM     27  C   UNL A   1      42.428  30.714  35.413  1.00  0.00     0.074 A 
ATOM     28  C   UNL A   1      37.435  34.212  33.574  1.00  0.00     0.029 A 
ATOM     29  N   UNL A   1      39.088  32.724  33.684  1.00  0.00    -0.354 N 
ATOM     30  N   UNL A   1      41.404  31.386  34.944  1.00  0.00    -0.248 NA
ATOM     31  C   UNL A   1      43.002  31.274  36.646  1.00  0.00     0.031 C 
ATOM     32  C   UNL A   1      38.170  34.445  34.742  1.00  0.00     0.029 A 
ATOM     33  C   UNL A   1      39.192  33.507  34.817  1.00  0.00     0.049 A 
ATOM     34  H   UNL A   1      39.683  31.972  33.461  1.00  0.00     0.167 HD
ATOM     35  C   UNL A   1      41.172  32.413  35.852  1.00  0.00     0.074 A 
ATOM     36  C   UNL A   1      42.185  32.295  36.881  1.00  0.00     0.031 C 
ATOM     37  C   UNL A   1      40.192  33.349  35.845  1.00  0.00     0.037 A 
BRANCH  24  38
ATOM     38  C   UNL A   1      36.524  33.150  30.853  1.00  0.00     0.058 A 
ATOM     39  C   UNL A   1      36.766  33.956  29.727  1.00  0.00     0.135 A 
ATOM     40  C   UNL A   1      35.197  32.987  31.273  1.00  0.00     0.135 A 
ATOM     41  F   UNL A   1      38.024  34.165  29.303  1.00  0.00    -0.206 F 
ATOM     42  C   UNL A   1      35.738  34.635  29.086  1.00  0.00     0.059 A 
ATOM     43  C   UNL A   1      34.148  33.636  30.629  1.00  0.00     0.059 A 
ATOM     44  F   UNL A   1      34.914  32.231  32.346  1.00  0.00    -0.206 F 
ATOM     45  C   UNL A   1      34.434  34.484  29.557  1.00  0.00     0.060 A 
BRANCH  45  46
ATOM     46  S   UNL A   1      33.116  35.437  28.776  1.00  0.00     0.124 S 
ATOM     47  O   UNL A   1      33.883  36.394  27.984  1.00  0.00    -0.237 OA
ATOM     48  O   UNL A   1      32.397  34.420  28.016  1.00  0.00    -0.237 OA
ATOM     49  O   UNL A   1      32.388  35.998  29.910  1.00  0.00    -0.744 OA
ENDBRANCH  45  46
ENDBRANCH  24  38
BRANCH  25  50
ATOM     50  C   UNL A   1      44.279  28.883  35.489  1.00  0.00     0.058 A 
ATOM     51  C   UNL A   1      44.210  27.900  36.484  1.00  0.00     0.135 A 
ATOM     52  C   UNL A   1      45.550  29.291  35.057  1.00  0.00     0.135 A 
ATOM     53  F   UNL A   1      43.017  27.489  36.941  1.00  0.00    -0.206 F 
ATOM     54  C   UNL A   1      45.361  27.332  37.026  1.00  0.00     0.059 A 
ATOM     55  C   UNL A   1      46.715  28.728  35.573  1.00  0.00     0.059 A 
ATOM     56  F   UNL A   1      45.666  30.236  34.111  1.00  0.00    -0.206 F 
ATOM     57  C   UNL A   1      46.609  27.747  36.558  1.00  0.00     0.060 A 
BRANCH  57  58
ATOM     58  S   UNL A   1      48.092  26.948  37.213  1.00  0.00     0.124 S 
ATOM     59  O   UNL A   1      48.046  27.344  38.615  1.00  0.00    -0.237 OA
ATOM     60  O   UNL A   1      47.827  25.538  36.940  1.00  0.00    -0.237 OA
ATOM     61  O   UNL A   1      49.170  27.539  36.425  1.00  0.00    -0.744 OA
ENDBRANCH  57  58
ENDBRANCH  25  50
BRANCH  37  62
ATOM     62  C   UNL A   1      40.102  34.283  37.015  1.00  0.00     0.058 A 
ATOM     63  C   UNL A   1      40.750  35.526  37.018  1.00  0.00     0.135 A 
ATOM     64  C   UNL A   1      39.241  33.980  38.083  1.00  0.00     0.135 A 
ATOM     65  F   UNL A   1      41.587  35.855  36.023  1.00  0.00    -0.206 F 
ATOM     66  C   UNL A   1      40.531  36.449  38.036  1.00  0.00     0.059 A 
ATOM     67  C   UNL A   1      38.995  34.894  39.099  1.00  0.00     0.059 A 
ATOM     68  F   UNL A   1      38.595  32.804  38.116  1.00  0.00    -0.206 F 
ATOM     69  C   UNL A   1      39.642  36.129  39.065  1.00  0.00     0.060 A 
BRANCH  69  70
ATOM     70  S   UNL A   1      39.280  37.375  40.320  1.00  0.00     0.124 S 
ATOM     71  O   UNL A   1      38.738  36.556  41.399  1.00  0.00    -0.237 OA
ATOM     72  O   UNL A   1      40.593  37.963  40.567  1.00  0.00    -0.237 OA
ATOM     73  O   UNL A   1      38.322  38.255  39.657  1.00  0.00    -0.744 OA
ENDBRANCH  69  70
ENDBRANCH  37  62
ENDBRANCH  11  12
ENDBRANCH   4   6
ENDBRANCH   3   4
ENDBRANCH   2   3
ENDBRANCH   1   2
BRANCH   1  74
ATOM     74  O   UNL A   1      37.631  23.257  24.725  1.00  0.00    -0.458 OA
BRANCH  74  75
ATOM     75  C   UNL A   1      36.558  23.030  23.923  1.00  0.00     0.342 C 
ATOM     76  O   UNL A   1      36.612  22.768  22.739  1.00  0.00    -0.246 OA
BRANCH  75  77
ATOM     77  C   UNL A   1      35.272  23.212  24.648  1.00  0.00     0.103 A 
ATOM     78  C   UNL A   1      34.927  24.538  24.952  1.00  0.00     0.035 A 
ATOM     79  C   UNL A   1      34.391  22.174  24.994  1.00  0.00     0.134 A 
ATOM     80  C   UNL A   1      33.766  24.812  25.672  1.00  0.00     0.019 A 
ATOM     81  C   UNL A   1      33.257  22.456  25.768  1.00  0.00     0.048 A 
ATOM     82  Br  UNL A   1      33.303  26.605  26.037  1.00  0.00    -0.051 Br
ATOM     83  C   UNL A   1      32.949  23.776  26.113  1.00  0.00     0.019 A 
BRANCH  79  84
ATOM     84  O   UNL A   1      34.663  20.864  24.722  1.00  0.00    -0.488 OA
BRANCH  84  85
ATOM     85  C   UNL A   1      33.586  20.000  24.321  1.00  0.00     0.265 C 
BRANCH  85  86
ATOM     86  C   UNL A   1      33.661  18.555  24.758  1.00  0.00    -0.010 A 
ATOM     87  C   UNL A   1      32.598  17.977  25.469  1.00  0.00     0.011 A 
ATOM     88  C   UNL A   1      34.747  17.749  24.387  1.00  0.00     0.011 A 
ATOM     89  C   UNL A   1      32.555  16.602  25.684  1.00  0.00     0.046 A 
ATOM     90  C   UNL A   1      34.722  16.376  24.632  1.00  0.00     0.046 A 
ATOM     91  C   UNL A   1      33.608  15.811  25.239  1.00  0.00     0.115 A 
BRANCH  91  92
ATOM     92  O   UNL A   1      33.558  14.454  25.359  1.00  0.00    -0.508 OA
ATOM     93  H   UNL A   1      34.230  13.924  24.977  1.00  0.00     0.293 HD
ENDBRANCH  91  92
ENDBRANCH  85  86
ENDBRANCH  84  85
ENDBRANCH  79  84
ENDBRANCH  75  77
ENDBRANCH  74  75
ENDBRANCH   1  74
TORSDOF 18
ENDMDL
MODEL 2
REMARK VINA RESULT:     -11.7      0.644      8.330
REMARK SMILES O=C(OCCOC(=O)c1cc(Br)ccc1OCc1ccc(O)cc1)c1ccc(-c2c3nc(c(-c4c(F)cc(S(=O)(=O)[O-])cc4F)c4ccc([nH]4)c(-c4c(F)cc(S(=O)(=O)[O-])cc4F)c4nc(c(-c5c(F)cc(S(=O)(=O)[O-])cc5F)c5ccc2[nH]5)C=C4)C=C3)cc1
REMARK SMILES IDX 5 1 4 2 3 3 2 4 1 5 25 6 26 7 90 8 27 9 89 10 28 11 29 12
REMARK SMILES IDX 30 13 83 14 31 15 88 16 82 17 84 18 32 19 87 20 81 21 80 22
REMARK SMILES IDX 33 24 67 25 46 26 66 27 47 28 50 29 65 30 85 31 48 32 49 33
REMARK SMILES IDX 64 35 86 36 51 37 34 38 35 39 44 40 36 41 37 42 43 43 45 44
REMARK SMILES IDX 38 45 39 46 40 47 41 48 42 49 68 50 69 51 78 52 70 53 71 54
REMARK SMILES IDX 77 55 79 56 72 57 73 58 74 59 75 60 76 61 52 62 53 63 62 64
REMARK SMILES IDX 54 65 55 66 61 67 63 68 56 69 57 70 58 71 59 72 60 73 6 74
REMARK SMILES IDX 7 75 8 76 9 77 10 78 15 79 11 80 14 81 12 82 13 83 16 84
REMARK SMILES IDX 17 85 18 86 19 87 24 88 20 89 23 90 21 91 22 92
REMARK H PARENT 84 23 50 34 22 93
REMARK Flexibility Score: inf
ROOT
ATOM      1  C   UNL A   1      38.350  22.975  26.127  1.00  0.00     0.275 C 
ENDROOT
BRANCH   1   2
ATOM      2  C   UNL A   1      39.666  22.306  26.514  1.00  0.00     0.275 C 
BRANCH   2   3
ATOM      3  O   UNL A   1      40.503  23.075  27.393  1.00  0.00    -0.458 OA
BRANCH   3   4
ATOM      4  C   UNL A   1      41.196  24.200  27.082  1.00  0.00     0.338 C 
ATOM      5  O   UNL A   1      42.046  24.161  26.195  1.00  0.00    -0.246 OA
BRANCH   4   6
ATOM      6  C   UNL A   1      41.074  25.446  27.889  1.00  0.00     0.060 A 
ATOM      7  C   UNL A   1      42.083  26.399  28.061  1.00  0.00     0.016 A 
ATOM      8  C   UNL A   1      39.856  25.630  28.557  1.00  0.00     0.016 A 
ATOM      9  C   UNL A   1      41.850  27.557  28.814  1.00  0.00     0.010 A 
ATOM     10  C   UNL A   1      39.610  26.786  29.295  1.00  0.00     0.010 A 
ATOM     11  C   UNL A   1      40.619  27.745  29.449  1.00  0.00    -0.014 A 
BRANCH  11  12
ATOM     12  C   UNL A   1      40.477  28.757  30.521  1.00  0.00     0.031 A 
ATOM     13  C   UNL A   1      41.279  28.537  31.771  1.00  0.00     0.074 A 
ATOM     14  C   UNL A   1      39.653  29.814  30.413  1.00  0.00     0.049 A 
ATOM     15  N   UNL A   1      41.309  29.236  32.873  1.00  0.00    -0.248 NA
ATOM     16  C   UNL A   1      42.166  27.359  31.778  1.00  0.00     0.031 C 
ATOM     17  C   UNL A   1      38.837  30.143  29.249  1.00  0.00     0.029 A 
ATOM     18  N   UNL A   1      39.344  30.791  31.326  1.00  0.00    -0.354 N 
ATOM     19  C   UNL A   1      42.235  28.598  33.689  1.00  0.00     0.074 A 
ATOM     20  C   UNL A   1      42.673  27.408  32.997  1.00  0.00     0.031 C 
ATOM     21  C   UNL A   1      38.067  31.206  29.542  1.00  0.00     0.029 A 
ATOM     22  C   UNL A   1      38.337  31.629  30.913  1.00  0.00     0.049 A 
ATOM     23  H   UNL A   1      39.800  30.883  32.194  1.00  0.00     0.167 HD
ATOM     24  C   UNL A   1      42.716  28.990  34.889  1.00  0.00     0.037 A 
ATOM     25  C   UNL A   1      37.695  32.609  31.581  1.00  0.00     0.037 A 
ATOM     26  C   UNL A   1      42.269  30.165  35.578  1.00  0.00     0.049 A 
ATOM     27  C   UNL A   1      38.158  32.979  32.964  1.00  0.00     0.074 A 
ATOM     28  C   UNL A   1      42.712  30.685  36.777  1.00  0.00     0.029 A 
ATOM     29  N   UNL A   1      41.252  30.993  35.125  1.00  0.00    -0.354 N 
ATOM     30  N   UNL A   1      39.099  32.423  33.689  1.00  0.00    -0.248 NA
ATOM     31  C   UNL A   1      37.505  34.130  33.604  1.00  0.00     0.031 C 
ATOM     32  C   UNL A   1      41.939  31.815  37.068  1.00  0.00     0.029 A 
ATOM     33  C   UNL A   1      41.038  32.015  36.030  1.00  0.00     0.049 A 
ATOM     34  H   UNL A   1      40.755  30.871  34.284  1.00  0.00     0.167 HD
ATOM     35  C   UNL A   1      39.192  33.189  34.845  1.00  0.00     0.074 A 
ATOM     36  C   UNL A   1      38.188  34.228  34.739  1.00  0.00     0.031 C 
ATOM     37  C   UNL A   1      40.051  33.057  35.886  1.00  0.00     0.037 A 
BRANCH  24  38
ATOM     38  C   UNL A   1      43.781  28.122  35.491  1.00  0.00     0.058 A 
ATOM     39  C   UNL A   1      43.456  27.110  36.411  1.00  0.00     0.135 A 
ATOM     40  C   UNL A   1      45.137  28.368  35.234  1.00  0.00     0.135 A 
ATOM     41  F   UNL A   1      42.172  26.857  36.711  1.00  0.00    -0.206 F 
ATOM     42  C   UNL A   1      44.440  26.417  37.105  1.00  0.00     0.059 A 
ATOM     43  C   UNL A   1      46.138  27.667  35.898  1.00  0.00     0.059 A 
ATOM     44  F   UNL A   1      45.498  29.328  34.368  1.00  0.00    -0.206 F 
ATOM     45  C   UNL A   1      45.779  26.718  36.856  1.00  0.00     0.060 A 
BRANCH  45  46
ATOM     46  S   UNL A   1      47.049  25.877  37.824  1.00  0.00     0.124 S 
ATOM     47  O   UNL A   1      47.280  24.681  37.019  1.00  0.00    -0.237 OA
ATOM     48  O   UNL A   1      48.135  26.851  37.835  1.00  0.00    -0.237 OA
ATOM     49  O   UNL A   1      46.398  25.653  39.111  1.00  0.00    -0.744 OA
ENDBRANCH  45  46
ENDBRANCH  24  38
BRANCH  25  50
ATOM     50  C   UNL A   1      36.543  33.298  30.945  1.00  0.00     0.058 A 
ATOM     51  C   UNL A   1      35.230  33.103  31.392  1.00  0.00     0.135 A 
ATOM     52  C   UNL A   1      36.749  34.200  29.890  1.00  0.00     0.135 A 
ATOM     53  F   UNL A   1      34.981  32.239  32.388  1.00  0.00    -0.206 F 
ATOM     54  C   UNL A   1      34.159  33.787  30.822  1.00  0.00     0.059 A 
ATOM     55  C   UNL A   1      35.697  34.906  29.313  1.00  0.00     0.059 A 
ATOM     56  F   UNL A   1      37.990  34.413  29.423  1.00  0.00    -0.206 F 
ATOM     57  C   UNL A   1      34.404  34.693  29.788  1.00  0.00     0.060 A 
BRANCH  57  58
ATOM     58  S   UNL A   1      33.016  35.630  29.108  1.00  0.00     0.124 S 
ATOM     59  O   UNL A   1      32.385  34.639  28.244  1.00  0.00    -0.237 OA
ATOM     60  O   UNL A   1      32.272  35.993  30.310  1.00  0.00    -0.237 OA
ATOM     61  O   UNL A   1      33.665  36.744  28.422  1.00  0.00    -0.744 OA
ENDBRANCH  57  58
ENDBRANCH  25  50
BRANCH  37  62
ATOM     62  C   UNL A   1      40.012  34.096  36.967  1.00  0.00     0.058 A 
ATOM     63  C   UNL A   1      40.620  35.348  36.808  1.00  0.00     0.135 A 
ATOM     64  C   UNL A   1      39.233  33.876  38.115  1.00  0.00     0.135 A 
ATOM     65  F   UNL A   1      41.379  35.601  35.731  1.00  0.00    -0.206 F 
ATOM     66  C   UNL A   1      40.441  36.359  37.747  1.00  0.00     0.059 A 
ATOM     67  C   UNL A   1      39.027  34.877  39.056  1.00  0.00     0.059 A 
ATOM     68  F   UNL A   1      38.626  32.693  38.302  1.00  0.00    -0.206 F 
ATOM     69  C   UNL A   1      39.632  36.118  38.861  1.00  0.00     0.060 A 
BRANCH  69  70
ATOM     70  S   UNL A   1      39.317  37.469  40.016  1.00  0.00     0.124 S 
ATOM     71  O   UNL A   1      40.649  38.043  40.167  1.00  0.00    -0.237 OA
ATOM     72  O   UNL A   1      38.352  38.287  39.287  1.00  0.00    -0.237 OA
ATOM     73  O   UNL A   1      38.787  36.790  41.195  1.00  0.00    -0.744 OA
ENDBRANCH  69  70
ENDBRANCH  37  62
ENDBRANCH  11  12
ENDBRANCH   4   6
ENDBRANCH   3   4
ENDBRANCH   2   3
ENDBRANCH   1   2
BRANCH   1  74
ATOM     74  O   UNL A   1      37.331  22.028  25.801  1.00  0.00    -0.458 OA
BRANCH  74  75
ATOM     75  C   UNL A   1      36.506  22.437  24.802  1.00  0.00     0.342 C 
ATOM     76  O   UNL A   1      36.795  22.470  23.624  1.00  0.00    -0.246 OA
BRANCH  75  77
ATOM     77  C   UNL A   1      35.199  22.921  25.323  1.00  0.00     0.103 A 
ATOM     78  C   UNL A   1      35.041  24.316  25.367  1.00  0.00     0.035 A 
ATOM     79  C   UNL A   1      34.135  22.094  25.716  1.00  0.00     0.134 A 
ATOM     80  C   UNL A   1      33.873  24.871  25.883  1.00  0.00     0.019 A 
ATOM     81  C   UNL A   1      32.988  22.664  26.287  1.00  0.00     0.048 A 
ATOM     82  Br  UNL A   1      33.667  26.748  25.898  1.00  0.00    -0.051 Br
ATOM     83  C   UNL A   1      32.861  24.054  26.377  1.00  0.00     0.019 A 
BRANCH  79  84
ATOM     84  O   UNL A   1      34.220  20.732  25.691  1.00  0.00    -0.488 OA
BRANCH  84  85
ATOM     85  C   UNL A   1      33.729  20.026  24.539  1.00  0.00     0.265 C 
BRANCH  85  86
ATOM     86  C   UNL A   1      33.652  18.519  24.634  1.00  0.00    -0.010 A 
ATOM     87  C   UNL A   1      34.755  17.732  24.269  1.00  0.00     0.011 A 
ATOM     88  C   UNL A   1      32.516  17.891  25.166  1.00  0.00     0.011 A 
ATOM     89  C   UNL A   1      34.778  16.370  24.557  1.00  0.00     0.046 A 
ATOM     90  C   UNL A   1      32.525  16.520  25.424  1.00  0.00     0.046 A 
ATOM     91  C   UNL A   1      33.671  15.782  25.156  1.00  0.00     0.115 A 
BRANCH  91  92
ATOM     92  O   UNL A   1      33.693  14.471  25.527  1.00  0.00    -0.508 OA
ATOM     93  H   UNL A   1      33.081  14.151  26.160  1.00  0.00     0.293 HD
ENDBRANCH  91  92
ENDBRANCH  85  86
ENDBRANCH  84  85
ENDBRANCH  79  84
ENDBRANCH  75  77
ENDBRANCH  74  75
ENDBRANCH   1  74
TORSDOF 18
ENDMDL
MODEL 3
REMARK VINA RESULT:     -11.6      5.201     10.441
REMARK SMILES O=C(OCCOC(=O)c1cc(Br)ccc1OCc1ccc(O)cc1)c1ccc(-c2c3nc(c(-c4c(F)cc(S(=O)(=O)[O-])cc4F)c4ccc([nH]4)c(-c4c(F)cc(S(=O)(=O)[O-])cc4F)c4nc(c(-c5c(F)cc(S(=O)(=O)[O-])cc5F)c5ccc2[nH]5)C=C4)C=C3)cc1
REMARK SMILES IDX 5 1 4 2 3 3 2 4 1 5 25 6 26 7 90 8 27 9 89 10 28 11 29 12
REMARK SMILES IDX 30 13 83 14 31 15 88 16 82 17 84 18 32 19 87 20 81 21 80 22
REMARK SMILES IDX 33 24 67 25 46 26 66 27 47 28 50 29 65 30 85 31 48 32 49 33
REMARK SMILES IDX 64 35 86 36 51 37 34 38 35 39 44 40 36 41 37 42 43 43 45 44
REMARK SMILES IDX 38 45 39 46 40 47 41 48 42 49 68 50 69 51 78 52 70 53 71 54
REMARK SMILES IDX 77 55 79 56 72 57 73 58 74 59 75 60 76 61 52 62 53 63 62 64
REMARK SMILES IDX 54 65 55 66 61 67 63 68 56 69 57 70 58 71 59 72 60 73 6 74
REMARK SMILES IDX 7 75 8 76 9 77 10 78 15 79 11 80 14 81 12 82 13 83 16 84
REMARK SMILES IDX 17 85 18 86 19 87 24 88 20 89 23 90 21 91 22 92
REMARK H PARENT 84 23 50 34 22 93
REMARK Flexibility Score: inf
ROOT
ATOM      1  C   UNL A   1      31.893  29.050  27.262  1.00  0.00     0.275 C 
ENDROOT
BRANCH   1   2
ATOM      2  C   UNL A   1      32.365  30.438  26.839  1.00  0.00     0.275 C 
BRANCH   2   3
ATOM      3  O   UNL A   1      33.781  30.657  26.941  1.00  0.00    -0.458 OA
BRANCH   3   4
ATOM      4  C   UNL A   1      34.477  30.983  28.060  1.00  0.00     0.338 C 
ATOM      5  O   UNL A   1      34.116  31.941  28.739  1.00  0.00    -0.246 OA
BRANCH   4   6
ATOM      6  C   UNL A   1      35.761  30.313  28.408  1.00  0.00     0.060 A 
ATOM      7  C   UNL A   1      36.112  29.849  29.680  1.00  0.00     0.016 A 
ATOM      8  C   UNL A   1      36.694  30.192  27.369  1.00  0.00     0.016 A 
ATOM      9  C   UNL A   1      37.335  29.199  29.890  1.00  0.00     0.010 A 
ATOM     10  C   UNL A   1      37.906  29.533  27.566  1.00  0.00     0.010 A 
ATOM     11  C   UNL A   1      38.244  29.055  28.838  1.00  0.00    -0.014 A 
BRANCH  11  12
ATOM     12  C   UNL A   1      39.656  28.707  29.111  1.00  0.00     0.031 A 
ATOM     13  C   UNL A   1      40.535  29.804  29.643  1.00  0.00     0.074 A 
ATOM     14  C   UNL A   1      40.158  27.482  28.877  1.00  0.00     0.049 A 
ATOM     15  N   UNL A   1      41.809  29.786  29.923  1.00  0.00    -0.248 NA
ATOM     16  C   UNL A   1      39.881  31.103  29.885  1.00  0.00     0.031 C 
ATOM     17  C   UNL A   1      39.406  26.335  28.378  1.00  0.00     0.029 A 
ATOM     18  N   UNL A   1      41.443  27.015  28.997  1.00  0.00    -0.354 N 
ATOM     19  C   UNL A   1      42.100  31.059  30.397  1.00  0.00     0.074 A 
ATOM     20  C   UNL A   1      40.897  31.849  30.280  1.00  0.00     0.031 C 
ATOM     21  C   UNL A   1      40.256  25.314  28.168  1.00  0.00     0.029 A 
ATOM     22  C   UNL A   1      41.609  25.738  28.517  1.00  0.00     0.049 A 
ATOM     23  H   UNL A   1      42.175  27.543  29.389  1.00  0.00     0.167 HD
ATOM     24  C   UNL A   1      43.253  31.520  30.930  1.00  0.00     0.037 A 
ATOM     25  C   UNL A   1      42.733  25.010  28.359  1.00  0.00     0.037 A 
ATOM     26  C   UNL A   1      44.449  30.736  31.032  1.00  0.00     0.049 A 
ATOM     27  C   UNL A   1      44.041  25.565  28.854  1.00  0.00     0.074 A 
ATOM     28  C   UNL A   1      45.663  31.081  31.590  1.00  0.00     0.029 A 
ATOM     29  N   UNL A   1      44.577  29.444  30.542  1.00  0.00    -0.354 N 
ATOM     30  N   UNL A   1      44.285  26.739  29.385  1.00  0.00    -0.248 NA
ATOM     31  C   UNL A   1      45.217  24.687  28.766  1.00  0.00     0.031 C 
ATOM     32  C   UNL A   1      46.541  30.005  31.408  1.00  0.00     0.029 A 
ATOM     33  C   UNL A   1      45.859  28.980  30.767  1.00  0.00     0.049 A 
ATOM     34  H   UNL A   1      43.861  28.933  30.098  1.00  0.00     0.167 HD
ATOM     35  C   UNL A   1      45.627  26.722  29.748  1.00  0.00     0.074 A 
ATOM     36  C   UNL A   1      46.151  25.433  29.345  1.00  0.00     0.031 C 
ATOM     37  C   UNL A   1      46.348  27.678  30.383  1.00  0.00     0.037 A 
BRANCH  24  38
ATOM     38  C   UNL A   1      43.232  32.932  31.435  1.00  0.00     0.058 A 
ATOM     39  C   UNL A   1      43.602  34.004  30.604  1.00  0.00     0.135 A 
ATOM     40  C   UNL A   1      42.945  33.208  32.778  1.00  0.00     0.135 A 
ATOM     41  F   UNL A   1      43.913  33.784  29.316  1.00  0.00    -0.206 F 
ATOM     42  C   UNL A   1      43.754  35.290  31.104  1.00  0.00     0.059 A 
ATOM     43  C   UNL A   1      43.064  34.495  33.294  1.00  0.00     0.059 A 
ATOM     44  F   UNL A   1      42.592  32.218  33.613  1.00  0.00    -0.206 F 
ATOM     45  C   UNL A   1      43.501  35.522  32.457  1.00  0.00     0.060 A 
BRANCH  45  46
ATOM     46  S   UNL A   1      43.785  37.177  33.119  1.00  0.00     0.124 S 
ATOM     47  O   UNL A   1      42.648  37.325  34.020  1.00  0.00    -0.237 OA
ATOM     48  O   UNL A   1      45.088  37.041  33.762  1.00  0.00    -0.237 OA
ATOM     49  O   UNL A   1      43.761  38.024  31.930  1.00  0.00    -0.744 OA
ENDBRANCH  45  46
ENDBRANCH  24  38
BRANCH  25  50
ATOM     50  C   UNL A   1      42.661  23.683  27.696  1.00  0.00     0.058 A 
ATOM     51  C   UNL A   1      42.813  23.542  26.311  1.00  0.00     0.135 A 
ATOM     52  C   UNL A   1      42.472  22.519  28.457  1.00  0.00     0.135 A 
ATOM     53  F   UNL A   1      42.980  24.627  25.540  1.00  0.00    -0.206 F 
ATOM     54  C   UNL A   1      42.790  22.290  25.701  1.00  0.00     0.059 A 
ATOM     55  C   UNL A   1      42.460  21.255  27.872  1.00  0.00     0.059 A 
ATOM     56  F   UNL A   1      42.315  22.606  29.787  1.00  0.00    -0.206 F 
ATOM     57  C   UNL A   1      42.621  21.151  26.492  1.00  0.00     0.060 A 
BRANCH  57  58
ATOM     58  S   UNL A   1      42.670  19.528  25.698  1.00  0.00     0.124 S 
ATOM     59  O   UNL A   1      43.170  18.686  26.779  1.00  0.00    -0.237 OA
ATOM     60  O   UNL A   1      41.272  19.326  25.328  1.00  0.00    -0.237 OA
ATOM     61  O   UNL A   1      43.585  19.727  24.578  1.00  0.00    -0.744 OA
ENDBRANCH  57  58
ENDBRANCH  25  50
BRANCH  37  62
ATOM     62  C   UNL A   1      47.764  27.358  30.760  1.00  0.00     0.058 A 
ATOM     63  C   UNL A   1      48.068  26.546  31.861  1.00  0.00     0.135 A 
ATOM     64  C   UNL A   1      48.815  27.757  29.918  1.00  0.00     0.135 A 
ATOM     65  F   UNL A   1      47.097  26.146  32.696  1.00  0.00    -0.206 F 
ATOM     66  C   UNL A   1      49.371  26.124  32.106  1.00  0.00     0.059 A 
ATOM     67  C   UNL A   1      50.120  27.334  30.135  1.00  0.00     0.059 A 
ATOM     68  F   UNL A   1      48.567  28.529  28.848  1.00  0.00    -0.206 F 
ATOM     69  C   UNL A   1      50.388  26.513  31.230  1.00  0.00     0.060 A 
BRANCH  69  70
ATOM     70  S   UNL A   1      52.055  25.871  31.492  1.00  0.00     0.124 S 
ATOM     71  O   UNL A   1      51.778  24.512  31.945  1.00  0.00    -0.237 OA
ATOM     72  O   UNL A   1      52.650  25.989  30.164  1.00  0.00    -0.237 OA
ATOM     73  O   UNL A   1      52.609  26.770  32.501  1.00  0.00    -0.744 OA
ENDBRANCH  69  70
ENDBRANCH  37  62
ENDBRANCH  11  12
ENDBRANCH   4   6
ENDBRANCH   3   4
ENDBRANCH   2   3
ENDBRANCH   1   2
BRANCH   1  74
ATOM     74  O   UNL A   1      32.607  28.005  26.599  1.00  0.00    -0.458 OA
BRANCH  74  75
ATOM     75  C   UNL A   1      31.838  26.927  26.296  1.00  0.00     0.342 C 
ATOM     76  O   UNL A   1      30.815  26.614  26.868  1.00  0.00    -0.246 OA
BRANCH  75  77
ATOM     77  C   UNL A   1      32.435  26.106  25.208  1.00  0.00     0.103 A 
ATOM     78  C   UNL A   1      33.648  25.472  25.520  1.00  0.00     0.035 A 
ATOM     79  C   UNL A   1      31.852  25.899  23.947  1.00  0.00     0.134 A 
ATOM     80  C   UNL A   1      34.312  24.719  24.555  1.00  0.00     0.019 A 
ATOM     81  C   UNL A   1      32.559  25.188  22.966  1.00  0.00     0.048 A 
ATOM     82  Br  UNL A   1      35.922  23.844  25.007  1.00  0.00    -0.051 Br
ATOM     83  C   UNL A   1      33.792  24.605  23.269  1.00  0.00     0.019 A 
BRANCH  79  84
ATOM     84  O   UNL A   1      30.672  26.479  23.582  1.00  0.00    -0.488 OA
BRANCH  84  85
ATOM     85  C   UNL A   1      30.682  27.489  22.559  1.00  0.00     0.265 C 
BRANCH  85  86
ATOM     86  C   UNL A   1      29.636  28.577  22.652  1.00  0.00    -0.010 A 
ATOM     87  C   UNL A   1      28.323  28.261  23.036  1.00  0.00     0.011 A 
ATOM     88  C   UNL A   1      29.977  29.920  22.442  1.00  0.00     0.011 A 
ATOM     89  C   UNL A   1      27.413  29.271  23.338  1.00  0.00     0.046 A 
ATOM     90  C   UNL A   1      29.055  30.932  22.711  1.00  0.00     0.046 A 
ATOM     91  C   UNL A   1      27.798  30.598  23.197  1.00  0.00     0.115 A 
BRANCH  91  92
ATOM     92  O   UNL A   1      26.960  31.609  23.563  1.00  0.00    -0.508 OA
ATOM     93  H   UNL A   1      27.248  32.500  23.513  1.00  0.00     0.293 HD
ENDBRANCH  91  92
ENDBRANCH  85  86
ENDBRANCH  84  85
ENDBRANCH  79  84
ENDBRANCH  75  77
ENDBRANCH  74  75
ENDBRANCH   1  74
TORSDOF 18
ENDMDL
