MODEL 1
REMARK VINA RESULT:     -10.4      0.000      0.000
REMARK SMILES CCC(CC)N(CC(C)C)C(=O)N1CC[C@@H](C(=O)OCCOC(=O)c2ccc(-c3c4nc(c(-c5c(F)cc(S(=O)(=O)[O-])cc5F)c5ccc([nH]5)c(-c5c(F)cc(S(=O)(=O)[O-])cc5F)c5nc(c(-c6c(F)cc(S(=O)(=O)[O-])cc6F)c6ccc3[nH]6)C=C5)C=C4)cc2)[C@@H]1C
REMARK SMILES IDX 20 1 19 2 17 3 18 4 16 5 13 6 14 7 91 8 15 9 92 10 11 11
REMARK SMILES IDX 12 12 6 13 3 14 2 15 1 16 4 17 5 18 7 19 8 20 9 21 10 22
REMARK SMILES IDX 21 23 22 24 23 25 24 26 25 27 26 28 90 29 27 30 89 31 28 32
REMARK SMILES IDX 29 33 30 34 83 35 31 36 88 37 82 38 84 39 32 40 87 41 81 42
REMARK SMILES IDX 80 43 33 45 67 46 46 47 66 48 47 49 50 50 65 51 85 52 48 53
REMARK SMILES IDX 49 54 64 56 86 57 51 58 34 59 35 60 44 61 36 62 37 63 43 64
REMARK SMILES IDX 45 65 38 66 39 67 40 68 41 69 42 70 68 71 69 72 78 73 70 74
REMARK SMILES IDX 71 75 77 76 79 77 72 78 73 79 74 80 75 81 76 82 52 83 53 84
REMARK SMILES IDX 62 85 54 86 55 87 61 88 63 89 56 90 57 91 58 92 59 93 60 94
REMARK H PARENT 84 44 50 55
REMARK Flexibility Score: inf
ROOT
ATOM      1  C   UNL A   1      33.260  30.498  27.485  1.00  0.00     0.274 C 
ENDROOT
BRANCH   1   2
ATOM      2  O   UNL A   1      32.810  30.445  26.115  1.00  0.00    -0.462 OA
BRANCH   2   3
ATOM      3  C   UNL A   1      32.106  29.339  25.760  1.00  0.00     0.311 C 
ATOM      4  O   UNL A   1      31.598  28.559  26.558  1.00  0.00    -0.252 OA
BRANCH   3   5
ATOM      5  C   UNL A   1      32.057  29.092  24.266  1.00  0.00     0.123 C 
ATOM      6  N   UNL A   1      31.995  27.003  23.130  1.00  0.00    -0.321 N 
ATOM      7  C   UNL A   1      30.803  27.726  22.742  1.00  0.00     0.122 C 
ATOM      8  C   UNL A   1      32.946  27.944  23.736  1.00  0.00     0.098 C 
ATOM      9  C   UNL A   1      30.626  28.738  23.851  1.00  0.00     0.039 C 
ATOM     10  C   UNL A   1      33.929  28.454  22.672  1.00  0.00     0.032 C 
BRANCH   6  11
ATOM     11  C   UNL A   1      32.242  25.789  22.534  1.00  0.00     0.320 C 
ATOM     12  O   UNL A   1      32.454  25.774  21.319  1.00  0.00    -0.248 OA
BRANCH  11  13
ATOM     13  N   UNL A   1      32.148  24.617  23.277  1.00  0.00    -0.321 N 
BRANCH  13  14
ATOM     14  C   UNL A   1      33.134  23.524  23.032  1.00  0.00     0.086 C 
BRANCH  14  15
ATOM     15  C   UNL A   1      34.570  23.889  23.482  1.00  0.00     0.022 C 
ATOM     16  C   UNL A   1      34.647  24.435  24.902  1.00  0.00     0.006 C 
ENDBRANCH  14  15
BRANCH  14  17
ATOM     17  C   UNL A   1      32.646  22.123  23.458  1.00  0.00     0.022 C 
ATOM     18  C   UNL A   1      32.151  21.201  22.358  1.00  0.00     0.006 C 
ENDBRANCH  14  17
ENDBRANCH  13  14
BRANCH  13  19
ATOM     19  C   UNL A   1      30.962  24.218  24.049  1.00  0.00     0.124 C 
BRANCH  19  20
ATOM     20  C   UNL A   1      30.977  24.631  25.539  1.00  0.00     0.002 C 
ATOM     21  C   UNL A   1      29.902  25.640  25.938  1.00  0.00     0.009 C 
ATOM     22  C   UNL A   1      30.860  23.379  26.412  1.00  0.00     0.009 C 
ENDBRANCH  19  20
ENDBRANCH  13  19
ENDBRANCH  11  13
ENDBRANCH   6  11
ENDBRANCH   3   5
ENDBRANCH   2   3
ENDBRANCH   1   2
BRANCH   1  23
ATOM     23  C   UNL A   1      34.751  30.828  27.597  1.00  0.00     0.275 C 
BRANCH  23  24
ATOM     24  O   UNL A   1      35.451  29.882  28.420  1.00  0.00    -0.458 OA
BRANCH  24  25
ATOM     25  C   UNL A   1      36.325  30.432  29.295  1.00  0.00     0.338 C 
ATOM     26  O   UNL A   1      36.064  31.122  30.263  1.00  0.00    -0.246 OA
BRANCH  25  27
ATOM     27  C   UNL A   1      37.682  29.958  29.005  1.00  0.00     0.060 A 
ATOM     28  C   UNL A   1      38.573  29.850  30.073  1.00  0.00     0.016 A 
ATOM     29  C   UNL A   1      38.098  29.701  27.699  1.00  0.00     0.016 A 
ATOM     30  C   UNL A   1      39.894  29.494  29.846  1.00  0.00     0.010 A 
ATOM     31  C   UNL A   1      39.423  29.318  27.473  1.00  0.00     0.010 A 
ATOM     32  C   UNL A   1      40.327  29.215  28.545  1.00  0.00    -0.014 A 
BRANCH  32  33
ATOM     33  C   UNL A   1      41.727  28.790  28.323  1.00  0.00     0.031 A 
ATOM     34  C   UNL A   1      42.842  29.788  28.406  1.00  0.00     0.074 A 
ATOM     35  C   UNL A   1      41.982  27.493  28.068  1.00  0.00     0.049 A 
ATOM     36  N   UNL A   1      44.116  29.621  28.164  1.00  0.00    -0.248 NA
ATOM     37  C   UNL A   1      42.479  31.155  28.811  1.00  0.00     0.031 C 
ATOM     38  C   UNL A   1      40.973  26.433  28.007  1.00  0.00     0.029 A 
ATOM     39  N   UNL A   1      43.163  26.846  27.815  1.00  0.00    -0.354 N 
ATOM     40  C   UNL A   1      44.707  30.861  28.368  1.00  0.00     0.074 A 
ATOM     41  C   UNL A   1      43.649  31.776  28.744  1.00  0.00     0.031 C 
ATOM     42  C   UNL A   1      41.580  25.266  27.737  1.00  0.00     0.029 A 
ATOM     43  C   UNL A   1      43.008  25.505  27.558  1.00  0.00     0.049 A 
ATOM     44  H   UNL A   1      44.038  27.298  27.816  1.00  0.00     0.167 HD
ATOM     45  C   UNL A   1      46.013  31.200  28.248  1.00  0.00     0.037 A 
ATOM     46  C   UNL A   1      43.912  24.579  27.189  1.00  0.00     0.037 A 
ATOM     47  C   UNL A   1      47.055  30.275  27.884  1.00  0.00     0.049 A 
ATOM     48  C   UNL A   1      45.347  24.990  27.020  1.00  0.00     0.074 A 
ATOM     49  C   UNL A   1      48.411  30.516  27.742  1.00  0.00     0.029 A 
ATOM     50  N   UNL A   1      46.858  28.930  27.604  1.00  0.00    -0.354 N 
ATOM     51  N   UNL A   1      45.890  26.172  27.198  1.00  0.00    -0.248 NA
ATOM     52  C   UNL A   1      46.290  23.950  26.590  1.00  0.00     0.031 C 
ATOM     53  C   UNL A   1      49.027  29.324  27.345  1.00  0.00     0.029 A 
ATOM     54  C   UNL A   1      48.063  28.332  27.273  1.00  0.00     0.049 A 
ATOM     55  H   UNL A   1      45.989  28.469  27.636  1.00  0.00     0.167 HD
ATOM     56  C   UNL A   1      47.239  26.016  26.908  1.00  0.00     0.074 A 
ATOM     57  C   UNL A   1      47.433  24.622  26.560  1.00  0.00     0.031 C 
ATOM     58  C   UNL A   1      48.228  26.944  26.924  1.00  0.00     0.037 A 
BRANCH  45  59
ATOM     59  C   UNL A   1      46.379  32.637  28.482  1.00  0.00     0.058 A 
ATOM     60  C   UNL A   1      46.776  33.104  29.745  1.00  0.00     0.135 A 
ATOM     61  C   UNL A   1      46.353  33.557  27.421  1.00  0.00     0.135 A 
ATOM     62  F   UNL A   1      46.800  32.270  30.796  1.00  0.00    -0.206 F 
ATOM     63  C   UNL A   1      47.112  34.438  29.953  1.00  0.00     0.059 A 
ATOM     64  C   UNL A   1      46.704  34.892  27.603  1.00  0.00     0.059 A 
ATOM     65  F   UNL A   1      45.977  33.163  26.194  1.00  0.00    -0.206 F 
ATOM     66  C   UNL A   1      47.068  35.326  28.876  1.00  0.00     0.060 A 
BRANCH  66  67
ATOM     67  S   UNL A   1      47.497  37.056  29.160  1.00  0.00     0.124 S 
ATOM     68  O   UNL A   1      48.902  36.948  29.544  1.00  0.00    -0.237 OA
ATOM     69  O   UNL A   1      47.242  37.663  27.858  1.00  0.00    -0.237 OA
ATOM     70  O   UNL A   1      46.586  37.462  30.226  1.00  0.00    -0.744 OA
ENDBRANCH  66  67
ENDBRANCH  45  59
BRANCH  46  71
ATOM     71  C   UNL A   1      43.474  23.184  26.928  1.00  0.00     0.058 A 
ATOM     72  C   UNL A   1      43.420  22.675  25.624  1.00  0.00     0.135 A 
ATOM     73  C   UNL A   1      43.133  22.323  27.983  1.00  0.00     0.135 A 
ATOM     74  F   UNL A   1      43.729  23.464  24.583  1.00  0.00    -0.206 F 
ATOM     75  C   UNL A   1      43.039  21.361  25.371  1.00  0.00     0.059 A 
ATOM     76  C   UNL A   1      42.771  21.000  27.758  1.00  0.00     0.059 A 
ATOM     77  F   UNL A   1      43.183  22.761  29.251  1.00  0.00    -0.206 F 
ATOM     78  C   UNL A   1      42.719  20.530  26.446  1.00  0.00     0.060 A 
BRANCH  78  79
ATOM     79  S   UNL A   1      42.288  18.807  26.120  1.00  0.00     0.124 S 
ATOM     80  O   UNL A   1      43.198  18.479  25.028  1.00  0.00    -0.237 OA
ATOM     81  O   UNL A   1      42.572  18.168  27.401  1.00  0.00    -0.237 OA
ATOM     82  O   UNL A   1      40.874  18.879  25.765  1.00  0.00    -0.744 OA
ENDBRANCH  78  79
ENDBRANCH  46  71
BRANCH  58  83
ATOM     83  C   UNL A   1      49.607  26.473  26.562  1.00  0.00     0.058 A 
ATOM     84  C   UNL A   1      50.509  26.032  27.542  1.00  0.00     0.135 A 
ATOM     85  C   UNL A   1      50.016  26.428  25.220  1.00  0.00     0.135 A 
ATOM     86  F   UNL A   1      50.166  26.066  28.839  1.00  0.00    -0.206 F 
ATOM     87  C   UNL A   1      51.780  25.579  27.206  1.00  0.00     0.059 A 
ATOM     88  C   UNL A   1      51.275  25.959  24.859  1.00  0.00     0.059 A 
ATOM     89  F   UNL A   1      49.186  26.832  24.246  1.00  0.00    -0.206 F 
ATOM     90  C   UNL A   1      52.153  25.548  25.861  1.00  0.00     0.060 A 
BRANCH  90  91
ATOM     91  S   UNL A   1      53.794  24.929  25.430  1.00  0.00     0.124 S 
ATOM     92  O   UNL A   1      54.189  25.856  24.374  1.00  0.00    -0.237 OA
ATOM     93  O   UNL A   1      54.522  25.058  26.689  1.00  0.00    -0.237 OA
ATOM     94  O   UNL A   1      53.537  23.558  25.000  1.00  0.00    -0.744 OA
ENDBRANCH  90  91
ENDBRANCH  58  83
ENDBRANCH  32  33
ENDBRANCH  25  27
ENDBRANCH  24  25
ENDBRANCH  23  24
ENDBRANCH   1  23
TORSDOF 21
ENDMDL
MODEL 2
REMARK VINA RESULT:     -10.1      4.910     10.499
REMARK SMILES CCC(CC)N(CC(C)C)C(=O)N1CC[C@@H](C(=O)OCCOC(=O)c2ccc(-c3c4nc(c(-c5c(F)cc(S(=O)(=O)[O-])cc5F)c5ccc([nH]5)c(-c5c(F)cc(S(=O)(=O)[O-])cc5F)c5nc(c(-c6c(F)cc(S(=O)(=O)[O-])cc6F)c6ccc3[nH]6)C=C5)C=C4)cc2)[C@@H]1C
REMARK SMILES IDX 20 1 19 2 17 3 18 4 16 5 13 6 14 7 91 8 15 9 92 10 11 11
REMARK SMILES IDX 12 12 6 13 3 14 2 15 1 16 4 17 5 18 7 19 8 20 9 21 10 22
REMARK SMILES IDX 21 23 22 24 23 25 24 26 25 27 26 28 90 29 27 30 89 31 28 32
REMARK SMILES IDX 29 33 30 34 83 35 31 36 88 37 82 38 84 39 32 40 87 41 81 42
REMARK SMILES IDX 80 43 33 45 67 46 46 47 66 48 47 49 50 50 65 51 85 52 48 53
REMARK SMILES IDX 49 54 64 56 86 57 51 58 34 59 35 60 44 61 36 62 37 63 43 64
REMARK SMILES IDX 45 65 38 66 39 67 40 68 41 69 42 70 68 71 69 72 78 73 70 74
REMARK SMILES IDX 71 75 77 76 79 77 72 78 73 79 74 80 75 81 76 82 52 83 53 84
REMARK SMILES IDX 62 85 54 86 55 87 61 88 63 89 56 90 57 91 58 92 59 93 60 94
REMARK H PARENT 84 44 50 55
REMARK Flexibility Score: inf
ROOT
ATOM      1  C   UNL A   1      36.125  23.250  23.749  1.00  0.00     0.274 C 
ENDROOT
BRANCH   1   2
ATOM      2  O   UNL A   1      34.918  22.469  23.620  1.00  0.00    -0.462 OA
BRANCH   2   3
ATOM      3  C   UNL A   1      33.842  23.113  23.098  1.00  0.00     0.311 C 
ATOM      4  O   UNL A   1      33.837  23.678  22.010  1.00  0.00    -0.252 OA
BRANCH   3   5
ATOM      5  C   UNL A   1      32.639  23.149  24.018  1.00  0.00     0.123 C 
ATOM      6  N   UNL A   1      31.622  25.050  25.022  1.00  0.00    -0.321 N 
ATOM      7  C   UNL A   1      30.605  24.408  24.217  1.00  0.00     0.122 C 
ATOM      8  C   UNL A   1      32.732  24.112  25.224  1.00  0.00     0.098 C 
ATOM      9  C   UNL A   1      31.402  23.588  23.228  1.00  0.00     0.039 C 
ATOM     10  C   UNL A   1      32.545  23.356  26.548  1.00  0.00     0.032 C 
BRANCH   6  11
ATOM     11  C   UNL A   1      31.258  26.136  25.784  1.00  0.00     0.320 C 
ATOM     12  O   UNL A   1      30.225  26.051  26.453  1.00  0.00    -0.248 OA
BRANCH  11  13
ATOM     13  N   UNL A   1      31.989  27.316  25.708  1.00  0.00    -0.321 N 
BRANCH  13  14
ATOM     14  C   UNL A   1      32.058  28.042  24.406  1.00  0.00     0.086 C 
BRANCH  14  15
ATOM     15  C   UNL A   1      33.152  27.488  23.460  1.00  0.00     0.022 C 
ATOM     16  C   UNL A   1      34.055  28.563  22.871  1.00  0.00     0.006 C 
ENDBRANCH  14  15
BRANCH  14  17
ATOM     17  C   UNL A   1      30.686  28.294  23.747  1.00  0.00     0.022 C 
ATOM     18  C   UNL A   1      30.498  27.788  22.328  1.00  0.00     0.006 C 
ENDBRANCH  14  17
ENDBRANCH  13  14
BRANCH  13  19
ATOM     19  C   UNL A   1      32.978  27.743  26.708  1.00  0.00     0.124 C 
BRANCH  19  20
ATOM     20  C   UNL A   1      33.487  29.195  26.551  1.00  0.00     0.002 C 
ATOM     21  C   UNL A   1      32.612  30.258  27.212  1.00  0.00     0.009 C 
ATOM     22  C   UNL A   1      34.915  29.292  27.093  1.00  0.00     0.009 C 
ENDBRANCH  19  20
ENDBRANCH  13  19
ENDBRANCH  11  13
ENDBRANCH   6  11
ENDBRANCH   3   5
ENDBRANCH   2   3
ENDBRANCH   1   2
BRANCH   1  23
ATOM     23  C   UNL A   1      36.923  22.887  25.004  1.00  0.00     0.275 C 
BRANCH  23  24
ATOM     24  O   UNL A   1      37.905  23.886  25.325  1.00  0.00    -0.458 OA
BRANCH  24  25
ATOM     25  C   UNL A   1      38.900  23.459  26.138  1.00  0.00     0.338 C 
ATOM     26  O   UNL A   1      39.415  22.357  26.159  1.00  0.00    -0.246 OA
BRANCH  25  27
ATOM     27  C   UNL A   1      39.403  24.583  26.935  1.00  0.00     0.060 A 
ATOM     28  C   UNL A   1      38.930  24.712  28.242  1.00  0.00     0.016 A 
ATOM     29  C   UNL A   1      40.258  25.537  26.387  1.00  0.00     0.016 A 
ATOM     30  C   UNL A   1      39.301  25.805  29.012  1.00  0.00     0.010 A 
ATOM     31  C   UNL A   1      40.651  26.626  27.171  1.00  0.00     0.010 A 
ATOM     32  C   UNL A   1      40.173  26.765  28.486  1.00  0.00    -0.014 A 
BRANCH  32  33
ATOM     33  C   UNL A   1      40.597  27.900  29.335  1.00  0.00     0.031 A 
ATOM     34  C   UNL A   1      41.920  27.866  30.038  1.00  0.00     0.074 A 
ATOM     35  C   UNL A   1      39.785  28.968  29.448  1.00  0.00     0.049 A 
ATOM     36  N   UNL A   1      42.426  28.726  30.884  1.00  0.00    -0.248 NA
ATOM     37  C   UNL A   1      42.791  26.714  29.756  1.00  0.00     0.031 C 
ATOM     38  C   UNL A   1      38.494  29.119  28.773  1.00  0.00     0.029 A 
ATOM     39  N   UNL A   1      39.924  30.126  30.168  1.00  0.00    -0.354 N 
ATOM     40  C   UNL A   1      43.663  28.214  31.252  1.00  0.00     0.074 A 
ATOM     41  C   UNL A   1      43.828  26.961  30.544  1.00  0.00     0.031 C 
ATOM     42  C   UNL A   1      37.961  30.305  29.108  1.00  0.00     0.029 A 
ATOM     43  C   UNL A   1      38.847  30.972  30.056  1.00  0.00     0.049 A 
ATOM     44  H   UNL A   1      40.718  30.332  30.712  1.00  0.00     0.167 HD
ATOM     45  C   UNL A   1      44.572  28.744  32.105  1.00  0.00     0.037 A 
ATOM     46  C   UNL A   1      38.589  32.139  30.675  1.00  0.00     0.037 A 
ATOM     47  C   UNL A   1      44.396  29.997  32.793  1.00  0.00     0.049 A 
ATOM     48  C   UNL A   1      39.593  32.683  31.650  1.00  0.00     0.074 A 
ATOM     49  C   UNL A   1      45.260  30.626  33.672  1.00  0.00     0.029 A 
ATOM     50  N   UNL A   1      43.280  30.814  32.677  1.00  0.00    -0.354 N 
ATOM     51  N   UNL A   1      40.752  32.179  32.003  1.00  0.00    -0.248 NA
ATOM     52  C   UNL A   1      39.253  33.946  32.318  1.00  0.00     0.031 C 
ATOM     53  C   UNL A   1      44.652  31.807  34.114  1.00  0.00     0.029 A 
ATOM     54  C   UNL A   1      43.425  31.932  33.483  1.00  0.00     0.049 A 
ATOM     55  H   UNL A   1      42.501  30.626  32.107  1.00  0.00     0.167 HD
ATOM     56  C   UNL A   1      41.283  33.065  32.931  1.00  0.00     0.074 A 
ATOM     57  C   UNL A   1      40.327  34.147  33.071  1.00  0.00     0.031 C 
ATOM     58  C   UNL A   1      42.455  32.990  33.609  1.00  0.00     0.037 A 
BRANCH  45  59
ATOM     59  C   UNL A   1      45.820  27.952  32.364  1.00  0.00     0.058 A 
ATOM     60  C   UNL A   1      47.013  28.201  31.668  1.00  0.00     0.135 A 
ATOM     61  C   UNL A   1      45.830  26.942  33.341  1.00  0.00     0.135 A 
ATOM     62  F   UNL A   1      47.052  29.142  30.712  1.00  0.00    -0.206 F 
ATOM     63  C   UNL A   1      48.166  27.461  31.913  1.00  0.00     0.059 A 
ATOM     64  C   UNL A   1      46.977  26.204  33.616  1.00  0.00     0.059 A 
ATOM     65  F   UNL A   1      44.715  26.662  34.033  1.00  0.00    -0.206 F 
ATOM     66  C   UNL A   1      48.136  26.460  32.887  1.00  0.00     0.060 A 
BRANCH  66  67
ATOM     67  S   UNL A   1      49.635  25.501  33.191  1.00  0.00     0.124 S 
ATOM     68  O   UNL A   1      49.850  24.877  31.888  1.00  0.00    -0.237 OA
ATOM     69  O   UNL A   1      50.598  26.530  33.567  1.00  0.00    -0.237 OA
ATOM     70  O   UNL A   1      49.243  24.591  34.263  1.00  0.00    -0.744 OA
ENDBRANCH  66  67
ENDBRANCH  45  59
BRANCH  46  71
ATOM     71  C   UNL A   1      37.311  32.848  30.407  1.00  0.00     0.058 A 
ATOM     72  C   UNL A   1      37.201  33.768  29.356  1.00  0.00     0.135 A 
ATOM     73  C   UNL A   1      36.166  32.592  31.177  1.00  0.00     0.135 A 
ATOM     74  F   UNL A   1      38.271  34.051  28.597  1.00  0.00    -0.206 F 
ATOM     75  C   UNL A   1      36.001  34.416  29.078  1.00  0.00     0.059 A 
ATOM     76  C   UNL A   1      34.950  33.209  30.906  1.00  0.00     0.059 A 
ATOM     77  F   UNL A   1      36.218  31.708  32.186  1.00  0.00    -0.206 F 
ATOM     78  C   UNL A   1      34.880  34.126  29.858  1.00  0.00     0.060 A 
BRANCH  78  79
ATOM     79  S   UNL A   1      33.308  34.919  29.454  1.00  0.00     0.124 S 
ATOM     80  O   UNL A   1      32.747  35.148  30.780  1.00  0.00    -0.237 OA
ATOM     81  O   UNL A   1      33.739  36.110  28.729  1.00  0.00    -0.237 OA
ATOM     82  O   UNL A   1      32.627  33.915  28.643  1.00  0.00    -0.744 OA
ENDBRANCH  78  79
ENDBRANCH  46  71
BRANCH  58  83
ATOM     83  C   UNL A   1      42.766  34.114  34.556  1.00  0.00     0.058 A 
ATOM     84  C   UNL A   1      42.393  34.056  35.906  1.00  0.00     0.135 A 
ATOM     85  C   UNL A   1      43.476  35.241  34.115  1.00  0.00     0.135 A 
ATOM     86  F   UNL A   1      41.705  33.001  36.372  1.00  0.00    -0.206 F 
ATOM     87  C   UNL A   1      42.697  35.088  36.787  1.00  0.00     0.059 A 
ATOM     88  C   UNL A   1      43.809  36.276  34.983  1.00  0.00     0.059 A 
ATOM     89  F   UNL A   1      43.861  35.340  32.832  1.00  0.00    -0.206 F 
ATOM     90  C   UNL A   1      43.404  36.195  36.315  1.00  0.00     0.060 A 
BRANCH  90  91
ATOM     91  S   UNL A   1      43.822  37.517  37.471  1.00  0.00     0.124 S 
ATOM     92  O   UNL A   1      44.988  36.959  38.146  1.00  0.00    -0.237 OA
ATOM     93  O   UNL A   1      44.086  38.644  36.581  1.00  0.00    -0.237 OA
ATOM     94  O   UNL A   1      42.620  37.643  38.290  1.00  0.00    -0.744 OA
ENDBRANCH  90  91
ENDBRANCH  58  83
ENDBRANCH  32  33
ENDBRANCH  25  27
ENDBRANCH  24  25
ENDBRANCH  23  24
ENDBRANCH   1  23
TORSDOF 21
ENDMDL
MODEL 3
REMARK VINA RESULT:      -9.9      2.790      3.876
REMARK SMILES CCC(CC)N(CC(C)C)C(=O)N1CC[C@@H](C(=O)OCCOC(=O)c2ccc(-c3c4nc(c(-c5c(F)cc(S(=O)(=O)[O-])cc5F)c5ccc([nH]5)c(-c5c(F)cc(S(=O)(=O)[O-])cc5F)c5nc(c(-c6c(F)cc(S(=O)(=O)[O-])cc6F)c6ccc3[nH]6)C=C5)C=C4)cc2)[C@@H]1C
REMARK SMILES IDX 20 1 19 2 17 3 18 4 16 5 13 6 14 7 91 8 15 9 92 10 11 11
REMARK SMILES IDX 12 12 6 13 3 14 2 15 1 16 4 17 5 18 7 19 8 20 9 21 10 22
REMARK SMILES IDX 21 23 22 24 23 25 24 26 25 27 26 28 90 29 27 30 89 31 28 32
REMARK SMILES IDX 29 33 30 34 83 35 31 36 88 37 82 38 84 39 32 40 87 41 81 42
REMARK SMILES IDX 80 43 33 45 67 46 46 47 66 48 47 49 50 50 65 51 85 52 48 53
REMARK SMILES IDX 49 54 64 56 86 57 51 58 34 59 35 60 44 61 36 62 37 63 43 64
REMARK SMILES IDX 45 65 38 66 39 67 40 68 41 69 42 70 68 71 69 72 78 73 70 74
REMARK SMILES IDX 71 75 77 76 79 77 72 78 73 79 74 80 75 81 76 82 52 83 53 84
REMARK SMILES IDX 62 85 54 86 55 87 61 88 63 89 56 90 57 91 58 92 59 93 60 94
REMARK H PARENT 84 44 50 55
REMARK Flexibility Score: inf
ROOT
ATOM      1  C   UNL A   1      32.120  29.581  25.390  1.00  0.00     0.274 C 
ENDROOT
BRANCH   1   2
ATOM      2  O   UNL A   1      31.589  28.462  24.651  1.00  0.00    -0.462 OA
BRANCH   2   3
ATOM      3  C   UNL A   1      32.458  27.829  23.820  1.00  0.00     0.311 C 
ATOM      4  O   UNL A   1      33.624  28.170  23.652  1.00  0.00    -0.252 OA
BRANCH   3   5
ATOM      5  C   UNL A   1      31.845  26.685  23.040  1.00  0.00     0.123 C 
ATOM      6  N   UNL A   1      32.492  24.396  23.047  1.00  0.00    -0.321 N 
ATOM      7  C   UNL A   1      31.111  24.442  23.476  1.00  0.00     0.122 C 
ATOM      8  C   UNL A   1      32.837  25.676  22.417  1.00  0.00     0.098 C 
ATOM      9  C   UNL A   1      30.937  25.864  23.960  1.00  0.00     0.039 C 
ATOM     10  C   UNL A   1      32.645  25.581  20.896  1.00  0.00     0.032 C 
BRANCH   6  11
ATOM     11  C   UNL A   1      33.081  23.165  22.881  1.00  0.00     0.320 C 
ATOM     12  O   UNL A   1      32.641  22.429  21.993  1.00  0.00    -0.248 OA
BRANCH  11  13
ATOM     13  N   UNL A   1      34.069  22.740  23.763  1.00  0.00    -0.321 N 
BRANCH  13  14
ATOM     14  C   UNL A   1      35.314  23.552  23.898  1.00  0.00     0.086 C 
BRANCH  14  15
ATOM     15  C   UNL A   1      35.429  24.264  25.269  1.00  0.00     0.022 C 
ATOM     16  C   UNL A   1      34.114  24.844  25.771  1.00  0.00     0.006 C 
ENDBRANCH  14  15
BRANCH  14  17
ATOM     17  C   UNL A   1      36.594  22.833  23.421  1.00  0.00     0.022 C 
ATOM     18  C   UNL A   1      37.474  22.209  24.490  1.00  0.00     0.006 C 
ENDBRANCH  14  17
ENDBRANCH  13  14
BRANCH  13  19
ATOM     19  C   UNL A   1      34.148  21.386  24.328  1.00  0.00     0.124 C 
BRANCH  19  20
ATOM     20  C   UNL A   1      33.077  21.053  25.392  1.00  0.00     0.002 C 
ATOM     21  C   UNL A   1      32.490  19.646  25.295  1.00  0.00     0.009 C 
ATOM     22  C   UNL A   1      33.664  21.272  26.788  1.00  0.00     0.009 C 
ENDBRANCH  19  20
ENDBRANCH  13  19
ENDBRANCH  11  13
ENDBRANCH   6  11
ENDBRANCH   3   5
ENDBRANCH   2   3
ENDBRANCH   1   2
BRANCH   1  23
ATOM     23  C   UNL A   1      32.584  29.184  26.795  1.00  0.00     0.275 C 
BRANCH  23  24
ATOM     24  O   UNL A   1      34.014  29.245  26.926  1.00  0.00    -0.458 OA
BRANCH  24  25
ATOM     25  C   UNL A   1      34.467  30.268  27.687  1.00  0.00     0.338 C 
ATOM     26  O   UNL A   1      33.835  31.228  28.088  1.00  0.00    -0.246 OA
BRANCH  25  27
ATOM     27  C   UNL A   1      35.845  29.997  28.111  1.00  0.00     0.060 A 
ATOM     28  C   UNL A   1      36.850  30.095  27.147  1.00  0.00     0.016 A 
ATOM     29  C   UNL A   1      36.137  29.576  29.407  1.00  0.00     0.016 A 
ATOM     30  C   UNL A   1      38.158  29.762  27.467  1.00  0.00     0.010 A 
ATOM     31  C   UNL A   1      37.460  29.264  29.737  1.00  0.00     0.010 A 
ATOM     32  C   UNL A   1      38.475  29.354  28.768  1.00  0.00    -0.014 A 
BRANCH  32  33
ATOM     33  C   UNL A   1      39.882  29.048  29.107  1.00  0.00     0.031 A 
ATOM     34  C   UNL A   1      40.739  30.077  29.779  1.00  0.00     0.074 A 
ATOM     35  C   UNL A   1      40.370  27.827  28.822  1.00  0.00     0.049 A 
ATOM     36  N   UNL A   1      42.011  30.021  30.080  1.00  0.00    -0.248 NA
ATOM     37  C   UNL A   1      40.084  31.338  30.163  1.00  0.00     0.031 C 
ATOM     38  C   UNL A   1      39.607  26.738  28.206  1.00  0.00     0.029 A 
ATOM     39  N   UNL A   1      41.619  27.294  29.011  1.00  0.00    -0.354 N 
ATOM     40  C   UNL A   1      42.316  31.241  30.669  1.00  0.00     0.074 A 
ATOM     41  C   UNL A   1      41.097  32.023  30.676  1.00  0.00     0.031 C 
ATOM     42  C   UNL A   1      40.404  25.666  28.072  1.00  0.00     0.029 A 
ATOM     43  C   UNL A   1      41.742  26.008  28.545  1.00  0.00     0.049 A 
ATOM     44  H   UNL A   1      42.356  27.787  29.439  1.00  0.00     0.167 HD
ATOM     45  C   UNL A   1      43.506  31.665  31.157  1.00  0.00     0.037 A 
ATOM     46  C   UNL A   1      42.820  25.205  28.479  1.00  0.00     0.037 A 
ATOM     47  C   UNL A   1      44.707  30.870  31.154  1.00  0.00     0.049 A 
ATOM     48  C   UNL A   1      44.139  25.715  28.986  1.00  0.00     0.074 A 
ATOM     49  C   UNL A   1      45.963  31.203  31.630  1.00  0.00     0.029 A 
ATOM     50  N   UNL A   1      44.802  29.581  30.648  1.00  0.00    -0.354 N 
ATOM     51  N   UNL A   1      44.417  26.878  29.524  1.00  0.00    -0.248 NA
ATOM     52  C   UNL A   1      45.290  24.812  28.866  1.00  0.00     0.031 C 
ATOM     53  C   UNL A   1      46.824  30.128  31.383  1.00  0.00     0.029 A 
ATOM     54  C   UNL A   1      46.098  29.111  30.785  1.00  0.00     0.049 A 
ATOM     55  H   UNL A   1      44.057  29.075  30.251  1.00  0.00     0.167 HD
ATOM     56  C   UNL A   1      45.776  26.846  29.815  1.00  0.00     0.074 A 
ATOM     57  C   UNL A   1      46.258  25.540  29.408  1.00  0.00     0.031 C 
ATOM     58  C   UNL A   1      46.554  27.810  30.365  1.00  0.00     0.037 A 
BRANCH  45  59
ATOM     59  C   UNL A   1      43.572  33.061  31.704  1.00  0.00     0.058 A 
ATOM     60  C   UNL A   1      43.762  34.174  30.870  1.00  0.00     0.135 A 
ATOM     61  C   UNL A   1      43.420  33.292  33.082  1.00  0.00     0.135 A 
ATOM     62  F   UNL A   1      43.930  34.008  29.549  1.00  0.00    -0.206 F 
ATOM     63  C   UNL A   1      43.823  35.466  31.386  1.00  0.00     0.059 A 
ATOM     64  C   UNL A   1      43.458  34.576  33.615  1.00  0.00     0.059 A 
ATOM     65  F   UNL A   1      43.240  32.262  33.923  1.00  0.00    -0.206 F 
ATOM     66  C   UNL A   1      43.675  35.656  32.761  1.00  0.00     0.060 A 
BRANCH  66  67
ATOM     67  S   UNL A   1      43.764  37.334  33.420  1.00  0.00     0.124 S 
ATOM     68  O   UNL A   1      42.476  37.450  34.097  1.00  0.00    -0.237 OA
ATOM     69  O   UNL A   1      44.933  37.270  34.290  1.00  0.00    -0.237 OA
ATOM     70  O   UNL A   1      43.921  38.159  32.226  1.00  0.00    -0.744 OA
ENDBRANCH  66  67
ENDBRANCH  45  59
BRANCH  46  71
ATOM     71  C   UNL A   1      42.695  23.851  27.882  1.00  0.00     0.058 A 
ATOM     72  C   UNL A   1      42.545  22.716  28.690  1.00  0.00     0.135 A 
ATOM     73  C   UNL A   1      42.688  23.671  26.490  1.00  0.00     0.135 A 
ATOM     74  F   UNL A   1      42.553  22.838  30.026  1.00  0.00    -0.206 F 
ATOM     75  C   UNL A   1      42.397  21.446  28.141  1.00  0.00     0.059 A 
ATOM     76  C   UNL A   1      42.520  22.415  25.917  1.00  0.00     0.059 A 
ATOM     77  F   UNL A   1      42.815  24.729  25.675  1.00  0.00    -0.206 F 
ATOM     78  C   UNL A   1      42.383  21.307  26.752  1.00  0.00     0.060 A 
BRANCH  78  79
ATOM     79  S   UNL A   1      42.126  19.666  26.041  1.00  0.00     0.124 S 
ATOM     80  O   UNL A   1      43.036  19.694  24.903  1.00  0.00    -0.237 OA
ATOM     81  O   UNL A   1      42.507  18.789  27.143  1.00  0.00    -0.237 OA
ATOM     82  O   UNL A   1      40.703  19.664  25.714  1.00  0.00    -0.744 OA
ENDBRANCH  78  79
ENDBRANCH  46  71
BRANCH  58  83
ATOM     83  C   UNL A   1      48.005  27.480  30.563  1.00  0.00     0.058 A 
ATOM     84  C   UNL A   1      48.451  26.805  31.709  1.00  0.00     0.135 A 
ATOM     85  C   UNL A   1      48.952  27.810  29.581  1.00  0.00     0.135 A 
ATOM     86  F   UNL A   1      47.584  26.478  32.680  1.00  0.00    -0.206 F 
ATOM     87  C   UNL A   1      49.793  26.484  31.885  1.00  0.00     0.059 A 
ATOM     88  C   UNL A   1      50.296  27.479  29.726  1.00  0.00     0.059 A 
ATOM     89  F   UNL A   1      48.573  28.449  28.463  1.00  0.00    -0.206 F 
ATOM     90  C   UNL A   1      50.707  26.827  30.888  1.00  0.00     0.060 A 
BRANCH  90  91
ATOM     91  S   UNL A   1      52.442  26.378  31.109  1.00  0.00     0.124 S 
ATOM     92  O   UNL A   1      52.892  26.256  29.727  1.00  0.00    -0.237 OA
ATOM     93  O   UNL A   1      52.972  27.521  31.849  1.00  0.00    -0.237 OA
ATOM     94  O   UNL A   1      52.376  25.130  31.863  1.00  0.00    -0.744 OA
ENDBRANCH  90  91
ENDBRANCH  58  83
ENDBRANCH  32  33
ENDBRANCH  25  27
ENDBRANCH  24  25
ENDBRANCH  23  24
ENDBRANCH   1  23
TORSDOF 21
ENDMDL
