MODEL 1
REMARK VINA RESULT:     -12.6      0.000      0.000
REMARK SMILES C[C@@H](C(=O)OCCOC(=O)c1ccc(-c2c3nc(c(-c4c(F)cc(S(=O)(=O)[O-])cc4F)c4ccc([nH]4)c(-c4c(F)cc(S(=O)(=O)[O-])cc4F)c4nc(c(-c5c(F)cc(S(=O)(=O)[O-])cc5F)c5ccc2[nH]5)C=C4)C=C3)cc1)c1ccc2c3cc(Cl)ccc3n(C(=O)c3ccc(Cl)cc3)c2c1
REMARK SMILES IDX 6 1 5 2 3 3 4 4 2 5 1 6 77 7 78 8 99 9 79 10 98 11 80 12
REMARK SMILES IDX 88 13 81 14 87 15 82 16 86 17 83 18 85 19 84 20 89 21 90 22
REMARK SMILES IDX 91 23 92 24 97 25 93 26 96 27 94 28 95 29 7 30 8 31 9 32
REMARK SMILES IDX 10 33 11 34 12 35 76 36 13 37 75 38 14 39 15 40 16 41 69 42
REMARK SMILES IDX 17 43 74 44 68 45 70 46 18 47 73 48 67 49 66 50 19 52 53 53
REMARK SMILES IDX 32 54 52 55 33 56 36 57 51 58 71 59 34 60 35 61 50 63 72 64
REMARK SMILES IDX 37 65 20 66 21 67 30 68 22 69 23 70 29 71 31 72 24 73 25 74
REMARK SMILES IDX 26 75 27 76 28 77 54 78 55 79 64 80 56 81 57 82 63 83 65 84
REMARK SMILES IDX 58 85 59 86 60 87 61 88 62 89 38 90 39 91 48 92 40 93 41 94
REMARK SMILES IDX 47 95 49 96 42 97 43 98 44 99 45 100 46 101
REMARK H PARENT 70 51 36 62
REMARK Flexibility Score: inf
ROOT
ATOM      1  C   UNL A   1      35.534  33.291  30.416  1.00  0.00     0.274 C 
ENDROOT
BRANCH   1   2
ATOM      2  O   UNL A   1      34.837  32.308  29.627  1.00  0.00    -0.462 OA
BRANCH   2   3
ATOM      3  C   UNL A   1      35.396  31.983  28.422  1.00  0.00     0.313 C 
ATOM      4  O   UNL A   1      35.944  32.822  27.718  1.00  0.00    -0.252 OA
BRANCH   3   5
ATOM      5  C   UNL A   1      35.141  30.504  28.030  1.00  0.00     0.126 C 
ATOM      6  C   UNL A   1      36.398  29.917  27.346  1.00  0.00     0.025 C 
BRANCH   5   7
ATOM      7  C   UNL A   1      33.859  30.248  27.197  1.00  0.00    -0.032 A 
ATOM      8  C   UNL A   1      32.739  31.083  27.261  1.00  0.00     0.005 A 
ATOM      9  C   UNL A   1      33.765  29.122  26.349  1.00  0.00     0.032 A 
ATOM     10  C   UNL A   1      31.657  30.941  26.381  1.00  0.00     0.011 A 
ATOM     11  C   UNL A   1      32.657  28.944  25.484  1.00  0.00     0.057 A 
ATOM     12  C   UNL A   1      31.641  29.892  25.445  1.00  0.00     0.008 A 
ATOM     13  N   UNL A   1      32.361  27.947  24.533  1.00  0.00    -0.276 N 
ATOM     14  C   UNL A   1      30.786  29.560  24.362  1.00  0.00     0.009 A 
ATOM     15  C   UNL A   1      31.143  28.281  23.920  1.00  0.00     0.057 A 
ATOM     16  C   UNL A   1      29.712  30.238  23.744  1.00  0.00     0.031 A 
ATOM     17  C   UNL A   1      30.306  27.592  23.019  1.00  0.00     0.029 A 
ATOM     18  C   UNL A   1      28.990  29.604  22.737  1.00  0.00     0.041 A 
ATOM     19  C   UNL A   1      29.253  28.283  22.410  1.00  0.00     0.023 A 
ATOM     20  Cl  UNL A   1      27.741  30.445  21.914  1.00  0.00    -0.084 Cl
BRANCH  13  21
ATOM     21  C   UNL A   1      33.190  26.820  24.273  1.00  0.00     0.262 C 
ATOM     22  O   UNL A   1      33.887  26.851  23.255  1.00  0.00    -0.268 OA
BRANCH  21  23
ATOM     23  C   UNL A   1      33.341  25.580  25.075  1.00  0.00     0.040 A 
ATOM     24  C   UNL A   1      32.204  25.121  25.762  1.00  0.00     0.015 A 
ATOM     25  C   UNL A   1      34.566  24.933  25.273  1.00  0.00     0.015 A 
ATOM     26  C   UNL A   1      32.278  24.012  26.603  1.00  0.00     0.021 A 
ATOM     27  C   UNL A   1      34.631  23.798  26.094  1.00  0.00     0.021 A 
ATOM     28  C   UNL A   1      33.491  23.347  26.758  1.00  0.00     0.041 A 
ATOM     29  Cl  UNL A   1      33.580  21.979  27.798  1.00  0.00    -0.084 Cl
ENDBRANCH  21  23
ENDBRANCH  13  21
ENDBRANCH   5   7
ENDBRANCH   3   5
ENDBRANCH   2   3
ENDBRANCH   1   2
BRANCH   1  30
ATOM     30  C   UNL A   1      35.839  32.773  31.824  1.00  0.00     0.275 C 
BRANCH  30  31
ATOM     31  O   UNL A   1      37.149  32.183  31.909  1.00  0.00    -0.458 OA
BRANCH  31  32
ATOM     32  C   UNL A   1      37.189  30.846  31.705  1.00  0.00     0.338 C 
ATOM     33  O   UNL A   1      36.275  30.052  31.905  1.00  0.00    -0.246 OA
BRANCH  32  34
ATOM     34  C   UNL A   1      38.450  30.459  31.045  1.00  0.00     0.060 A 
ATOM     35  C   UNL A   1      39.468  29.972  31.865  1.00  0.00     0.016 A 
ATOM     36  C   UNL A   1      38.667  30.600  29.670  1.00  0.00     0.016 A 
ATOM     37  C   UNL A   1      40.686  29.587  31.314  1.00  0.00     0.010 A 
ATOM     38  C   UNL A   1      39.907  30.231  29.120  1.00  0.00     0.010 A 
ATOM     39  C   UNL A   1      40.919  29.709  29.941  1.00  0.00    -0.014 A 
BRANCH  39  40
ATOM     40  C   UNL A   1      42.266  29.347  29.432  1.00  0.00     0.031 A 
ATOM     41  C   UNL A   1      42.490  27.976  28.862  1.00  0.00     0.074 A 
ATOM     42  C   UNL A   1      43.229  30.281  29.324  1.00  0.00     0.049 A 
ATOM     43  N   UNL A   1      43.551  27.490  28.273  1.00  0.00    -0.248 NA
ATOM     44  C   UNL A   1      41.358  27.040  28.939  1.00  0.00     0.031 C 
ATOM     45  C   UNL A   1      43.084  31.687  29.698  1.00  0.00     0.029 A 
ATOM     46  N   UNL A   1      44.501  30.201  28.807  1.00  0.00    -0.354 N 
ATOM     47  C   UNL A   1      43.220  26.191  27.911  1.00  0.00     0.074 A 
ATOM     48  C   UNL A   1      41.855  25.968  28.340  1.00  0.00     0.031 C 
ATOM     49  C   UNL A   1      44.205  32.347  29.356  1.00  0.00     0.029 A 
ATOM     50  C   UNL A   1      45.166  31.405  28.781  1.00  0.00     0.049 A 
ATOM     51  H   UNL A   1      44.899  29.360  28.486  1.00  0.00     0.167 HD
ATOM     52  C   UNL A   1      43.987  25.263  27.293  1.00  0.00     0.037 A 
ATOM     53  C   UNL A   1      46.403  31.711  28.338  1.00  0.00     0.037 A 
ATOM     54  C   UNL A   1      45.353  25.467  26.889  1.00  0.00     0.049 A 
ATOM     55  C   UNL A   1      47.284  30.619  27.775  1.00  0.00     0.074 A 
ATOM     56  C   UNL A   1      46.226  24.555  26.323  1.00  0.00     0.029 A 
ATOM     57  N   UNL A   1      46.048  26.661  27.012  1.00  0.00    -0.354 N 
ATOM     58  N   UNL A   1      46.993  29.363  27.534  1.00  0.00    -0.248 NA
ATOM     59  C   UNL A   1      48.669  30.987  27.439  1.00  0.00     0.031 C 
ATOM     60  C   UNL A   1      47.466  25.181  26.153  1.00  0.00     0.029 A 
ATOM     61  C   UNL A   1      47.349  26.498  26.564  1.00  0.00     0.049 A 
ATOM     62  H   UNL A   1      45.673  27.499  27.366  1.00  0.00     0.167 HD
ATOM     63  C   UNL A   1      48.142  28.805  26.980  1.00  0.00     0.074 A 
ATOM     64  C   UNL A   1      49.138  29.854  26.932  1.00  0.00     0.031 C 
ATOM     65  C   UNL A   1      48.349  27.538  26.542  1.00  0.00     0.037 A 
BRANCH  52  66
ATOM     66  C   UNL A   1      43.385  23.902  27.093  1.00  0.00     0.058 A 
ATOM     67  C   UNL A   1      43.312  22.961  28.130  1.00  0.00     0.135 A 
ATOM     68  C   UNL A   1      42.858  23.549  25.840  1.00  0.00     0.135 A 
ATOM     69  F   UNL A   1      43.822  23.243  29.338  1.00  0.00    -0.206 F 
ATOM     70  C   UNL A   1      42.754  21.703  27.924  1.00  0.00     0.059 A 
ATOM     71  C   UNL A   1      42.278  22.306  25.619  1.00  0.00     0.059 A 
ATOM     72  F   UNL A   1      42.912  24.414  24.816  1.00  0.00    -0.206 F 
ATOM     73  C   UNL A   1      42.242  21.384  26.663  1.00  0.00     0.060 A 
BRANCH  73  74
ATOM     74  S   UNL A   1      41.530  19.745  26.407  1.00  0.00     0.124 S 
ATOM     75  O   UNL A   1      42.314  19.264  25.273  1.00  0.00    -0.237 OA
ATOM     76  O   UNL A   1      41.791  19.088  27.683  1.00  0.00    -0.237 OA
ATOM     77  O   UNL A   1      40.126  20.025  26.125  1.00  0.00    -0.744 OA
ENDBRANCH  73  74
ENDBRANCH  52  66
BRANCH  53  78
ATOM     78  C   UNL A   1      46.908  33.111  28.407  1.00  0.00     0.058 A 
ATOM     79  C   UNL A   1      46.773  33.982  27.315  1.00  0.00     0.135 A 
ATOM     80  C   UNL A   1      47.573  33.591  29.544  1.00  0.00     0.135 A 
ATOM     81  F   UNL A   1      46.155  33.570  26.197  1.00  0.00    -0.206 F 
ATOM     82  C   UNL A   1      47.304  35.269  27.337  1.00  0.00     0.059 A 
ATOM     83  C   UNL A   1      48.086  34.883  29.602  1.00  0.00     0.059 A 
ATOM     84  F   UNL A   1      47.726  32.803  30.619  1.00  0.00    -0.206 F 
ATOM     85  C   UNL A   1      47.963  35.709  28.485  1.00  0.00     0.060 A 
BRANCH  85  86
ATOM     86  S   UNL A   1      48.641  37.383  28.518  1.00  0.00     0.124 S 
ATOM     87  O   UNL A   1      48.834  37.592  29.948  1.00  0.00    -0.237 OA
ATOM     88  O   UNL A   1      49.857  37.242  27.723  1.00  0.00    -0.237 OA
ATOM     89  O   UNL A   1      47.587  38.182  27.900  1.00  0.00    -0.744 OA
ENDBRANCH  85  86
ENDBRANCH  53  78
BRANCH  65  90
ATOM     90  C   UNL A   1      49.705  27.197  25.985  1.00  0.00     0.058 A 
ATOM     91  C   UNL A   1      50.753  26.770  26.815  1.00  0.00     0.135 A 
ATOM     92  C   UNL A   1      49.939  27.221  24.600  1.00  0.00     0.135 A 
ATOM     93  F   UNL A   1      50.587  26.728  28.147  1.00  0.00    -0.206 F 
ATOM     94  C   UNL A   1      51.989  26.395  26.295  1.00  0.00     0.059 A 
ATOM     95  C   UNL A   1      51.158  26.826  24.056  1.00  0.00     0.059 A 
ATOM     96  F   UNL A   1      48.968  27.609  23.757  1.00  0.00    -0.206 F 
ATOM     97  C   UNL A   1      52.181  26.423  24.912  1.00  0.00     0.060 A 
BRANCH  97  98
ATOM     98  S   UNL A   1      53.771  25.882  24.247  1.00  0.00     0.124 S 
ATOM     99  O   UNL A   1      53.584  26.106  22.817  1.00  0.00    -0.237 OA
ATOM    100  O   UNL A   1      54.712  26.780  24.910  1.00  0.00    -0.237 OA
ATOM    101  O   UNL A   1      53.854  24.484  24.657  1.00  0.00    -0.744 OA
ENDBRANCH  97  98
ENDBRANCH  65  90
ENDBRANCH  39  40
ENDBRANCH  32  34
ENDBRANCH  31  32
ENDBRANCH  30  31
ENDBRANCH   1  30
TORSDOF 17
ENDMDL
MODEL 2
REMARK VINA RESULT:     -12.4      0.651      7.957
REMARK SMILES C[C@@H](C(=O)OCCOC(=O)c1ccc(-c2c3nc(c(-c4c(F)cc(S(=O)(=O)[O-])cc4F)c4ccc([nH]4)c(-c4c(F)cc(S(=O)(=O)[O-])cc4F)c4nc(c(-c5c(F)cc(S(=O)(=O)[O-])cc5F)c5ccc2[nH]5)C=C4)C=C3)cc1)c1ccc2c3cc(Cl)ccc3n(C(=O)c3ccc(Cl)cc3)c2c1
REMARK SMILES IDX 6 1 5 2 3 3 4 4 2 5 1 6 77 7 78 8 99 9 79 10 98 11 80 12
REMARK SMILES IDX 88 13 81 14 87 15 82 16 86 17 83 18 85 19 84 20 89 21 90 22
REMARK SMILES IDX 91 23 92 24 97 25 93 26 96 27 94 28 95 29 7 30 8 31 9 32
REMARK SMILES IDX 10 33 11 34 12 35 76 36 13 37 75 38 14 39 15 40 16 41 69 42
REMARK SMILES IDX 17 43 74 44 68 45 70 46 18 47 73 48 67 49 66 50 19 52 53 53
REMARK SMILES IDX 32 54 52 55 33 56 36 57 51 58 71 59 34 60 35 61 50 63 72 64
REMARK SMILES IDX 37 65 20 66 21 67 30 68 22 69 23 70 29 71 31 72 24 73 25 74
REMARK SMILES IDX 26 75 27 76 28 77 54 78 55 79 64 80 56 81 57 82 63 83 65 84
REMARK SMILES IDX 58 85 59 86 60 87 61 88 62 89 38 90 39 91 48 92 40 93 41 94
REMARK SMILES IDX 47 95 49 96 42 97 43 98 44 99 45 100 46 101
REMARK H PARENT 70 51 36 62
REMARK Flexibility Score: inf
ROOT
ATOM      1  C   UNL A   1      34.985  33.148  30.524  1.00  0.00     0.274 C 
ENDROOT
BRANCH   1   2
ATOM      2  O   UNL A   1      34.746  31.917  29.815  1.00  0.00    -0.462 OA
BRANCH   2   3
ATOM      3  C   UNL A   1      35.422  31.750  28.638  1.00  0.00     0.313 C 
ATOM      4  O   UNL A   1      36.007  32.677  28.092  1.00  0.00    -0.252 OA
BRANCH   3   5
ATOM      5  C   UNL A   1      35.246  30.324  28.052  1.00  0.00     0.126 C 
ATOM      6  C   UNL A   1      36.512  29.921  27.259  1.00  0.00     0.025 C 
BRANCH   5   7
ATOM      7  C   UNL A   1      33.953  30.099  27.227  1.00  0.00    -0.032 A 
ATOM      8  C   UNL A   1      32.863  30.972  27.281  1.00  0.00     0.005 A 
ATOM      9  C   UNL A   1      33.818  28.963  26.398  1.00  0.00     0.032 A 
ATOM     10  C   UNL A   1      31.773  30.852  26.406  1.00  0.00     0.011 A 
ATOM     11  C   UNL A   1      32.702  28.809  25.538  1.00  0.00     0.057 A 
ATOM     12  C   UNL A   1      31.719  29.790  25.487  1.00  0.00     0.008 A 
ATOM     13  N   UNL A   1      32.369  27.807  24.604  1.00  0.00    -0.276 N 
ATOM     14  C   UNL A   1      30.849  29.470  24.412  1.00  0.00     0.009 A 
ATOM     15  C   UNL A   1      31.161  28.173  23.990  1.00  0.00     0.057 A 
ATOM     16  C   UNL A   1      29.797  30.174  23.786  1.00  0.00     0.031 A 
ATOM     17  C   UNL A   1      30.298  27.498  23.102  1.00  0.00     0.029 A 
ATOM     18  C   UNL A   1      29.050  29.549  22.792  1.00  0.00     0.041 A 
ATOM     19  C   UNL A   1      29.267  28.215  22.485  1.00  0.00     0.023 A 
ATOM     20  Cl  UNL A   1      27.826  30.419  21.960  1.00  0.00    -0.084 Cl
BRANCH  13  21
ATOM     21  C   UNL A   1      33.159  26.650  24.360  1.00  0.00     0.262 C 
ATOM     22  O   UNL A   1      33.767  26.594  23.287  1.00  0.00    -0.268 OA
BRANCH  21  23
ATOM     23  C   UNL A   1      33.362  25.468  25.235  1.00  0.00     0.040 A 
ATOM     24  C   UNL A   1      34.641  24.887  25.237  1.00  0.00     0.015 A 
ATOM     25  C   UNL A   1      32.329  24.846  25.945  1.00  0.00     0.015 A 
ATOM     26  C   UNL A   1      34.898  23.726  25.966  1.00  0.00     0.021 A 
ATOM     27  C   UNL A   1      32.595  23.697  26.703  1.00  0.00     0.021 A 
ATOM     28  C   UNL A   1      33.874  23.141  26.705  1.00  0.00     0.041 A 
ATOM     29  Cl  UNL A   1      34.192  21.707  27.603  1.00  0.00    -0.084 Cl
ENDBRANCH  21  23
ENDBRANCH  13  21
ENDBRANCH   5   7
ENDBRANCH   3   5
ENDBRANCH   2   3
ENDBRANCH   1   2
BRANCH   1  30
ATOM     30  C   UNL A   1      35.634  32.899  31.888  1.00  0.00     0.275 C 
BRANCH  30  31
ATOM     31  O   UNL A   1      37.006  32.478  31.763  1.00  0.00    -0.458 OA
BRANCH  31  32
ATOM     32  C   UNL A   1      37.219  31.156  31.955  1.00  0.00     0.338 C 
ATOM     33  O   UNL A   1      36.490  30.383  32.568  1.00  0.00    -0.246 OA
BRANCH  32  34
ATOM     34  C   UNL A   1      38.392  30.702  31.184  1.00  0.00     0.060 A 
ATOM     35  C   UNL A   1      39.374  30.000  31.882  1.00  0.00     0.016 A 
ATOM     36  C   UNL A   1      38.566  30.981  29.824  1.00  0.00     0.016 A 
ATOM     37  C   UNL A   1      40.509  29.540  31.222  1.00  0.00     0.010 A 
ATOM     38  C   UNL A   1      39.724  30.535  29.165  1.00  0.00     0.010 A 
ATOM     39  C   UNL A   1      40.696  29.799  29.861  1.00  0.00    -0.014 A 
BRANCH  39  40
ATOM     40  C   UNL A   1      41.963  29.341  29.238  1.00  0.00     0.031 A 
ATOM     41  C   UNL A   1      43.184  30.209  29.336  1.00  0.00     0.074 A 
ATOM     42  C   UNL A   1      42.069  28.095  28.739  1.00  0.00     0.049 A 
ATOM     43  N   UNL A   1      44.410  29.958  28.957  1.00  0.00    -0.248 NA
ATOM     44  C   UNL A   1      43.006  31.522  29.975  1.00  0.00     0.031 C 
ATOM     45  C   UNL A   1      40.997  27.100  28.726  1.00  0.00     0.029 A 
ATOM     46  N   UNL A   1      43.148  27.433  28.204  1.00  0.00    -0.354 N 
ATOM     47  C   UNL A   1      45.150  31.079  29.306  1.00  0.00     0.074 A 
ATOM     48  C   UNL A   1      44.237  32.010  29.936  1.00  0.00     0.031 C 
ATOM     49  C   UNL A   1      41.486  25.940  28.253  1.00  0.00     0.029 A 
ATOM     50  C   UNL A   1      42.891  26.119  27.885  1.00  0.00     0.049 A 
ATOM     51  H   UNL A   1      44.024  27.858  28.062  1.00  0.00     0.167 HD
ATOM     52  C   UNL A   1      46.467  31.320  29.105  1.00  0.00     0.037 A 
ATOM     53  C   UNL A   1      43.697  25.172  27.363  1.00  0.00     0.037 A 
ATOM     54  C   UNL A   1      47.376  30.412  28.455  1.00  0.00     0.049 A 
ATOM     55  C   UNL A   1      45.130  25.516  27.026  1.00  0.00     0.074 A 
ATOM     56  C   UNL A   1      48.710  30.609  28.146  1.00  0.00     0.029 A 
ATOM     57  N   UNL A   1      47.046  29.142  28.009  1.00  0.00    -0.354 N 
ATOM     58  N   UNL A   1      45.794  26.622  27.266  1.00  0.00    -0.248 NA
ATOM     59  C   UNL A   1      45.918  24.485  26.332  1.00  0.00     0.031 C 
ATOM     60  C   UNL A   1      49.174  29.479  27.463  1.00  0.00     0.029 A 
ATOM     61  C   UNL A   1      48.142  28.557  27.396  1.00  0.00     0.049 A 
ATOM     62  H   UNL A   1      46.163  28.719  28.111  1.00  0.00     0.167 HD
ATOM     63  C   UNL A   1      47.085  26.402  26.793  1.00  0.00     0.074 A 
ATOM     64  C   UNL A   1      47.108  25.065  26.241  1.00  0.00     0.031 C 
ATOM     65  C   UNL A   1      48.156  27.234  26.822  1.00  0.00     0.037 A 
BRANCH  52  66
ATOM     66  C   UNL A   1      46.987  32.665  29.523  1.00  0.00     0.058 A 
ATOM     67  C   UNL A   1      47.560  32.882  30.785  1.00  0.00     0.135 A 
ATOM     68  C   UNL A   1      46.921  33.747  28.632  1.00  0.00     0.135 A 
ATOM     69  F   UNL A   1      47.624  31.884  31.680  1.00  0.00    -0.206 F 
ATOM     70  C   UNL A   1      48.032  34.137  31.157  1.00  0.00     0.059 A 
ATOM     71  C   UNL A   1      47.406  35.004  28.974  1.00  0.00     0.059 A 
ATOM     72  F   UNL A   1      46.375  33.590  27.416  1.00  0.00    -0.206 F 
ATOM     73  C   UNL A   1      47.948  35.192  30.244  1.00  0.00     0.060 A 
BRANCH  73  74
ATOM     74  S   UNL A   1      48.555  36.818  30.742  1.00  0.00     0.124 S 
ATOM     75  O   UNL A   1      48.343  37.591  29.523  1.00  0.00    -0.237 OA
ATOM     76  O   UNL A   1      47.680  37.148  31.863  1.00  0.00    -0.237 OA
ATOM     77  O   UNL A   1      49.949  36.567  31.092  1.00  0.00    -0.744 OA
ENDBRANCH  73  74
ENDBRANCH  52  66
BRANCH  53  78
ATOM     78  C   UNL A   1      43.185  23.796  27.110  1.00  0.00     0.058 A 
ATOM     79  C   UNL A   1      43.089  22.858  28.150  1.00  0.00     0.135 A 
ATOM     80  C   UNL A   1      42.826  23.377  25.821  1.00  0.00     0.135 A 
ATOM     81  F   UNL A   1      43.431  23.203  29.401  1.00  0.00    -0.206 F 
ATOM     82  C   UNL A   1      42.681  21.547  27.917  1.00  0.00     0.059 A 
ATOM     83  C   UNL A   1      42.387  22.081  25.568  1.00  0.00     0.059 A 
ATOM     84  F   UNL A   1      42.894  24.233  24.790  1.00  0.00    -0.206 F 
ATOM     85  C   UNL A   1      42.337  21.167  26.620  1.00  0.00     0.060 A 
BRANCH  85  86
ATOM     86  S   UNL A   1      41.796  19.470  26.319  1.00  0.00     0.124 S 
ATOM     87  O   UNL A   1      42.530  19.141  25.103  1.00  0.00    -0.237 OA
ATOM     88  O   UNL A   1      42.233  18.785  27.533  1.00  0.00    -0.237 OA
ATOM     89  O   UNL A   1      40.351  19.601  26.169  1.00  0.00    -0.744 OA
ENDBRANCH  85  86
ENDBRANCH  53  78
BRANCH  65  90
ATOM     90  C   UNL A   1      49.448  26.740  26.228  1.00  0.00     0.058 A 
ATOM     91  C   UNL A   1      49.793  27.007  24.894  1.00  0.00     0.135 A 
ATOM     92  C   UNL A   1      50.388  26.058  27.020  1.00  0.00     0.135 A 
ATOM     93  F   UNL A   1      48.934  27.653  24.090  1.00  0.00    -0.206 F 
ATOM     94  C   UNL A   1      51.014  26.604  24.362  1.00  0.00     0.059 A 
ATOM     95  C   UNL A   1      51.625  25.668  26.516  1.00  0.00     0.059 A 
ATOM     96  F   UNL A   1      50.117  25.785  28.307  1.00  0.00    -0.206 F 
ATOM     97  C   UNL A   1      51.927  25.937  25.182  1.00  0.00     0.060 A 
BRANCH  97  98
ATOM     98  S   UNL A   1      53.530  25.468  24.494  1.00  0.00     0.124 S 
ATOM     99  O   UNL A   1      53.557  24.033  24.761  1.00  0.00    -0.237 OA
ATOM    100  O   UNL A   1      53.394  25.848  23.091  1.00  0.00    -0.237 OA
ATOM    101  O   UNL A   1      54.478  26.267  25.263  1.00  0.00    -0.744 OA
ENDBRANCH  97  98
ENDBRANCH  65  90
ENDBRANCH  39  40
ENDBRANCH  32  34
ENDBRANCH  31  32
ENDBRANCH  30  31
ENDBRANCH   1  30
TORSDOF 17
ENDMDL
MODEL 3
REMARK VINA RESULT:     -12.4      6.271     12.272
REMARK SMILES C[C@@H](C(=O)OCCOC(=O)c1ccc(-c2c3nc(c(-c4c(F)cc(S(=O)(=O)[O-])cc4F)c4ccc([nH]4)c(-c4c(F)cc(S(=O)(=O)[O-])cc4F)c4nc(c(-c5c(F)cc(S(=O)(=O)[O-])cc5F)c5ccc2[nH]5)C=C4)C=C3)cc1)c1ccc2c3cc(Cl)ccc3n(C(=O)c3ccc(Cl)cc3)c2c1
REMARK SMILES IDX 6 1 5 2 3 3 4 4 2 5 1 6 77 7 78 8 99 9 79 10 98 11 80 12
REMARK SMILES IDX 88 13 81 14 87 15 82 16 86 17 83 18 85 19 84 20 89 21 90 22
REMARK SMILES IDX 91 23 92 24 97 25 93 26 96 27 94 28 95 29 7 30 8 31 9 32
REMARK SMILES IDX 10 33 11 34 12 35 76 36 13 37 75 38 14 39 15 40 16 41 69 42
REMARK SMILES IDX 17 43 74 44 68 45 70 46 18 47 73 48 67 49 66 50 19 52 53 53
REMARK SMILES IDX 32 54 52 55 33 56 36 57 51 58 71 59 34 60 35 61 50 63 72 64
REMARK SMILES IDX 37 65 20 66 21 67 30 68 22 69 23 70 29 71 31 72 24 73 25 74
REMARK SMILES IDX 26 75 27 76 28 77 54 78 55 79 64 80 56 81 57 82 63 83 65 84
REMARK SMILES IDX 58 85 59 86 60 87 61 88 62 89 38 90 39 91 48 92 40 93 41 94
REMARK SMILES IDX 47 95 49 96 42 97 43 98 44 99 45 100 46 101
REMARK H PARENT 70 51 36 62
REMARK Flexibility Score: inf
ROOT
ATOM      1  C   UNL A   1      42.965  22.090  26.142  1.00  0.00     0.274 C 
ENDROOT
BRANCH   1   2
ATOM      2  O   UNL A   1      41.572  21.753  26.002  1.00  0.00    -0.462 OA
BRANCH   2   3
ATOM      3  C   UNL A   1      40.723  22.255  26.950  1.00  0.00     0.313 C 
ATOM      4  O   UNL A   1      40.878  22.024  28.142  1.00  0.00    -0.252 OA
BRANCH   3   5
ATOM      5  C   UNL A   1      39.523  23.016  26.326  1.00  0.00     0.126 C 
ATOM      6  C   UNL A   1      38.979  24.056  27.334  1.00  0.00     0.025 C 
BRANCH   5   7
ATOM      7  C   UNL A   1      38.395  22.123  25.753  1.00  0.00    -0.032 A 
ATOM      8  C   UNL A   1      38.640  20.865  25.192  1.00  0.00     0.005 A 
ATOM      9  C   UNL A   1      37.055  22.570  25.750  1.00  0.00     0.032 A 
ATOM     10  C   UNL A   1      37.598  19.997  24.835  1.00  0.00     0.011 A 
ATOM     11  C   UNL A   1      35.995  21.716  25.352  1.00  0.00     0.057 A 
ATOM     12  C   UNL A   1      36.260  20.407  24.968  1.00  0.00     0.008 A 
ATOM     13  N   UNL A   1      34.601  21.912  25.305  1.00  0.00    -0.276 N 
ATOM     14  C   UNL A   1      35.014  19.743  24.825  1.00  0.00     0.009 A 
ATOM     15  C   UNL A   1      34.010  20.715  24.871  1.00  0.00     0.057 A 
ATOM     16  C   UNL A   1      34.666  18.388  24.626  1.00  0.00     0.031 A 
ATOM     17  C   UNL A   1      32.690  20.378  24.507  1.00  0.00     0.029 A 
ATOM     18  C   UNL A   1      33.331  18.046  24.427  1.00  0.00     0.041 A 
ATOM     19  C   UNL A   1      32.362  19.031  24.324  1.00  0.00     0.023 A 
ATOM     20  Cl  UNL A   1      32.880  16.397  24.273  1.00  0.00    -0.084 Cl
BRANCH  13  21
ATOM     21  C   UNL A   1      33.954  23.130  25.654  1.00  0.00     0.262 C 
ATOM     22  O   UNL A   1      33.405  23.185  26.758  1.00  0.00    -0.268 OA
BRANCH  21  23
ATOM     23  C   UNL A   1      33.843  24.379  24.859  1.00  0.00     0.040 A 
ATOM     24  C   UNL A   1      33.624  25.571  25.569  1.00  0.00     0.015 A 
ATOM     25  C   UNL A   1      33.822  24.404  23.460  1.00  0.00     0.015 A 
ATOM     26  C   UNL A   1      33.425  26.777  24.897  1.00  0.00     0.021 A 
ATOM     27  C   UNL A   1      33.654  25.622  22.786  1.00  0.00     0.021 A 
ATOM     28  C   UNL A   1      33.451  26.799  23.506  1.00  0.00     0.041 A 
ATOM     29  Cl  UNL A   1      33.205  28.288  22.678  1.00  0.00    -0.084 Cl
ENDBRANCH  21  23
ENDBRANCH  13  21
ENDBRANCH   5   7
ENDBRANCH   3   5
ENDBRANCH   2   3
ENDBRANCH   1   2
BRANCH   1  30
ATOM     30  C   UNL A   1      43.294  23.427  25.473  1.00  0.00     0.275 C 
BRANCH  30  31
ATOM     31  O   UNL A   1      43.306  24.514  26.417  1.00  0.00    -0.458 OA
BRANCH  31  32
ATOM     32  C   UNL A   1      42.447  25.522  26.141  1.00  0.00     0.338 C 
ATOM     33  O   UNL A   1      41.724  25.611  25.153  1.00  0.00    -0.246 OA
BRANCH  32  34
ATOM     34  C   UNL A   1      42.362  26.458  27.278  1.00  0.00     0.060 A 
ATOM     35  C   UNL A   1      41.514  26.102  28.327  1.00  0.00     0.016 A 
ATOM     36  C   UNL A   1      43.051  27.675  27.318  1.00  0.00     0.016 A 
ATOM     37  C   UNL A   1      41.382  26.935  29.433  1.00  0.00     0.010 A 
ATOM     38  C   UNL A   1      42.898  28.524  28.427  1.00  0.00     0.010 A 
ATOM     39  C   UNL A   1      42.071  28.150  29.498  1.00  0.00    -0.014 A 
BRANCH  39  40
ATOM     40  C   UNL A   1      41.827  29.022  30.674  1.00  0.00     0.031 A 
ATOM     41  C   UNL A   1      40.628  29.926  30.681  1.00  0.00     0.074 A 
ATOM     42  C   UNL A   1      42.567  28.887  31.791  1.00  0.00     0.049 A 
ATOM     43  N   UNL A   1      40.173  30.687  31.642  1.00  0.00    -0.248 NA
ATOM     44  C   UNL A   1      39.819  29.951  29.453  1.00  0.00     0.031 C 
ATOM     45  C   UNL A   1      43.662  27.932  31.964  1.00  0.00     0.029 A 
ATOM     46  N   UNL A   1      42.469  29.509  33.012  1.00  0.00    -0.354 N 
ATOM     47  C   UNL A   1      39.027  31.286  31.137  1.00  0.00     0.074 A 
ATOM     48  C   UNL A   1      38.851  30.792  29.787  1.00  0.00     0.031 C 
ATOM     49  C   UNL A   1      44.102  28.000  33.233  1.00  0.00     0.029 A 
ATOM     50  C   UNL A   1      43.355  29.034  33.951  1.00  0.00     0.049 A 
ATOM     51  H   UNL A   1      41.824  30.229  33.198  1.00  0.00     0.167 HD
ATOM     52  C   UNL A   1      38.204  32.179  31.735  1.00  0.00     0.037 A 
ATOM     53  C   UNL A   1      43.537  29.388  35.240  1.00  0.00     0.037 A 
ATOM     54  C   UNL A   1      38.387  32.695  33.067  1.00  0.00     0.049 A 
ATOM     55  C   UNL A   1      42.686  30.485  35.839  1.00  0.00     0.074 A 
ATOM     56  C   UNL A   1      37.641  33.659  33.723  1.00  0.00     0.029 A 
ATOM     57  N   UNL A   1      39.387  32.300  33.942  1.00  0.00    -0.354 N 
ATOM     58  N   UNL A   1      41.667  31.121  35.313  1.00  0.00    -0.248 NA
ATOM     59  C   UNL A   1      43.024  30.921  37.203  1.00  0.00     0.031 C 
ATOM     60  C   UNL A   1      38.222  33.885  34.975  1.00  0.00     0.029 A 
ATOM     61  C   UNL A   1      39.297  33.025  35.119  1.00  0.00     0.049 A 
ATOM     62  H   UNL A   1      40.061  31.608  33.754  1.00  0.00     0.167 HD
ATOM     63  C   UNL A   1      41.218  31.999  36.296  1.00  0.00     0.074 A 
ATOM     64  C   UNL A   1      42.081  31.823  37.443  1.00  0.00     0.031 C 
ATOM     65  C   UNL A   1      40.176  32.867  36.252  1.00  0.00     0.037 A 
BRANCH  52  66
ATOM     66  C   UNL A   1      37.070  32.720  30.915  1.00  0.00     0.058 A 
ATOM     67  C   UNL A   1      37.224  33.831  30.073  1.00  0.00     0.135 A 
ATOM     68  C   UNL A   1      35.812  32.099  30.966  1.00  0.00     0.135 A 
ATOM     69  F   UNL A   1      38.401  34.473  30.008  1.00  0.00    -0.206 F 
ATOM     70  C   UNL A   1      36.160  34.322  29.323  1.00  0.00     0.059 A 
ATOM     71  C   UNL A   1      34.741  32.559  30.209  1.00  0.00     0.059 A 
ATOM     72  F   UNL A   1      35.614  31.037  31.762  1.00  0.00    -0.206 F 
ATOM     73  C   UNL A   1      34.921  33.680  29.401  1.00  0.00     0.060 A 
BRANCH  73  74
ATOM     74  S   UNL A   1      33.545  34.332  28.431  1.00  0.00     0.124 S 
ATOM     75  O   UNL A   1      32.673  34.852  29.479  1.00  0.00    -0.237 OA
ATOM     76  O   UNL A   1      34.200  35.333  27.594  1.00  0.00    -0.237 OA
ATOM     77  O   UNL A   1      33.043  33.159  27.722  1.00  0.00    -0.744 OA
ENDBRANCH  73  74
ENDBRANCH  52  66
BRANCH  53  78
ATOM     78  C   UNL A   1      44.570  28.711  36.073  1.00  0.00     0.058 A 
ATOM     79  C   UNL A   1      45.910  29.131  36.045  1.00  0.00     0.135 A 
ATOM     80  C   UNL A   1      44.252  27.607  36.876  1.00  0.00     0.135 A 
ATOM     81  F   UNL A   1      46.271  30.176  35.284  1.00  0.00    -0.206 F 
ATOM     82  C   UNL A   1      46.900  28.464  36.760  1.00  0.00     0.059 A 
ATOM     83  C   UNL A   1      45.218  26.942  37.624  1.00  0.00     0.059 A 
ATOM     84  F   UNL A   1      42.986  27.166  36.944  1.00  0.00    -0.206 F 
ATOM     85  C   UNL A   1      46.544  27.366  37.544  1.00  0.00     0.060 A 
BRANCH  85  86
ATOM     86  S   UNL A   1      47.827  26.508  38.483  1.00  0.00     0.124 S 
ATOM     87  O   UNL A   1      47.760  25.168  37.911  1.00  0.00    -0.237 OA
ATOM     88  O   UNL A   1      49.021  27.282  38.157  1.00  0.00    -0.237 OA
ATOM     89  O   UNL A   1      47.369  26.629  39.863  1.00  0.00    -0.744 OA
ENDBRANCH  85  86
ENDBRANCH  53  78
BRANCH  65  90
ATOM     90  C   UNL A   1      39.911  33.712  37.469  1.00  0.00     0.058 A 
ATOM     91  C   UNL A   1      40.535  34.957  37.649  1.00  0.00     0.135 A 
ATOM     92  C   UNL A   1      38.966  33.312  38.429  1.00  0.00     0.135 A 
ATOM     93  F   UNL A   1      41.447  35.390  36.765  1.00  0.00    -0.206 F 
ATOM     94  C   UNL A   1      40.244  35.767  38.743  1.00  0.00     0.059 A 
ATOM     95  C   UNL A   1      38.641  34.117  39.518  1.00  0.00     0.059 A 
ATOM     96  F   UNL A   1      38.329  32.136  38.303  1.00  0.00    -0.206 F 
ATOM     97  C   UNL A   1      39.293  35.340  39.672  1.00  0.00     0.060 A 
BRANCH  97  98
ATOM     98  S   UNL A   1      38.885  36.425  41.057  1.00  0.00     0.124 S 
ATOM     99  O   UNL A   1      37.780  35.704  41.681  1.00  0.00    -0.237 OA
ATOM    100  O   UNL A   1      40.133  36.450  41.815  1.00  0.00    -0.237 OA
ATOM    101  O   UNL A   1      38.527  37.684  40.411  1.00  0.00    -0.744 OA
ENDBRANCH  97  98
ENDBRANCH  65  90
ENDBRANCH  39  40
ENDBRANCH  32  34
ENDBRANCH  31  32
ENDBRANCH  30  31
ENDBRANCH   1  30
TORSDOF 17
ENDMDL
