MODEL 1
REMARK VINA RESULT:     -10.8      0.000      0.000
REMARK SMILES [NH3+][C@H]1COC[C@@H]1C(=O)NC1(CC(=O)OCCOC(=O)c2ccc(-c3c4nc(c(-c5c(F)cc(S(=O)(=O)[O-])cc5F)c5ccc([nH]5)c(-c5c(F)cc(S(=O)(=O)[O-])cc5F)c5nc(c(-c6c(F)cc(S(=O)(=O)[O-])cc6F)c6ccc3[nH]6)C=C5)C=C4)cc2)CCC1
REMARK SMILES IDX 15 1 14 2 12 3 13 4 11 5 10 6 86 7 88 8 87 9 9 10 7 11 8 12
REMARK SMILES IDX 6 14 2 15 3 16 4 17 5 18 1 19 16 23 17 24 18 25 19 26 20 27
REMARK SMILES IDX 21 28 85 29 22 30 84 31 23 32 24 33 25 34 78 35 26 36 83 37
REMARK SMILES IDX 77 38 79 39 27 40 82 41 76 42 75 43 28 45 62 46 41 47 61 48
REMARK SMILES IDX 42 49 45 50 60 51 80 52 43 53 44 54 59 56 81 57 46 58 29 59
REMARK SMILES IDX 30 60 39 61 31 62 32 63 38 64 40 65 33 66 34 67 35 68 36 69
REMARK SMILES IDX 37 70 63 71 64 72 73 73 65 74 66 75 72 76 74 77 67 78 68 79
REMARK SMILES IDX 69 80 70 81 71 82 47 83 48 84 57 85 49 86 50 87 56 88 58 89
REMARK SMILES IDX 51 90 52 91 53 92 54 93 55 94
REMARK H PARENT 9 13 1 20 1 21 1 22 79 44 45 55
REMARK Flexibility Score: inf
ROOT
ATOM      1  C   UNL A   1      33.268  30.590  27.506  1.00  0.00     0.274 C 
ENDROOT
BRANCH   1   2
ATOM      2  O   UNL A   1      33.269  30.144  26.133  1.00  0.00    -0.462 OA
BRANCH   2   3
ATOM      3  C   UNL A   1      32.054  29.847  25.612  1.00  0.00     0.308 C 
ATOM      4  O   UNL A   1      31.142  30.654  25.473  1.00  0.00    -0.252 OA
BRANCH   3   5
ATOM      5  C   UNL A   1      31.876  28.402  25.232  1.00  0.00     0.151 C 
BRANCH   5   6
ATOM      6  C   UNL A   1      31.478  28.027  23.791  1.00  0.00     0.050 C 
ATOM      7  C   UNL A   1      32.176  26.689  23.408  1.00  0.00     0.029 C 
ATOM      8  C   UNL A   1      32.305  28.732  22.691  1.00  0.00     0.029 C 
ATOM      9  C   UNL A   1      33.223  27.496  22.621  1.00  0.00     0.005 C 
BRANCH   6  10
ATOM     10  N   UNL A   1      30.005  28.010  23.631  1.00  0.00    -0.350 N 
ATOM     11  C   UNL A   1      29.096  28.858  23.063  1.00  0.00     0.232 C 
ATOM     12  O   UNL A   1      27.944  28.438  22.923  1.00  0.00    -0.274 OA
ATOM     13  H   UNL A   1      29.587  27.210  24.022  1.00  0.00     0.164 HD
BRANCH  11  14
ATOM     14  C   UNL A   1      29.462  30.269  22.647  1.00  0.00     0.164 C 
ATOM     15  C   UNL A   1      28.772  31.264  23.577  1.00  0.00     0.221 C 
ATOM     16  C   UNL A   1      27.473  31.552  22.823  1.00  0.00     0.225 C 
ATOM     17  O   UNL A   1      27.847  31.567  21.436  1.00  0.00    -0.374 OA
ATOM     18  C   UNL A   1      28.889  30.590  21.271  1.00  0.00     0.180 C 
BRANCH  15  19
ATOM     19  N   UNL A   1      29.559  32.511  23.712  1.00  0.00    -0.352 N 
ATOM     20  H   UNL A   1      29.373  33.119  22.915  1.00  0.00     0.344 HD
ATOM     21  H   UNL A   1      30.553  32.284  23.741  1.00  0.00     0.344 HD
ATOM     22  H   UNL A   1      29.294  32.989  24.573  1.00  0.00     0.344 HD
ENDBRANCH  15  19
ENDBRANCH  11  14
ENDBRANCH   6  10
ENDBRANCH   5   6
ENDBRANCH   3   5
ENDBRANCH   2   3
ENDBRANCH   1   2
BRANCH   1  23
ATOM     23  C   UNL A   1      34.609  31.205  27.909  1.00  0.00     0.275 C 
BRANCH  23  24
ATOM     24  O   UNL A   1      35.564  30.194  28.278  1.00  0.00    -0.458 OA
BRANCH  24  25
ATOM     25  C   UNL A   1      36.287  30.487  29.383  1.00  0.00     0.338 C 
ATOM     26  O   UNL A   1      35.864  30.909  30.444  1.00  0.00    -0.246 OA
BRANCH  25  27
ATOM     27  C   UNL A   1      37.687  30.094  29.186  1.00  0.00     0.060 A 
ATOM     28  C   UNL A   1      38.131  29.831  27.889  1.00  0.00     0.016 A 
ATOM     29  C   UNL A   1      38.525  29.890  30.282  1.00  0.00     0.016 A 
ATOM     30  C   UNL A   1      39.420  29.356  27.679  1.00  0.00     0.010 A 
ATOM     31  C   UNL A   1      39.835  29.456  30.065  1.00  0.00     0.010 A 
ATOM     32  C   UNL A   1      40.292  29.186  28.763  1.00  0.00    -0.014 A 
BRANCH  32  33
ATOM     33  C   UNL A   1      41.697  28.777  28.528  1.00  0.00     0.031 A 
ATOM     34  C   UNL A   1      42.807  29.785  28.577  1.00  0.00     0.074 A 
ATOM     35  C   UNL A   1      41.964  27.486  28.251  1.00  0.00     0.049 A 
ATOM     36  N   UNL A   1      44.067  29.637  28.260  1.00  0.00    -0.248 NA
ATOM     37  C   UNL A   1      42.455  31.136  29.038  1.00  0.00     0.031 C 
ATOM     38  C   UNL A   1      40.971  26.409  28.211  1.00  0.00     0.029 A 
ATOM     39  N   UNL A   1      43.145  26.861  27.940  1.00  0.00    -0.354 N 
ATOM     40  C   UNL A   1      44.657  30.878  28.458  1.00  0.00     0.074 A 
ATOM     41  C   UNL A   1      43.614  31.771  28.920  1.00  0.00     0.031 C 
ATOM     42  C   UNL A   1      41.584  25.258  27.899  1.00  0.00     0.029 A 
ATOM     43  C   UNL A   1      42.998  25.525  27.656  1.00  0.00     0.049 A 
ATOM     44  H   UNL A   1      44.012  27.325  27.924  1.00  0.00     0.167 HD
ATOM     45  C   UNL A   1      45.949  31.236  28.269  1.00  0.00     0.037 A 
ATOM     46  C   UNL A   1      43.890  24.624  27.205  1.00  0.00     0.037 A 
ATOM     47  C   UNL A   1      46.983  30.335  27.827  1.00  0.00     0.049 A 
ATOM     48  C   UNL A   1      45.299  25.061  26.933  1.00  0.00     0.074 A 
ATOM     49  C   UNL A   1      48.331  30.592  27.641  1.00  0.00     0.029 A 
ATOM     50  N   UNL A   1      46.783  29.003  27.497  1.00  0.00    -0.354 N 
ATOM     51  N   UNL A   1      45.841  26.242  27.110  1.00  0.00    -0.248 NA
ATOM     52  C   UNL A   1      46.212  24.052  26.379  1.00  0.00     0.031 C 
ATOM     53  C   UNL A   1      48.939  29.425  27.165  1.00  0.00     0.029 A 
ATOM     54  C   UNL A   1      47.976  28.432  27.080  1.00  0.00     0.049 A 
ATOM     55  H   UNL A   1      45.921  28.532  27.549  1.00  0.00     0.167 HD
ATOM     56  C   UNL A   1      47.157  26.123  26.683  1.00  0.00     0.074 A 
ATOM     57  C   UNL A   1      47.336  24.747  26.259  1.00  0.00     0.031 C 
ATOM     58  C   UNL A   1      48.128  27.068  26.640  1.00  0.00     0.037 A 
BRANCH  45  59
ATOM     59  C   UNL A   1      46.312  32.672  28.512  1.00  0.00     0.058 A 
ATOM     60  C   UNL A   1      46.746  33.123  29.767  1.00  0.00     0.135 A 
ATOM     61  C   UNL A   1      46.248  33.606  27.465  1.00  0.00     0.135 A 
ATOM     62  F   UNL A   1      46.812  32.273  30.804  1.00  0.00    -0.206 F 
ATOM     63  C   UNL A   1      47.084  34.455  29.983  1.00  0.00     0.059 A 
ATOM     64  C   UNL A   1      46.597  34.940  27.653  1.00  0.00     0.059 A 
ATOM     65  F   UNL A   1      45.837  33.225  26.245  1.00  0.00    -0.206 F 
ATOM     66  C   UNL A   1      47.000  35.358  28.921  1.00  0.00     0.060 A 
BRANCH  66  67
ATOM     67  S   UNL A   1      47.438  37.086  29.210  1.00  0.00     0.124 S 
ATOM     68  O   UNL A   1      46.354  37.780  28.523  1.00  0.00    -0.237 OA
ATOM     69  O   UNL A   1      47.424  37.177  30.667  1.00  0.00    -0.237 OA
ATOM     70  O   UNL A   1      48.755  37.209  28.593  1.00  0.00    -0.744 OA
ENDBRANCH  66  67
ENDBRANCH  45  59
BRANCH  46  71
ATOM     71  C   UNL A   1      43.451  23.232  26.937  1.00  0.00     0.058 A 
ATOM     72  C   UNL A   1      43.300  22.764  25.624  1.00  0.00     0.135 A 
ATOM     73  C   UNL A   1      43.221  22.330  27.988  1.00  0.00     0.135 A 
ATOM     74  F   UNL A   1      43.501  23.595  24.589  1.00  0.00    -0.206 F 
ATOM     75  C   UNL A   1      42.944  21.447  25.361  1.00  0.00     0.059 A 
ATOM     76  C   UNL A   1      42.883  21.003  27.748  1.00  0.00     0.059 A 
ATOM     77  F   UNL A   1      43.364  22.730  29.260  1.00  0.00    -0.206 F 
ATOM     78  C   UNL A   1      42.744  20.571  26.430  1.00  0.00     0.060 A 
BRANCH  78  79
ATOM     79  S   UNL A   1      42.368  18.839  26.083  1.00  0.00     0.124 S 
ATOM     80  O   UNL A   1      40.955  18.911  25.732  1.00  0.00    -0.237 OA
ATOM     81  O   UNL A   1      43.283  18.535  24.986  1.00  0.00    -0.237 OA
ATOM     82  O   UNL A   1      42.676  18.172  27.345  1.00  0.00    -0.744 OA
ENDBRANCH  78  79
ENDBRANCH  46  71
BRANCH  58  83
ATOM     83  C   UNL A   1      49.465  26.646  26.106  1.00  0.00     0.058 A 
ATOM     84  C   UNL A   1      49.839  26.930  24.784  1.00  0.00     0.135 A 
ATOM     85  C   UNL A   1      50.389  25.983  26.926  1.00  0.00     0.135 A 
ATOM     86  F   UNL A   1      48.983  27.552  23.958  1.00  0.00    -0.206 F 
ATOM     87  C   UNL A   1      51.084  26.558  24.287  1.00  0.00     0.059 A 
ATOM     88  C   UNL A   1      51.647  25.617  26.457  1.00  0.00     0.059 A 
ATOM     89  F   UNL A   1      50.078  25.693  28.199  1.00  0.00    -0.206 F 
ATOM     90  C   UNL A   1      51.981  25.900  25.132  1.00  0.00     0.060 A 
BRANCH  90  91
ATOM     91  S   UNL A   1      53.606  25.448  24.490  1.00  0.00     0.124 S 
ATOM     92  O   UNL A   1      53.672  24.030  24.829  1.00  0.00    -0.237 OA
ATOM     93  O   UNL A   1      53.483  25.754  23.069  1.00  0.00    -0.237 OA
ATOM     94  O   UNL A   1      54.516  26.315  25.233  1.00  0.00    -0.744 OA
ENDBRANCH  90  91
ENDBRANCH  58  83
ENDBRANCH  32  33
ENDBRANCH  25  27
ENDBRANCH  24  25
ENDBRANCH  23  24
ENDBRANCH   1  23
TORSDOF 18
ENDMDL
MODEL 2
REMARK VINA RESULT:     -10.6      7.689     13.127
REMARK SMILES [NH3+][C@H]1COC[C@@H]1C(=O)NC1(CC(=O)OCCOC(=O)c2ccc(-c3c4nc(c(-c5c(F)cc(S(=O)(=O)[O-])cc5F)c5ccc([nH]5)c(-c5c(F)cc(S(=O)(=O)[O-])cc5F)c5nc(c(-c6c(F)cc(S(=O)(=O)[O-])cc6F)c6ccc3[nH]6)C=C5)C=C4)cc2)CCC1
REMARK SMILES IDX 15 1 14 2 12 3 13 4 11 5 10 6 86 7 88 8 87 9 9 10 7 11 8 12
REMARK SMILES IDX 6 14 2 15 3 16 4 17 5 18 1 19 16 23 17 24 18 25 19 26 20 27
REMARK SMILES IDX 21 28 85 29 22 30 84 31 23 32 24 33 25 34 78 35 26 36 83 37
REMARK SMILES IDX 77 38 79 39 27 40 82 41 76 42 75 43 28 45 62 46 41 47 61 48
REMARK SMILES IDX 42 49 45 50 60 51 80 52 43 53 44 54 59 56 81 57 46 58 29 59
REMARK SMILES IDX 30 60 39 61 31 62 32 63 38 64 40 65 33 66 34 67 35 68 36 69
REMARK SMILES IDX 37 70 63 71 64 72 73 73 65 74 66 75 72 76 74 77 67 78 68 79
REMARK SMILES IDX 69 80 70 81 71 82 47 83 48 84 57 85 49 86 50 87 56 88 58 89
REMARK SMILES IDX 51 90 52 91 53 92 54 93 55 94
REMARK H PARENT 9 13 1 20 1 21 1 22 79 44 45 55
REMARK Flexibility Score: inf
ROOT
ATOM      1  C   UNL A   1      37.493  22.427  25.816  1.00  0.00     0.274 C 
ENDROOT
BRANCH   1   2
ATOM      2  O   UNL A   1      37.322  22.090  24.424  1.00  0.00    -0.462 OA
BRANCH   2   3
ATOM      3  C   UNL A   1      36.198  22.568  23.838  1.00  0.00     0.308 C 
ATOM      4  O   UNL A   1      36.149  23.037  22.706  1.00  0.00    -0.252 OA
BRANCH   3   5
ATOM      5  C   UNL A   1      34.973  22.518  24.711  1.00  0.00     0.151 C 
BRANCH   5   6
ATOM      6  C   UNL A   1      34.236  21.182  24.929  1.00  0.00     0.050 C 
ATOM      7  C   UNL A   1      33.212  20.976  23.775  1.00  0.00     0.029 C 
ATOM      8  C   UNL A   1      33.051  21.255  25.920  1.00  0.00     0.029 C 
ATOM      9  C   UNL A   1      32.094  21.438  24.726  1.00  0.00     0.005 C 
BRANCH   6  10
ATOM     10  N   UNL A   1      35.194  20.064  25.095  1.00  0.00    -0.350 N 
ATOM     11  C   UNL A   1      35.213  18.754  24.702  1.00  0.00     0.232 C 
ATOM     12  O   UNL A   1      36.275  18.141  24.835  1.00  0.00    -0.274 OA
ATOM     13  H   UNL A   1      35.998  20.321  25.602  1.00  0.00     0.164 HD
BRANCH  11  14
ATOM     14  C   UNL A   1      33.980  18.061  24.157  1.00  0.00     0.164 C 
ATOM     15  C   UNL A   1      33.263  17.339  25.294  1.00  0.00     0.221 C 
ATOM     16  C   UNL A   1      33.882  15.943  25.222  1.00  0.00     0.225 C 
ATOM     17  O   UNL A   1      34.051  15.687  23.819  1.00  0.00    -0.374 OA
ATOM     18  C   UNL A   1      34.372  16.943  23.198  1.00  0.00     0.180 C 
BRANCH  15  19
ATOM     19  N   UNL A   1      31.806  17.253  25.045  1.00  0.00    -0.352 N 
ATOM     20  H   UNL A   1      31.639  17.098  24.051  1.00  0.00     0.344 HD
ATOM     21  H   UNL A   1      31.360  18.125  25.331  1.00  0.00     0.344 HD
ATOM     22  H   UNL A   1      31.414  16.479  25.580  1.00  0.00     0.344 HD
ENDBRANCH  15  19
ENDBRANCH  11  14
ENDBRANCH   6  10
ENDBRANCH   5   6
ENDBRANCH   3   5
ENDBRANCH   2   3
ENDBRANCH   1   2
BRANCH   1  23
ATOM     23  C   UNL A   1      38.951  22.738  26.155  1.00  0.00     0.275 C 
BRANCH  23  24
ATOM     24  O   UNL A   1      39.090  24.041  26.749  1.00  0.00    -0.458 OA
BRANCH  24  25
ATOM     25  C   UNL A   1      40.370  24.448  26.911  1.00  0.00     0.338 C 
ATOM     26  O   UNL A   1      41.335  24.105  26.253  1.00  0.00    -0.246 OA
BRANCH  25  27
ATOM     27  C   UNL A   1      40.438  25.497  27.934  1.00  0.00     0.060 A 
ATOM     28  C   UNL A   1      39.346  25.672  28.786  1.00  0.00     0.016 A 
ATOM     29  C   UNL A   1      41.528  26.365  27.984  1.00  0.00     0.016 A 
ATOM     30  C   UNL A   1      39.336  26.723  29.695  1.00  0.00     0.010 A 
ATOM     31  C   UNL A   1      41.536  27.393  28.930  1.00  0.00     0.010 A 
ATOM     32  C   UNL A   1      40.441  27.579  29.792  1.00  0.00    -0.014 A 
BRANCH  32  33
ATOM     33  C   UNL A   1      40.471  28.636  30.831  1.00  0.00     0.031 A 
ATOM     34  C   UNL A   1      41.419  28.545  31.990  1.00  0.00     0.074 A 
ATOM     35  C   UNL A   1      39.620  29.676  30.729  1.00  0.00     0.049 A 
ATOM     36  N   UNL A   1      41.487  29.296  33.057  1.00  0.00    -0.248 NA
ATOM     37  C   UNL A   1      42.419  27.467  31.944  1.00  0.00     0.031 C 
ATOM     38  C   UNL A   1      38.677  29.890  29.629  1.00  0.00     0.029 A 
ATOM     39  N   UNL A   1      39.402  30.740  31.567  1.00  0.00    -0.354 N 
ATOM     40  C   UNL A   1      42.518  28.771  33.826  1.00  0.00     0.074 A 
ATOM     41  C   UNL A   1      43.045  27.633  33.102  1.00  0.00     0.031 C 
ATOM     42  C   UNL A   1      37.986  31.017  29.856  1.00  0.00     0.029 A 
ATOM     43  C   UNL A   1      38.390  31.570  31.144  1.00  0.00     0.049 A 
ATOM     44  H   UNL A   1      39.920  30.895  32.388  1.00  0.00     0.167 HD
ATOM     45  C   UNL A   1      42.977  29.202  35.025  1.00  0.00     0.037 A 
ATOM     46  C   UNL A   1      37.820  32.629  31.747  1.00  0.00     0.037 A 
ATOM     47  C   UNL A   1      42.457  30.347  35.729  1.00  0.00     0.049 A 
ATOM     48  C   UNL A   1      38.296  33.042  33.108  1.00  0.00     0.074 A 
ATOM     49  C   UNL A   1      42.880  30.886  36.932  1.00  0.00     0.029 A 
ATOM     50  N   UNL A   1      41.396  31.128  35.294  1.00  0.00    -0.354 N 
ATOM     51  N   UNL A   1      39.261  32.528  33.831  1.00  0.00    -0.248 NA
ATOM     52  C   UNL A   1      37.592  34.163  33.745  1.00  0.00     0.031 C 
ATOM     53  C   UNL A   1      42.051  31.971  37.242  1.00  0.00     0.029 A 
ATOM     54  C   UNL A   1      41.130  32.126  36.218  1.00  0.00     0.049 A 
ATOM     55  H   UNL A   1      40.903  30.993  34.453  1.00  0.00     0.167 HD
ATOM     56  C   UNL A   1      39.279  33.257  35.013  1.00  0.00     0.074 A 
ATOM     57  C   UNL A   1      38.240  34.263  34.899  1.00  0.00     0.031 C 
ATOM     58  C   UNL A   1      40.078  33.103  36.097  1.00  0.00     0.037 A 
BRANCH  45  59
ATOM     59  C   UNL A   1      44.079  28.411  35.668  1.00  0.00     0.058 A 
ATOM     60  C   UNL A   1      45.431  28.688  35.415  1.00  0.00     0.135 A 
ATOM     61  C   UNL A   1      43.778  27.379  36.570  1.00  0.00     0.135 A 
ATOM     62  F   UNL A   1      45.772  29.656  34.550  1.00  0.00    -0.206 F 
ATOM     63  C   UNL A   1      46.448  27.952  36.017  1.00  0.00     0.059 A 
ATOM     64  C   UNL A   1      44.778  26.641  37.197  1.00  0.00     0.059 A 
ATOM     65  F   UNL A   1      42.500  27.074  36.845  1.00  0.00    -0.206 F 
ATOM     66  C   UNL A   1      46.110  26.927  36.903  1.00  0.00     0.060 A 
BRANCH  66  67
ATOM     67  S   UNL A   1      47.435  25.976  37.678  1.00  0.00     0.124 S 
ATOM     68  O   UNL A   1      46.862  25.693  38.989  1.00  0.00    -0.237 OA
ATOM     69  O   UNL A   1      47.567  24.829  36.785  1.00  0.00    -0.237 OA
ATOM     70  O   UNL A   1      48.564  26.901  37.672  1.00  0.00    -0.744 OA
ENDBRANCH  66  67
ENDBRANCH  45  59
BRANCH  46  71
ATOM     71  C   UNL A   1      36.698  33.333  31.076  1.00  0.00     0.058 A 
ATOM     72  C   UNL A   1      36.928  34.169  29.976  1.00  0.00     0.135 A 
ATOM     73  C   UNL A   1      35.371  33.143  31.494  1.00  0.00     0.135 A 
ATOM     74  F   UNL A   1      38.181  34.387  29.549  1.00  0.00    -0.206 F 
ATOM     75  C   UNL A   1      35.879  34.789  29.305  1.00  0.00     0.059 A 
ATOM     76  C   UNL A   1      34.305  33.736  30.826  1.00  0.00     0.059 A 
ATOM     77  F   UNL A   1      35.103  32.342  32.536  1.00  0.00    -0.206 F 
ATOM     78  C   UNL A   1      34.570  34.560  29.734  1.00  0.00     0.060 A 
BRANCH  78  79
ATOM     79  S   UNL A   1      33.206  35.296  28.806  1.00  0.00     0.124 S 
ATOM     80  O   UNL A   1      32.362  35.805  29.881  1.00  0.00    -0.237 OA
ATOM     81  O   UNL A   1      33.886  36.303  27.997  1.00  0.00    -0.237 OA
ATOM     82  O   UNL A   1      32.665  34.165  28.057  1.00  0.00    -0.744 OA
ENDBRANCH  78  79
ENDBRANCH  46  71
BRANCH  58  83
ATOM     83  C   UNL A   1      39.849  34.038  37.248  1.00  0.00     0.058 A 
ATOM     84  C   UNL A   1      38.998  33.688  38.307  1.00  0.00     0.135 A 
ATOM     85  C   UNL A   1      40.508  35.275  37.310  1.00  0.00     0.135 A 
ATOM     86  F   UNL A   1      38.338  32.520  38.287  1.00  0.00    -0.206 F 
ATOM     87  C   UNL A   1      38.797  34.542  39.387  1.00  0.00     0.059 A 
ATOM     88  C   UNL A   1      40.335  36.137  38.388  1.00  0.00     0.059 A 
ATOM     89  F   UNL A   1      41.335  35.651  36.321  1.00  0.00    -0.206 F 
ATOM     90  C   UNL A   1      39.469  35.766  39.417  1.00  0.00     0.060 A 
BRANCH  90  91
ATOM     91  S   UNL A   1      39.226  36.856  40.836  1.00  0.00     0.124 S 
ATOM     92  O   UNL A   1      38.416  36.018  41.714  1.00  0.00    -0.237 OA
ATOM     93  O   UNL A   1      40.593  37.106  41.282  1.00  0.00    -0.237 OA
ATOM     94  O   UNL A   1      38.542  38.010  40.261  1.00  0.00    -0.744 OA
ENDBRANCH  90  91
ENDBRANCH  58  83
ENDBRANCH  32  33
ENDBRANCH  25  27
ENDBRANCH  24  25
ENDBRANCH  23  24
ENDBRANCH   1  23
TORSDOF 18
ENDMDL
MODEL 3
REMARK VINA RESULT:     -10.5      1.028      2.075
REMARK SMILES [NH3+][C@H]1COC[C@@H]1C(=O)NC1(CC(=O)OCCOC(=O)c2ccc(-c3c4nc(c(-c5c(F)cc(S(=O)(=O)[O-])cc5F)c5ccc([nH]5)c(-c5c(F)cc(S(=O)(=O)[O-])cc5F)c5nc(c(-c6c(F)cc(S(=O)(=O)[O-])cc6F)c6ccc3[nH]6)C=C5)C=C4)cc2)CCC1
REMARK SMILES IDX 15 1 14 2 12 3 13 4 11 5 10 6 86 7 88 8 87 9 9 10 7 11 8 12
REMARK SMILES IDX 6 14 2 15 3 16 4 17 5 18 1 19 16 23 17 24 18 25 19 26 20 27
REMARK SMILES IDX 21 28 85 29 22 30 84 31 23 32 24 33 25 34 78 35 26 36 83 37
REMARK SMILES IDX 77 38 79 39 27 40 82 41 76 42 75 43 28 45 62 46 41 47 61 48
REMARK SMILES IDX 42 49 45 50 60 51 80 52 43 53 44 54 59 56 81 57 46 58 29 59
REMARK SMILES IDX 30 60 39 61 31 62 32 63 38 64 40 65 33 66 34 67 35 68 36 69
REMARK SMILES IDX 37 70 63 71 64 72 73 73 65 74 66 75 72 76 74 77 67 78 68 79
REMARK SMILES IDX 69 80 70 81 71 82 47 83 48 84 57 85 49 86 50 87 56 88 58 89
REMARK SMILES IDX 51 90 52 91 53 92 54 93 55 94
REMARK H PARENT 9 13 1 20 1 21 1 22 79 44 45 55
REMARK Flexibility Score: inf
ROOT
ATOM      1  C   UNL A   1      33.459  30.479  26.718  1.00  0.00     0.274 C 
ENDROOT
BRANCH   1   2
ATOM      2  O   UNL A   1      32.622  29.338  27.001  1.00  0.00    -0.462 OA
BRANCH   2   3
ATOM      3  C   UNL A   1      32.498  28.437  25.996  1.00  0.00     0.308 C 
ATOM      4  O   UNL A   1      33.303  28.302  25.081  1.00  0.00    -0.252 OA
BRANCH   3   5
ATOM      5  C   UNL A   1      31.246  27.606  26.057  1.00  0.00     0.151 C 
BRANCH   5   6
ATOM      6  C   UNL A   1      31.089  26.378  25.139  1.00  0.00     0.050 C 
ATOM      7  C   UNL A   1      29.818  25.588  25.565  1.00  0.00     0.029 C 
ATOM      8  C   UNL A   1      31.944  25.155  25.547  1.00  0.00     0.029 C 
ATOM      9  C   UNL A   1      30.725  24.585  26.299  1.00  0.00     0.005 C 
BRANCH   6  10
ATOM     10  N   UNL A   1      31.106  26.774  23.711  1.00  0.00    -0.350 N 
ATOM     11  C   UNL A   1      30.470  27.738  22.979  1.00  0.00     0.232 C 
ATOM     12  O   UNL A   1      30.870  27.927  21.827  1.00  0.00    -0.274 OA
ATOM     13  H   UNL A   1      31.709  26.219  23.167  1.00  0.00     0.164 HD
BRANCH  11  14
ATOM     14  C   UNL A   1      29.300  28.527  23.532  1.00  0.00     0.164 C 
ATOM     15  C   UNL A   1      28.183  28.570  22.491  1.00  0.00     0.221 C 
ATOM     16  C   UNL A   1      28.497  29.868  21.745  1.00  0.00     0.225 C 
ATOM     17  O   UNL A   1      28.959  30.773  22.760  1.00  0.00    -0.374 OA
ATOM     18  C   UNL A   1      29.680  29.990  23.726  1.00  0.00     0.180 C 
BRANCH  15  19
ATOM     19  N   UNL A   1      26.852  28.670  23.131  1.00  0.00    -0.352 N 
ATOM     20  H   UNL A   1      26.903  28.306  24.082  1.00  0.00     0.344 HD
ATOM     21  H   UNL A   1      26.176  28.126  22.595  1.00  0.00     0.344 HD
ATOM     22  H   UNL A   1      26.559  29.647  23.156  1.00  0.00     0.344 HD
ENDBRANCH  15  19
ENDBRANCH  11  14
ENDBRANCH   6  10
ENDBRANCH   5   6
ENDBRANCH   3   5
ENDBRANCH   2   3
ENDBRANCH   1   2
BRANCH   1  23
ATOM     23  C   UNL A   1      34.233  30.942  27.953  1.00  0.00     0.275 C 
BRANCH  23  24
ATOM     24  O   UNL A   1      35.363  30.092  28.218  1.00  0.00    -0.458 OA
BRANCH  24  25
ATOM     25  C   UNL A   1      36.123  30.485  29.265  1.00  0.00     0.338 C 
ATOM     26  O   UNL A   1      35.740  31.032  30.283  1.00  0.00    -0.246 OA
BRANCH  25  27
ATOM     27  C   UNL A   1      37.507  30.037  29.077  1.00  0.00     0.060 A 
ATOM     28  C   UNL A   1      38.336  29.936  30.196  1.00  0.00     0.016 A 
ATOM     29  C   UNL A   1      38.010  29.815  27.795  1.00  0.00     0.016 A 
ATOM     30  C   UNL A   1      39.679  29.616  30.039  1.00  0.00     0.010 A 
ATOM     31  C   UNL A   1      39.350  29.448  27.644  1.00  0.00     0.010 A 
ATOM     32  C   UNL A   1      40.193  29.346  28.764  1.00  0.00    -0.014 A 
BRANCH  32  33
ATOM     33  C   UNL A   1      41.600  28.906  28.610  1.00  0.00     0.031 A 
ATOM     34  C   UNL A   1      42.729  29.886  28.742  1.00  0.00     0.074 A 
ATOM     35  C   UNL A   1      41.853  27.612  28.332  1.00  0.00     0.049 A 
ATOM     36  N   UNL A   1      44.001  29.711  28.502  1.00  0.00    -0.248 NA
ATOM     37  C   UNL A   1      42.380  31.239  29.200  1.00  0.00     0.031 C 
ATOM     38  C   UNL A   1      40.840  26.561  28.216  1.00  0.00     0.029 A 
ATOM     39  N   UNL A   1      43.036  26.963  28.087  1.00  0.00    -0.354 N 
ATOM     40  C   UNL A   1      44.607  30.935  28.754  1.00  0.00     0.074 A 
ATOM     41  C   UNL A   1      43.558  31.847  29.163  1.00  0.00     0.031 C 
ATOM     42  C   UNL A   1      41.444  25.399  27.927  1.00  0.00     0.029 A 
ATOM     43  C   UNL A   1      42.876  25.634  27.775  1.00  0.00     0.049 A 
ATOM     44  H   UNL A   1      43.914  27.406  28.131  1.00  0.00     0.167 HD
ATOM     45  C   UNL A   1      45.917  31.263  28.651  1.00  0.00     0.037 A 
ATOM     46  C   UNL A   1      43.774  24.718  27.368  1.00  0.00     0.037 A 
ATOM     47  C   UNL A   1      46.955  30.344  28.261  1.00  0.00     0.049 A 
ATOM     48  C   UNL A   1      45.207  25.124  27.190  1.00  0.00     0.074 A 
ATOM     49  C   UNL A   1      48.317  30.570  28.163  1.00  0.00     0.029 A 
ATOM     50  N   UNL A   1      46.745  29.021  27.900  1.00  0.00    -0.354 N 
ATOM     51  N   UNL A   1      45.764  26.289  27.417  1.00  0.00    -0.248 NA
ATOM     52  C   UNL A   1      46.128  24.100  26.680  1.00  0.00     0.031 C 
ATOM     53  C   UNL A   1      48.926  29.394  27.709  1.00  0.00     0.029 A 
ATOM     54  C   UNL A   1      47.947  28.426  27.551  1.00  0.00     0.049 A 
ATOM     55  H   UNL A   1      45.870  28.570  27.892  1.00  0.00     0.167 HD
ATOM     56  C   UNL A   1      47.101  26.143  27.071  1.00  0.00     0.074 A 
ATOM     57  C   UNL A   1      47.274  24.769  26.640  1.00  0.00     0.031 C 
ATOM     58  C   UNL A   1      48.094  27.064  27.102  1.00  0.00     0.037 A 
BRANCH  45  59
ATOM     59  C   UNL A   1      46.298  32.688  28.936  1.00  0.00     0.058 A 
ATOM     60  C   UNL A   1      46.309  33.664  27.929  1.00  0.00     0.135 A 
ATOM     61  C   UNL A   1      46.631  33.085  30.240  1.00  0.00     0.135 A 
ATOM     62  F   UNL A   1      46.011  33.332  26.662  1.00  0.00    -0.206 F 
ATOM     63  C   UNL A   1      46.660  34.983  28.200  1.00  0.00     0.059 A 
ATOM     64  C   UNL A   1      46.968  34.402  30.539  1.00  0.00     0.059 A 
ATOM     65  F   UNL A   1      46.636  32.189  31.239  1.00  0.00    -0.206 F 
ATOM     66  C   UNL A   1      46.994  35.341  29.508  1.00  0.00     0.060 A 
BRANCH  66  67
ATOM     67  S   UNL A   1      47.450  37.054  29.852  1.00  0.00     0.124 S 
ATOM     68  O   UNL A   1      48.785  37.122  29.269  1.00  0.00    -0.237 OA
ATOM     69  O   UNL A   1      46.414  37.805  29.149  1.00  0.00    -0.237 OA
ATOM     70  O   UNL A   1      47.394  37.133  31.308  1.00  0.00    -0.744 OA
ENDBRANCH  66  67
ENDBRANCH  45  59
BRANCH  46  71
ATOM     71  C   UNL A   1      43.319  23.340  27.053  1.00  0.00     0.058 A 
ATOM     72  C   UNL A   1      43.204  22.905  25.726  1.00  0.00     0.135 A 
ATOM     73  C   UNL A   1      43.039  22.419  28.075  1.00  0.00     0.135 A 
ATOM     74  F   UNL A   1      43.453  23.755  24.718  1.00  0.00    -0.206 F 
ATOM     75  C   UNL A   1      42.834  21.600  25.420  1.00  0.00     0.059 A 
ATOM     76  C   UNL A   1      42.686  21.104  27.794  1.00  0.00     0.059 A 
ATOM     77  F   UNL A   1      43.146  22.788  29.360  1.00  0.00    -0.206 F 
ATOM     78  C   UNL A   1      42.583  20.705  26.462  1.00  0.00     0.060 A 
BRANCH  78  79
ATOM     79  S   UNL A   1      42.189  18.988  26.062  1.00  0.00     0.124 S 
ATOM     80  O   UNL A   1      43.102  18.728  24.956  1.00  0.00    -0.237 OA
ATOM     81  O   UNL A   1      42.490  18.299  27.314  1.00  0.00    -0.237 OA
ATOM     82  O   UNL A   1      40.772  19.044  25.715  1.00  0.00    -0.744 OA
ENDBRANCH  78  79
ENDBRANCH  46  71
BRANCH  58  83
ATOM     83  C   UNL A   1      49.452  26.617  26.645  1.00  0.00     0.058 A 
ATOM     84  C   UNL A   1      50.331  25.962  27.521  1.00  0.00     0.135 A 
ATOM     85  C   UNL A   1      49.864  26.813  25.319  1.00  0.00     0.135 A 
ATOM     86  F   UNL A   1      49.985  25.761  28.801  1.00  0.00    -0.206 F 
ATOM     87  C   UNL A   1      51.583  25.527  27.099  1.00  0.00     0.059 A 
ATOM     88  C   UNL A   1      51.104  26.372  24.870  1.00  0.00     0.059 A 
ATOM     89  F   UNL A   1      49.055  27.431  24.444  1.00  0.00    -0.206 F 
ATOM     90  C   UNL A   1      51.962  25.739  25.771  1.00  0.00     0.060 A 
BRANCH  90  91
ATOM     91  S   UNL A   1      53.576  25.145  25.222  1.00  0.00     0.124 S 
ATOM     92  O   UNL A   1      53.599  25.597  23.835  1.00  0.00    -0.237 OA
ATOM     93  O   UNL A   1      54.491  25.832  26.127  1.00  0.00    -0.237 OA
ATOM     94  O   UNL A   1      53.486  23.700  25.412  1.00  0.00    -0.744 OA
ENDBRANCH  90  91
ENDBRANCH  58  83
ENDBRANCH  32  33
ENDBRANCH  25  27
ENDBRANCH  24  25
ENDBRANCH  23  24
ENDBRANCH   1  23
TORSDOF 18
ENDMDL
