MODEL 1
REMARK VINA RESULT:     -12.7      0.000      0.000
REMARK SMILES O=C(Cc1ccccc1)Nc1cccc(C(=O)Nc2ccccc2C(=O)OCCOC(=O)c2ccc(-c3c4nc(c(-c5c(F)cc(S(=O)(=O)[O-])cc5F)c5ccc([nH]5)c(-c5c(F)cc(S(=O)(=O)[O-])cc5F)c5nc(c(-c6c(F)cc(S(=O)(=O)[O-])cc6F)c6ccc3[nH]6)C=C5)C=C4)cc2)c1
REMARK SMILES IDX 28 1 27 2 25 3 26 4 24 5 19 6 20 7 21 8 23 9 22 10 18 11
REMARK SMILES IDX 16 12 17 13 15 15 11 16 12 17 99 18 13 19 14 20 10 21 1 22
REMARK SMILES IDX 2 23 3 25 4 26 5 27 9 28 6 29 8 30 7 31 29 32 30 33 31 34
REMARK SMILES IDX 32 35 33 36 34 37 98 38 35 39 97 40 36 41 37 42 38 43 91 44
REMARK SMILES IDX 39 45 96 46 90 47 92 48 40 49 95 50 89 51 88 52 41 54 75 55
REMARK SMILES IDX 54 56 74 57 55 58 58 59 73 60 93 61 56 62 57 63 72 65 94 66
REMARK SMILES IDX 59 67 42 68 43 69 52 70 44 71 45 72 51 73 53 74 46 75 47 76
REMARK SMILES IDX 48 77 49 78 50 79 76 80 77 81 86 82 78 83 79 84 85 85 87 86
REMARK SMILES IDX 80 87 81 88 82 89 83 90 84 91 60 92 61 93 70 94 62 95 63 96
REMARK SMILES IDX 69 97 71 98 64 99 65 100 66 101 67 102 68 103
REMARK H PARENT 18 14 10 24 92 53 58 64
REMARK Flexibility Score: inf
ROOT
ATOM      1  C   UNL A   1      38.682  21.489  25.623  1.00  0.00     0.275 C 
ENDROOT
BRANCH   1   2
ATOM      2  O   UNL A   1      37.240  21.488  25.732  1.00  0.00    -0.458 OA
BRANCH   2   3
ATOM      3  C   UNL A   1      36.606  21.981  24.638  1.00  0.00     0.340 C 
ATOM      4  O   UNL A   1      37.142  22.637  23.763  1.00  0.00    -0.246 OA
BRANCH   3   5
ATOM      5  C   UNL A   1      35.161  21.653  24.585  1.00  0.00     0.083 A 
ATOM      6  C   UNL A   1      34.199  22.391  23.881  1.00  0.00     0.056 A 
ATOM      7  C   UNL A   1      32.857  21.962  23.925  1.00  0.00     0.027 A 
ATOM      8  C   UNL A   1      32.491  20.761  24.540  1.00  0.00     0.002 A 
ATOM      9  C   UNL A   1      34.766  20.462  25.227  1.00  0.00     0.018 A 
ATOM     10  C   UNL A   1      33.452  20.002  25.184  1.00  0.00     0.001 A 
BRANCH   6  11
ATOM     11  N   UNL A   1      34.418  23.524  23.073  1.00  0.00    -0.321 N 
ATOM     12  C   UNL A   1      33.728  24.703  22.897  1.00  0.00     0.255 C 
ATOM     13  O   UNL A   1      34.028  25.419  21.939  1.00  0.00    -0.269 OA
ATOM     14  H   UNL A   1      35.231  23.460  22.521  1.00  0.00     0.170 HD
BRANCH  12  15
ATOM     15  C   UNL A   1      32.687  25.184  23.844  1.00  0.00     0.042 A 
ATOM     16  C   UNL A   1      30.533  26.192  24.315  1.00  0.00     0.041 A 
ATOM     17  C   UNL A   1      30.949  26.420  25.634  1.00  0.00     0.026 A 
ATOM     18  C   UNL A   1      31.376  25.488  23.449  1.00  0.00     0.040 A 
ATOM     19  C   UNL A   1      32.202  25.991  26.074  1.00  0.00     0.003 A 
ATOM     20  C   UNL A   1      33.076  25.387  25.176  1.00  0.00     0.014 A 
BRANCH  16  21
ATOM     21  N   UNL A   1      29.358  26.851  23.897  1.00  0.00    -0.326 N 
ATOM     22  O   UNL A   1      30.070  28.118  22.085  1.00  0.00    -0.274 OA
ATOM     23  C   UNL A   1      29.232  27.848  22.943  1.00  0.00     0.228 C 
ATOM     24  H   UNL A   1      28.525  26.567  24.337  1.00  0.00     0.169 HD
BRANCH  23  25
ATOM     25  C   UNL A   1      27.995  28.728  23.126  1.00  0.00     0.135 C 
BRANCH  25  26
ATOM     26  C   UNL A   1      28.129  30.152  22.643  1.00  0.00    -0.039 A 
ATOM     27  C   UNL A   1      27.917  30.462  21.292  1.00  0.00     0.004 A 
ATOM     28  C   UNL A   1      28.474  31.186  23.529  1.00  0.00     0.004 A 
ATOM     29  C   UNL A   1      28.033  31.779  20.843  1.00  0.00     0.000 A 
ATOM     30  C   UNL A   1      28.559  32.506  23.081  1.00  0.00     0.000 A 
ATOM     31  C   UNL A   1      28.341  32.800  21.738  1.00  0.00     0.000 A 
ENDBRANCH  25  26
ENDBRANCH  23  25
ENDBRANCH  16  21
ENDBRANCH  12  15
ENDBRANCH   6  11
ENDBRANCH   3   5
ENDBRANCH   2   3
ENDBRANCH   1   2
BRANCH   1  32
ATOM     32  C   UNL A   1      39.396  22.254  26.741  1.00  0.00     0.275 C 
BRANCH  32  33
ATOM     33  O   UNL A   1      39.863  23.544  26.303  1.00  0.00    -0.458 OA
BRANCH  33  34
ATOM     34  C   UNL A   1      39.031  24.566  26.598  1.00  0.00     0.338 C 
ATOM     35  O   UNL A   1      37.923  24.771  26.123  1.00  0.00    -0.246 OA
BRANCH  34  36
ATOM     36  C   UNL A   1      39.570  25.409  27.675  1.00  0.00     0.060 A 
ATOM     37  C   UNL A   1      39.053  25.222  28.948  1.00  0.00     0.016 A 
ATOM     38  C   UNL A   1      40.329  26.542  27.401  1.00  0.00     0.016 A 
ATOM     39  C   UNL A   1      39.116  26.226  29.894  1.00  0.00     0.010 A 
ATOM     40  C   UNL A   1      40.533  27.491  28.415  1.00  0.00     0.010 A 
ATOM     41  C   UNL A   1      39.878  27.367  29.655  1.00  0.00    -0.014 A 
BRANCH  41  42
ATOM     42  C   UNL A   1      39.914  28.426  30.697  1.00  0.00     0.031 A 
ATOM     43  C   UNL A   1      40.942  28.367  31.795  1.00  0.00     0.074 A 
ATOM     44  C   UNL A   1      39.078  29.482  30.605  1.00  0.00     0.049 A 
ATOM     45  N   UNL A   1      41.050  29.112  32.864  1.00  0.00    -0.248 NA
ATOM     46  C   UNL A   1      41.978  27.326  31.686  1.00  0.00     0.031 C 
ATOM     47  C   UNL A   1      38.090  29.693  29.541  1.00  0.00     0.029 A 
ATOM     48  N   UNL A   1      38.941  30.592  31.398  1.00  0.00    -0.354 N 
ATOM     49  C   UNL A   1      42.117  28.589  33.586  1.00  0.00     0.074 A 
ATOM     50  C   UNL A   1      42.624  27.463  32.835  1.00  0.00     0.031 C 
ATOM     51  C   UNL A   1      37.498  30.882  29.712  1.00  0.00     0.029 A 
ATOM     52  C   UNL A   1      37.966  31.460  30.963  1.00  0.00     0.049 A 
ATOM     53  H   UNL A   1      39.488  30.753  32.201  1.00  0.00     0.167 HD
ATOM     54  C   UNL A   1      42.617  29.013  34.772  1.00  0.00     0.037 A 
ATOM     55  C   UNL A   1      37.460  32.568  31.535  1.00  0.00     0.037 A 
ATOM     56  C   UNL A   1      42.128  30.173  35.475  1.00  0.00     0.049 A 
ATOM     57  C   UNL A   1      38.002  32.991  32.869  1.00  0.00     0.074 A 
ATOM     58  C   UNL A   1      42.563  30.699  36.678  1.00  0.00     0.029 A 
ATOM     59  N   UNL A   1      41.101  30.994  35.029  1.00  0.00    -0.354 N 
ATOM     60  N   UNL A   1      38.961  32.444  33.579  1.00  0.00    -0.248 NA
ATOM     61  C   UNL A   1      37.381  34.165  33.490  1.00  0.00     0.031 C 
ATOM     62  C   UNL A   1      41.766  31.807  36.985  1.00  0.00     0.029 A 
ATOM     63  C   UNL A   1      40.872  32.010  35.944  1.00  0.00     0.049 A 
ATOM     64  H   UNL A   1      40.606  30.872  34.186  1.00  0.00     0.167 HD
ATOM     65  C   UNL A   1      39.068  33.217  34.729  1.00  0.00     0.074 A 
ATOM     66  C   UNL A   1      38.097  34.285  34.600  1.00  0.00     0.031 C 
ATOM     67  C   UNL A   1      39.889  33.056  35.798  1.00  0.00     0.037 A 
BRANCH  54  68
ATOM     68  C   UNL A   1      43.704  28.188  35.411  1.00  0.00     0.058 A 
ATOM     69  C   UNL A   1      45.061  28.344  35.088  1.00  0.00     0.135 A 
ATOM     70  C   UNL A   1      43.375  27.231  36.386  1.00  0.00     0.135 A 
ATOM     71  F   UNL A   1      45.435  29.228  34.147  1.00  0.00    -0.206 F 
ATOM     72  C   UNL A   1      46.048  27.565  35.687  1.00  0.00     0.059 A 
ATOM     73  C   UNL A   1      44.347  26.463  37.020  1.00  0.00     0.059 A 
ATOM     74  F   UNL A   1      42.093  27.033  36.733  1.00  0.00    -0.206 F 
ATOM     75  C   UNL A   1      45.680  26.628  36.653  1.00  0.00     0.060 A 
BRANCH  75  76
ATOM     76  S   UNL A   1      46.971  25.628  37.427  1.00  0.00     0.124 S 
ATOM     77  O   UNL A   1      46.267  25.089  38.586  1.00  0.00    -0.237 OA
ATOM     78  O   UNL A   1      47.292  24.667  36.376  1.00  0.00    -0.237 OA
ATOM     79  O   UNL A   1      48.020  26.597  37.725  1.00  0.00    -0.744 OA
ENDBRANCH  75  76
ENDBRANCH  54  68
BRANCH  55  80
ATOM     80  C   UNL A   1      36.349  33.305  30.874  1.00  0.00     0.058 A 
ATOM     81  C   UNL A   1      35.038  33.237  31.364  1.00  0.00     0.135 A 
ATOM     82  C   UNL A   1      36.583  34.118  29.751  1.00  0.00     0.135 A 
ATOM     83  F   UNL A   1      34.757  32.465  32.425  1.00  0.00    -0.206 F 
ATOM     84  C   UNL A   1      33.998  33.941  30.764  1.00  0.00     0.059 A 
ATOM     85  C   UNL A   1      35.568  34.860  29.158  1.00  0.00     0.059 A 
ATOM     86  F   UNL A   1      37.821  34.228  29.244  1.00  0.00    -0.206 F 
ATOM     87  C   UNL A   1      34.276  34.758  29.667  1.00  0.00     0.060 A 
BRANCH  87  88
ATOM     88  S   UNL A   1      32.936  35.725  28.942  1.00  0.00     0.124 S 
ATOM     89  O   UNL A   1      32.154  36.074  30.122  1.00  0.00    -0.237 OA
ATOM     90  O   UNL A   1      33.659  36.822  28.305  1.00  0.00    -0.237 OA
ATOM     91  O   UNL A   1      32.305  34.787  28.018  1.00  0.00    -0.744 OA
ENDBRANCH  87  88
ENDBRANCH  55  80
BRANCH  67  92
ATOM     92  C   UNL A   1      39.779  34.082  36.890  1.00  0.00     0.058 A 
ATOM     93  C   UNL A   1      39.033  33.844  38.056  1.00  0.00     0.135 A 
ATOM     94  C   UNL A   1      40.421  35.324  36.763  1.00  0.00     0.135 A 
ATOM     95  F   UNL A   1      38.395  32.676  38.223  1.00  0.00    -0.206 F 
ATOM     96  C   UNL A   1      38.882  34.823  39.031  1.00  0.00     0.059 A 
ATOM     97  C   UNL A   1      40.312  36.304  37.744  1.00  0.00     0.059 A 
ATOM     98  F   UNL A   1      41.159  35.598  35.675  1.00  0.00    -0.206 F 
ATOM     99  C   UNL A   1      39.520  36.053  38.862  1.00  0.00     0.060 A 
BRANCH  99 100
ATOM    100  S   UNL A   1      39.299  37.323  40.125  1.00  0.00     0.124 S 
ATOM    101  O   UNL A   1      40.681  37.667  40.438  1.00  0.00    -0.237 OA
ATOM    102  O   UNL A   1      38.537  38.343  39.412  1.00  0.00    -0.237 OA
ATOM    103  O   UNL A   1      38.570  36.627  41.181  1.00  0.00    -0.744 OA
ENDBRANCH  99 100
ENDBRANCH  67  92
ENDBRANCH  41  42
ENDBRANCH  34  36
ENDBRANCH  33  34
ENDBRANCH  32  33
ENDBRANCH   1  32
TORSDOF 19
ENDMDL
MODEL 2
REMARK VINA RESULT:     -12.6      6.858     12.377
REMARK SMILES O=C(Cc1ccccc1)Nc1cccc(C(=O)Nc2ccccc2C(=O)OCCOC(=O)c2ccc(-c3c4nc(c(-c5c(F)cc(S(=O)(=O)[O-])cc5F)c5ccc([nH]5)c(-c5c(F)cc(S(=O)(=O)[O-])cc5F)c5nc(c(-c6c(F)cc(S(=O)(=O)[O-])cc6F)c6ccc3[nH]6)C=C5)C=C4)cc2)c1
REMARK SMILES IDX 28 1 27 2 25 3 26 4 24 5 19 6 20 7 21 8 23 9 22 10 18 11
REMARK SMILES IDX 16 12 17 13 15 15 11 16 12 17 99 18 13 19 14 20 10 21 1 22
REMARK SMILES IDX 2 23 3 25 4 26 5 27 9 28 6 29 8 30 7 31 29 32 30 33 31 34
REMARK SMILES IDX 32 35 33 36 34 37 98 38 35 39 97 40 36 41 37 42 38 43 91 44
REMARK SMILES IDX 39 45 96 46 90 47 92 48 40 49 95 50 89 51 88 52 41 54 75 55
REMARK SMILES IDX 54 56 74 57 55 58 58 59 73 60 93 61 56 62 57 63 72 65 94 66
REMARK SMILES IDX 59 67 42 68 43 69 52 70 44 71 45 72 51 73 53 74 46 75 47 76
REMARK SMILES IDX 48 77 49 78 50 79 76 80 77 81 86 82 78 83 79 84 85 85 87 86
REMARK SMILES IDX 80 87 81 88 82 89 83 90 84 91 60 92 61 93 70 94 62 95 63 96
REMARK SMILES IDX 69 97 71 98 64 99 65 100 66 101 67 102 68 103
REMARK H PARENT 18 14 10 24 92 53 58 64
REMARK Flexibility Score: inf
ROOT
ATOM      1  C   UNL A   1      33.352  30.233  27.495  1.00  0.00     0.275 C 
ENDROOT
BRANCH   1   2
ATOM      2  O   UNL A   1      33.122  29.428  26.316  1.00  0.00    -0.458 OA
BRANCH   2   3
ATOM      3  C   UNL A   1      32.225  28.426  26.502  1.00  0.00     0.340 C 
ATOM      4  O   UNL A   1      32.060  27.828  27.549  1.00  0.00    -0.246 OA
BRANCH   3   5
ATOM      5  C   UNL A   1      31.433  28.100  25.291  1.00  0.00     0.083 A 
ATOM      6  C   UNL A   1      30.558  27.011  25.177  1.00  0.00     0.056 A 
ATOM      7  C   UNL A   1      29.873  26.822  23.960  1.00  0.00     0.027 A 
ATOM      8  C   UNL A   1      29.949  27.756  22.924  1.00  0.00     0.002 A 
ATOM      9  C   UNL A   1      31.521  29.014  24.221  1.00  0.00     0.018 A 
ATOM     10  C   UNL A   1      30.768  28.863  23.059  1.00  0.00     0.001 A 
BRANCH   6  11
ATOM     11  N   UNL A   1      30.232  26.072  26.176  1.00  0.00    -0.321 N 
ATOM     12  C   UNL A   1      30.301  24.697  26.235  1.00  0.00     0.255 C 
ATOM     13  O   UNL A   1      29.722  24.121  27.158  1.00  0.00    -0.269 OA
ATOM     14  H   UNL A   1      29.885  26.482  27.001  1.00  0.00     0.170 HD
BRANCH  12  15
ATOM     15  C   UNL A   1      31.098  23.882  25.279  1.00  0.00     0.042 A 
ATOM     16  C   UNL A   1      33.162  22.815  24.590  1.00  0.00     0.041 A 
ATOM     17  C   UNL A   1      32.646  22.696  23.291  1.00  0.00     0.026 A 
ATOM     18  C   UNL A   1      32.344  23.326  25.602  1.00  0.00     0.040 A 
ATOM     19  C   UNL A   1      31.350  23.119  22.995  1.00  0.00     0.003 A 
ATOM     20  C   UNL A   1      30.582  23.726  23.985  1.00  0.00     0.014 A 
BRANCH  16  21
ATOM     21  N   UNL A   1      34.543  22.574  24.748  1.00  0.00    -0.326 N 
ATOM     22  O   UNL A   1      35.484  23.621  22.902  1.00  0.00    -0.274 OA
ATOM     23  C   UNL A   1      35.565  22.849  23.855  1.00  0.00     0.228 C 
ATOM     24  H   UNL A   1      34.814  22.161  25.599  1.00  0.00     0.169 HD
BRANCH  23  25
ATOM     25  C   UNL A   1      36.808  21.981  24.048  1.00  0.00     0.135 C 
BRANCH  25  26
ATOM     26  C   UNL A   1      37.755  22.426  25.138  1.00  0.00    -0.039 A 
ATOM     27  C   UNL A   1      37.663  23.722  25.665  1.00  0.00     0.004 A 
ATOM     28  C   UNL A   1      38.743  21.560  25.634  1.00  0.00     0.004 A 
ATOM     29  C   UNL A   1      38.532  24.136  26.676  1.00  0.00     0.000 A 
ATOM     30  C   UNL A   1      39.589  21.968  26.667  1.00  0.00     0.000 A 
ATOM     31  C   UNL A   1      39.484  23.256  27.185  1.00  0.00     0.000 A 
ENDBRANCH  25  26
ENDBRANCH  23  25
ENDBRANCH  16  21
ENDBRANCH  12  15
ENDBRANCH   6  11
ENDBRANCH   3   5
ENDBRANCH   2   3
ENDBRANCH   1   2
BRANCH   1  32
ATOM     32  C   UNL A   1      34.816  30.630  27.709  1.00  0.00     0.275 C 
BRANCH  32  33
ATOM     33  O   UNL A   1      35.626  29.513  28.121  1.00  0.00    -0.458 OA
BRANCH  33  34
ATOM     34  C   UNL A   1      36.262  29.691  29.298  1.00  0.00     0.338 C 
ATOM     35  O   UNL A   1      35.760  29.679  30.413  1.00  0.00    -0.246 OA
BRANCH  34  36
ATOM     36  C   UNL A   1      37.715  29.817  29.115  1.00  0.00     0.060 A 
ATOM     37  C   UNL A   1      38.204  29.719  27.821  1.00  0.00     0.016 A 
ATOM     38  C   UNL A   1      38.593  29.731  30.190  1.00  0.00     0.016 A 
ATOM     39  C   UNL A   1      39.513  29.350  27.583  1.00  0.00     0.010 A 
ATOM     40  C   UNL A   1      39.958  29.517  29.943  1.00  0.00     0.010 A 
ATOM     41  C   UNL A   1      40.420  29.267  28.636  1.00  0.00    -0.014 A 
BRANCH  41  42
ATOM     42  C   UNL A   1      41.817  28.860  28.337  1.00  0.00     0.031 A 
ATOM     43  C   UNL A   1      42.935  29.862  28.451  1.00  0.00     0.074 A 
ATOM     44  C   UNL A   1      42.090  27.570  28.047  1.00  0.00     0.049 A 
ATOM     45  N   UNL A   1      44.190  29.741  28.105  1.00  0.00    -0.248 NA
ATOM     46  C   UNL A   1      42.596  31.180  29.016  1.00  0.00     0.031 C 
ATOM     47  C   UNL A   1      41.101  26.486  27.985  1.00  0.00     0.029 A 
ATOM     48  N   UNL A   1      43.277  26.939  27.778  1.00  0.00    -0.354 N 
ATOM     49  C   UNL A   1      44.772  30.981  28.343  1.00  0.00     0.074 A 
ATOM     50  C   UNL A   1      43.733  31.842  28.863  1.00  0.00     0.031 C 
ATOM     51  C   UNL A   1      41.728  25.325  27.761  1.00  0.00     0.029 A 
ATOM     52  C   UNL A   1      43.141  25.593  27.534  1.00  0.00     0.049 A 
ATOM     53  H   UNL A   1      44.145  27.407  27.761  1.00  0.00     0.167 HD
ATOM     54  C   UNL A   1      46.056  31.361  28.136  1.00  0.00     0.037 A 
ATOM     55  C   UNL A   1      44.039  24.682  27.116  1.00  0.00     0.037 A 
ATOM     56  C   UNL A   1      47.086  30.467  27.668  1.00  0.00     0.049 A 
ATOM     57  C   UNL A   1      45.444  25.138  26.853  1.00  0.00     0.074 A 
ATOM     58  C   UNL A   1      48.421  30.739  27.430  1.00  0.00     0.029 A 
ATOM     59  N   UNL A   1      46.895  29.122  27.378  1.00  0.00    -0.354 N 
ATOM     60  N   UNL A   1      45.966  26.332  27.011  1.00  0.00    -0.248 NA
ATOM     61  C   UNL A   1      46.378  24.131  26.337  1.00  0.00     0.031 C 
ATOM     62  C   UNL A   1      49.026  29.573  26.948  1.00  0.00     0.029 A 
ATOM     63  C   UNL A   1      48.083  28.556  26.942  1.00  0.00     0.049 A 
ATOM     64  H   UNL A   1      46.041  28.641  27.468  1.00  0.00     0.167 HD
ATOM     65  C   UNL A   1      47.296  26.219  26.623  1.00  0.00     0.074 A 
ATOM     66  C   UNL A   1      47.501  24.831  26.256  1.00  0.00     0.031 C 
ATOM     67  C   UNL A   1      48.259  27.174  26.569  1.00  0.00     0.037 A 
BRANCH  54  68
ATOM     68  C   UNL A   1      46.405  32.810  28.357  1.00  0.00     0.058 A 
ATOM     69  C   UNL A   1      46.293  33.777  27.347  1.00  0.00     0.135 A 
ATOM     70  C   UNL A   1      46.841  33.239  29.622  1.00  0.00     0.135 A 
ATOM     71  F   UNL A   1      45.902  33.423  26.111  1.00  0.00    -0.206 F 
ATOM     72  C   UNL A   1      46.627  35.110  27.574  1.00  0.00     0.059 A 
ATOM     73  C   UNL A   1      47.151  34.571  29.880  1.00  0.00     0.059 A 
ATOM     74  F   UNL A   1      46.972  32.358  30.628  1.00  0.00    -0.206 F 
ATOM     75  C   UNL A   1      47.055  35.497  28.844  1.00  0.00     0.060 A 
BRANCH  75  76
ATOM     76  S   UNL A   1      47.479  37.230  29.126  1.00  0.00     0.124 S 
ATOM     77  O   UNL A   1      46.207  37.891  28.847  1.00  0.00    -0.237 OA
ATOM     78  O   UNL A   1      47.897  37.225  30.524  1.00  0.00    -0.237 OA
ATOM     79  O   UNL A   1      48.542  37.483  28.159  1.00  0.00    -0.744 OA
ENDBRANCH  75  76
ENDBRANCH  54  68
BRANCH  55  80
ATOM     80  C   UNL A   1      43.614  23.278  26.867  1.00  0.00     0.058 A 
ATOM     81  C   UNL A   1      43.456  22.786  25.564  1.00  0.00     0.135 A 
ATOM     82  C   UNL A   1      43.382  22.389  27.931  1.00  0.00     0.135 A 
ATOM     83  F   UNL A   1      43.652  23.596  24.512  1.00  0.00    -0.206 F 
ATOM     84  C   UNL A   1      43.080  21.468  25.323  1.00  0.00     0.059 A 
ATOM     85  C   UNL A   1      43.042  21.058  27.715  1.00  0.00     0.059 A 
ATOM     86  F   UNL A   1      43.526  22.803  29.200  1.00  0.00    -0.206 F 
ATOM     87  C   UNL A   1      42.885  20.609  26.406  1.00  0.00     0.060 A 
BRANCH  87  88
ATOM     88  S   UNL A   1      42.471  18.883  26.083  1.00  0.00     0.124 S 
ATOM     89  O   UNL A   1      43.435  18.538  25.045  1.00  0.00    -0.237 OA
ATOM     90  O   UNL A   1      42.687  18.265  27.388  1.00  0.00    -0.237 OA
ATOM     91  O   UNL A   1      41.075  18.945  25.656  1.00  0.00    -0.744 OA
ENDBRANCH  87  88
ENDBRANCH  55  80
BRANCH  67  92
ATOM     92  C   UNL A   1      49.622  26.728  26.121  1.00  0.00     0.058 A 
ATOM     93  C   UNL A   1      50.484  26.018  26.973  1.00  0.00     0.135 A 
ATOM     94  C   UNL A   1      50.074  27.021  24.825  1.00  0.00     0.135 A 
ATOM     95  F   UNL A   1      50.102  25.717  28.224  1.00  0.00    -0.206 F 
ATOM     96  C   UNL A   1      51.768  25.666  26.574  1.00  0.00     0.059 A 
ATOM     97  C   UNL A   1      51.342  26.647  24.393  1.00  0.00     0.059 A 
ATOM     98  F   UNL A   1      49.284  27.684  23.965  1.00  0.00    -0.206 F 
ATOM     99  C   UNL A   1      52.190  25.991  25.283  1.00  0.00     0.060 A 
BRANCH  99 100
ATOM    100  S   UNL A   1      53.866  25.548  24.784  1.00  0.00     0.124 S 
ATOM    101  O   UNL A   1      54.666  26.384  25.671  1.00  0.00    -0.237 OA
ATOM    102  O   UNL A   1      53.905  24.115  25.056  1.00  0.00    -0.237 OA
ATOM    103  O   UNL A   1      53.907  25.912  23.371  1.00  0.00    -0.744 OA
ENDBRANCH  99 100
ENDBRANCH  67  92
ENDBRANCH  41  42
ENDBRANCH  34  36
ENDBRANCH  33  34
ENDBRANCH  32  33
ENDBRANCH   1  32
TORSDOF 19
ENDMDL
MODEL 3
REMARK VINA RESULT:     -12.5      1.731      2.634
REMARK SMILES O=C(Cc1ccccc1)Nc1cccc(C(=O)Nc2ccccc2C(=O)OCCOC(=O)c2ccc(-c3c4nc(c(-c5c(F)cc(S(=O)(=O)[O-])cc5F)c5ccc([nH]5)c(-c5c(F)cc(S(=O)(=O)[O-])cc5F)c5nc(c(-c6c(F)cc(S(=O)(=O)[O-])cc6F)c6ccc3[nH]6)C=C5)C=C4)cc2)c1
REMARK SMILES IDX 28 1 27 2 25 3 26 4 24 5 19 6 20 7 21 8 23 9 22 10 18 11
REMARK SMILES IDX 16 12 17 13 15 15 11 16 12 17 99 18 13 19 14 20 10 21 1 22
REMARK SMILES IDX 2 23 3 25 4 26 5 27 9 28 6 29 8 30 7 31 29 32 30 33 31 34
REMARK SMILES IDX 32 35 33 36 34 37 98 38 35 39 97 40 36 41 37 42 38 43 91 44
REMARK SMILES IDX 39 45 96 46 90 47 92 48 40 49 95 50 89 51 88 52 41 54 75 55
REMARK SMILES IDX 54 56 74 57 55 58 58 59 73 60 93 61 56 62 57 63 72 65 94 66
REMARK SMILES IDX 59 67 42 68 43 69 52 70 44 71 45 72 51 73 53 74 46 75 47 76
REMARK SMILES IDX 48 77 49 78 50 79 76 80 77 81 86 82 78 83 79 84 85 85 87 86
REMARK SMILES IDX 80 87 81 88 82 89 83 90 84 91 60 92 61 93 70 94 62 95 63 96
REMARK SMILES IDX 69 97 71 98 64 99 65 100 66 101 67 102 68 103
REMARK H PARENT 18 14 10 24 92 53 58 64
REMARK Flexibility Score: inf
ROOT
ATOM      1  C   UNL A   1      37.639  22.587  25.463  1.00  0.00     0.275 C 
ENDROOT
BRANCH   1   2
ATOM      2  O   UNL A   1      36.370  22.418  26.136  1.00  0.00    -0.458 OA
BRANCH   2   3
ATOM      3  C   UNL A   1      35.361  23.149  25.596  1.00  0.00     0.340 C 
ATOM      4  O   UNL A   1      35.281  24.363  25.644  1.00  0.00    -0.246 OA
BRANCH   3   5
ATOM      5  C   UNL A   1      34.325  22.330  24.922  1.00  0.00     0.083 A 
ATOM      6  C   UNL A   1      33.746  22.636  23.682  1.00  0.00     0.056 A 
ATOM      7  C   UNL A   1      32.767  21.765  23.164  1.00  0.00     0.027 A 
ATOM      8  C   UNL A   1      32.458  20.554  23.788  1.00  0.00     0.002 A 
ATOM      9  C   UNL A   1      33.977  21.118  25.552  1.00  0.00     0.018 A 
ATOM     10  C   UNL A   1      33.075  20.224  24.982  1.00  0.00     0.001 A 
BRANCH   6  11
ATOM     11  N   UNL A   1      34.060  23.721  22.840  1.00  0.00    -0.321 N 
ATOM     12  C   UNL A   1      33.361  24.840  22.444  1.00  0.00     0.255 C 
ATOM     13  O   UNL A   1      33.803  25.504  21.505  1.00  0.00    -0.269 OA
ATOM     14  H   UNL A   1      34.965  23.669  22.456  1.00  0.00     0.170 HD
BRANCH  12  15
ATOM     15  C   UNL A   1      32.137  25.321  23.140  1.00  0.00     0.042 A 
ATOM     16  C   UNL A   1      31.028  26.699  24.796  1.00  0.00     0.041 A 
ATOM     17  C   UNL A   1      29.883  25.899  24.670  1.00  0.00     0.026 A 
ATOM     18  C   UNL A   1      32.121  26.460  23.958  1.00  0.00     0.040 A 
ATOM     19  C   UNL A   1      29.843  24.849  23.752  1.00  0.00     0.003 A 
ATOM     20  C   UNL A   1      30.974  24.550  22.998  1.00  0.00     0.014 A 
BRANCH  16  21
ATOM     21  N   UNL A   1      31.064  27.585  25.894  1.00  0.00    -0.326 N 
ATOM     22  O   UNL A   1      31.725  29.595  24.938  1.00  0.00    -0.274 OA
ATOM     23  C   UNL A   1      31.536  28.887  25.924  1.00  0.00     0.228 C 
ATOM     24  H   UNL A   1      30.710  27.235  26.742  1.00  0.00     0.169 HD
BRANCH  23  25
ATOM     25  C   UNL A   1      31.969  29.357  27.313  1.00  0.00     0.135 C 
BRANCH  25  26
ATOM     26  C   UNL A   1      33.364  29.927  27.406  1.00  0.00    -0.039 A 
ATOM     27  C   UNL A   1      33.553  31.298  27.633  1.00  0.00     0.004 A 
ATOM     28  C   UNL A   1      34.492  29.103  27.259  1.00  0.00     0.004 A 
ATOM     29  C   UNL A   1      34.841  31.828  27.725  1.00  0.00     0.000 A 
ATOM     30  C   UNL A   1      35.778  29.632  27.383  1.00  0.00     0.000 A 
ATOM     31  C   UNL A   1      35.951  30.994  27.614  1.00  0.00     0.000 A 
ENDBRANCH  25  26
ENDBRANCH  23  25
ENDBRANCH  16  21
ENDBRANCH  12  15
ENDBRANCH   6  11
ENDBRANCH   3   5
ENDBRANCH   2   3
ENDBRANCH   1   2
BRANCH   1  32
ATOM     32  C   UNL A   1      38.780  23.045  26.377  1.00  0.00     0.275 C 
BRANCH  32  33
ATOM     33  O   UNL A   1      38.778  24.471  26.574  1.00  0.00    -0.458 OA
BRANCH  33  34
ATOM     34  C   UNL A   1      40.003  25.039  26.534  1.00  0.00     0.338 C 
ATOM     35  O   UNL A   1      40.762  25.080  25.576  1.00  0.00    -0.246 OA
BRANCH  34  36
ATOM     36  C   UNL A   1      40.323  25.727  27.793  1.00  0.00     0.060 A 
ATOM     37  C   UNL A   1      39.323  25.795  28.752  1.00  0.00     0.016 A 
ATOM     38  C   UNL A   1      41.449  26.532  27.915  1.00  0.00     0.016 A 
ATOM     39  C   UNL A   1      39.335  26.780  29.719  1.00  0.00     0.010 A 
ATOM     40  C   UNL A   1      41.539  27.424  28.996  1.00  0.00     0.010 A 
ATOM     41  C   UNL A   1      40.453  27.596  29.875  1.00  0.00    -0.014 A 
BRANCH  41  42
ATOM     42  C   UNL A   1      40.421  28.648  30.925  1.00  0.00     0.031 A 
ATOM     43  C   UNL A   1      41.435  28.632  32.037  1.00  0.00     0.074 A 
ATOM     44  C   UNL A   1      39.536  29.662  30.827  1.00  0.00     0.049 A 
ATOM     45  N   UNL A   1      41.491  29.374  33.113  1.00  0.00    -0.248 NA
ATOM     46  C   UNL A   1      42.522  27.644  31.937  1.00  0.00     0.031 C 
ATOM     47  C   UNL A   1      38.554  29.832  29.749  1.00  0.00     0.029 A 
ATOM     48  N   UNL A   1      39.333  30.759  31.625  1.00  0.00    -0.354 N 
ATOM     49  C   UNL A   1      42.571  28.899  33.847  1.00  0.00     0.074 A 
ATOM     50  C   UNL A   1      43.144  27.804  33.096  1.00  0.00     0.031 C 
ATOM     51  C   UNL A   1      37.902  30.989  29.920  1.00  0.00     0.029 A 
ATOM     52  C   UNL A   1      38.323  31.581  31.181  1.00  0.00     0.049 A 
ATOM     53  H   UNL A   1      39.859  30.940  32.437  1.00  0.00     0.167 HD
ATOM     54  C   UNL A   1      43.033  29.338  35.043  1.00  0.00     0.037 A 
ATOM     55  C   UNL A   1      37.754  32.658  31.752  1.00  0.00     0.037 A 
ATOM     56  C   UNL A   1      42.477  30.467  35.746  1.00  0.00     0.049 A 
ATOM     57  C   UNL A   1      38.255  33.098  33.097  1.00  0.00     0.074 A 
ATOM     58  C   UNL A   1      42.868  31.006  36.959  1.00  0.00     0.029 A 
ATOM     59  N   UNL A   1      41.417  31.241  35.290  1.00  0.00    -0.354 N 
ATOM     60  N   UNL A   1      39.230  32.594  33.818  1.00  0.00    -0.248 NA
ATOM     61  C   UNL A   1      37.569  34.236  33.716  1.00  0.00     0.031 C 
ATOM     62  C   UNL A   1      42.013  32.072  37.261  1.00  0.00     0.029 A 
ATOM     63  C   UNL A   1      41.126  32.237  36.208  1.00  0.00     0.049 A 
ATOM     64  H   UNL A   1      40.941  31.100  34.439  1.00  0.00     0.167 HD
ATOM     65  C   UNL A   1      39.282  33.363  34.974  1.00  0.00     0.074 A 
ATOM     66  C   UNL A   1      38.261  34.383  34.838  1.00  0.00     0.031 C 
ATOM     67  C   UNL A   1      40.095  33.235  36.054  1.00  0.00     0.037 A 
BRANCH  54  68
ATOM     68  C   UNL A   1      44.150  28.563  35.692  1.00  0.00     0.058 A 
ATOM     69  C   UNL A   1      43.918  27.506  36.586  1.00  0.00     0.135 A 
ATOM     70  C   UNL A   1      45.486  28.878  35.391  1.00  0.00     0.135 A 
ATOM     71  F   UNL A   1      42.663  27.173  36.929  1.00  0.00    -0.206 F 
ATOM     72  C   UNL A   1      44.968  26.809  37.178  1.00  0.00     0.059 A 
ATOM     73  C   UNL A   1      46.551  28.175  35.948  1.00  0.00     0.059 A 
ATOM     74  F   UNL A   1      45.771  29.883  34.547  1.00  0.00    -0.206 F 
ATOM     75  C   UNL A   1      46.281  27.150  36.852  1.00  0.00     0.060 A 
BRANCH  75  76
ATOM     76  S   UNL A   1      47.633  26.233  37.623  1.00  0.00     0.124 S 
ATOM     77  O   UNL A   1      46.906  25.189  38.338  1.00  0.00    -0.237 OA
ATOM     78  O   UNL A   1      48.406  25.789  36.467  1.00  0.00    -0.237 OA
ATOM     79  O   UNL A   1      48.287  27.231  38.464  1.00  0.00    -0.744 OA
ENDBRANCH  75  76
ENDBRANCH  54  68
BRANCH  55  80
ATOM     80  C   UNL A   1      36.618  33.345  31.080  1.00  0.00     0.058 A 
ATOM     81  C   UNL A   1      35.305  33.206  31.548  1.00  0.00     0.135 A 
ATOM     82  C   UNL A   1      36.829  34.179  29.968  1.00  0.00     0.135 A 
ATOM     83  F   UNL A   1      35.046  32.411  32.598  1.00  0.00    -0.206 F 
ATOM     84  C   UNL A   1      34.240  33.862  30.937  1.00  0.00     0.059 A 
ATOM     85  C   UNL A   1      35.787  34.874  29.364  1.00  0.00     0.059 A 
ATOM     86  F   UNL A   1      38.068  34.356  29.481  1.00  0.00    -0.206 F 
ATOM     87  C   UNL A   1      34.493  34.703  29.852  1.00  0.00     0.060 A 
BRANCH  87  88
ATOM     88  S   UNL A   1      33.118  35.607  29.113  1.00  0.00     0.124 S 
ATOM     89  O   UNL A   1      32.467  34.564  28.330  1.00  0.00    -0.237 OA
ATOM     90  O   UNL A   1      32.390  36.074  30.289  1.00  0.00    -0.237 OA
ATOM     91  O   UNL A   1      33.780  36.657  28.343  1.00  0.00    -0.744 OA
ENDBRANCH  87  88
ENDBRANCH  55  80
BRANCH  67  92
ATOM     92  C   UNL A   1      39.918  34.247  37.150  1.00  0.00     0.058 A 
ATOM     93  C   UNL A   1      39.093  33.999  38.260  1.00  0.00     0.135 A 
ATOM     94  C   UNL A   1      40.576  35.485  37.085  1.00  0.00     0.135 A 
ATOM     95  F   UNL A   1      38.437  32.833  38.367  1.00  0.00    -0.206 F 
ATOM     96  C   UNL A   1      38.883  34.965  39.237  1.00  0.00     0.059 A 
ATOM     97  C   UNL A   1      40.408  36.452  38.071  1.00  0.00     0.059 A 
ATOM     98  F   UNL A   1      41.388  35.768  36.054  1.00  0.00    -0.206 F 
ATOM     99  C   UNL A   1      39.540  36.192  39.129  1.00  0.00     0.060 A 
BRANCH  99 100
ATOM    100  S   UNL A   1      39.243  37.446  40.392  1.00  0.00     0.124 S 
ATOM    101  O   UNL A   1      40.568  38.039  40.533  1.00  0.00    -0.237 OA
ATOM    102  O   UNL A   1      38.233  38.291  39.763  1.00  0.00    -0.237 OA
ATOM    103  O   UNL A   1      38.778  36.670  41.538  1.00  0.00    -0.744 OA
ENDBRANCH  99 100
ENDBRANCH  67  92
ENDBRANCH  41  42
ENDBRANCH  34  36
ENDBRANCH  33  34
ENDBRANCH  32  33
ENDBRANCH   1  32
TORSDOF 19
ENDMDL
