MODEL 1
REMARK VINA RESULT:     -11.6      0.000      0.000
REMARK SMILES C[C@H](NC(=O)N1CC[C@@H](C(=O)OCCOC(=O)c2ccc(-c3c4nc(c(-c5c(F)cc(S(=O)(=O)[O-])cc5F)c5ccc([nH]5)c(-c5c(F)cc(S(=O)(=O)[O-])cc5F)c5nc(c(-c6c(F)cc(S(=O)(=O)[O-])cc6F)c6ccc3[nH]6)C=C5)C=C4)cc2)[C@H]1C)c1ccc(Cl)cc1
REMARK SMILES IDX 13 1 12 2 10 3 11 4 9 5 6 6 7 7 84 8 8 9 85 10 4 11 3 12
REMARK SMILES IDX 5 14 2 15 1 16 86 17 87 18 92 19 88 20 91 21 89 22 90 23
REMARK SMILES IDX 14 24 15 25 16 26 17 27 18 28 19 29 83 30 20 31 82 32 21 33
REMARK SMILES IDX 22 34 23 35 76 36 24 37 81 38 75 39 77 40 25 41 80 42 74 43
REMARK SMILES IDX 73 44 26 46 60 47 39 48 59 49 40 50 43 51 58 52 78 53 41 54
REMARK SMILES IDX 42 55 57 57 79 58 44 59 27 60 28 61 37 62 29 63 30 64 36 65
REMARK SMILES IDX 38 66 31 67 32 68 33 69 34 70 35 71 61 72 62 73 71 74 63 75
REMARK SMILES IDX 64 76 70 77 72 78 65 79 66 80 67 81 68 82 69 83 45 84 46 85
REMARK SMILES IDX 55 86 47 87 48 88 54 89 56 90 49 91 50 92 51 93 52 94 53 95
REMARK H PARENT 3 13 77 45 43 56
REMARK Flexibility Score: inf
ROOT
ATOM      1  C   UNL A   1      33.613  29.664  26.335  1.00  0.00     0.274 C 
ENDROOT
BRANCH   1   2
ATOM      2  O   UNL A   1      32.184  29.454  26.350  1.00  0.00    -0.462 OA
BRANCH   2   3
ATOM      3  C   UNL A   1      31.773  28.203  26.672  1.00  0.00     0.311 C 
ATOM      4  O   UNL A   1      31.599  27.807  27.819  1.00  0.00    -0.252 OA
BRANCH   3   5
ATOM      5  C   UNL A   1      31.554  27.306  25.475  1.00  0.00     0.123 C 
ATOM      6  N   UNL A   1      32.203  25.361  24.259  1.00  0.00    -0.321 N 
ATOM      7  C   UNL A   1      30.770  25.331  24.488  1.00  0.00     0.122 C 
ATOM      8  C   UNL A   1      32.753  26.642  24.754  1.00  0.00     0.098 C 
ATOM      9  C   UNL A   1      30.593  26.156  25.746  1.00  0.00     0.039 C 
ATOM     10  C   UNL A   1      34.031  26.463  25.557  1.00  0.00     0.032 C 
BRANCH   6  11
ATOM     11  C   UNL A   1      32.679  24.797  23.101  1.00  0.00     0.318 C 
ATOM     12  N   UNL A   1      33.477  23.705  23.231  1.00  0.00    -0.331 N 
ATOM     13  H   UNL A   1      34.024  23.465  22.448  1.00  0.00     0.165 HD
ATOM     14  O   UNL A   1      32.351  25.178  21.981  1.00  0.00    -0.249 OA
BRANCH  12  15
ATOM     15  C   UNL A   1      33.610  22.852  24.400  1.00  0.00     0.111 C 
ATOM     16  C   UNL A   1      32.894  21.516  24.207  1.00  0.00     0.036 C 
BRANCH  15  17
ATOM     17  C   UNL A   1      35.048  22.671  24.856  1.00  0.00    -0.026 A 
ATOM     18  C   UNL A   1      35.612  21.383  24.804  1.00  0.00     0.007 A 
ATOM     19  C   UNL A   1      35.851  23.731  25.309  1.00  0.00     0.007 A 
ATOM     20  C   UNL A   1      36.933  21.156  25.196  1.00  0.00     0.021 A 
ATOM     21  C   UNL A   1      37.171  23.502  25.712  1.00  0.00     0.021 A 
ATOM     22  C   UNL A   1      37.708  22.218  25.649  1.00  0.00     0.041 A 
ATOM     23  Cl  UNL A   1      39.338  21.942  26.124  1.00  0.00    -0.084 Cl
ENDBRANCH  15  17
ENDBRANCH  12  15
ENDBRANCH   6  11
ENDBRANCH   3   5
ENDBRANCH   2   3
ENDBRANCH   1   2
BRANCH   1  24
ATOM     24  C   UNL A   1      34.071  30.318  27.645  1.00  0.00     0.275 C 
BRANCH  24  25
ATOM     25  O   UNL A   1      35.272  29.674  28.110  1.00  0.00    -0.458 OA
BRANCH  25  26
ATOM     26  C   UNL A   1      36.021  30.343  29.015  1.00  0.00     0.338 C 
ATOM     27  O   UNL A   1      35.645  31.134  29.859  1.00  0.00    -0.246 OA
BRANCH  26  28
ATOM     28  C   UNL A   1      37.421  29.927  28.848  1.00  0.00     0.060 A 
ATOM     29  C   UNL A   1      37.934  29.717  27.565  1.00  0.00     0.016 A 
ATOM     30  C   UNL A   1      38.214  29.717  29.973  1.00  0.00     0.016 A 
ATOM     31  C   UNL A   1      39.255  29.311  27.400  1.00  0.00     0.010 A 
ATOM     32  C   UNL A   1      39.546  29.332  29.806  1.00  0.00     0.010 A 
ATOM     33  C   UNL A   1      40.074  29.128  28.519  1.00  0.00    -0.014 A 
BRANCH  33  34
ATOM     34  C   UNL A   1      41.484  28.710  28.351  1.00  0.00     0.031 A 
ATOM     35  C   UNL A   1      42.578  29.733  28.431  1.00  0.00     0.074 A 
ATOM     36  C   UNL A   1      41.772  27.417  28.111  1.00  0.00     0.049 A 
ATOM     37  N   UNL A   1      43.854  29.600  28.179  1.00  0.00    -0.248 NA
ATOM     38  C   UNL A   1      42.182  31.088  28.846  1.00  0.00     0.031 C 
ATOM     39  C   UNL A   1      40.791  26.331  28.053  1.00  0.00     0.029 A 
ATOM     40  N   UNL A   1      42.970  26.798  27.861  1.00  0.00    -0.354 N 
ATOM     41  C   UNL A   1      44.412  30.857  28.377  1.00  0.00     0.074 A 
ATOM     42  C   UNL A   1      43.332  31.742  28.763  1.00  0.00     0.031 C 
ATOM     43  C   UNL A   1      41.427  25.180  27.782  1.00  0.00     0.029 A 
ATOM     44  C   UNL A   1      42.848  25.455  27.594  1.00  0.00     0.049 A 
ATOM     45  H   UNL A   1      43.834  27.269  27.872  1.00  0.00     0.167 HD
ATOM     46  C   UNL A   1      45.706  31.234  28.246  1.00  0.00     0.037 A 
ATOM     47  C   UNL A   1      43.774  24.556  27.208  1.00  0.00     0.037 A 
ATOM     48  C   UNL A   1      46.770  30.338  27.876  1.00  0.00     0.049 A 
ATOM     49  C   UNL A   1      45.197  25.007  27.025  1.00  0.00     0.074 A 
ATOM     50  C   UNL A   1      48.117  30.614  27.724  1.00  0.00     0.029 A 
ATOM     51  N   UNL A   1      46.606  28.988  27.597  1.00  0.00    -0.354 N 
ATOM     52  N   UNL A   1      45.709  26.202  27.197  1.00  0.00    -0.248 NA
ATOM     53  C   UNL A   1      46.165  23.994  26.586  1.00  0.00     0.031 C 
ATOM     54  C   UNL A   1      48.762  29.440  27.319  1.00  0.00     0.029 A 
ATOM     55  C   UNL A   1      47.824  28.422  27.257  1.00  0.00     0.049 A 
ATOM     56  H   UNL A   1      45.750  28.503  27.636  1.00  0.00     0.167 HD
ATOM     57  C   UNL A   1      47.061  26.084  26.899  1.00  0.00     0.074 A 
ATOM     58  C   UNL A   1      47.289  24.696  26.549  1.00  0.00     0.031 C 
ATOM     59  C   UNL A   1      48.026  27.037  26.908  1.00  0.00     0.037 A 
BRANCH  46  60
ATOM     60  C   UNL A   1      46.030  32.684  28.471  1.00  0.00     0.058 A 
ATOM     61  C   UNL A   1      46.461  33.163  29.717  1.00  0.00     0.135 A 
ATOM     62  C   UNL A   1      45.920  33.605  27.417  1.00  0.00     0.135 A 
ATOM     63  F   UNL A   1      46.565  32.328  30.763  1.00  0.00    -0.206 F 
ATOM     64  C   UNL A   1      46.745  34.510  29.920  1.00  0.00     0.059 A 
ATOM     65  C   UNL A   1      46.220  34.953  27.590  1.00  0.00     0.059 A 
ATOM     66  F   UNL A   1      45.510  33.200  26.204  1.00  0.00    -0.206 F 
ATOM     67  C   UNL A   1      46.616  35.399  28.849  1.00  0.00     0.060 A 
BRANCH  67  68
ATOM     68  S   UNL A   1      46.978  37.146  29.125  1.00  0.00     0.124 S 
ATOM     69  O   UNL A   1      47.319  37.152  30.545  1.00  0.00    -0.237 OA
ATOM     70  O   UNL A   1      48.087  37.388  28.207  1.00  0.00    -0.237 OA
ATOM     71  O   UNL A   1      45.727  37.811  28.779  1.00  0.00    -0.744 OA
ENDBRANCH  67  68
ENDBRANCH  46  60
BRANCH  47  72
ATOM     72  C   UNL A   1      43.372  23.149  26.942  1.00  0.00     0.058 A 
ATOM     73  C   UNL A   1      43.367  22.632  25.639  1.00  0.00     0.135 A 
ATOM     74  C   UNL A   1      43.015  22.286  27.991  1.00  0.00     0.135 A 
ATOM     75  F   UNL A   1      43.690  23.420  24.603  1.00  0.00    -0.206 F 
ATOM     76  C   UNL A   1      43.019  21.309  25.383  1.00  0.00     0.059 A 
ATOM     77  C   UNL A   1      42.687  20.954  27.762  1.00  0.00     0.059 A 
ATOM     78  F   UNL A   1      43.014  22.731  29.257  1.00  0.00    -0.206 F 
ATOM     79  C   UNL A   1      42.686  20.475  26.453  1.00  0.00     0.060 A 
BRANCH  79  80
ATOM     80  S   UNL A   1      42.304  18.742  26.119  1.00  0.00     0.124 S 
ATOM     81  O   UNL A   1      42.615  18.121  27.402  1.00  0.00    -0.237 OA
ATOM     82  O   UNL A   1      40.889  18.798  25.763  1.00  0.00    -0.237 OA
ATOM     83  O   UNL A   1      43.204  18.407  25.019  1.00  0.00    -0.744 OA
ENDBRANCH  79  80
ENDBRANCH  47  72
BRANCH  59  84
ATOM     84  C   UNL A   1      49.418  26.605  26.548  1.00  0.00     0.058 A 
ATOM     85  C   UNL A   1      50.288  26.063  27.506  1.00  0.00     0.135 A 
ATOM     86  C   UNL A   1      49.870  26.692  25.221  1.00  0.00     0.135 A 
ATOM     87  F   UNL A   1      49.904  25.966  28.789  1.00  0.00    -0.206 F 
ATOM     88  C   UNL A   1      51.568  25.640  27.166  1.00  0.00     0.059 A 
ATOM     89  C   UNL A   1      51.139  26.255  24.854  1.00  0.00     0.059 A 
ATOM     90  F   UNL A   1      49.072  27.195  24.266  1.00  0.00    -0.206 F 
ATOM     91  C   UNL A   1      51.984  25.741  25.837  1.00  0.00     0.060 A 
BRANCH  91  92
ATOM     92  S   UNL A   1      53.638  25.161  25.399  1.00  0.00     0.124 S 
ATOM     93  O   UNL A   1      53.837  25.795  24.100  1.00  0.00    -0.237 OA
ATOM     94  O   UNL A   1      54.455  25.681  26.491  1.00  0.00    -0.237 OA
ATOM     95  O   UNL A   1      53.491  23.708  25.374  1.00  0.00    -0.744 OA
ENDBRANCH  91  92
ENDBRANCH  59  84
ENDBRANCH  33  34
ENDBRANCH  26  28
ENDBRANCH  25  26
ENDBRANCH  24  25
ENDBRANCH   1  24
TORSDOF 17
ENDMDL
MODEL 2
REMARK VINA RESULT:     -11.5      6.792     12.072
REMARK SMILES C[C@H](NC(=O)N1CC[C@@H](C(=O)OCCOC(=O)c2ccc(-c3c4nc(c(-c5c(F)cc(S(=O)(=O)[O-])cc5F)c5ccc([nH]5)c(-c5c(F)cc(S(=O)(=O)[O-])cc5F)c5nc(c(-c6c(F)cc(S(=O)(=O)[O-])cc6F)c6ccc3[nH]6)C=C5)C=C4)cc2)[C@H]1C)c1ccc(Cl)cc1
REMARK SMILES IDX 13 1 12 2 10 3 11 4 9 5 6 6 7 7 84 8 8 9 85 10 4 11 3 12
REMARK SMILES IDX 5 14 2 15 1 16 86 17 87 18 92 19 88 20 91 21 89 22 90 23
REMARK SMILES IDX 14 24 15 25 16 26 17 27 18 28 19 29 83 30 20 31 82 32 21 33
REMARK SMILES IDX 22 34 23 35 76 36 24 37 81 38 75 39 77 40 25 41 80 42 74 43
REMARK SMILES IDX 73 44 26 46 60 47 39 48 59 49 40 50 43 51 58 52 78 53 41 54
REMARK SMILES IDX 42 55 57 57 79 58 44 59 27 60 28 61 37 62 29 63 30 64 36 65
REMARK SMILES IDX 38 66 31 67 32 68 33 69 34 70 35 71 61 72 62 73 71 74 63 75
REMARK SMILES IDX 64 76 70 77 72 78 65 79 66 80 67 81 68 82 69 83 45 84 46 85
REMARK SMILES IDX 55 86 47 87 48 88 54 89 56 90 49 91 50 92 51 93 52 94 53 95
REMARK H PARENT 3 13 77 45 43 56
REMARK Flexibility Score: inf
ROOT
ATOM      1  C   UNL A   1      37.506  23.292  24.763  1.00  0.00     0.274 C 
ENDROOT
BRANCH   1   2
ATOM      2  O   UNL A   1      36.241  22.614  24.922  1.00  0.00    -0.462 OA
BRANCH   2   3
ATOM      3  C   UNL A   1      35.372  22.731  23.888  1.00  0.00     0.311 C 
ATOM      4  O   UNL A   1      35.700  22.991  22.737  1.00  0.00    -0.252 OA
BRANCH   3   5
ATOM      5  C   UNL A   1      33.927  22.521  24.279  1.00  0.00     0.123 C 
ATOM      6  N   UNL A   1      31.824  23.490  24.843  1.00  0.00    -0.321 N 
ATOM      7  C   UNL A   1      31.636  22.507  23.793  1.00  0.00     0.122 C 
ATOM      8  C   UNL A   1      33.235  23.472  25.286  1.00  0.00     0.098 C 
ATOM      9  C   UNL A   1      32.977  22.474  23.090  1.00  0.00     0.039 C 
ATOM     10  C   UNL A   1      33.822  24.866  25.438  1.00  0.00     0.032 C 
BRANCH   6  11
ATOM     11  C   UNL A   1      30.808  23.661  25.751  1.00  0.00     0.318 C 
ATOM     12  N   UNL A   1      30.275  24.907  25.852  1.00  0.00    -0.331 N 
ATOM     13  H   UNL A   1      29.750  25.096  26.663  1.00  0.00     0.165 HD
ATOM     14  O   UNL A   1      30.317  22.739  26.395  1.00  0.00    -0.249 OA
BRANCH  12  15
ATOM     15  C   UNL A   1      30.395  25.991  24.891  1.00  0.00     0.111 C 
ATOM     16  C   UNL A   1      29.079  26.243  24.159  1.00  0.00     0.036 C 
BRANCH  15  17
ATOM     17  C   UNL A   1      30.974  27.264  25.486  1.00  0.00    -0.026 A 
ATOM     18  C   UNL A   1      31.056  28.408  24.670  1.00  0.00     0.007 A 
ATOM     19  C   UNL A   1      31.413  27.362  26.816  1.00  0.00     0.007 A 
ATOM     20  C   UNL A   1      31.565  29.612  25.163  1.00  0.00     0.021 A 
ATOM     21  C   UNL A   1      31.932  28.566  27.307  1.00  0.00     0.021 A 
ATOM     22  C   UNL A   1      32.002  29.685  26.481  1.00  0.00     0.041 A 
ATOM     23  Cl  UNL A   1      32.621  31.169  27.093  1.00  0.00    -0.084 Cl
ENDBRANCH  15  17
ENDBRANCH  12  15
ENDBRANCH   6  11
ENDBRANCH   3   5
ENDBRANCH   2   3
ENDBRANCH   1   2
BRANCH   1  24
ATOM     24  C   UNL A   1      38.258  23.344  26.098  1.00  0.00     0.275 C 
BRANCH  24  25
ATOM     25  O   UNL A   1      39.095  24.515  26.134  1.00  0.00    -0.458 OA
BRANCH  25  26
ATOM     26  C   UNL A   1      40.252  24.427  26.829  1.00  0.00     0.338 C 
ATOM     27  O   UNL A   1      41.159  23.633  26.673  1.00  0.00    -0.246 OA
BRANCH  26  28
ATOM     28  C   UNL A   1      40.270  25.507  27.826  1.00  0.00     0.060 A 
ATOM     29  C   UNL A   1      41.308  26.442  27.817  1.00  0.00     0.016 A 
ATOM     30  C   UNL A   1      39.266  25.569  28.790  1.00  0.00     0.016 A 
ATOM     31  C   UNL A   1      41.338  27.460  28.765  1.00  0.00     0.010 A 
ATOM     32  C   UNL A   1      39.284  26.604  29.727  1.00  0.00     0.010 A 
ATOM     33  C   UNL A   1      40.319  27.556  29.719  1.00  0.00    -0.014 A 
BRANCH  33  34
ATOM     34  C   UNL A   1      40.336  28.645  30.722  1.00  0.00     0.031 A 
ATOM     35  C   UNL A   1      41.302  28.586  31.869  1.00  0.00     0.074 A 
ATOM     36  C   UNL A   1      39.474  29.671  30.606  1.00  0.00     0.049 A 
ATOM     37  N   UNL A   1      41.386  29.359  32.919  1.00  0.00    -0.248 NA
ATOM     38  C   UNL A   1      42.304  27.509  31.828  1.00  0.00     0.031 C 
ATOM     39  C   UNL A   1      38.519  29.852  29.510  1.00  0.00     0.029 A 
ATOM     40  N   UNL A   1      39.252  30.751  31.422  1.00  0.00    -0.354 N 
ATOM     41  C   UNL A   1      42.431  28.850  33.681  1.00  0.00     0.074 A 
ATOM     42  C   UNL A   1      42.945  27.695  32.974  1.00  0.00     0.031 C 
ATOM     43  C   UNL A   1      37.812  30.973  29.723  1.00  0.00     0.029 A 
ATOM     44  C   UNL A   1      38.226  31.560  30.995  1.00  0.00     0.049 A 
ATOM     45  H   UNL A   1      39.777  30.930  32.235  1.00  0.00     0.167 HD
ATOM     46  C   UNL A   1      42.912  29.306  34.861  1.00  0.00     0.037 A 
ATOM     47  C   UNL A   1      37.660  32.633  31.580  1.00  0.00     0.037 A 
ATOM     48  C   UNL A   1      42.398  30.465  35.544  1.00  0.00     0.049 A 
ATOM     49  C   UNL A   1      38.180  33.095  32.914  1.00  0.00     0.074 A 
ATOM     50  C   UNL A   1      42.818  31.019  36.740  1.00  0.00     0.029 A 
ATOM     51  N   UNL A   1      41.347  31.250  35.089  1.00  0.00    -0.354 N 
ATOM     52  N   UNL A   1      39.157  32.594  33.634  1.00  0.00    -0.248 NA
ATOM     53  C   UNL A   1      37.519  34.257  33.520  1.00  0.00     0.031 C 
ATOM     54  C   UNL A   1      41.999  32.117  37.026  1.00  0.00     0.029 A 
ATOM     55  C   UNL A   1      41.093  32.272  35.989  1.00  0.00     0.049 A 
ATOM     56  H   UNL A   1      40.854  31.102  34.249  1.00  0.00     0.167 HD
ATOM     57  C   UNL A   1      39.235  33.386  34.772  1.00  0.00     0.074 A 
ATOM     58  C   UNL A   1      38.216  34.409  34.638  1.00  0.00     0.031 C 
ATOM     59  C   UNL A   1      40.070  33.276  35.835  1.00  0.00     0.037 A 
BRANCH  46  60
ATOM     60  C   UNL A   1      44.024  28.527  35.502  1.00  0.00     0.058 A 
ATOM     61  C   UNL A   1      43.774  27.494  36.420  1.00  0.00     0.135 A 
ATOM     62  C   UNL A   1      45.362  28.809  35.183  1.00  0.00     0.135 A 
ATOM     63  F   UNL A   1      42.514  27.196  36.774  1.00  0.00    -0.206 F 
ATOM     64  C   UNL A   1      44.812  26.788  37.020  1.00  0.00     0.059 A 
ATOM     65  C   UNL A   1      46.415  28.100  35.754  1.00  0.00     0.059 A 
ATOM     66  F   UNL A   1      45.657  29.788  34.313  1.00  0.00    -0.206 F 
ATOM     67  C   UNL A   1      46.130  27.102  36.684  1.00  0.00     0.060 A 
BRANCH  67  68
ATOM     68  S   UNL A   1      47.469  26.185  37.475  1.00  0.00     0.124 S 
ATOM     69  O   UNL A   1      47.358  24.885  36.820  1.00  0.00    -0.237 OA
ATOM     70  O   UNL A   1      48.645  26.975  37.121  1.00  0.00    -0.237 OA
ATOM     71  O   UNL A   1      47.107  26.207  38.889  1.00  0.00    -0.744 OA
ENDBRANCH  67  68
ENDBRANCH  46  60
BRANCH  47  72
ATOM     72  C   UNL A   1      36.519  33.320  30.920  1.00  0.00     0.058 A 
ATOM     73  C   UNL A   1      35.224  33.250  31.452  1.00  0.00     0.135 A 
ATOM     74  C   UNL A   1      36.709  34.087  29.758  1.00  0.00     0.135 A 
ATOM     75  F   UNL A   1      34.991  32.520  32.554  1.00  0.00    -0.206 F 
ATOM     76  C   UNL A   1      34.156  33.912  30.856  1.00  0.00     0.059 A 
ATOM     77  C   UNL A   1      35.661  34.777  29.159  1.00  0.00     0.059 A 
ATOM     78  F   UNL A   1      37.931  34.194  29.215  1.00  0.00    -0.206 F 
ATOM     79  C   UNL A   1      34.385  34.679  29.712  1.00  0.00     0.060 A 
BRANCH  79  80
ATOM     80  S   UNL A   1      33.006  35.592  28.986  1.00  0.00     0.124 S 
ATOM     81  O   UNL A   1      33.695  36.721  28.370  1.00  0.00    -0.237 OA
ATOM     82  O   UNL A   1      32.436  34.613  28.065  1.00  0.00    -0.237 OA
ATOM     83  O   UNL A   1      32.172  35.913  30.140  1.00  0.00    -0.744 OA
ENDBRANCH  79  80
ENDBRANCH  47  72
BRANCH  59  84
ATOM     84  C   UNL A   1      39.927  34.299  36.926  1.00  0.00     0.058 A 
ATOM     85  C   UNL A   1      40.469  35.587  36.797  1.00  0.00     0.135 A 
ATOM     86  C   UNL A   1      39.204  34.002  38.092  1.00  0.00     0.135 A 
ATOM     87  F   UNL A   1      41.176  35.917  35.704  1.00  0.00    -0.206 F 
ATOM     88  C   UNL A   1      40.315  36.542  37.797  1.00  0.00     0.059 A 
ATOM     89  C   UNL A   1      39.019  34.948  39.095  1.00  0.00     0.059 A 
ATOM     90  F   UNL A   1      38.659  32.786  38.258  1.00  0.00    -0.206 F 
ATOM     91  C   UNL A   1      39.588  36.211  38.943  1.00  0.00     0.060 A 
BRANCH  91  92
ATOM     92  S   UNL A   1      39.369  37.467  40.222  1.00  0.00     0.124 S 
ATOM     93  O   UNL A   1      40.749  37.855  40.493  1.00  0.00    -0.237 OA
ATOM     94  O   UNL A   1      38.550  38.468  39.545  1.00  0.00    -0.237 OA
ATOM     95  O   UNL A   1      38.696  36.741  41.296  1.00  0.00    -0.744 OA
ENDBRANCH  91  92
ENDBRANCH  59  84
ENDBRANCH  33  34
ENDBRANCH  26  28
ENDBRANCH  25  26
ENDBRANCH  24  25
ENDBRANCH   1  24
TORSDOF 17
ENDMDL
MODEL 3
REMARK VINA RESULT:     -11.4      4.841     10.485
REMARK SMILES C[C@H](NC(=O)N1CC[C@@H](C(=O)OCCOC(=O)c2ccc(-c3c4nc(c(-c5c(F)cc(S(=O)(=O)[O-])cc5F)c5ccc([nH]5)c(-c5c(F)cc(S(=O)(=O)[O-])cc5F)c5nc(c(-c6c(F)cc(S(=O)(=O)[O-])cc6F)c6ccc3[nH]6)C=C5)C=C4)cc2)[C@H]1C)c1ccc(Cl)cc1
REMARK SMILES IDX 13 1 12 2 10 3 11 4 9 5 6 6 7 7 84 8 8 9 85 10 4 11 3 12
REMARK SMILES IDX 5 14 2 15 1 16 86 17 87 18 92 19 88 20 91 21 89 22 90 23
REMARK SMILES IDX 14 24 15 25 16 26 17 27 18 28 19 29 83 30 20 31 82 32 21 33
REMARK SMILES IDX 22 34 23 35 76 36 24 37 81 38 75 39 77 40 25 41 80 42 74 43
REMARK SMILES IDX 73 44 26 46 60 47 39 48 59 49 40 50 43 51 58 52 78 53 41 54
REMARK SMILES IDX 42 55 57 57 79 58 44 59 27 60 28 61 37 62 29 63 30 64 36 65
REMARK SMILES IDX 38 66 31 67 32 68 33 69 34 70 35 71 61 72 62 73 71 74 63 75
REMARK SMILES IDX 64 76 70 77 72 78 65 79 66 80 67 81 68 82 69 83 45 84 46 85
REMARK SMILES IDX 55 86 47 87 48 88 54 89 56 90 49 91 50 92 51 93 52 94 53 95
REMARK H PARENT 3 13 77 45 43 56
REMARK Flexibility Score: inf
ROOT
ATOM      1  C   UNL A   1      36.156  21.344  25.120  1.00  0.00     0.274 C 
ENDROOT
BRANCH   1   2
ATOM      2  O   UNL A   1      34.986  21.186  24.289  1.00  0.00    -0.462 OA
BRANCH   2   3
ATOM      3  C   UNL A   1      33.918  20.593  24.877  1.00  0.00     0.311 C 
ATOM      4  O   UNL A   1      33.906  19.437  25.283  1.00  0.00    -0.252 OA
BRANCH   3   5
ATOM      5  C   UNL A   1      32.705  21.489  24.984  1.00  0.00     0.123 C 
ATOM      6  N   UNL A   1      31.738  23.488  25.851  1.00  0.00    -0.321 N 
ATOM      7  C   UNL A   1      31.508  23.423  24.420  1.00  0.00     0.122 C 
ATOM      8  C   UNL A   1      32.389  22.238  26.302  1.00  0.00     0.098 C 
ATOM      9  C   UNL A   1      32.654  22.571  23.913  1.00  0.00     0.039 C 
ATOM     10  C   UNL A   1      33.550  22.488  27.251  1.00  0.00     0.032 C 
BRANCH   6  11
ATOM     11  C   UNL A   1      30.782  24.097  26.627  1.00  0.00     0.318 C 
ATOM     12  N   UNL A   1      30.712  25.452  26.566  1.00  0.00    -0.331 N 
ATOM     13  H   UNL A   1      30.229  25.901  27.298  1.00  0.00     0.165 HD
ATOM     14  O   UNL A   1      29.955  23.477  27.288  1.00  0.00    -0.249 OA
BRANCH  12  15
ATOM     15  C   UNL A   1      31.273  26.313  25.538  1.00  0.00     0.111 C 
ATOM     16  C   UNL A   1      30.205  26.785  24.554  1.00  0.00     0.036 C 
BRANCH  15  17
ATOM     17  C   UNL A   1      32.089  27.467  26.095  1.00  0.00    -0.026 A 
ATOM     18  C   UNL A   1      33.489  27.429  25.952  1.00  0.00     0.007 A 
ATOM     19  C   UNL A   1      31.516  28.581  26.729  1.00  0.00     0.007 A 
ATOM     20  C   UNL A   1      34.293  28.466  26.431  1.00  0.00     0.021 A 
ATOM     21  C   UNL A   1      32.322  29.616  27.217  1.00  0.00     0.021 A 
ATOM     22  C   UNL A   1      33.705  29.557  27.062  1.00  0.00     0.041 A 
ATOM     23  Cl  UNL A   1      34.692  30.840  27.644  1.00  0.00    -0.084 Cl
ENDBRANCH  15  17
ENDBRANCH  12  15
ENDBRANCH   6  11
ENDBRANCH   3   5
ENDBRANCH   2   3
ENDBRANCH   1   2
BRANCH   1  24
ATOM     24  C   UNL A   1      37.088  22.413  24.536  1.00  0.00     0.275 C 
BRANCH  24  25
ATOM     25  O   UNL A   1      37.581  23.252  25.595  1.00  0.00    -0.458 OA
BRANCH  25  26
ATOM     26  C   UNL A   1      38.846  23.032  26.020  1.00  0.00     0.338 C 
ATOM     27  O   UNL A   1      39.549  22.063  25.807  1.00  0.00    -0.246 OA
BRANCH  26  28
ATOM     28  C   UNL A   1      39.283  24.209  26.785  1.00  0.00     0.060 A 
ATOM     29  C   UNL A   1      38.811  24.405  28.086  1.00  0.00     0.016 A 
ATOM     30  C   UNL A   1      40.142  25.133  26.194  1.00  0.00     0.016 A 
ATOM     31  C   UNL A   1      39.211  25.523  28.812  1.00  0.00     0.010 A 
ATOM     32  C   UNL A   1      40.561  26.242  26.931  1.00  0.00     0.010 A 
ATOM     33  C   UNL A   1      40.099  26.443  28.244  1.00  0.00    -0.014 A 
BRANCH  33  34
ATOM     34  C   UNL A   1      40.540  27.627  29.015  1.00  0.00     0.031 A 
ATOM     35  C   UNL A   1      41.877  27.617  29.695  1.00  0.00     0.074 A 
ATOM     36  C   UNL A   1      39.731  28.699  29.112  1.00  0.00     0.049 A 
ATOM     37  N   UNL A   1      42.389  28.488  30.524  1.00  0.00    -0.248 NA
ATOM     38  C   UNL A   1      42.751  26.469  29.407  1.00  0.00     0.031 C 
ATOM     39  C   UNL A   1      38.427  28.834  28.458  1.00  0.00     0.029 A 
ATOM     40  N   UNL A   1      39.879  29.872  29.807  1.00  0.00    -0.354 N 
ATOM     41  C   UNL A   1      43.634  27.985  30.880  1.00  0.00     0.074 A 
ATOM     42  C   UNL A   1      43.796  26.726  30.182  1.00  0.00     0.031 C 
ATOM     43  C   UNL A   1      37.893  30.022  28.785  1.00  0.00     0.029 A 
ATOM     44  C   UNL A   1      38.790  30.706  29.711  1.00  0.00     0.049 A 
ATOM     45  H   UNL A   1      40.686  30.096  30.323  1.00  0.00     0.167 HD
ATOM     46  C   UNL A   1      44.554  28.525  31.714  1.00  0.00     0.037 A 
ATOM     47  C   UNL A   1      38.532  31.875  30.329  1.00  0.00     0.037 A 
ATOM     48  C   UNL A   1      44.383  29.786  32.389  1.00  0.00     0.049 A 
ATOM     49  C   UNL A   1      39.547  32.435  31.287  1.00  0.00     0.074 A 
ATOM     50  C   UNL A   1      45.256  30.429  33.248  1.00  0.00     0.029 A 
ATOM     51  N   UNL A   1      43.261  30.595  32.281  1.00  0.00    -0.354 N 
ATOM     52  N   UNL A   1      40.714  31.940  31.630  1.00  0.00    -0.248 NA
ATOM     53  C   UNL A   1      39.211  33.701  31.949  1.00  0.00     0.031 C 
ATOM     54  C   UNL A   1      44.647  31.610  33.688  1.00  0.00     0.029 A 
ATOM     55  C   UNL A   1      43.410  31.723  33.072  1.00  0.00     0.049 A 
ATOM     56  H   UNL A   1      42.474  30.397  31.724  1.00  0.00     0.167 HD
ATOM     57  C   UNL A   1      41.256  32.840  32.539  1.00  0.00     0.074 A 
ATOM     58  C   UNL A   1      40.296  33.917  32.681  1.00  0.00     0.031 C 
ATOM     59  C   UNL A   1      42.438  32.780  33.200  1.00  0.00     0.037 A 
BRANCH  46  60
ATOM     60  C   UNL A   1      45.806  27.736  31.968  1.00  0.00     0.058 A 
ATOM     61  C   UNL A   1      46.991  27.975  31.253  1.00  0.00     0.135 A 
ATOM     62  C   UNL A   1      45.825  26.734  32.951  1.00  0.00     0.135 A 
ATOM     63  F   UNL A   1      47.022  28.909  30.290  1.00  0.00    -0.206 F 
ATOM     64  C   UNL A   1      48.142  27.228  31.485  1.00  0.00     0.059 A 
ATOM     65  C   UNL A   1      46.972  25.990  33.216  1.00  0.00     0.059 A 
ATOM     66  F   UNL A   1      44.718  26.463  33.662  1.00  0.00    -0.206 F 
ATOM     67  C   UNL A   1      48.121  26.234  32.466  1.00  0.00     0.060 A 
BRANCH  67  68
ATOM     68  S   UNL A   1      49.617  25.265  32.752  1.00  0.00     0.124 S 
ATOM     69  O   UNL A   1      49.947  24.833  31.397  1.00  0.00    -0.237 OA
ATOM     70  O   UNL A   1      50.522  26.248  33.341  1.00  0.00    -0.237 OA
ATOM     71  O   UNL A   1      49.172  24.210  33.655  1.00  0.00    -0.744 OA
ENDBRANCH  67  68
ENDBRANCH  46  60
BRANCH  47  72
ATOM     72  C   UNL A   1      37.242  32.573  30.080  1.00  0.00     0.058 A 
ATOM     73  C   UNL A   1      36.097  32.269  30.829  1.00  0.00     0.135 A 
ATOM     74  C   UNL A   1      37.140  33.582  29.108  1.00  0.00     0.135 A 
ATOM     75  F   UNL A   1      36.142  31.305  31.761  1.00  0.00    -0.206 F 
ATOM     76  C   UNL A   1      34.894  32.936  30.622  1.00  0.00     0.059 A 
ATOM     77  C   UNL A   1      35.955  34.279  28.900  1.00  0.00     0.059 A 
ATOM     78  F   UNL A   1      38.211  33.918  28.372  1.00  0.00    -0.206 F 
ATOM     79  C   UNL A   1      34.834  33.945  29.658  1.00  0.00     0.060 A 
BRANCH  79  80
ATOM     80  S   UNL A   1      33.288  34.853  29.445  1.00  0.00     0.124 S 
ATOM     81  O   UNL A   1      32.563  33.986  28.522  1.00  0.00    -0.237 OA
ATOM     82  O   UNL A   1      32.770  34.910  30.808  1.00  0.00    -0.237 OA
ATOM     83  O   UNL A   1      33.726  36.134  28.896  1.00  0.00    -0.744 OA
ENDBRANCH  79  80
ENDBRANCH  47  72
BRANCH  59  84
ATOM     84  C   UNL A   1      42.765  33.920  34.121  1.00  0.00     0.058 A 
ATOM     85  C   UNL A   1      42.491  33.853  35.496  1.00  0.00     0.135 A 
ATOM     86  C   UNL A   1      43.399  35.074  33.631  1.00  0.00     0.135 A 
ATOM     87  F   UNL A   1      41.880  32.774  36.011  1.00  0.00    -0.206 F 
ATOM     88  C   UNL A   1      42.817  34.899  36.352  1.00  0.00     0.059 A 
ATOM     89  C   UNL A   1      43.753  36.123  34.472  1.00  0.00     0.059 A 
ATOM     90  F   UNL A   1      43.689  35.182  32.325  1.00  0.00    -0.206 F 
ATOM     91  C   UNL A   1      43.447  36.031  35.830  1.00  0.00     0.060 A 
BRANCH  91  92
ATOM     92  S   UNL A   1      43.893  37.372  36.954  1.00  0.00     0.124 S 
ATOM     93  O   UNL A   1      42.756  37.379  37.868  1.00  0.00    -0.237 OA
ATOM     94  O   UNL A   1      45.156  36.905  37.517  1.00  0.00    -0.237 OA
ATOM     95  O   UNL A   1      43.999  38.531  36.072  1.00  0.00    -0.744 OA
ENDBRANCH  91  92
ENDBRANCH  59  84
ENDBRANCH  33  34
ENDBRANCH  26  28
ENDBRANCH  25  26
ENDBRANCH  24  25
ENDBRANCH   1  24
TORSDOF 17
ENDMDL
