MODEL 1
REMARK VINA RESULT:     -11.6      0.000      0.000
REMARK SMILES C[C@@H](C(=O)OCCOC(=O)c1ccc(-c2c3nc(c(-c4c(F)cc(S(=O)(=O)[O-])cc4F)c4ccc([nH]4)c(-c4c(F)cc(S(=O)(=O)[O-])cc4F)c4nc(c(-c5c(F)cc(S(=O)(=O)[O-])cc5F)c5ccc2[nH]5)C=C4)C=C3)cc1)c1ccc(C[C@@H]2CCC[C@@H]2O)cc1Br
REMARK SMILES IDX 6 1 5 2 3 3 4 4 2 5 1 6 77 7 78 8 89 9 79 10 88 11 90 12
REMARK SMILES IDX 80 13 81 14 82 15 83 16 86 17 84 18 85 19 87 20 7 22 8 23
REMARK SMILES IDX 9 24 10 25 11 26 12 27 76 28 13 29 75 30 14 31 15 32 16 33
REMARK SMILES IDX 69 34 17 35 74 36 68 37 70 38 18 39 73 40 67 41 66 42 19 44
REMARK SMILES IDX 53 45 32 46 52 47 33 48 36 49 51 50 71 51 34 52 35 53 50 55
REMARK SMILES IDX 72 56 37 57 20 58 21 59 30 60 22 61 23 62 29 63 31 64 24 65
REMARK SMILES IDX 25 66 26 67 27 68 28 69 54 70 55 71 64 72 56 73 57 74 63 75
REMARK SMILES IDX 65 76 58 77 59 78 60 79 61 80 62 81 38 82 39 83 48 84 40 85
REMARK SMILES IDX 41 86 47 87 49 88 42 89 43 90 44 91 45 92 46 93
REMARK H PARENT 87 21 70 43 36 54
REMARK Flexibility Score: inf
ROOT
ATOM      1  C   UNL A   1      33.483  30.329  26.865  1.00  0.00     0.274 C 
ENDROOT
BRANCH   1   2
ATOM      2  O   UNL A   1      32.133  29.973  27.230  1.00  0.00    -0.462 OA
BRANCH   2   3
ATOM      3  C   UNL A   1      31.795  28.663  27.080  1.00  0.00     0.313 C 
ATOM      4  O   UNL A   1      31.374  27.958  27.992  1.00  0.00    -0.252 OA
BRANCH   3   5
ATOM      5  C   UNL A   1      32.068  28.131  25.669  1.00  0.00     0.127 C 
ATOM      6  C   UNL A   1      31.038  28.571  24.625  1.00  0.00     0.025 C 
BRANCH   5   7
ATOM      7  C   UNL A   1      32.471  26.653  25.688  1.00  0.00    -0.020 A 
ATOM      8  C   UNL A   1      33.862  26.394  25.719  1.00  0.00     0.006 A 
ATOM      9  C   UNL A   1      31.620  25.536  25.740  1.00  0.00     0.022 A 
ATOM     10  C   UNL A   1      34.382  25.098  25.787  1.00  0.00     0.004 A 
ATOM     11  C   UNL A   1      32.150  24.232  25.773  1.00  0.00     0.019 A 
ATOM     12  Br  UNL A   1      29.728  25.623  25.876  1.00  0.00    -0.050 Br
ATOM     13  C   UNL A   1      33.529  23.997  25.805  1.00  0.00    -0.047 A 
BRANCH  13  14
ATOM     14  C   UNL A   1      34.067  22.593  25.945  1.00  0.00     0.041 C 
BRANCH  14  15
ATOM     15  C   UNL A   1      34.408  21.798  24.671  1.00  0.00     0.022 C 
ATOM     16  C   UNL A   1      33.888  22.415  23.372  1.00  0.00     0.007 C 
ATOM     17  C   UNL A   1      33.885  20.362  24.588  1.00  0.00     0.117 C 
ATOM     18  C   UNL A   1      32.554  21.729  23.080  1.00  0.00     0.003 C 
ATOM     19  C   UNL A   1      32.502  20.481  23.959  1.00  0.00     0.032 C 
BRANCH  17  20
ATOM     20  O   UNL A   1      33.839  19.694  25.832  1.00  0.00    -0.393 OA
ATOM     21  H   UNL A   1      34.577  19.992  26.386  1.00  0.00     0.210 HD
ENDBRANCH  17  20
ENDBRANCH  14  15
ENDBRANCH  13  14
ENDBRANCH   5   7
ENDBRANCH   3   5
ENDBRANCH   2   3
ENDBRANCH   1   2
BRANCH   1  22
ATOM     22  C   UNL A   1      34.068  31.287  27.898  1.00  0.00     0.275 C 
BRANCH  22  23
ATOM     23  O   UNL A   1      35.497  31.147  27.900  1.00  0.00    -0.458 OA
BRANCH  23  24
ATOM     24  C   UNL A   1      36.090  31.056  29.112  1.00  0.00     0.338 C 
ATOM     25  O   UNL A   1      35.645  31.475  30.171  1.00  0.00    -0.246 OA
BRANCH  24  26
ATOM     26  C   UNL A   1      37.399  30.375  28.982  1.00  0.00     0.060 A 
ATOM     27  C   UNL A   1      38.190  30.111  30.100  1.00  0.00     0.016 A 
ATOM     28  C   UNL A   1      37.883  30.058  27.711  1.00  0.00     0.016 A 
ATOM     29  C   UNL A   1      39.482  29.608  29.938  1.00  0.00     0.010 A 
ATOM     30  C   UNL A   1      39.152  29.478  27.564  1.00  0.00     0.010 A 
ATOM     31  C   UNL A   1      39.992  29.283  28.672  1.00  0.00    -0.014 A 
BRANCH  31  32
ATOM     32  C   UNL A   1      41.402  28.805  28.503  1.00  0.00     0.031 A 
ATOM     33  C   UNL A   1      42.562  29.751  28.723  1.00  0.00     0.074 A 
ATOM     34  C   UNL A   1      41.681  27.522  28.187  1.00  0.00     0.049 A 
ATOM     35  N   UNL A   1      43.824  29.603  28.401  1.00  0.00    -0.248 NA
ATOM     36  C   UNL A   1      42.265  31.033  29.381  1.00  0.00     0.031 C 
ATOM     37  C   UNL A   1      40.697  26.457  27.998  1.00  0.00     0.029 A 
ATOM     38  N   UNL A   1      42.887  26.892  27.981  1.00  0.00    -0.354 N 
ATOM     39  C   UNL A   1      44.446  30.806  28.721  1.00  0.00     0.074 A 
ATOM     40  C   UNL A   1      43.430  31.660  29.298  1.00  0.00     0.031 C 
ATOM     41  C   UNL A   1      41.335  25.299  27.770  1.00  0.00     0.029 A 
ATOM     42  C   UNL A   1      42.768  25.555  27.680  1.00  0.00     0.049 A 
ATOM     43  H   UNL A   1      43.754  27.354  28.043  1.00  0.00     0.167 HD
ATOM     44  C   UNL A   1      45.740  31.168  28.540  1.00  0.00     0.037 A 
ATOM     45  C   UNL A   1      43.688  24.639  27.318  1.00  0.00     0.037 A 
ATOM     46  C   UNL A   1      46.775  30.290  28.054  1.00  0.00     0.049 A 
ATOM     47  C   UNL A   1      45.121  25.051  27.142  1.00  0.00     0.074 A 
ATOM     48  C   UNL A   1      48.116  30.572  27.848  1.00  0.00     0.029 A 
ATOM     49  N   UNL A   1      46.596  28.955  27.731  1.00  0.00    -0.354 N 
ATOM     50  N   UNL A   1      45.667  26.228  27.327  1.00  0.00    -0.248 NA
ATOM     51  C   UNL A   1      46.055  24.020  26.667  1.00  0.00     0.031 C 
ATOM     52  C   UNL A   1      48.746  29.409  27.387  1.00  0.00     0.029 A 
ATOM     53  C   UNL A   1      47.802  28.397  27.337  1.00  0.00     0.049 A 
ATOM     54  H   UNL A   1      45.739  28.472  27.775  1.00  0.00     0.167 HD
ATOM     55  C   UNL A   1      47.005  26.082  26.978  1.00  0.00     0.074 A 
ATOM     56  C   UNL A   1      47.194  24.697  26.604  1.00  0.00     0.031 C 
ATOM     57  C   UNL A   1      47.983  27.020  26.954  1.00  0.00     0.037 A 
BRANCH  44  58
ATOM     58  C   UNL A   1      46.114  32.595  28.831  1.00  0.00     0.058 A 
ATOM     59  C   UNL A   1      46.597  32.999  30.083  1.00  0.00     0.135 A 
ATOM     60  C   UNL A   1      46.038  33.560  27.813  1.00  0.00     0.135 A 
ATOM     61  F   UNL A   1      46.675  32.117  31.092  1.00  0.00    -0.206 F 
ATOM     62  C   UNL A   1      46.973  34.317  30.323  1.00  0.00     0.059 A 
ATOM     63  C   UNL A   1      46.430  34.878  28.023  1.00  0.00     0.059 A 
ATOM     64  F   UNL A   1      45.586  33.223  26.594  1.00  0.00    -0.206 F 
ATOM     65  C   UNL A   1      46.886  35.251  29.287  1.00  0.00     0.060 A 
BRANCH  65  66
ATOM     66  S   UNL A   1      47.396  36.954  29.601  1.00  0.00     0.124 S 
ATOM     67  O   UNL A   1      48.842  36.806  29.725  1.00  0.00    -0.237 OA
ATOM     68  O   UNL A   1      46.931  37.649  28.404  1.00  0.00    -0.237 OA
ATOM     69  O   UNL A   1      46.691  37.297  30.832  1.00  0.00    -0.744 OA
ENDBRANCH  65  66
ENDBRANCH  44  58
BRANCH  45  70
ATOM     70  C   UNL A   1      43.262  23.243  27.039  1.00  0.00     0.058 A 
ATOM     71  C   UNL A   1      43.189  22.760  25.725  1.00  0.00     0.135 A 
ATOM     72  C   UNL A   1      42.961  22.353  28.083  1.00  0.00     0.135 A 
ATOM     73  F   UNL A   1      43.450  23.579  24.694  1.00  0.00    -0.206 F 
ATOM     74  C   UNL A   1      42.845  21.440  25.453  1.00  0.00     0.059 A 
ATOM     75  C   UNL A   1      42.641  21.024  27.838  1.00  0.00     0.059 A 
ATOM     76  F   UNL A   1      43.024  22.768  29.358  1.00  0.00    -0.206 F 
ATOM     77  C   UNL A   1      42.582  20.577  26.519  1.00  0.00     0.060 A 
BRANCH  77  78
ATOM     78  S   UNL A   1      42.237  18.837  26.174  1.00  0.00     0.124 S 
ATOM     79  O   UNL A   1      40.823  18.885  25.821  1.00  0.00    -0.237 OA
ATOM     80  O   UNL A   1      43.159  18.545  25.081  1.00  0.00    -0.237 OA
ATOM     81  O   UNL A   1      42.554  18.182  27.439  1.00  0.00    -0.744 OA
ENDBRANCH  77  78
ENDBRANCH  45  70
BRANCH  57  82
ATOM     82  C   UNL A   1      49.348  26.578  26.513  1.00  0.00     0.058 A 
ATOM     83  C   UNL A   1      50.268  26.036  27.424  1.00  0.00     0.135 A 
ATOM     84  C   UNL A   1      49.732  26.673  25.167  1.00  0.00     0.135 A 
ATOM     85  F   UNL A   1      49.950  25.930  28.724  1.00  0.00    -0.206 F 
ATOM     86  C   UNL A   1      51.533  25.621  27.017  1.00  0.00     0.059 A 
ATOM     87  C   UNL A   1      50.985  26.249  24.735  1.00  0.00     0.059 A 
ATOM     88  F   UNL A   1      48.885  27.179  24.257  1.00  0.00    -0.206 F 
ATOM     89  C   UNL A   1      51.884  25.737  25.671  1.00  0.00     0.060 A 
BRANCH  89  90
ATOM     90  S   UNL A   1      53.523  25.185  25.149  1.00  0.00     0.124 S 
ATOM     91  O   UNL A   1      53.378  23.735  25.215  1.00  0.00    -0.237 OA
ATOM     92  O   UNL A   1      53.633  25.749  23.807  1.00  0.00    -0.237 OA
ATOM     93  O   UNL A   1      54.411  25.775  26.144  1.00  0.00    -0.744 OA
ENDBRANCH  89  90
ENDBRANCH  57  82
ENDBRANCH  31  32
ENDBRANCH  24  26
ENDBRANCH  23  24
ENDBRANCH  22  23
ENDBRANCH   1  22
TORSDOF 18
ENDMDL
MODEL 2
REMARK VINA RESULT:     -11.2      6.399     12.033
REMARK SMILES C[C@@H](C(=O)OCCOC(=O)c1ccc(-c2c3nc(c(-c4c(F)cc(S(=O)(=O)[O-])cc4F)c4ccc([nH]4)c(-c4c(F)cc(S(=O)(=O)[O-])cc4F)c4nc(c(-c5c(F)cc(S(=O)(=O)[O-])cc5F)c5ccc2[nH]5)C=C4)C=C3)cc1)c1ccc(C[C@@H]2CCC[C@@H]2O)cc1Br
REMARK SMILES IDX 6 1 5 2 3 3 4 4 2 5 1 6 77 7 78 8 89 9 79 10 88 11 90 12
REMARK SMILES IDX 80 13 81 14 82 15 83 16 86 17 84 18 85 19 87 20 7 22 8 23
REMARK SMILES IDX 9 24 10 25 11 26 12 27 76 28 13 29 75 30 14 31 15 32 16 33
REMARK SMILES IDX 69 34 17 35 74 36 68 37 70 38 18 39 73 40 67 41 66 42 19 44
REMARK SMILES IDX 53 45 32 46 52 47 33 48 36 49 51 50 71 51 34 52 35 53 50 55
REMARK SMILES IDX 72 56 37 57 20 58 21 59 30 60 22 61 23 62 29 63 31 64 24 65
REMARK SMILES IDX 25 66 26 67 27 68 28 69 54 70 55 71 64 72 56 73 57 74 63 75
REMARK SMILES IDX 65 76 58 77 59 78 60 79 61 80 62 81 38 82 39 83 48 84 40 85
REMARK SMILES IDX 41 86 47 87 49 88 42 89 43 90 44 91 45 92 46 93
REMARK H PARENT 87 21 70 43 36 54
REMARK Flexibility Score: inf
ROOT
ATOM      1  C   UNL A   1      38.397  21.430  25.539  1.00  0.00     0.274 C 
ENDROOT
BRANCH   1   2
ATOM      2  O   UNL A   1      37.462  22.529  25.500  1.00  0.00    -0.462 OA
BRANCH   2   3
ATOM      3  C   UNL A   1      36.508  22.472  24.530  1.00  0.00     0.313 C 
ATOM      4  O   UNL A   1      36.735  22.644  23.337  1.00  0.00    -0.252 OA
BRANCH   3   5
ATOM      5  C   UNL A   1      35.099  22.246  25.089  1.00  0.00     0.127 C 
ATOM      6  C   UNL A   1      34.335  21.101  24.418  1.00  0.00     0.025 C 
BRANCH   5   7
ATOM      7  C   UNL A   1      34.353  23.569  25.298  1.00  0.00    -0.020 A 
ATOM      8  C   UNL A   1      34.660  24.600  24.379  1.00  0.00     0.006 A 
ATOM      9  C   UNL A   1      33.364  23.849  26.255  1.00  0.00     0.022 A 
ATOM     10  C   UNL A   1      34.026  25.847  24.412  1.00  0.00     0.004 A 
ATOM     11  C   UNL A   1      32.755  25.118  26.306  1.00  0.00     0.019 A 
ATOM     12  Br  UNL A   1      32.661  22.587  27.487  1.00  0.00    -0.050 Br
ATOM     13  C   UNL A   1      33.070  26.124  25.386  1.00  0.00    -0.047 A 
BRANCH  13  14
ATOM     14  C   UNL A   1      32.327  27.439  25.400  1.00  0.00     0.041 C 
BRANCH  14  15
ATOM     15  C   UNL A   1      33.131  28.747  25.291  1.00  0.00     0.022 C 
ATOM     16  C   UNL A   1      34.161  28.961  26.401  1.00  0.00     0.007 C 
ATOM     17  C   UNL A   1      32.336  30.055  25.320  1.00  0.00     0.117 C 
ATOM     18  C   UNL A   1      33.474  29.825  27.458  1.00  0.00     0.003 C 
ATOM     19  C   UNL A   1      32.233  30.421  26.796  1.00  0.00     0.032 C 
BRANCH  17  20
ATOM     20  O   UNL A   1      31.064  29.968  24.712  1.00  0.00    -0.393 OA
ATOM     21  H   UNL A   1      31.170  29.879  23.752  1.00  0.00     0.210 HD
ENDBRANCH  17  20
ENDBRANCH  14  15
ENDBRANCH  13  14
ENDBRANCH   5   7
ENDBRANCH   3   5
ENDBRANCH   2   3
ENDBRANCH   1   2
BRANCH   1  22
ATOM     22  C   UNL A   1      39.652  21.839  26.304  1.00  0.00     0.275 C 
BRANCH  22  23
ATOM     23  O   UNL A   1      39.610  23.256  26.535  1.00  0.00    -0.458 OA
BRANCH  23  24
ATOM     24  C   UNL A   1      40.803  23.888  26.609  1.00  0.00     0.338 C 
ATOM     25  O   UNL A   1      41.844  23.539  26.071  1.00  0.00    -0.246 OA
BRANCH  24  26
ATOM     26  C   UNL A   1      40.684  25.091  27.466  1.00  0.00     0.060 A 
ATOM     27  C   UNL A   1      41.675  26.071  27.476  1.00  0.00     0.016 A 
ATOM     28  C   UNL A   1      39.595  25.207  28.333  1.00  0.00     0.016 A 
ATOM     29  C   UNL A   1      41.614  27.115  28.401  1.00  0.00     0.010 A 
ATOM     30  C   UNL A   1      39.502  26.303  29.204  1.00  0.00     0.010 A 
ATOM     31  C   UNL A   1      40.533  27.254  29.284  1.00  0.00    -0.014 A 
BRANCH  31  32
ATOM     32  C   UNL A   1      40.509  28.340  30.316  1.00  0.00     0.031 A 
ATOM     33  C   UNL A   1      41.539  28.366  31.423  1.00  0.00     0.074 A 
ATOM     34  C   UNL A   1      39.600  29.338  30.272  1.00  0.00     0.049 A 
ATOM     35  N   UNL A   1      41.548  29.068  32.530  1.00  0.00    -0.248 NA
ATOM     36  C   UNL A   1      42.706  27.482  31.273  1.00  0.00     0.031 C 
ATOM     37  C   UNL A   1      38.572  29.511  29.246  1.00  0.00     0.029 A 
ATOM     38  N   UNL A   1      39.404  30.410  31.113  1.00  0.00    -0.354 N 
ATOM     39  C   UNL A   1      42.658  28.637  33.250  1.00  0.00     0.074 A 
ATOM     40  C   UNL A   1      43.320  27.639  32.438  1.00  0.00     0.031 C 
ATOM     41  C   UNL A   1      37.901  30.648  29.478  1.00  0.00     0.029 A 
ATOM     42  C   UNL A   1      38.368  31.230  30.731  1.00  0.00     0.049 A 
ATOM     43  H   UNL A   1      39.954  30.575  31.913  1.00  0.00     0.167 HD
ATOM     44  C   UNL A   1      43.078  29.028  34.478  1.00  0.00     0.037 A 
ATOM     45  C   UNL A   1      37.809  32.297  31.336  1.00  0.00     0.037 A 
ATOM     46  C   UNL A   1      42.478  30.087  35.250  1.00  0.00     0.049 A 
ATOM     47  C   UNL A   1      38.300  32.731  32.686  1.00  0.00     0.074 A 
ATOM     48  C   UNL A   1      42.846  30.556  36.502  1.00  0.00     0.029 A 
ATOM     49  N   UNL A   1      41.409  30.864  34.834  1.00  0.00    -0.354 N 
ATOM     50  N   UNL A   1      39.271  32.228  33.409  1.00  0.00    -0.248 NA
ATOM     51  C   UNL A   1      37.592  33.852  33.322  1.00  0.00     0.031 C 
ATOM     52  C   UNL A   1      41.989  31.608  36.848  1.00  0.00     0.029 A 
ATOM     53  C   UNL A   1      41.110  31.814  35.799  1.00  0.00     0.049 A 
ATOM     54  H   UNL A   1      40.932  30.759  33.979  1.00  0.00     0.167 HD
ATOM     55  C   UNL A   1      39.281  32.961  34.590  1.00  0.00     0.074 A 
ATOM     56  C   UNL A   1      38.243  33.964  34.472  1.00  0.00     0.031 C 
ATOM     57  C   UNL A   1      40.070  32.802  35.681  1.00  0.00     0.037 A 
BRANCH  44  58
ATOM     58  C   UNL A   1      44.229  28.281  35.094  1.00  0.00     0.058 A 
ATOM     59  C   UNL A   1      44.036  27.215  35.983  1.00  0.00     0.135 A 
ATOM     60  C   UNL A   1      45.548  28.609  34.738  1.00  0.00     0.135 A 
ATOM     61  F   UNL A   1      42.796  26.872  36.366  1.00  0.00    -0.206 F 
ATOM     62  C   UNL A   1      45.113  26.511  36.515  1.00  0.00     0.059 A 
ATOM     63  C   UNL A   1      46.638  27.905  35.238  1.00  0.00     0.059 A 
ATOM     64  F   UNL A   1      45.786  29.619  33.886  1.00  0.00    -0.206 F 
ATOM     65  C   UNL A   1      46.411  26.864  36.137  1.00  0.00     0.060 A 
BRANCH  65  66
ATOM     66  S   UNL A   1      47.801  25.932  36.814  1.00  0.00     0.124 S 
ATOM     67  O   UNL A   1      48.869  26.925  36.766  1.00  0.00    -0.237 OA
ATOM     68  O   UNL A   1      47.325  25.578  38.148  1.00  0.00    -0.237 OA
ATOM     69  O   UNL A   1      47.942  24.812  35.888  1.00  0.00    -0.744 OA
ENDBRANCH  65  66
ENDBRANCH  44  58
BRANCH  45  70
ATOM     70  C   UNL A   1      36.672  32.997  30.683  1.00  0.00     0.058 A 
ATOM     71  C   UNL A   1      35.350  32.738  31.067  1.00  0.00     0.135 A 
ATOM     72  C   UNL A   1      36.890  33.969  29.693  1.00  0.00     0.135 A 
ATOM     73  F   UNL A   1      35.092  31.804  31.997  1.00  0.00    -0.206 F 
ATOM     74  C   UNL A   1      34.280  33.426  30.503  1.00  0.00     0.059 A 
ATOM     75  C   UNL A   1      35.841  34.688  29.134  1.00  0.00     0.059 A 
ATOM     76  F   UNL A   1      38.140  34.256  29.297  1.00  0.00    -0.206 F 
ATOM     77  C   UNL A   1      34.538  34.406  29.543  1.00  0.00     0.060 A 
BRANCH  77  78
ATOM     78  S   UNL A   1      33.161  35.372  28.885  1.00  0.00     0.124 S 
ATOM     79  O   UNL A   1      32.444  34.368  28.108  1.00  0.00    -0.237 OA
ATOM     80  O   UNL A   1      32.495  35.836  30.097  1.00  0.00    -0.237 OA
ATOM     81  O   UNL A   1      33.830  36.415  28.112  1.00  0.00    -0.744 OA
ENDBRANCH  77  78
ENDBRANCH  45  70
BRANCH  57  82
ATOM     82  C   UNL A   1      39.845  33.739  36.833  1.00  0.00     0.058 A 
ATOM     83  C   UNL A   1      40.453  35.003  36.875  1.00  0.00     0.135 A 
ATOM     84  C   UNL A   1      38.996  33.381  37.892  1.00  0.00     0.135 A 
ATOM     85  F   UNL A   1      41.278  35.388  35.889  1.00  0.00    -0.206 F 
ATOM     86  C   UNL A   1      40.242  35.874  37.939  1.00  0.00     0.059 A 
ATOM     87  C   UNL A   1      38.758  34.244  38.958  1.00  0.00     0.059 A 
ATOM     88  F   UNL A   1      38.387  32.186  37.895  1.00  0.00    -0.206 F 
ATOM     89  C   UNL A   1      39.397  35.483  38.979  1.00  0.00     0.060 A 
BRANCH  89  90
ATOM     90  S   UNL A   1      39.120  36.625  40.351  1.00  0.00     0.124 S 
ATOM     91  O   UNL A   1      38.152  35.887  41.154  1.00  0.00    -0.237 OA
ATOM     92  O   UNL A   1      40.455  36.755  40.929  1.00  0.00    -0.237 OA
ATOM     93  O   UNL A   1      38.610  37.824  39.695  1.00  0.00    -0.744 OA
ENDBRANCH  89  90
ENDBRANCH  57  82
ENDBRANCH  31  32
ENDBRANCH  24  26
ENDBRANCH  23  24
ENDBRANCH  22  23
ENDBRANCH   1  22
TORSDOF 18
ENDMDL
MODEL 3
REMARK VINA RESULT:     -11.1      5.113     10.891
REMARK SMILES C[C@@H](C(=O)OCCOC(=O)c1ccc(-c2c3nc(c(-c4c(F)cc(S(=O)(=O)[O-])cc4F)c4ccc([nH]4)c(-c4c(F)cc(S(=O)(=O)[O-])cc4F)c4nc(c(-c5c(F)cc(S(=O)(=O)[O-])cc5F)c5ccc2[nH]5)C=C4)C=C3)cc1)c1ccc(C[C@@H]2CCC[C@@H]2O)cc1Br
REMARK SMILES IDX 6 1 5 2 3 3 4 4 2 5 1 6 77 7 78 8 89 9 79 10 88 11 90 12
REMARK SMILES IDX 80 13 81 14 82 15 83 16 86 17 84 18 85 19 87 20 7 22 8 23
REMARK SMILES IDX 9 24 10 25 11 26 12 27 76 28 13 29 75 30 14 31 15 32 16 33
REMARK SMILES IDX 69 34 17 35 74 36 68 37 70 38 18 39 73 40 67 41 66 42 19 44
REMARK SMILES IDX 53 45 32 46 52 47 33 48 36 49 51 50 71 51 34 52 35 53 50 55
REMARK SMILES IDX 72 56 37 57 20 58 21 59 30 60 22 61 23 62 29 63 31 64 24 65
REMARK SMILES IDX 25 66 26 67 27 68 28 69 54 70 55 71 64 72 56 73 57 74 63 75
REMARK SMILES IDX 65 76 58 77 59 78 60 79 61 80 62 81 38 82 39 83 48 84 40 85
REMARK SMILES IDX 41 86 47 87 49 88 42 89 43 90 44 91 45 92 46 93
REMARK H PARENT 87 21 70 43 36 54
REMARK Flexibility Score: inf
ROOT
ATOM      1  C   UNL A   1      36.733  23.209  23.890  1.00  0.00     0.274 C 
ENDROOT
BRANCH   1   2
ATOM      2  O   UNL A   1      35.960  23.981  24.833  1.00  0.00    -0.462 OA
BRANCH   2   3
ATOM      3  C   UNL A   1      34.715  24.355  24.426  1.00  0.00     0.313 C 
ATOM      4  O   UNL A   1      34.402  24.524  23.252  1.00  0.00    -0.252 OA
BRANCH   3   5
ATOM      5  C   UNL A   1      33.758  24.620  25.593  1.00  0.00     0.127 C 
ATOM      6  C   UNL A   1      33.464  23.388  26.453  1.00  0.00     0.025 C 
BRANCH   5   7
ATOM      7  C   UNL A   1      32.568  25.486  25.165  1.00  0.00    -0.020 A 
ATOM      8  C   UNL A   1      31.495  24.798  24.551  1.00  0.00     0.006 A 
ATOM      9  C   UNL A   1      32.401  26.866  25.368  1.00  0.00     0.022 A 
ATOM     10  C   UNL A   1      30.321  25.445  24.150  1.00  0.00     0.004 A 
ATOM     11  C   UNL A   1      31.232  27.518  24.930  1.00  0.00     0.019 A 
ATOM     12  Br  UNL A   1      33.616  27.976  26.313  1.00  0.00    -0.050 Br
ATOM     13  C   UNL A   1      30.180  26.819  24.327  1.00  0.00    -0.047 A 
BRANCH  13  14
ATOM     14  C   UNL A   1      28.896  27.526  23.962  1.00  0.00     0.041 C 
BRANCH  14  15
ATOM     15  C   UNL A   1      28.906  28.528  22.793  1.00  0.00     0.022 C 
ATOM     16  C   UNL A   1      29.950  29.640  22.912  1.00  0.00     0.007 C 
ATOM     17  C   UNL A   1      27.616  29.311  22.538  1.00  0.00     0.117 C 
ATOM     18  C   UNL A   1      29.229  30.836  23.534  1.00  0.00     0.003 C 
ATOM     19  C   UNL A   1      27.733  30.558  23.407  1.00  0.00     0.032 C 
BRANCH  17  20
ATOM     20  O   UNL A   1      26.438  28.585  22.820  1.00  0.00    -0.393 OA
ATOM     21  H   UNL A   1      25.859  29.116  23.389  1.00  0.00     0.210 HD
ENDBRANCH  17  20
ENDBRANCH  14  15
ENDBRANCH  13  14
ENDBRANCH   5   7
ENDBRANCH   3   5
ENDBRANCH   2   3
ENDBRANCH   1   2
BRANCH   1  22
ATOM     22  C   UNL A   1      37.431  22.058  24.607  1.00  0.00     0.275 C 
BRANCH  22  23
ATOM     23  O   UNL A   1      37.847  22.507  25.906  1.00  0.00    -0.458 OA
BRANCH  23  24
ATOM     24  C   UNL A   1      39.170  22.731  26.070  1.00  0.00     0.338 C 
ATOM     25  O   UNL A   1      40.080  22.001  25.704  1.00  0.00    -0.246 OA
BRANCH  24  26
ATOM     26  C   UNL A   1      39.379  24.010  26.788  1.00  0.00     0.060 A 
ATOM     27  C   UNL A   1      40.255  24.978  26.298  1.00  0.00     0.016 A 
ATOM     28  C   UNL A   1      38.745  24.217  28.015  1.00  0.00     0.016 A 
ATOM     29  C   UNL A   1      40.551  26.105  27.068  1.00  0.00     0.010 A 
ATOM     30  C   UNL A   1      38.987  25.391  28.744  1.00  0.00     0.010 A 
ATOM     31  C   UNL A   1      39.929  26.336  28.303  1.00  0.00    -0.014 A 
BRANCH  31  32
ATOM     32  C   UNL A   1      40.301  27.515  29.151  1.00  0.00     0.031 A 
ATOM     33  C   UNL A   1      41.635  27.555  29.862  1.00  0.00     0.074 A 
ATOM     34  C   UNL A   1      39.483  28.582  29.277  1.00  0.00     0.049 A 
ATOM     35  N   UNL A   1      42.042  28.357  30.816  1.00  0.00    -0.248 NA
ATOM     36  C   UNL A   1      42.639  26.558  29.458  1.00  0.00     0.031 C 
ATOM     37  C   UNL A   1      38.188  28.747  28.616  1.00  0.00     0.029 A 
ATOM     38  N   UNL A   1      39.630  29.743  30.000  1.00  0.00    -0.354 N 
ATOM     39  C   UNL A   1      43.300  27.899  31.193  1.00  0.00     0.074 A 
ATOM     40  C   UNL A   1      43.607  26.771  30.339  1.00  0.00     0.031 C 
ATOM     41  C   UNL A   1      37.692  29.958  28.910  1.00  0.00     0.029 A 
ATOM     42  C   UNL A   1      38.572  30.613  29.870  1.00  0.00     0.049 A 
ATOM     43  H   UNL A   1      40.418  29.935  30.558  1.00  0.00     0.167 HD
ATOM     44  C   UNL A   1      44.118  28.367  32.168  1.00  0.00     0.037 A 
ATOM     45  C   UNL A   1      38.299  31.780  30.488  1.00  0.00     0.037 A 
ATOM     46  C   UNL A   1      43.860  29.546  32.956  1.00  0.00     0.049 A 
ATOM     47  C   UNL A   1      39.226  32.296  31.550  1.00  0.00     0.074 A 
ATOM     48  C   UNL A   1      44.640  30.098  33.960  1.00  0.00     0.029 A 
ATOM     49  N   UNL A   1      42.757  30.373  32.810  1.00  0.00    -0.354 N 
ATOM     50  N   UNL A   1      40.350  31.780  31.982  1.00  0.00    -0.248 NA
ATOM     51  C   UNL A   1      38.825  33.533  32.237  1.00  0.00     0.031 C 
ATOM     52  C   UNL A   1      44.001  31.252  34.430  1.00  0.00     0.029 A 
ATOM     53  C   UNL A   1      42.841  31.435  33.697  1.00  0.00     0.049 A 
ATOM     54  H   UNL A   1      42.023  30.229  32.170  1.00  0.00     0.167 HD
ATOM     55  C   UNL A   1      40.783  32.620  33.002  1.00  0.00     0.074 A 
ATOM     56  C   UNL A   1      39.820  33.696  33.099  1.00  0.00     0.031 C 
ATOM     57  C   UNL A   1      41.874  32.497  33.797  1.00  0.00     0.037 A 
BRANCH  44  58
ATOM     58  C   UNL A   1      45.363  27.582  32.473  1.00  0.00     0.058 A 
ATOM     59  C   UNL A   1      45.377  26.537  33.406  1.00  0.00     0.135 A 
ATOM     60  C   UNL A   1      46.550  27.851  31.769  1.00  0.00     0.135 A 
ATOM     61  F   UNL A   1      44.273  26.250  34.114  1.00  0.00    -0.206 F 
ATOM     62  C   UNL A   1      46.531  25.797  33.649  1.00  0.00     0.059 A 
ATOM     63  C   UNL A   1      47.708  27.110  31.978  1.00  0.00     0.059 A 
ATOM     64  F   UNL A   1      46.588  28.839  30.861  1.00  0.00    -0.206 F 
ATOM     65  C   UNL A   1      47.693  26.091  32.929  1.00  0.00     0.060 A 
BRANCH  65  66
ATOM     66  S   UNL A   1      49.180  25.113  33.234  1.00  0.00     0.124 S 
ATOM     67  O   UNL A   1      48.619  23.918  33.857  1.00  0.00    -0.237 OA
ATOM     68  O   UNL A   1      49.721  24.933  31.891  1.00  0.00    -0.237 OA
ATOM     69  O   UNL A   1      49.973  25.967  34.113  1.00  0.00    -0.744 OA
ENDBRANCH  65  66
ENDBRANCH  44  58
BRANCH  45  70
ATOM     70  C   UNL A   1      37.052  32.513  30.149  1.00  0.00     0.058 A 
ATOM     71  C   UNL A   1      35.861  32.271  30.848  1.00  0.00     0.135 A 
ATOM     72  C   UNL A   1      37.038  33.500  29.150  1.00  0.00     0.135 A 
ATOM     73  F   UNL A   1      35.823  31.325  31.800  1.00  0.00    -0.206 F 
ATOM     74  C   UNL A   1      34.701  32.990  30.579  1.00  0.00     0.059 A 
ATOM     75  C   UNL A   1      35.898  34.249  28.881  1.00  0.00     0.059 A 
ATOM     76  F   UNL A   1      38.155  33.772  28.458  1.00  0.00    -0.206 F 
ATOM     77  C   UNL A   1      34.733  33.983  29.599  1.00  0.00     0.060 A 
BRANCH  77  78
ATOM     78  S   UNL A   1      33.257  34.988  29.319  1.00  0.00     0.124 S 
ATOM     79  O   UNL A   1      32.568  34.214  28.294  1.00  0.00    -0.237 OA
ATOM     80  O   UNL A   1      32.633  35.001  30.638  1.00  0.00    -0.237 OA
ATOM     81  O   UNL A   1      33.808  36.269  28.886  1.00  0.00    -0.744 OA
ENDBRANCH  77  78
ENDBRANCH  45  70
BRANCH  57  82
ATOM     82  C   UNL A   1      42.088  33.557  34.839  1.00  0.00     0.058 A 
ATOM     83  C   UNL A   1      42.815  34.723  34.554  1.00  0.00     0.135 A 
ATOM     84  C   UNL A   1      41.541  33.419  36.124  1.00  0.00     0.135 A 
ATOM     85  F   UNL A   1      43.363  34.898  33.341  1.00  0.00    -0.206 F 
ATOM     86  C   UNL A   1      43.010  35.709  35.517  1.00  0.00     0.059 A 
ATOM     87  C   UNL A   1      41.709  34.400  37.096  1.00  0.00     0.059 A 
ATOM     88  F   UNL A   1      40.832  32.325  36.442  1.00  0.00    -0.206 F 
ATOM     89  C   UNL A   1      42.458  35.536  36.787  1.00  0.00     0.060 A 
BRANCH  89  90
ATOM     90  S   UNL A   1      42.706  36.826  38.027  1.00  0.00     0.124 S 
ATOM     91  O   UNL A   1      43.467  36.110  39.045  1.00  0.00    -0.237 OA
ATOM     92  O   UNL A   1      43.444  37.842  37.282  1.00  0.00    -0.237 OA
ATOM     93  O   UNL A   1      41.346  37.199  38.403  1.00  0.00    -0.744 OA
ENDBRANCH  89  90
ENDBRANCH  57  82
ENDBRANCH  31  32
ENDBRANCH  24  26
ENDBRANCH  23  24
ENDBRANCH  22  23
ENDBRANCH   1  22
TORSDOF 18
ENDMDL
