MODEL 1
REMARK VINA RESULT:     -10.3      0.000      0.000
REMARK SMILES CC[C@](C)([NH2+]CC(=O)NC[C@H]1CCCO1)C(=O)OCCOC(=O)c1ccc(-c2c3nc(c(-c4c(F)cc(S(=O)(=O)[O-])cc4F)c4ccc([nH]4)c(-c4c(F)cc(S(=O)(=O)[O-])cc4F)c4nc(c(-c5c(F)cc(S(=O)(=O)[O-])cc5F)c5ccc2[nH]5)C=C4)C=C3)cc1
REMARK SMILES IDX 19 1 18 2 16 3 17 4 3 5 4 6 2 7 1 8 5 9 6 12 7 13 8 14 9 15
REMARK SMILES IDX 10 17 11 18 12 19 15 20 13 21 14 22 20 23 21 24 22 25 23 26
REMARK SMILES IDX 24 27 25 28 89 29 26 30 88 31 27 32 28 33 29 34 82 35 30 36
REMARK SMILES IDX 87 37 81 38 83 39 31 40 86 41 80 42 79 43 32 45 66 46 45 47
REMARK SMILES IDX 65 48 46 49 49 50 64 51 84 52 47 53 48 54 63 56 85 57 50 58
REMARK SMILES IDX 33 59 34 60 43 61 35 62 36 63 42 64 44 65 37 66 38 67 39 68
REMARK SMILES IDX 40 69 41 70 67 71 68 72 77 73 69 74 70 75 76 76 78 77 71 78
REMARK SMILES IDX 72 79 73 80 74 81 75 82 51 83 52 84 61 85 53 86 54 87 60 88
REMARK SMILES IDX 62 89 55 90 56 91 57 92 58 93 59 94
REMARK H PARENT 5 10 5 11 9 16 83 44 49 55
REMARK Flexibility Score: inf
ROOT
ATOM      1  C   UNL A   1      37.779  22.384  25.667  1.00  0.00     0.274 C 
ENDROOT
BRANCH   1   2
ATOM      2  O   UNL A   1      37.205  23.559  25.061  1.00  0.00    -0.457 OA
BRANCH   2   3
ATOM      3  C   UNL A   1      36.377  23.378  23.986  1.00  0.00     0.367 C 
ATOM      4  O   UNL A   1      36.800  23.126  22.868  1.00  0.00    -0.245 OA
BRANCH   3   5
ATOM      5  C   UNL A   1      34.863  23.535  24.365  1.00  0.00     0.191 C 
ATOM      6  C   UNL A   1      34.348  24.690  23.482  1.00  0.00     0.092 C 
BRANCH   5   7
ATOM      7  C   UNL A   1      34.638  23.960  25.841  1.00  0.00     0.077 C 
ATOM      8  C   UNL A   1      33.188  24.110  26.303  1.00  0.00     0.011 C 
ENDBRANCH   5   7
BRANCH   5   9
ATOM      9  N   UNL A   1      34.122  22.287  24.046  1.00  0.00    -0.325 N 
ATOM     10  H   UNL A   1      34.171  22.150  23.037  1.00  0.00     0.347 HD
ATOM     11  H   UNL A   1      33.184  22.437  24.418  1.00  0.00     0.347 HD
BRANCH   9  12
ATOM     12  C   UNL A   1      34.589  21.039  24.687  1.00  0.00     0.362 C 
BRANCH  12  13
ATOM     13  C   UNL A   1      33.563  20.311  25.548  1.00  0.00     0.275 C 
ATOM     14  O   UNL A   1      33.560  20.458  26.775  1.00  0.00    -0.269 OA
ATOM     15  N   UNL A   1      32.591  19.515  25.012  1.00  0.00    -0.349 N 
ATOM     16  H   UNL A   1      31.904  19.254  25.667  1.00  0.00     0.163 HD
BRANCH  15  17
ATOM     17  C   UNL A   1      32.345  18.960  23.666  1.00  0.00     0.148 C 
BRANCH  17  18
ATOM     18  C   UNL A   1      32.627  17.426  23.623  1.00  0.00     0.137 C 
ATOM     19  C   UNL A   1      34.046  17.044  23.232  1.00  0.00     0.036 C 
ATOM     20  O   UNL A   1      32.420  16.817  24.909  1.00  0.00    -0.376 OA
ATOM     21  C   UNL A   1      34.749  16.899  24.557  1.00  0.00     0.031 C 
ATOM     22  C   UNL A   1      33.661  16.316  25.426  1.00  0.00     0.160 C 
ENDBRANCH  17  18
ENDBRANCH  15  17
ENDBRANCH  12  13
ENDBRANCH   9  12
ENDBRANCH   5   9
ENDBRANCH   3   5
ENDBRANCH   2   3
ENDBRANCH   1   2
BRANCH   1  23
ATOM     23  C   UNL A   1      39.042  22.739  26.437  1.00  0.00     0.275 C 
BRANCH  23  24
ATOM     24  O   UNL A   1      39.023  24.139  26.741  1.00  0.00    -0.458 OA
BRANCH  24  25
ATOM     25  C   UNL A   1      40.215  24.760  26.621  1.00  0.00     0.338 C 
ATOM     26  O   UNL A   1      41.036  24.648  25.722  1.00  0.00    -0.246 OA
BRANCH  25  27
ATOM     27  C   UNL A   1      40.358  25.700  27.731  1.00  0.00     0.060 A 
ATOM     28  C   UNL A   1      39.346  25.759  28.689  1.00  0.00     0.016 A 
ATOM     29  C   UNL A   1      41.433  26.581  27.772  1.00  0.00     0.016 A 
ATOM     30  C   UNL A   1      39.369  26.732  29.673  1.00  0.00     0.010 A 
ATOM     31  C   UNL A   1      41.483  27.531  28.792  1.00  0.00     0.010 A 
ATOM     32  C   UNL A   1      40.439  27.625  29.732  1.00  0.00    -0.014 A 
BRANCH  32  33
ATOM     33  C   UNL A   1      40.415  28.720  30.722  1.00  0.00     0.031 A 
ATOM     34  C   UNL A   1      41.394  28.690  31.856  1.00  0.00     0.074 A 
ATOM     35  C   UNL A   1      39.546  29.738  30.580  1.00  0.00     0.049 A 
ATOM     36  N   UNL A   1      41.418  29.410  32.944  1.00  0.00    -0.248 NA
ATOM     37  C   UNL A   1      42.485  27.706  31.758  1.00  0.00     0.031 C 
ATOM     38  C   UNL A   1      38.612  29.907  29.464  1.00  0.00     0.029 A 
ATOM     39  N   UNL A   1      39.305  30.822  31.382  1.00  0.00    -0.354 N 
ATOM     40  C   UNL A   1      42.484  28.924  33.690  1.00  0.00     0.074 A 
ATOM     41  C   UNL A   1      43.092  27.857  32.925  1.00  0.00     0.031 C 
ATOM     42  C   UNL A   1      37.908  31.034  29.647  1.00  0.00     0.029 A 
ATOM     43  C   UNL A   1      38.280  31.619  30.930  1.00  0.00     0.049 A 
ATOM     44  H   UNL A   1      39.816  31.012  32.202  1.00  0.00     0.167 HD
ATOM     45  C   UNL A   1      42.901  29.333  34.911  1.00  0.00     0.037 A 
ATOM     46  C   UNL A   1      37.676  32.670  31.515  1.00  0.00     0.037 A 
ATOM     47  C   UNL A   1      42.303  30.431  35.625  1.00  0.00     0.049 A 
ATOM     48  C   UNL A   1      38.140  33.092  32.879  1.00  0.00     0.074 A 
ATOM     49  C   UNL A   1      42.632  30.934  36.869  1.00  0.00     0.029 A 
ATOM     50  N   UNL A   1      41.259  31.208  35.140  1.00  0.00    -0.354 N 
ATOM     51  N   UNL A   1      39.094  32.577  33.619  1.00  0.00    -0.248 NA
ATOM     52  C   UNL A   1      37.437  34.221  33.500  1.00  0.00     0.031 C 
ATOM     53  C   UNL A   1      41.767  31.998  37.150  1.00  0.00     0.029 A 
ATOM     54  C   UNL A   1      40.925  32.182  36.063  1.00  0.00     0.049 A 
ATOM     55  H   UNL A   1      40.820  31.083  34.268  1.00  0.00     0.167 HD
ATOM     56  C   UNL A   1      39.111  33.320  34.792  1.00  0.00     0.074 A 
ATOM     57  C   UNL A   1      38.083  34.335  34.653  1.00  0.00     0.031 C 
ATOM     58  C   UNL A   1      39.896  33.177  35.888  1.00  0.00     0.037 A 
BRANCH  45  59
ATOM     59  C   UNL A   1      44.009  28.557  35.565  1.00  0.00     0.058 A 
ATOM     60  C   UNL A   1      43.763  27.444  36.383  1.00  0.00     0.135 A 
ATOM     61  C   UNL A   1      45.346  28.937  35.360  1.00  0.00     0.135 A 
ATOM     62  F   UNL A   1      42.503  27.055  36.634  1.00  0.00    -0.206 F 
ATOM     63  C   UNL A   1      44.802  26.748  36.994  1.00  0.00     0.059 A 
ATOM     64  C   UNL A   1      46.401  28.241  35.941  1.00  0.00     0.059 A 
ATOM     65  F   UNL A   1      45.637  30.000  34.595  1.00  0.00    -0.206 F 
ATOM     66  C   UNL A   1      46.119  27.155  36.768  1.00  0.00     0.060 A 
BRANCH  66  67
ATOM     67  S   UNL A   1      47.460  26.243  37.562  1.00  0.00     0.124 S 
ATOM     68  O   UNL A   1      47.227  26.549  38.970  1.00  0.00    -0.237 OA
ATOM     69  O   UNL A   1      47.184  24.867  37.159  1.00  0.00    -0.237 OA
ATOM     70  O   UNL A   1      48.662  26.832  36.981  1.00  0.00    -0.744 OA
ENDBRANCH  66  67
ENDBRANCH  45  59
BRANCH  46  71
ATOM     71  C   UNL A   1      36.543  33.345  30.831  1.00  0.00     0.058 A 
ATOM     72  C   UNL A   1      35.224  33.181  31.277  1.00  0.00     0.135 A 
ATOM     73  C   UNL A   1      36.762  34.207  29.743  1.00  0.00     0.135 A 
ATOM     74  F   UNL A   1      34.962  32.360  32.306  1.00  0.00    -0.206 F 
ATOM     75  C   UNL A   1      34.162  33.846  30.672  1.00  0.00     0.059 A 
ATOM     76  C   UNL A   1      35.720  34.903  29.139  1.00  0.00     0.059 A 
ATOM     77  F   UNL A   1      38.007  34.410  29.285  1.00  0.00    -0.206 F 
ATOM     78  C   UNL A   1      34.421  34.712  29.607  1.00  0.00     0.060 A 
BRANCH  78  79
ATOM     79  S   UNL A   1      33.050  35.633  28.877  1.00  0.00     0.124 S 
ATOM     80  O   UNL A   1      33.756  36.632  28.085  1.00  0.00    -0.237 OA
ATOM     81  O   UNL A   1      32.348  34.598  28.123  1.00  0.00    -0.237 OA
ATOM     82  O   UNL A   1      32.331  36.142  30.042  1.00  0.00    -0.744 OA
ENDBRANCH  78  79
ENDBRANCH  46  71
BRANCH  58  83
ATOM     83  C   UNL A   1      39.685  34.155  37.006  1.00  0.00     0.058 A 
ATOM     84  C   UNL A   1      38.774  33.899  38.040  1.00  0.00     0.135 A 
ATOM     85  C   UNL A   1      40.439  35.337  37.065  1.00  0.00     0.135 A 
ATOM     86  F   UNL A   1      38.026  32.784  38.022  1.00  0.00    -0.206 F 
ATOM     87  C   UNL A   1      38.602  34.794  39.090  1.00  0.00     0.059 A 
ATOM     88  C   UNL A   1      40.299  36.236  38.116  1.00  0.00     0.059 A 
ATOM     89  F   UNL A   1      41.330  35.620  36.101  1.00  0.00    -0.206 F 
ATOM     90  C   UNL A   1      39.370  35.960  39.118  1.00  0.00     0.060 A 
BRANCH  90  91
ATOM     91  S   UNL A   1      39.161  37.102  40.500  1.00  0.00     0.124 S 
ATOM     92  O   UNL A   1      38.245  38.085  39.932  1.00  0.00    -0.237 OA
ATOM     93  O   UNL A   1      38.602  36.241  41.538  1.00  0.00    -0.237 OA
ATOM     94  O   UNL A   1      40.518  37.577  40.754  1.00  0.00    -0.744 OA
ENDBRANCH  90  91
ENDBRANCH  58  83
ENDBRANCH  32  33
ENDBRANCH  25  27
ENDBRANCH  24  25
ENDBRANCH  23  24
ENDBRANCH   1  23
TORSDOF 20
ENDMDL
MODEL 2
REMARK VINA RESULT:     -10.3      5.675     10.937
REMARK SMILES CC[C@](C)([NH2+]CC(=O)NC[C@H]1CCCO1)C(=O)OCCOC(=O)c1ccc(-c2c3nc(c(-c4c(F)cc(S(=O)(=O)[O-])cc4F)c4ccc([nH]4)c(-c4c(F)cc(S(=O)(=O)[O-])cc4F)c4nc(c(-c5c(F)cc(S(=O)(=O)[O-])cc5F)c5ccc2[nH]5)C=C4)C=C3)cc1
REMARK SMILES IDX 19 1 18 2 16 3 17 4 3 5 4 6 2 7 1 8 5 9 6 12 7 13 8 14 9 15
REMARK SMILES IDX 10 17 11 18 12 19 15 20 13 21 14 22 20 23 21 24 22 25 23 26
REMARK SMILES IDX 24 27 25 28 89 29 26 30 88 31 27 32 28 33 29 34 82 35 30 36
REMARK SMILES IDX 87 37 81 38 83 39 31 40 86 41 80 42 79 43 32 45 66 46 45 47
REMARK SMILES IDX 65 48 46 49 49 50 64 51 84 52 47 53 48 54 63 56 85 57 50 58
REMARK SMILES IDX 33 59 34 60 43 61 35 62 36 63 42 64 44 65 37 66 38 67 39 68
REMARK SMILES IDX 40 69 41 70 67 71 68 72 77 73 69 74 70 75 76 76 78 77 71 78
REMARK SMILES IDX 72 79 73 80 74 81 75 82 51 83 52 84 61 85 53 86 54 87 60 88
REMARK SMILES IDX 62 89 55 90 56 91 57 92 58 93 59 94
REMARK H PARENT 5 10 5 11 9 16 83 44 49 55
REMARK Flexibility Score: inf
ROOT
ATOM      1  C   UNL A   1      32.334  29.913  25.718  1.00  0.00     0.274 C 
ENDROOT
BRANCH   1   2
ATOM      2  O   UNL A   1      31.736  28.606  25.838  1.00  0.00    -0.457 OA
BRANCH   2   3
ATOM      3  C   UNL A   1      32.193  27.621  25.006  1.00  0.00     0.367 C 
ATOM      4  O   UNL A   1      33.356  27.565  24.634  1.00  0.00    -0.245 OA
BRANCH   3   5
ATOM      5  C   UNL A   1      31.066  26.610  24.600  1.00  0.00     0.191 C 
ATOM      6  C   UNL A   1      31.728  25.660  23.582  1.00  0.00     0.092 C 
BRANCH   5   7
ATOM      7  C   UNL A   1      29.866  27.281  23.878  1.00  0.00     0.077 C 
ATOM      8  C   UNL A   1      30.200  28.305  22.792  1.00  0.00     0.011 C 
ENDBRANCH   5   7
BRANCH   5   9
ATOM      9  N   UNL A   1      30.615  25.841  25.789  1.00  0.00    -0.325 N 
ATOM     10  H   UNL A   1      29.843  25.244  25.494  1.00  0.00     0.347 HD
ATOM     11  H   UNL A   1      30.374  26.549  26.484  1.00  0.00     0.347 HD
BRANCH   9  12
ATOM     12  C   UNL A   1      31.613  24.979  26.457  1.00  0.00     0.362 C 
BRANCH  12  13
ATOM     13  C   UNL A   1      31.136  23.580  26.833  1.00  0.00     0.275 C 
ATOM     14  O   UNL A   1      30.015  23.413  27.324  1.00  0.00    -0.269 OA
ATOM     15  N   UNL A   1      31.891  22.465  26.608  1.00  0.00    -0.349 N 
ATOM     16  H   UNL A   1      31.390  21.628  26.741  1.00  0.00     0.163 HD
BRANCH  15  17
ATOM     17  C   UNL A   1      33.295  22.238  26.209  1.00  0.00     0.148 C 
BRANCH  17  18
ATOM     18  C   UNL A   1      33.385  21.551  24.810  1.00  0.00     0.137 C 
ATOM     19  C   UNL A   1      34.452  20.475  24.690  1.00  0.00     0.036 C 
ATOM     20  O   UNL A   1      32.154  20.893  24.468  1.00  0.00    -0.376 OA
ATOM     21  C   UNL A   1      33.707  19.203  25.005  1.00  0.00     0.031 C 
ATOM     22  C   UNL A   1      32.354  19.474  24.392  1.00  0.00     0.160 C 
ENDBRANCH  17  18
ENDBRANCH  15  17
ENDBRANCH  12  13
ENDBRANCH   9  12
ENDBRANCH   5   9
ENDBRANCH   3   5
ENDBRANCH   2   3
ENDBRANCH   1   2
BRANCH   1  23
ATOM     23  C   UNL A   1      32.613  30.505  27.090  1.00  0.00     0.275 C 
BRANCH  23  24
ATOM     24  O   UNL A   1      33.799  29.903  27.625  1.00  0.00    -0.458 OA
BRANCH  24  25
ATOM     25  C   UNL A   1      34.565  30.727  28.369  1.00  0.00     0.338 C 
ATOM     26  O   UNL A   1      34.225  31.737  28.967  1.00  0.00    -0.246 OA
BRANCH  25  27
ATOM     27  C   UNL A   1      35.914  30.168  28.431  1.00  0.00     0.060 A 
ATOM     28  C   UNL A   1      36.404  29.745  29.666  1.00  0.00     0.016 A 
ATOM     29  C   UNL A   1      36.721  30.152  27.298  1.00  0.00     0.016 A 
ATOM     30  C   UNL A   1      37.723  29.346  29.797  1.00  0.00     0.010 A 
ATOM     31  C   UNL A   1      38.037  29.703  27.419  1.00  0.00     0.010 A 
ATOM     32  C   UNL A   1      38.549  29.323  28.673  1.00  0.00    -0.014 A 
BRANCH  32  33
ATOM     33  C   UNL A   1      39.979  28.989  28.832  1.00  0.00     0.031 A 
ATOM     34  C   UNL A   1      40.920  30.050  29.316  1.00  0.00     0.074 A 
ATOM     35  C   UNL A   1      40.412  27.742  28.572  1.00  0.00     0.049 A 
ATOM     36  N   UNL A   1      42.224  30.054  29.325  1.00  0.00    -0.248 NA
ATOM     37  C   UNL A   1      40.307  31.278  29.851  1.00  0.00     0.031 C 
ATOM     38  C   UNL A   1      39.563  26.613  28.181  1.00  0.00     0.029 A 
ATOM     39  N   UNL A   1      41.676  27.214  28.597  1.00  0.00    -0.354 N 
ATOM     40  C   UNL A   1      42.591  31.306  29.803  1.00  0.00     0.074 A 
ATOM     41  C   UNL A   1      41.372  32.030  30.087  1.00  0.00     0.031 C 
ATOM     42  C   UNL A   1      40.329  25.525  28.012  1.00  0.00     0.029 A 
ATOM     43  C   UNL A   1      41.726  25.898  28.201  1.00  0.00     0.049 A 
ATOM     44  H   UNL A   1      42.470  27.726  28.871  1.00  0.00     0.167 HD
ATOM     45  C   UNL A   1      43.840  31.799  29.972  1.00  0.00     0.037 A 
ATOM     46  C   UNL A   1      42.787  25.103  27.967  1.00  0.00     0.037 A 
ATOM     47  C   UNL A   1      45.033  31.034  29.725  1.00  0.00     0.049 A 
ATOM     48  C   UNL A   1      44.163  25.679  28.140  1.00  0.00     0.074 A 
ATOM     49  C   UNL A   1      46.353  31.425  29.854  1.00  0.00     0.029 A 
ATOM     50  N   UNL A   1      45.045  29.708  29.314  1.00  0.00    -0.354 N 
ATOM     51  N   UNL A   1      44.507  26.890  28.511  1.00  0.00    -0.248 NA
ATOM     52  C   UNL A   1      45.295  24.793  27.843  1.00  0.00     0.031 C 
ATOM     53  C   UNL A   1      47.163  30.343  29.492  1.00  0.00     0.029 A 
ATOM     54  C   UNL A   1      46.349  29.266  29.176  1.00  0.00     0.049 A 
ATOM     55  H   UNL A   1      44.244  29.162  29.144  1.00  0.00     0.167 HD
ATOM     56  C   UNL A   1      45.895  26.913  28.498  1.00  0.00     0.074 A 
ATOM     57  C   UNL A   1      46.327  25.586  28.101  1.00  0.00     0.031 C 
ATOM     58  C   UNL A   1      46.739  27.936  28.780  1.00  0.00     0.037 A 
BRANCH  45  59
ATOM     59  C   UNL A   1      43.970  33.237  30.388  1.00  0.00     0.058 A 
ATOM     60  C   UNL A   1      44.121  34.276  29.457  1.00  0.00     0.135 A 
ATOM     61  C   UNL A   1      43.937  33.579  31.750  1.00  0.00     0.135 A 
ATOM     62  F   UNL A   1      44.186  34.002  28.144  1.00  0.00    -0.206 F 
ATOM     63  C   UNL A   1      44.257  35.600  29.862  1.00  0.00     0.059 A 
ATOM     64  C   UNL A   1      44.047  34.898  32.177  1.00  0.00     0.059 A 
ATOM     65  F   UNL A   1      43.805  32.623  32.684  1.00  0.00    -0.206 F 
ATOM     66  C   UNL A   1      44.220  35.902  31.225  1.00  0.00     0.060 A 
BRANCH  66  67
ATOM     67  S   UNL A   1      44.394  37.624  31.740  1.00  0.00     0.124 S 
ATOM     68  O   UNL A   1      43.718  37.611  33.034  1.00  0.00    -0.237 OA
ATOM     69  O   UNL A   1      45.843  37.793  31.784  1.00  0.00    -0.237 OA
ATOM     70  O   UNL A   1      43.713  38.364  30.683  1.00  0.00    -0.744 OA
ENDBRANCH  66  67
ENDBRANCH  45  59
BRANCH  46  71
ATOM     71  C   UNL A   1      42.575  23.710  27.495  1.00  0.00     0.058 A 
ATOM     72  C   UNL A   1      42.532  23.406  26.127  1.00  0.00     0.135 A 
ATOM     73  C   UNL A   1      42.459  22.646  28.405  1.00  0.00     0.135 A 
ATOM     74  F   UNL A   1      42.628  24.388  25.218  1.00  0.00    -0.206 F 
ATOM     75  C   UNL A   1      42.382  22.098  25.675  1.00  0.00     0.059 A 
ATOM     76  C   UNL A   1      42.334  21.328  27.978  1.00  0.00     0.059 A 
ATOM     77  F   UNL A   1      42.508  22.881  29.725  1.00  0.00    -0.206 F 
ATOM     78  C   UNL A   1      42.290  21.064  26.610  1.00  0.00     0.060 A 
BRANCH  78  79
ATOM     79  S   UNL A   1      42.176  19.361  26.019  1.00  0.00     0.124 S 
ATOM     80  O   UNL A   1      42.655  18.616  27.177  1.00  0.00    -0.237 OA
ATOM     81  O   UNL A   1      40.752  19.232  25.720  1.00  0.00    -0.237 OA
ATOM     82  O   UNL A   1      43.054  19.352  24.853  1.00  0.00    -0.744 OA
ENDBRANCH  78  79
ENDBRANCH  46  71
BRANCH  58  83
ATOM     83  C   UNL A   1      48.209  27.647  28.691  1.00  0.00     0.058 A 
ATOM     84  C   UNL A   1      48.908  27.069  29.760  1.00  0.00     0.135 A 
ATOM     85  C   UNL A   1      48.912  27.910  27.505  1.00  0.00     0.135 A 
ATOM     86  F   UNL A   1      48.278  26.807  30.917  1.00  0.00    -0.206 F 
ATOM     87  C   UNL A   1      50.264  26.776  29.663  1.00  0.00     0.059 A 
ATOM     88  C   UNL A   1      50.262  27.605  27.378  1.00  0.00     0.059 A 
ATOM     89  F   UNL A   1      48.282  28.455  26.452  1.00  0.00    -0.206 F 
ATOM     90  C   UNL A   1      50.932  27.049  28.467  1.00  0.00     0.060 A 
BRANCH  90  91
ATOM     91  S   UNL A   1      52.685  26.638  28.341  1.00  0.00     0.124 S 
ATOM     92  O   UNL A   1      52.661  25.555  27.364  1.00  0.00    -0.237 OA
ATOM     93  O   UNL A   1      53.270  27.894  27.881  1.00  0.00    -0.237 OA
ATOM     94  O   UNL A   1      53.039  26.251  29.703  1.00  0.00    -0.744 OA
ENDBRANCH  90  91
ENDBRANCH  58  83
ENDBRANCH  32  33
ENDBRANCH  25  27
ENDBRANCH  24  25
ENDBRANCH  23  24
ENDBRANCH   1  23
TORSDOF 20
ENDMDL
MODEL 3
REMARK VINA RESULT:     -10.3      5.739     11.066
REMARK SMILES CC[C@](C)([NH2+]CC(=O)NC[C@H]1CCCO1)C(=O)OCCOC(=O)c1ccc(-c2c3nc(c(-c4c(F)cc(S(=O)(=O)[O-])cc4F)c4ccc([nH]4)c(-c4c(F)cc(S(=O)(=O)[O-])cc4F)c4nc(c(-c5c(F)cc(S(=O)(=O)[O-])cc5F)c5ccc2[nH]5)C=C4)C=C3)cc1
REMARK SMILES IDX 19 1 18 2 16 3 17 4 3 5 4 6 2 7 1 8 5 9 6 12 7 13 8 14 9 15
REMARK SMILES IDX 10 17 11 18 12 19 15 20 13 21 14 22 20 23 21 24 22 25 23 26
REMARK SMILES IDX 24 27 25 28 89 29 26 30 88 31 27 32 28 33 29 34 82 35 30 36
REMARK SMILES IDX 87 37 81 38 83 39 31 40 86 41 80 42 79 43 32 45 66 46 45 47
REMARK SMILES IDX 65 48 46 49 49 50 64 51 84 52 47 53 48 54 63 56 85 57 50 58
REMARK SMILES IDX 33 59 34 60 43 61 35 62 36 63 42 64 44 65 37 66 38 67 39 68
REMARK SMILES IDX 40 69 41 70 67 71 68 72 77 73 69 74 70 75 76 76 78 77 71 78
REMARK SMILES IDX 72 79 73 80 74 81 75 82 51 83 52 84 61 85 53 86 54 87 60 88
REMARK SMILES IDX 62 89 55 90 56 91 57 92 58 93 59 94
REMARK H PARENT 5 10 5 11 9 16 83 44 49 55
REMARK Flexibility Score: inf
ROOT
ATOM      1  C   UNL A   1      32.618  29.081  25.674  1.00  0.00     0.274 C 
ENDROOT
BRANCH   1   2
ATOM      2  O   UNL A   1      31.486  28.461  25.033  1.00  0.00    -0.457 OA
BRANCH   2   3
ATOM      3  C   UNL A   1      30.708  29.245  24.225  1.00  0.00     0.367 C 
ATOM      4  O   UNL A   1      30.472  30.417  24.479  1.00  0.00    -0.245 OA
BRANCH   3   5
ATOM      5  C   UNL A   1      30.172  28.467  22.974  1.00  0.00     0.191 C 
ATOM      6  C   UNL A   1      29.339  29.499  22.187  1.00  0.00     0.092 C 
BRANCH   5   7
ATOM      7  C   UNL A   1      29.216  27.298  23.338  1.00  0.00     0.077 C 
ATOM      8  C   UNL A   1      27.770  27.667  23.668  1.00  0.00     0.011 C 
ENDBRANCH   5   7
BRANCH   5   9
ATOM      9  N   UNL A   1      31.307  27.993  22.139  1.00  0.00    -0.325 N 
ATOM     10  H   UNL A   1      32.141  28.497  22.440  1.00  0.00     0.347 HD
ATOM     11  H   UNL A   1      31.017  28.170  21.177  1.00  0.00     0.347 HD
BRANCH   9  12
ATOM     12  C   UNL A   1      31.621  26.549  22.180  1.00  0.00     0.362 C 
BRANCH  12  13
ATOM     13  C   UNL A   1      33.103  26.192  22.173  1.00  0.00     0.275 C 
ATOM     14  O   UNL A   1      33.892  26.813  21.454  1.00  0.00    -0.269 OA
ATOM     15  N   UNL A   1      33.625  25.220  22.978  1.00  0.00    -0.349 N 
ATOM     16  H   UNL A   1      34.609  25.219  22.991  1.00  0.00     0.163 HD
BRANCH  15  17
ATOM     17  C   UNL A   1      33.037  24.169  23.834  1.00  0.00     0.148 C 
BRANCH  17  18
ATOM     18  C   UNL A   1      33.973  22.923  23.929  1.00  0.00     0.137 C 
ATOM     19  C   UNL A   1      35.380  23.135  23.393  1.00  0.00     0.036 C 
ATOM     20  O   UNL A   1      34.154  22.505  25.292  1.00  0.00    -0.376 OA
ATOM     21  C   UNL A   1      36.168  23.528  24.617  1.00  0.00     0.031 C 
ATOM     22  C   UNL A   1      35.522  22.682  25.688  1.00  0.00     0.160 C 
ENDBRANCH  17  18
ENDBRANCH  15  17
ENDBRANCH  12  13
ENDBRANCH   9  12
ENDBRANCH   5   9
ENDBRANCH   3   5
ENDBRANCH   2   3
ENDBRANCH   1   2
BRANCH   1  23
ATOM     23  C   UNL A   1      32.649  28.741  27.157  1.00  0.00     0.275 C 
BRANCH  23  24
ATOM     24  O   UNL A   1      34.008  28.752  27.609  1.00  0.00    -0.458 OA
BRANCH  24  25
ATOM     25  C   UNL A   1      34.480  29.967  27.957  1.00  0.00     0.338 C 
ATOM     26  O   UNL A   1      33.856  31.011  28.079  1.00  0.00    -0.246 OA
BRANCH  25  27
ATOM     27  C   UNL A   1      35.902  29.837  28.266  1.00  0.00     0.060 A 
ATOM     28  C   UNL A   1      36.830  30.083  27.253  1.00  0.00     0.016 A 
ATOM     29  C   UNL A   1      36.311  29.383  29.515  1.00  0.00     0.016 A 
ATOM     30  C   UNL A   1      38.175  29.830  27.459  1.00  0.00     0.010 A 
ATOM     31  C   UNL A   1      37.672  29.176  29.740  1.00  0.00     0.010 A 
ATOM     32  C   UNL A   1      38.606  29.374  28.706  1.00  0.00    -0.014 A 
BRANCH  32  33
ATOM     33  C   UNL A   1      40.026  29.016  28.894  1.00  0.00     0.031 A 
ATOM     34  C   UNL A   1      40.971  30.058  29.412  1.00  0.00     0.074 A 
ATOM     35  C   UNL A   1      40.445  27.765  28.633  1.00  0.00     0.049 A 
ATOM     36  N   UNL A   1      42.275  30.041  29.452  1.00  0.00    -0.248 NA
ATOM     37  C   UNL A   1      40.365  31.290  29.944  1.00  0.00     0.031 C 
ATOM     38  C   UNL A   1      39.589  26.654  28.210  1.00  0.00     0.029 A 
ATOM     39  N   UNL A   1      41.700  27.217  28.683  1.00  0.00    -0.354 N 
ATOM     40  C   UNL A   1      42.650  31.283  29.951  1.00  0.00     0.074 A 
ATOM     41  C   UNL A   1      41.435  32.024  30.212  1.00  0.00     0.031 C 
ATOM     42  C   UNL A   1      40.342  25.556  28.050  1.00  0.00     0.029 A 
ATOM     43  C   UNL A   1      41.739  25.905  28.275  1.00  0.00     0.049 A 
ATOM     44  H   UNL A   1      42.496  27.715  28.981  1.00  0.00     0.167 HD
ATOM     45  C   UNL A   1      43.901  31.755  30.154  1.00  0.00     0.037 A 
ATOM     46  C   UNL A   1      42.793  25.095  28.058  1.00  0.00     0.037 A 
ATOM     47  C   UNL A   1      45.089  30.973  29.928  1.00  0.00     0.049 A 
ATOM     48  C   UNL A   1      44.173  25.647  28.269  1.00  0.00     0.074 A 
ATOM     49  C   UNL A   1      46.410  31.342  30.091  1.00  0.00     0.029 A 
ATOM     50  N   UNL A   1      45.090  29.651  29.504  1.00  0.00    -0.354 N 
ATOM     51  N   UNL A   1      44.527  26.850  28.661  1.00  0.00    -0.248 NA
ATOM     52  C   UNL A   1      45.298  24.747  27.991  1.00  0.00     0.031 C 
ATOM     53  C   UNL A   1      47.213  30.251  29.739  1.00  0.00     0.029 A 
ATOM     54  C   UNL A   1      46.389  29.190  29.393  1.00  0.00     0.049 A 
ATOM     55  H   UNL A   1      44.285  29.119  29.310  1.00  0.00     0.167 HD
ATOM     56  C   UNL A   1      45.916  26.851  28.681  1.00  0.00     0.074 A 
ATOM     57  C   UNL A   1      46.336  25.521  28.281  1.00  0.00     0.031 C 
ATOM     58  C   UNL A   1      46.768  27.858  28.993  1.00  0.00     0.037 A 
BRANCH  45  59
ATOM     59  C   UNL A   1      44.044  33.186  30.587  1.00  0.00     0.058 A 
ATOM     60  C   UNL A   1      44.130  34.243  29.667  1.00  0.00     0.135 A 
ATOM     61  C   UNL A   1      44.090  33.504  31.955  1.00  0.00     0.135 A 
ATOM     62  F   UNL A   1      44.117  33.993  28.348  1.00  0.00    -0.206 F 
ATOM     63  C   UNL A   1      44.278  35.561  30.087  1.00  0.00     0.059 A 
ATOM     64  C   UNL A   1      44.214  34.817  32.398  1.00  0.00     0.059 A 
ATOM     65  F   UNL A   1      44.023  32.531  32.877  1.00  0.00    -0.206 F 
ATOM     66  C   UNL A   1      44.321  35.839  31.455  1.00  0.00     0.060 A 
BRANCH  66  67
ATOM     67  S   UNL A   1      44.510  37.553  31.990  1.00  0.00     0.124 S 
ATOM     68  O   UNL A   1      43.804  37.540  33.267  1.00  0.00    -0.237 OA
ATOM     69  O   UNL A   1      45.961  37.698  32.070  1.00  0.00    -0.237 OA
ATOM     70  O   UNL A   1      43.867  38.314  30.923  1.00  0.00    -0.744 OA
ENDBRANCH  66  67
ENDBRANCH  45  59
BRANCH  46  71
ATOM     71  C   UNL A   1      42.571  23.710  27.568  1.00  0.00     0.058 A 
ATOM     72  C   UNL A   1      42.525  23.425  26.196  1.00  0.00     0.135 A 
ATOM     73  C   UNL A   1      42.448  22.635  28.463  1.00  0.00     0.135 A 
ATOM     74  F   UNL A   1      42.628  24.419  25.300  1.00  0.00    -0.206 F 
ATOM     75  C   UNL A   1      42.365  22.124  25.727  1.00  0.00     0.059 A 
ATOM     76  C   UNL A   1      42.314  21.324  28.019  1.00  0.00     0.059 A 
ATOM     77  F   UNL A   1      42.500  22.852  29.787  1.00  0.00    -0.206 F 
ATOM     78  C   UNL A   1      42.267  21.078  26.648  1.00  0.00     0.060 A 
BRANCH  78  79
ATOM     79  S   UNL A   1      42.140  19.385  26.034  1.00  0.00     0.124 S 
ATOM     80  O   UNL A   1      43.026  19.425  24.876  1.00  0.00    -0.237 OA
ATOM     81  O   UNL A   1      42.613  18.605  27.174  1.00  0.00    -0.237 OA
ATOM     82  O   UNL A   1      40.717  19.242  25.737  1.00  0.00    -0.744 OA
ENDBRANCH  78  79
ENDBRANCH  46  71
BRANCH  58  83
ATOM     83  C   UNL A   1      48.235  27.546  28.936  1.00  0.00     0.058 A 
ATOM     84  C   UNL A   1      48.988  27.778  27.776  1.00  0.00     0.135 A 
ATOM     85  C   UNL A   1      48.900  27.055  30.070  1.00  0.00     0.135 A 
ATOM     86  F   UNL A   1      48.393  28.241  26.665  1.00  0.00    -0.206 F 
ATOM     87  C   UNL A   1      50.353  27.516  27.736  1.00  0.00     0.059 A 
ATOM     88  C   UNL A   1      50.267  26.806  30.059  1.00  0.00     0.059 A 
ATOM     89  F   UNL A   1      48.221  26.825  31.206  1.00  0.00    -0.206 F 
ATOM     90  C   UNL A   1      50.983  27.029  28.884  1.00  0.00     0.060 A 
BRANCH  90  91
ATOM     91  S   UNL A   1      52.760  26.719  28.830  1.00  0.00     0.124 S 
ATOM     92  O   UNL A   1      52.854  25.738  27.754  1.00  0.00    -0.237 OA
ATOM     93  O   UNL A   1      53.301  28.041  28.531  1.00  0.00    -0.237 OA
ATOM     94  O   UNL A   1      53.055  26.216  30.169  1.00  0.00    -0.744 OA
ENDBRANCH  90  91
ENDBRANCH  58  83
ENDBRANCH  32  33
ENDBRANCH  25  27
ENDBRANCH  24  25
ENDBRANCH  23  24
ENDBRANCH   1  23
TORSDOF 20
ENDMDL
