MODEL 1
REMARK VINA RESULT:     -10.7      0.000      0.000
REMARK SMILES COC(=O)c1cscc1NS(=O)(=O)c1cc(C)c(C(=O)OCCOC(=O)c2ccc(-c3c4nc(c(-c5c(F)cc(S(=O)(=O)[O-])cc5F)c5ccc([nH]5)c(-c5c(F)cc(S(=O)(=O)[O-])cc5F)c5nc(c(-c6c(F)cc(S(=O)(=O)[O-])cc6F)c6ccc3[nH]6)C=C5)C=C4)cc2)s1
REMARK SMILES IDX 22 1 21 2 19 3 20 4 18 5 14 6 15 7 93 8 16 9 17 10 11 11
REMARK SMILES IDX 12 12 13 13 10 14 9 16 5 17 6 18 7 19 8 20 3 21 4 22 2 23
REMARK SMILES IDX 1 24 23 25 24 26 25 27 26 28 27 29 28 30 92 31 29 32 91 33
REMARK SMILES IDX 30 34 31 35 32 36 85 37 33 38 90 39 84 40 86 41 34 42 89 43
REMARK SMILES IDX 83 44 82 45 35 47 69 48 48 49 68 50 49 51 52 52 67 53 87 54
REMARK SMILES IDX 50 55 51 56 66 58 88 59 53 60 36 61 37 62 46 63 38 64 39 65
REMARK SMILES IDX 45 66 47 67 40 68 41 69 42 70 43 71 44 72 70 73 71 74 80 75
REMARK SMILES IDX 72 76 73 77 79 78 81 79 74 80 75 81 76 82 77 83 78 84 54 85
REMARK SMILES IDX 55 86 64 87 56 88 57 89 63 90 65 91 58 92 59 93 60 94 61 95
REMARK SMILES IDX 62 96
REMARK H PARENT 10 15 86 46 52 57
REMARK Flexibility Score: inf
ROOT
ATOM      1  C   UNL A   1      36.764  22.889  25.877  1.00  0.00     0.275 C 
ENDROOT
BRANCH   1   2
ATOM      2  O   UNL A   1      36.302  22.516  24.562  1.00  0.00    -0.458 OA
BRANCH   2   3
ATOM      3  C   UNL A   1      35.042  21.991  24.525  1.00  0.00     0.348 C 
ATOM      4  O   UNL A   1      34.794  20.799  24.648  1.00  0.00    -0.245 OA
BRANCH   3   5
ATOM      5  C   UNL A   1      34.041  23.017  24.300  1.00  0.00     0.116 A 
ATOM      6  C   UNL A   1      32.945  24.913  23.152  1.00  0.00     0.141 A 
ATOM      7  C   UNL A   1      32.659  24.872  24.505  1.00  0.00     0.038 A 
ATOM      8  S   UNL A   1      33.728  23.484  22.682  1.00  0.00    -0.115 S 
ATOM      9  C   UNL A   1      33.268  23.753  25.185  1.00  0.00    -0.024 A 
ATOM     10  C   UNL A   1      33.163  23.501  26.652  1.00  0.00     0.046 C 
BRANCH   6  11
ATOM     11  S   UNL A   1      32.557  26.068  21.853  1.00  0.00     0.271 S 
ATOM     12  O   UNL A   1      31.107  26.037  21.808  1.00  0.00    -0.200 OA
ATOM     13  O   UNL A   1      33.332  25.645  20.706  1.00  0.00    -0.200 OA
BRANCH  11  14
ATOM     14  N   UNL A   1      32.976  27.672  22.193  1.00  0.00    -0.277 N 
ATOM     15  H   UNL A   1      33.386  28.178  21.455  1.00  0.00     0.180 HD
BRANCH  14  16
ATOM     16  C   UNL A   1      32.808  28.375  23.410  1.00  0.00     0.074 A 
ATOM     17  C   UNL A   1      31.577  29.075  23.738  1.00  0.00     0.094 A 
ATOM     18  C   UNL A   1      31.653  29.668  24.990  1.00  0.00     0.082 A 
ATOM     19  S   UNL A   1      33.126  29.350  25.785  1.00  0.00    -0.149 S 
ATOM     20  C   UNL A   1      33.666  28.379  24.488  1.00  0.00     0.092 A 
BRANCH  17  21
ATOM     21  C   UNL A   1      30.387  29.150  22.891  1.00  0.00     0.340 C 
ATOM     22  O   UNL A   1      30.462  29.352  21.683  1.00  0.00    -0.246 OA
BRANCH  21  23
ATOM     23  O   UNL A   1      29.230  28.930  23.576  1.00  0.00    -0.465 OA
ATOM     24  C   UNL A   1      28.747  27.584  23.581  1.00  0.00     0.282 C 
ENDBRANCH  21  23
ENDBRANCH  17  21
ENDBRANCH  14  16
ENDBRANCH  11  14
ENDBRANCH   6  11
ENDBRANCH   3   5
ENDBRANCH   2   3
ENDBRANCH   1   2
BRANCH   1  25
ATOM     25  C   UNL A   1      38.260  23.215  25.895  1.00  0.00     0.275 C 
BRANCH  25  26
ATOM     26  O   UNL A   1      38.575  24.210  26.886  1.00  0.00    -0.458 OA
BRANCH  26  27
ATOM     27  C   UNL A   1      39.804  24.762  26.769  1.00  0.00     0.338 C 
ATOM     28  O   UNL A   1      40.592  24.613  25.850  1.00  0.00    -0.246 OA
BRANCH  27  29
ATOM     29  C   UNL A   1      40.061  25.676  27.892  1.00  0.00     0.060 A 
ATOM     30  C   UNL A   1      39.197  25.636  28.980  1.00  0.00     0.016 A 
ATOM     31  C   UNL A   1      41.024  26.678  27.802  1.00  0.00     0.016 A 
ATOM     32  C   UNL A   1      39.196  26.657  29.920  1.00  0.00     0.010 A 
ATOM     33  C   UNL A   1      41.100  27.645  28.814  1.00  0.00     0.010 A 
ATOM     34  C   UNL A   1      40.160  27.667  29.862  1.00  0.00    -0.014 A 
BRANCH  34  35
ATOM     35  C   UNL A   1      40.158  28.745  30.887  1.00  0.00     0.031 A 
ATOM     36  C   UNL A   1      41.128  28.696  32.038  1.00  0.00     0.074 A 
ATOM     37  C   UNL A   1      39.303  29.780  30.770  1.00  0.00     0.049 A 
ATOM     38  N   UNL A   1      41.178  29.446  33.109  1.00  0.00    -0.248 NA
ATOM     39  C   UNL A   1      42.173  27.661  31.982  1.00  0.00     0.031 C 
ATOM     40  C   UNL A   1      38.349  29.974  29.674  1.00  0.00     0.029 A 
ATOM     41  N   UNL A   1      39.096  30.870  31.580  1.00  0.00    -0.354 N 
ATOM     42  C   UNL A   1      42.224  28.945  33.876  1.00  0.00     0.074 A 
ATOM     43  C   UNL A   1      42.777  27.820  33.152  1.00  0.00     0.031 C 
ATOM     44  C   UNL A   1      37.680  31.119  29.867  1.00  0.00     0.029 A 
ATOM     45  C   UNL A   1      38.091  31.698  31.139  1.00  0.00     0.049 A 
ATOM     46  H   UNL A   1      39.617  31.041  32.397  1.00  0.00     0.167 HD
ATOM     47  C   UNL A   1      42.679  29.386  35.074  1.00  0.00     0.037 A 
ATOM     48  C   UNL A   1      37.526  32.777  31.714  1.00  0.00     0.037 A 
ATOM     49  C   UNL A   1      42.150  30.538  35.760  1.00  0.00     0.049 A 
ATOM     50  C   UNL A   1      38.020  33.223  33.060  1.00  0.00     0.074 A 
ATOM     51  C   UNL A   1      42.549  31.078  36.970  1.00  0.00     0.029 A 
ATOM     52  N   UNL A   1      41.117  31.335  35.288  1.00  0.00    -0.354 N 
ATOM     53  N   UNL A   1      38.979  32.713  33.796  1.00  0.00    -0.248 NA
ATOM     54  C   UNL A   1      37.348  34.382  33.663  1.00  0.00     0.031 C 
ATOM     55  C   UNL A   1      41.731  32.178  37.248  1.00  0.00     0.029 A 
ATOM     56  C   UNL A   1      40.855  32.354  36.189  1.00  0.00     0.049 A 
ATOM     57  H   UNL A   1      40.641  31.197  34.437  1.00  0.00     0.167 HD
ATOM     58  C   UNL A   1      39.038  33.497  34.941  1.00  0.00     0.074 A 
ATOM     59  C   UNL A   1      38.028  34.527  34.793  1.00  0.00     0.031 C 
ATOM     60  C   UNL A   1      39.851  33.375  36.019  1.00  0.00     0.037 A 
BRANCH  47  61
ATOM     61  C   UNL A   1      43.779  28.601  35.740  1.00  0.00     0.058 A 
ATOM     62  C   UNL A   1      45.136  28.877  35.514  1.00  0.00     0.135 A 
ATOM     63  C   UNL A   1      43.463  27.572  36.644  1.00  0.00     0.135 A 
ATOM     64  F   UNL A   1      45.495  29.839  34.650  1.00  0.00    -0.206 F 
ATOM     65  C   UNL A   1      46.141  28.144  36.139  1.00  0.00     0.059 A 
ATOM     66  C   UNL A   1      44.451  26.845  37.300  1.00  0.00     0.059 A 
ATOM     67  F   UNL A   1      42.181  27.265  36.898  1.00  0.00    -0.206 F 
ATOM     68  C   UNL A   1      45.789  27.127  37.029  1.00  0.00     0.060 A 
BRANCH  68  69
ATOM     69  S   UNL A   1      47.102  26.185  37.835  1.00  0.00     0.124 S 
ATOM     70  O   UNL A   1      47.200  25.018  36.963  1.00  0.00    -0.237 OA
ATOM     71  O   UNL A   1      48.229  27.110  37.784  1.00  0.00    -0.237 OA
ATOM     72  O   UNL A   1      46.567  25.928  39.169  1.00  0.00    -0.744 OA
ENDBRANCH  68  69
ENDBRANCH  47  61
BRANCH  48  73
ATOM     73  C   UNL A   1      36.406  33.477  31.032  1.00  0.00     0.058 A 
ATOM     74  C   UNL A   1      35.104  33.438  31.552  1.00  0.00     0.135 A 
ATOM     75  C   UNL A   1      36.621  34.224  29.862  1.00  0.00     0.135 A 
ATOM     76  F   UNL A   1      34.847  32.733  32.664  1.00  0.00    -0.206 F 
ATOM     77  C   UNL A   1      34.054  34.107  30.933  1.00  0.00     0.059 A 
ATOM     78  C   UNL A   1      35.593  34.926  29.242  1.00  0.00     0.059 A 
ATOM     79  F   UNL A   1      37.851  34.305  29.333  1.00  0.00    -0.206 F 
ATOM     80  C   UNL A   1      34.310  34.853  29.780  1.00  0.00     0.060 A 
BRANCH  80  81
ATOM     81  S   UNL A   1      32.952  35.769  29.020  1.00  0.00     0.124 S 
ATOM     82  O   UNL A   1      33.666  36.852  28.355  1.00  0.00    -0.237 OA
ATOM     83  O   UNL A   1      32.356  34.764  28.146  1.00  0.00    -0.237 OA
ATOM     84  O   UNL A   1      32.131  36.159  30.163  1.00  0.00    -0.744 OA
ENDBRANCH  80  81
ENDBRANCH  48  73
BRANCH  60  85
ATOM     85  C   UNL A   1      39.710  34.404  37.103  1.00  0.00     0.058 A 
ATOM     86  C   UNL A   1      38.892  34.187  38.223  1.00  0.00     0.135 A 
ATOM     87  C   UNL A   1      40.437  35.603  37.041  1.00  0.00     0.135 A 
ATOM     88  F   UNL A   1      38.168  33.062  38.324  1.00  0.00    -0.206 F 
ATOM     89  C   UNL A   1      38.782  35.136  39.234  1.00  0.00     0.059 A 
ATOM     90  C   UNL A   1      40.363  36.554  38.054  1.00  0.00     0.059 A 
ATOM     91  F   UNL A   1      41.240  35.854  35.994  1.00  0.00    -0.206 F 
ATOM     92  C   UNL A   1      39.524  36.317  39.141  1.00  0.00     0.060 A 
BRANCH  92  93
ATOM     93  S   UNL A   1      39.397  37.527  40.474  1.00  0.00     0.124 S 
ATOM     94  O   UNL A   1      39.113  36.670  41.621  1.00  0.00    -0.237 OA
ATOM     95  O   UNL A   1      40.718  38.149  40.460  1.00  0.00    -0.237 OA
ATOM     96  O   UNL A   1      38.300  38.389  40.047  1.00  0.00    -0.744 OA
ENDBRANCH  92  93
ENDBRANCH  60  85
ENDBRANCH  34  35
ENDBRANCH  27  29
ENDBRANCH  26  27
ENDBRANCH  25  26
ENDBRANCH   1  25
TORSDOF 19
ENDMDL
MODEL 2
REMARK VINA RESULT:     -10.6      4.151      6.486
REMARK SMILES COC(=O)c1cscc1NS(=O)(=O)c1cc(C)c(C(=O)OCCOC(=O)c2ccc(-c3c4nc(c(-c5c(F)cc(S(=O)(=O)[O-])cc5F)c5ccc([nH]5)c(-c5c(F)cc(S(=O)(=O)[O-])cc5F)c5nc(c(-c6c(F)cc(S(=O)(=O)[O-])cc6F)c6ccc3[nH]6)C=C5)C=C4)cc2)s1
REMARK SMILES IDX 22 1 21 2 19 3 20 4 18 5 14 6 15 7 93 8 16 9 17 10 11 11
REMARK SMILES IDX 12 12 13 13 10 14 9 16 5 17 6 18 7 19 8 20 3 21 4 22 2 23
REMARK SMILES IDX 1 24 23 25 24 26 25 27 26 28 27 29 28 30 92 31 29 32 91 33
REMARK SMILES IDX 30 34 31 35 32 36 85 37 33 38 90 39 84 40 86 41 34 42 89 43
REMARK SMILES IDX 83 44 82 45 35 47 69 48 48 49 68 50 49 51 52 52 67 53 87 54
REMARK SMILES IDX 50 55 51 56 66 58 88 59 53 60 36 61 37 62 46 63 38 64 39 65
REMARK SMILES IDX 45 66 47 67 40 68 41 69 42 70 43 71 44 72 70 73 71 74 80 75
REMARK SMILES IDX 72 76 73 77 79 78 81 79 74 80 75 81 76 82 77 83 78 84 54 85
REMARK SMILES IDX 55 86 64 87 56 88 57 89 63 90 65 91 58 92 59 93 60 94 61 95
REMARK SMILES IDX 62 96
REMARK H PARENT 10 15 86 46 52 57
REMARK Flexibility Score: inf
ROOT
ATOM      1  C   UNL A   1      40.043  21.079  26.294  1.00  0.00     0.275 C 
ENDROOT
BRANCH   1   2
ATOM      2  O   UNL A   1      41.366  20.857  26.826  1.00  0.00    -0.458 OA
BRANCH   2   3
ATOM      3  C   UNL A   1      42.140  20.002  26.097  1.00  0.00     0.348 C 
ATOM      4  O   UNL A   1      41.780  18.886  25.742  1.00  0.00    -0.245 OA
BRANCH   3   5
ATOM      5  C   UNL A   1      43.446  20.568  25.814  1.00  0.00     0.116 A 
ATOM      6  C   UNL A   1      45.137  22.348  25.511  1.00  0.00     0.141 A 
ATOM      7  C   UNL A   1      45.429  21.205  24.787  1.00  0.00     0.038 A 
ATOM      8  S   UNL A   1      43.859  22.041  26.584  1.00  0.00    -0.115 S 
ATOM      9  C   UNL A   1      44.467  20.145  24.976  1.00  0.00    -0.024 A 
ATOM     10  C   UNL A   1      44.516  18.829  24.276  1.00  0.00     0.046 C 
BRANCH   6  11
ATOM     11  S   UNL A   1      45.887  23.959  25.613  1.00  0.00     0.271 S 
ATOM     12  O   UNL A   1      46.055  24.331  24.220  1.00  0.00    -0.200 OA
ATOM     13  O   UNL A   1      47.043  23.802  26.470  1.00  0.00    -0.200 OA
BRANCH  11  14
ATOM     14  N   UNL A   1      44.898  25.151  26.295  1.00  0.00    -0.277 N 
ATOM     15  H   UNL A   1      44.033  25.303  25.850  1.00  0.00     0.180 HD
BRANCH  14  16
ATOM     16  C   UNL A   1      45.162  25.956  27.429  1.00  0.00     0.074 A 
ATOM     17  C   UNL A   1      45.294  27.401  27.342  1.00  0.00     0.094 A 
ATOM     18  C   UNL A   1      45.533  27.961  28.589  1.00  0.00     0.082 A 
ATOM     19  S   UNL A   1      45.539  26.808  29.842  1.00  0.00    -0.149 S 
ATOM     20  C   UNL A   1      45.178  25.550  28.746  1.00  0.00     0.092 A 
BRANCH  17  21
ATOM     21  C   UNL A   1      45.177  28.196  26.120  1.00  0.00     0.340 C 
ATOM     22  O   UNL A   1      45.244  27.685  25.006  1.00  0.00    -0.246 OA
BRANCH  21  23
ATOM     23  O   UNL A   1      44.947  29.516  26.361  1.00  0.00    -0.465 OA
ATOM     24  C   UNL A   1      46.058  30.394  26.169  1.00  0.00     0.282 C 
ENDBRANCH  21  23
ENDBRANCH  17  21
ENDBRANCH  14  16
ENDBRANCH  11  14
ENDBRANCH   6  11
ENDBRANCH   3   5
ENDBRANCH   2   3
ENDBRANCH   1   2
BRANCH   1  25
ATOM     25  C   UNL A   1      39.600  22.538  26.434  1.00  0.00     0.275 C 
BRANCH  25  26
ATOM     26  O   UNL A   1      40.463  23.273  27.322  1.00  0.00    -0.458 OA
BRANCH  26  27
ATOM     27  C   UNL A   1      41.011  24.389  26.791  1.00  0.00     0.338 C 
ATOM     28  O   UNL A   1      41.598  24.483  25.725  1.00  0.00    -0.246 OA
BRANCH  27  29
ATOM     29  C   UNL A   1      40.733  25.551  27.647  1.00  0.00     0.060 A 
ATOM     30  C   UNL A   1      41.657  26.590  27.661  1.00  0.00     0.016 A 
ATOM     31  C   UNL A   1      39.677  25.543  28.555  1.00  0.00     0.016 A 
ATOM     32  C   UNL A   1      41.616  27.559  28.654  1.00  0.00     0.010 A 
ATOM     33  C   UNL A   1      39.568  26.587  29.484  1.00  0.00     0.010 A 
ATOM     34  C   UNL A   1      40.559  27.583  29.569  1.00  0.00    -0.014 A 
BRANCH  34  35
ATOM     35  C   UNL A   1      40.518  28.639  30.616  1.00  0.00     0.031 A 
ATOM     36  C   UNL A   1      41.481  28.595  31.774  1.00  0.00     0.074 A 
ATOM     37  C   UNL A   1      39.633  29.651  30.514  1.00  0.00     0.049 A 
ATOM     38  N   UNL A   1      41.500  29.324  32.860  1.00  0.00    -0.248 NA
ATOM     39  C   UNL A   1      42.556  27.593  31.705  1.00  0.00     0.031 C 
ATOM     40  C   UNL A   1      38.682  29.840  29.414  1.00  0.00     0.029 A 
ATOM     41  N   UNL A   1      39.388  30.717  31.344  1.00  0.00    -0.354 N 
ATOM     42  C   UNL A   1      42.555  28.837  33.625  1.00  0.00     0.074 A 
ATOM     43  C   UNL A   1      43.146  27.745  32.882  1.00  0.00     0.031 C 
ATOM     44  C   UNL A   1      37.978  30.961  29.625  1.00  0.00     0.029 A 
ATOM     45  C   UNL A   1      38.362  31.525  30.913  1.00  0.00     0.049 A 
ATOM     46  H   UNL A   1      39.898  30.886  32.169  1.00  0.00     0.167 HD
ATOM     47  C   UNL A   1      42.988  29.266  34.836  1.00  0.00     0.037 A 
ATOM     48  C   UNL A   1      37.762  32.573  31.505  1.00  0.00     0.037 A 
ATOM     49  C   UNL A   1      42.420  30.387  35.541  1.00  0.00     0.049 A 
ATOM     50  C   UNL A   1      38.232  33.006  32.864  1.00  0.00     0.074 A 
ATOM     51  C   UNL A   1      42.793  30.913  36.765  1.00  0.00     0.029 A 
ATOM     52  N   UNL A   1      41.367  31.163  35.078  1.00  0.00    -0.354 N 
ATOM     53  N   UNL A   1      39.200  32.509  33.597  1.00  0.00    -0.248 NA
ATOM     54  C   UNL A   1      37.522  34.132  33.485  1.00  0.00     0.031 C 
ATOM     55  C   UNL A   1      41.941  31.983  37.059  1.00  0.00     0.029 A 
ATOM     56  C   UNL A   1      41.068  32.155  35.998  1.00  0.00     0.049 A 
ATOM     57  H   UNL A   1      40.901  31.029  34.220  1.00  0.00     0.167 HD
ATOM     58  C   UNL A   1      39.227  33.270  34.758  1.00  0.00     0.074 A 
ATOM     59  C   UNL A   1      38.188  34.273  34.624  1.00  0.00     0.031 C 
ATOM     60  C   UNL A   1      40.035  33.149  35.840  1.00  0.00     0.037 A 
BRANCH  47  61
ATOM     61  C   UNL A   1      44.105  28.500  35.494  1.00  0.00     0.058 A 
ATOM     62  C   UNL A   1      45.449  28.881  35.365  1.00  0.00     0.135 A 
ATOM     63  C   UNL A   1      43.817  27.380  36.293  1.00  0.00     0.135 A 
ATOM     64  F   UNL A   1      45.783  29.933  34.602  1.00  0.00    -0.206 F 
ATOM     65  C   UNL A   1      46.471  28.164  35.982  1.00  0.00     0.059 A 
ATOM     66  C   UNL A   1      44.820  26.665  36.941  1.00  0.00     0.059 A 
ATOM     67  F   UNL A   1      42.548  26.971  36.452  1.00  0.00    -0.206 F 
ATOM     68  C   UNL A   1      46.146  27.055  36.766  1.00  0.00     0.060 A 
BRANCH  68  69
ATOM     69  S   UNL A   1      47.480  26.134  37.562  1.00  0.00     0.124 S 
ATOM     70  O   UNL A   1      47.399  24.849  36.874  1.00  0.00    -0.237 OA
ATOM     71  O   UNL A   1      48.652  26.946  37.251  1.00  0.00    -0.237 OA
ATOM     72  O   UNL A   1      47.090  26.117  38.969  1.00  0.00    -0.744 OA
ENDBRANCH  68  69
ENDBRANCH  47  61
BRANCH  48  73
ATOM     73  C   UNL A   1      36.627  33.255  30.829  1.00  0.00     0.058 A 
ATOM     74  C   UNL A   1      35.304  33.041  31.242  1.00  0.00     0.135 A 
ATOM     75  C   UNL A   1      36.845  34.157  29.774  1.00  0.00     0.135 A 
ATOM     76  F   UNL A   1      35.044  32.183  32.241  1.00  0.00    -0.206 F 
ATOM     77  C   UNL A   1      34.237  33.689  30.630  1.00  0.00     0.059 A 
ATOM     78  C   UNL A   1      35.797  34.840  29.166  1.00  0.00     0.059 A 
ATOM     79  F   UNL A   1      38.093  34.408  29.351  1.00  0.00    -0.206 F 
ATOM     80  C   UNL A   1      34.494  34.592  29.595  1.00  0.00     0.060 A 
BRANCH  80  81
ATOM     81  S   UNL A   1      33.108  35.475  28.849  1.00  0.00     0.124 S 
ATOM     82  O   UNL A   1      32.403  35.962  30.029  1.00  0.00    -0.237 OA
ATOM     83  O   UNL A   1      33.786  36.488  28.046  1.00  0.00    -0.237 OA
ATOM     84  O   UNL A   1      32.422  34.437  28.085  1.00  0.00    -0.744 OA
ENDBRANCH  80  81
ENDBRANCH  48  73
BRANCH  60  85
ATOM     85  C   UNL A   1      39.856  34.151  36.945  1.00  0.00     0.058 A 
ATOM     86  C   UNL A   1      40.439  35.425  36.886  1.00  0.00     0.135 A 
ATOM     87  C   UNL A   1      39.053  33.844  38.056  1.00  0.00     0.135 A 
ATOM     88  F   UNL A   1      41.223  35.762  35.850  1.00  0.00    -0.206 F 
ATOM     89  C   UNL A   1      40.252  36.355  37.903  1.00  0.00     0.059 A 
ATOM     90  C   UNL A   1      38.830  34.768  39.071  1.00  0.00     0.059 A 
ATOM     91  F   UNL A   1      38.467  32.640  38.155  1.00  0.00    -0.206 F 
ATOM     92  C   UNL A   1      39.444  36.018  38.991  1.00  0.00     0.060 A 
BRANCH  92  93
ATOM     93  S   UNL A   1      39.182  37.244  40.290  1.00  0.00     0.124 S 
ATOM     94  O   UNL A   1      38.361  36.496  41.238  1.00  0.00    -0.237 OA
ATOM     95  O   UNL A   1      40.544  37.538  40.724  1.00  0.00    -0.237 OA
ATOM     96  O   UNL A   1      38.504  38.334  39.595  1.00  0.00    -0.744 OA
ENDBRANCH  92  93
ENDBRANCH  60  85
ENDBRANCH  34  35
ENDBRANCH  27  29
ENDBRANCH  26  27
ENDBRANCH  25  26
ENDBRANCH   1  25
TORSDOF 19
ENDMDL
MODEL 3
REMARK VINA RESULT:     -10.6      1.701      2.571
REMARK SMILES COC(=O)c1cscc1NS(=O)(=O)c1cc(C)c(C(=O)OCCOC(=O)c2ccc(-c3c4nc(c(-c5c(F)cc(S(=O)(=O)[O-])cc5F)c5ccc([nH]5)c(-c5c(F)cc(S(=O)(=O)[O-])cc5F)c5nc(c(-c6c(F)cc(S(=O)(=O)[O-])cc6F)c6ccc3[nH]6)C=C5)C=C4)cc2)s1
REMARK SMILES IDX 22 1 21 2 19 3 20 4 18 5 14 6 15 7 93 8 16 9 17 10 11 11
REMARK SMILES IDX 12 12 13 13 10 14 9 16 5 17 6 18 7 19 8 20 3 21 4 22 2 23
REMARK SMILES IDX 1 24 23 25 24 26 25 27 26 28 27 29 28 30 92 31 29 32 91 33
REMARK SMILES IDX 30 34 31 35 32 36 85 37 33 38 90 39 84 40 86 41 34 42 89 43
REMARK SMILES IDX 83 44 82 45 35 47 69 48 48 49 68 50 49 51 52 52 67 53 87 54
REMARK SMILES IDX 50 55 51 56 66 58 88 59 53 60 36 61 37 62 46 63 38 64 39 65
REMARK SMILES IDX 45 66 47 67 40 68 41 69 42 70 43 71 44 72 70 73 71 74 80 75
REMARK SMILES IDX 72 76 73 77 79 78 81 79 74 80 75 81 76 82 77 83 78 84 54 85
REMARK SMILES IDX 55 86 64 87 56 88 57 89 63 90 65 91 58 92 59 93 60 94 61 95
REMARK SMILES IDX 62 96
REMARK H PARENT 10 15 86 46 52 57
REMARK Flexibility Score: inf
ROOT
ATOM      1  C   UNL A   1      38.837  21.338  26.041  1.00  0.00     0.275 C 
ENDROOT
BRANCH   1   2
ATOM      2  O   UNL A   1      37.792  21.865  25.197  1.00  0.00    -0.458 OA
BRANCH   2   3
ATOM      3  C   UNL A   1      36.592  21.223  25.305  1.00  0.00     0.348 C 
ATOM      4  O   UNL A   1      36.422  20.040  25.038  1.00  0.00    -0.245 OA
BRANCH   3   5
ATOM      5  C   UNL A   1      35.542  22.119  25.752  1.00  0.00     0.116 A 
ATOM      6  C   UNL A   1      33.230  22.953  26.035  1.00  0.00     0.141 A 
ATOM      7  C   UNL A   1      34.173  23.965  26.084  1.00  0.00     0.038 A 
ATOM      8  S   UNL A   1      34.001  21.443  26.076  1.00  0.00    -0.115 S 
ATOM      9  C   UNL A   1      35.530  23.491  25.949  1.00  0.00    -0.024 A 
ATOM     10  C   UNL A   1      36.731  24.376  25.917  1.00  0.00     0.046 C 
BRANCH   6  11
ATOM     11  S   UNL A   1      31.450  22.933  26.060  1.00  0.00     0.271 S 
ATOM     12  O   UNL A   1      31.133  23.585  27.317  1.00  0.00    -0.200 OA
ATOM     13  O   UNL A   1      31.068  21.556  25.836  1.00  0.00    -0.200 OA
BRANCH  11  14
ATOM     14  N   UNL A   1      30.722  23.873  24.854  1.00  0.00    -0.277 N 
ATOM     15  H   UNL A   1      29.786  23.654  24.642  1.00  0.00     0.180 HD
BRANCH  14  16
ATOM     16  C   UNL A   1      31.295  24.935  24.115  1.00  0.00     0.074 A 
ATOM     17  C   UNL A   1      32.254  24.708  23.046  1.00  0.00     0.094 A 
ATOM     18  C   UNL A   1      32.653  25.903  22.465  1.00  0.00     0.082 A 
ATOM     19  S   UNL A   1      31.864  27.258  23.130  1.00  0.00    -0.149 S 
ATOM     20  C   UNL A   1      30.945  26.266  24.172  1.00  0.00     0.092 A 
BRANCH  17  21
ATOM     21  C   UNL A   1      32.740  23.402  22.600  1.00  0.00     0.340 C 
ATOM     22  O   UNL A   1      33.929  23.195  22.377  1.00  0.00    -0.246 OA
BRANCH  21  23
ATOM     23  O   UNL A   1      31.754  22.468  22.510  1.00  0.00    -0.465 OA
ATOM     24  C   UNL A   1      32.175  21.102  22.541  1.00  0.00     0.282 C 
ENDBRANCH  21  23
ENDBRANCH  17  21
ENDBRANCH  14  16
ENDBRANCH  11  14
ENDBRANCH   6  11
ENDBRANCH   3   5
ENDBRANCH   2   3
ENDBRANCH   1   2
BRANCH   1  25
ATOM     25  C   UNL A   1      40.023  22.299  26.163  1.00  0.00     0.275 C 
BRANCH  25  26
ATOM     26  O   UNL A   1      39.733  23.391  27.054  1.00  0.00    -0.458 OA
BRANCH  26  27
ATOM     27  C   UNL A   1      40.230  24.589  26.670  1.00  0.00     0.338 C 
ATOM     28  O   UNL A   1      40.456  24.959  25.530  1.00  0.00    -0.246 OA
BRANCH  27  29
ATOM     29  C   UNL A   1      40.398  25.469  27.836  1.00  0.00     0.060 A 
ATOM     30  C   UNL A   1      39.312  25.644  28.686  1.00  0.00     0.016 A 
ATOM     31  C   UNL A   1      41.541  26.249  27.994  1.00  0.00     0.016 A 
ATOM     32  C   UNL A   1      39.300  26.676  29.614  1.00  0.00     0.010 A 
ATOM     33  C   UNL A   1      41.574  27.214  29.010  1.00  0.00     0.010 A 
ATOM     34  C   UNL A   1      40.438  27.464  29.804  1.00  0.00    -0.014 A 
BRANCH  34  35
ATOM     35  C   UNL A   1      40.417  28.554  30.815  1.00  0.00     0.031 A 
ATOM     36  C   UNL A   1      41.381  28.532  31.973  1.00  0.00     0.074 A 
ATOM     37  C   UNL A   1      39.551  29.579  30.681  1.00  0.00     0.049 A 
ATOM     38  N   UNL A   1      41.415  29.295  33.034  1.00  0.00    -0.248 NA
ATOM     39  C   UNL A   1      42.438  27.508  31.936  1.00  0.00     0.031 C 
ATOM     40  C   UNL A   1      38.602  29.748  29.576  1.00  0.00     0.029 A 
ATOM     41  N   UNL A   1      39.326  30.675  31.475  1.00  0.00    -0.354 N 
ATOM     42  C   UNL A   1      42.462  28.815  33.815  1.00  0.00     0.074 A 
ATOM     43  C   UNL A   1      43.032  27.688  33.108  1.00  0.00     0.031 C 
ATOM     44  C   UNL A   1      37.918  30.887  29.750  1.00  0.00     0.029 A 
ATOM     45  C   UNL A   1      38.314  31.487  31.018  1.00  0.00     0.049 A 
ATOM     46  H   UNL A   1      39.840  30.863  32.293  1.00  0.00     0.167 HD
ATOM     47  C   UNL A   1      42.904  29.276  35.010  1.00  0.00     0.037 A 
ATOM     48  C   UNL A   1      37.734  32.565  31.576  1.00  0.00     0.037 A 
ATOM     49  C   UNL A   1      42.358  30.430  35.678  1.00  0.00     0.049 A 
ATOM     50  C   UNL A   1      38.214  33.034  32.920  1.00  0.00     0.074 A 
ATOM     51  C   UNL A   1      42.742  30.989  36.884  1.00  0.00     0.029 A 
ATOM     52  N   UNL A   1      41.318  31.209  35.190  1.00  0.00    -0.354 N 
ATOM     53  N   UNL A   1      39.173  32.544  33.667  1.00  0.00    -0.248 NA
ATOM     54  C   UNL A   1      37.525  34.192  33.504  1.00  0.00     0.031 C 
ATOM     55  C   UNL A   1      41.909  32.084  37.143  1.00  0.00     0.029 A 
ATOM     56  C   UNL A   1      41.038  32.236  36.077  1.00  0.00     0.049 A 
ATOM     57  H   UNL A   1      40.849  31.055  34.338  1.00  0.00     0.167 HD
ATOM     58  C   UNL A   1      39.216  33.343  34.803  1.00  0.00     0.074 A 
ATOM     59  C   UNL A   1      38.195  34.359  34.637  1.00  0.00     0.031 C 
ATOM     60  C   UNL A   1      40.023  33.243  35.888  1.00  0.00     0.037 A 
BRANCH  47  61
ATOM     61  C   UNL A   1      44.008  28.512  35.692  1.00  0.00     0.058 A 
ATOM     62  C   UNL A   1      45.363  28.817  35.489  1.00  0.00     0.135 A 
ATOM     63  C   UNL A   1      43.699  27.475  36.588  1.00  0.00     0.135 A 
ATOM     64  F   UNL A   1      45.717  29.788  34.633  1.00  0.00    -0.206 F 
ATOM     65  C   UNL A   1      46.373  28.103  36.129  1.00  0.00     0.059 A 
ATOM     66  C   UNL A   1      44.691  26.767  37.260  1.00  0.00     0.059 A 
ATOM     67  F   UNL A   1      42.420  27.141  36.821  1.00  0.00    -0.206 F 
ATOM     68  C   UNL A   1      46.027  27.077  37.012  1.00  0.00     0.060 A 
BRANCH  68  69
ATOM     69  S   UNL A   1      47.345  26.160  37.837  1.00  0.00     0.124 S 
ATOM     70  O   UNL A   1      47.968  27.206  38.643  1.00  0.00    -0.237 OA
ATOM     71  O   UNL A   1      46.604  25.145  38.580  1.00  0.00    -0.237 OA
ATOM     72  O   UNL A   1      48.153  25.655  36.731  1.00  0.00    -0.744 OA
ENDBRANCH  68  69
ENDBRANCH  47  61
BRANCH  48  73
ATOM     73  C   UNL A   1      36.610  33.244  30.879  1.00  0.00     0.058 A 
ATOM     74  C   UNL A   1      35.288  33.099  31.324  1.00  0.00     0.135 A 
ATOM     75  C   UNL A   1      36.839  34.076  29.770  1.00  0.00     0.135 A 
ATOM     76  F   UNL A   1      35.017  32.310  32.375  1.00  0.00    -0.206 F 
ATOM     77  C   UNL A   1      34.232  33.747  30.691  1.00  0.00     0.059 A 
ATOM     78  C   UNL A   1      35.804  34.757  29.139  1.00  0.00     0.059 A 
ATOM     79  F   UNL A   1      38.088  34.260  29.314  1.00  0.00    -0.206 F 
ATOM     80  C   UNL A   1      34.502  34.578  29.601  1.00  0.00     0.060 A 
BRANCH  80  81
ATOM     81  S   UNL A   1      33.132  35.463  28.827  1.00  0.00     0.124 S 
ATOM     82  O   UNL A   1      33.840  36.456  28.027  1.00  0.00    -0.237 OA
ATOM     83  O   UNL A   1      32.463  34.401  28.082  1.00  0.00    -0.237 OA
ATOM     84  O   UNL A   1      32.383  35.985  29.967  1.00  0.00    -0.744 OA
ENDBRANCH  80  81
ENDBRANCH  48  73
BRANCH  60  85
ATOM     85  C   UNL A   1      39.864  34.283  36.959  1.00  0.00     0.058 A 
ATOM     86  C   UNL A   1      40.440  35.557  36.841  1.00  0.00     0.135 A 
ATOM     87  C   UNL A   1      39.086  34.016  38.097  1.00  0.00     0.135 A 
ATOM     88  F   UNL A   1      41.201  35.859  35.777  1.00  0.00    -0.206 F 
ATOM     89  C   UNL A   1      40.271  36.523  37.827  1.00  0.00     0.059 A 
ATOM     90  C   UNL A   1      38.881  34.975  39.082  1.00  0.00     0.059 A 
ATOM     91  F   UNL A   1      38.507  32.814  38.253  1.00  0.00    -0.206 F 
ATOM     92  C   UNL A   1      39.488  36.223  38.944  1.00  0.00     0.060 A 
BRANCH  92  93
ATOM     93  S   UNL A   1      39.249  37.495  40.202  1.00  0.00     0.124 S 
ATOM     94  O   UNL A   1      38.238  38.341  39.575  1.00  0.00    -0.237 OA
ATOM     95  O   UNL A   1      38.800  36.718  41.353  1.00  0.00    -0.237 OA
ATOM     96  O   UNL A   1      40.574  38.093  40.336  1.00  0.00    -0.744 OA
ENDBRANCH  92  93
ENDBRANCH  60  85
ENDBRANCH  34  35
ENDBRANCH  27  29
ENDBRANCH  26  27
ENDBRANCH  25  26
ENDBRANCH   1  25
TORSDOF 19
ENDMDL
