MODEL 1
REMARK VINA RESULT:     -10.2      0.000      0.000
REMARK SMILES COCCCNC(=O)/C(C#N)=C/c1ccc(C(=O)OCCOC(=O)c2ccc(-c3c4nc(c(-c5c(F)cc(S(=O)(=O)[O-])cc5F)c5ccc([nH]5)c(-c5c(F)cc(S(=O)(=O)[O-])cc5F)c5nc(c(-c6c(F)cc(S(=O)(=O)[O-])cc6F)c6ccc3[nH]6)C=C5)C=C4)cc2)cc1
REMARK SMILES IDX 19 1 17 2 18 3 16 4 13 5 14 6 92 7 15 8 91 9 12 10 9 11 7 12
REMARK SMILES IDX 6 13 8 15 5 16 4 17 3 18 2 19 1 20 10 21 11 22 20 23 21 24
REMARK SMILES IDX 22 25 23 26 24 27 25 28 26 29 90 30 27 31 89 32 28 33 29 34
REMARK SMILES IDX 30 35 83 36 31 37 88 38 82 39 84 40 32 41 87 42 81 43 80 44
REMARK SMILES IDX 33 46 67 47 46 48 66 49 47 50 50 51 65 52 85 53 48 54 49 55
REMARK SMILES IDX 64 57 86 58 51 59 34 60 35 61 44 62 36 63 37 64 43 65 45 66
REMARK SMILES IDX 38 67 39 68 40 69 41 70 42 71 68 72 69 73 78 74 70 75 71 76
REMARK SMILES IDX 77 77 79 78 72 79 73 80 74 81 75 82 76 83 52 84 53 85 62 86
REMARK SMILES IDX 54 87 55 88 61 89 63 90 56 91 57 92 58 93 59 94 60 95
REMARK H PARENT 6 14 84 45 50 56
REMARK Flexibility Score: inf
ROOT
ATOM      1  O   UNL A   1      41.542  21.478  25.584  1.00  0.00    -0.458 OA
ENDROOT
BRANCH   1   2
ATOM      2  C   UNL A   1      40.608  21.233  26.533  1.00  0.00     0.338 C 
ATOM      3  O   UNL A   1      40.762  20.573  27.550  1.00  0.00    -0.246 OA
BRANCH   2   4
ATOM      4  C   UNL A   1      39.355  21.967  26.247  1.00  0.00     0.060 A 
ATOM      5  C   UNL A   1      36.987  23.422  25.955  1.00  0.00    -0.024 A 
ATOM      6  C   UNL A   1      38.146  24.070  26.373  1.00  0.00     0.009 A 
ATOM      7  C   UNL A   1      37.030  22.063  25.602  1.00  0.00     0.009 A 
ATOM      8  C   UNL A   1      39.306  23.332  26.560  1.00  0.00     0.016 A 
ATOM      9  C   UNL A   1      38.217  21.335  25.743  1.00  0.00     0.016 A 
BRANCH   5  10
ATOM     10  C   UNL A   1      35.734  24.153  26.163  1.00  0.00     0.033 C 
ATOM     11  C   UNL A   1      34.797  24.174  25.197  1.00  0.00     0.117 C 
BRANCH  11  12
ATOM     12  C   UNL A   1      33.473  24.851  25.429  1.00  0.00     0.261 C 
ATOM     13  N   UNL A   1      32.394  24.213  25.997  1.00  0.00    -0.351 N 
ATOM     14  H   UNL A   1      31.613  24.795  26.140  1.00  0.00     0.163 HD
ATOM     15  O   UNL A   1      33.311  26.026  25.092  1.00  0.00    -0.268 OA
BRANCH  13  16
ATOM     16  C   UNL A   1      32.199  22.831  26.424  1.00  0.00     0.118 C 
BRANCH  16  17
ATOM     17  C   UNL A   1      31.535  21.893  25.422  1.00  0.00     0.050 C 
BRANCH  17  18
ATOM     18  C   UNL A   1      32.407  20.848  24.743  1.00  0.00     0.161 C 
BRANCH  18  19
ATOM     19  O   UNL A   1      32.188  19.523  25.216  1.00  0.00    -0.385 OA
ATOM     20  C   UNL A   1      32.461  18.506  24.267  1.00  0.00     0.194 C 
ENDBRANCH  18  19
ENDBRANCH  17  18
ENDBRANCH  16  17
ENDBRANCH  13  16
ENDBRANCH  11  12
BRANCH  11  21
ATOM     21  C   UNL A   1      35.121  23.697  23.791  1.00  0.00     0.105 C 
ATOM     22  N   UNL A   1      35.391  23.301  22.624  1.00  0.00    -0.192 NA
ENDBRANCH  11  21
ENDBRANCH   5  10
ENDBRANCH   2   4
ENDBRANCH   1   2
BRANCH   1  23
ATOM     23  C   UNL A   1      42.750  22.108  26.059  1.00  0.00     0.275 C 
BRANCH  23  24
ATOM     24  C   UNL A   1      42.988  23.433  25.335  1.00  0.00     0.275 C 
BRANCH  24  25
ATOM     25  O   UNL A   1      43.172  24.502  26.282  1.00  0.00    -0.458 OA
BRANCH  25  26
ATOM     26  C   UNL A   1      42.395  25.593  26.089  1.00  0.00     0.338 C 
ATOM     27  O   UNL A   1      41.825  25.923  25.064  1.00  0.00    -0.246 OA
BRANCH  26  28
ATOM     28  C   UNL A   1      42.241  26.335  27.351  1.00  0.00     0.060 A 
ATOM     29  C   UNL A   1      41.318  25.866  28.275  1.00  0.00     0.016 A 
ATOM     30  C   UNL A   1      42.858  27.567  27.556  1.00  0.00     0.016 A 
ATOM     31  C   UNL A   1      40.899  26.673  29.327  1.00  0.00     0.010 A 
ATOM     32  C   UNL A   1      42.551  28.308  28.708  1.00  0.00     0.010 A 
ATOM     33  C   UNL A   1      41.543  27.888  29.596  1.00  0.00    -0.014 A 
BRANCH  33  34
ATOM     34  C   UNL A   1      41.178  28.677  30.815  1.00  0.00     0.031 A 
ATOM     35  C   UNL A   1      40.008  29.632  30.801  1.00  0.00     0.074 A 
ATOM     36  C   UNL A   1      41.904  28.539  31.947  1.00  0.00     0.049 A 
ATOM     37  N   UNL A   1      39.662  30.527  31.691  1.00  0.00    -0.248 NA
ATOM     38  C   UNL A   1      39.114  29.585  29.631  1.00  0.00     0.031 C 
ATOM     39  C   UNL A   1      43.045  27.633  32.121  1.00  0.00     0.029 A 
ATOM     40  N   UNL A   1      41.798  29.155  33.172  1.00  0.00    -0.354 N 
ATOM     41  C   UNL A   1      38.555  31.187  31.168  1.00  0.00     0.074 A 
ATOM     42  C   UNL A   1      38.282  30.588  29.879  1.00  0.00     0.031 C 
ATOM     43  C   UNL A   1      43.498  27.717  33.379  1.00  0.00     0.029 A 
ATOM     44  C   UNL A   1      42.770  28.772  34.069  1.00  0.00     0.049 A 
ATOM     45  H   UNL A   1      41.094  29.809  33.387  1.00  0.00     0.167 HD
ATOM     46  C   UNL A   1      37.838  32.202  31.712  1.00  0.00     0.037 A 
ATOM     47  C   UNL A   1      43.098  29.251  35.284  1.00  0.00     0.037 A 
ATOM     48  C   UNL A   1      38.086  32.754  33.021  1.00  0.00     0.049 A 
ATOM     49  C   UNL A   1      42.320  30.407  35.841  1.00  0.00     0.074 A 
ATOM     50  C   UNL A   1      37.390  33.757  33.676  1.00  0.00     0.029 A 
ATOM     51  N   UNL A   1      39.100  32.351  33.877  1.00  0.00    -0.354 N 
ATOM     52  N   UNL A   1      41.292  31.033  35.320  1.00  0.00    -0.248 NA
ATOM     53  C   UNL A   1      42.755  30.938  37.139  1.00  0.00     0.031 C 
ATOM     54  C   UNL A   1      38.017  33.999  34.902  1.00  0.00     0.029 A 
ATOM     55  C   UNL A   1      39.067  33.107  35.039  1.00  0.00     0.049 A 
ATOM     56  H   UNL A   1      39.748  31.635  33.688  1.00  0.00     0.167 HD
ATOM     57  C   UNL A   1      40.952  32.025  36.231  1.00  0.00     0.074 A 
ATOM     58  C   UNL A   1      41.863  31.896  37.350  1.00  0.00     0.031 C 
ATOM     59  C   UNL A   1      39.979  32.964  36.146  1.00  0.00     0.037 A 
BRANCH  46  60
ATOM     60  C   UNL A   1      36.731  32.817  30.896  1.00  0.00     0.058 A 
ATOM     61  C   UNL A   1      35.381  32.486  31.093  1.00  0.00     0.135 A 
ATOM     62  C   UNL A   1      37.024  33.829  29.964  1.00  0.00     0.135 A 
ATOM     63  F   UNL A   1      35.042  31.519  31.959  1.00  0.00    -0.206 F 
ATOM     64  C   UNL A   1      34.364  33.130  30.391  1.00  0.00     0.059 A 
ATOM     65  C   UNL A   1      36.022  34.504  29.271  1.00  0.00     0.059 A 
ATOM     66  F   UNL A   1      38.297  34.187  29.735  1.00  0.00    -0.206 F 
ATOM     67  C   UNL A   1      34.694  34.143  29.488  1.00  0.00     0.060 A 
BRANCH  67  68
ATOM     68  S   UNL A   1      33.359  34.997  28.621  1.00  0.00     0.124 S 
ATOM     69  O   UNL A   1      32.592  35.548  29.734  1.00  0.00    -0.237 OA
ATOM     70  O   UNL A   1      34.086  35.968  27.810  1.00  0.00    -0.237 OA
ATOM     71  O   UNL A   1      32.699  33.929  27.875  1.00  0.00    -0.744 OA
ENDBRANCH  67  68
ENDBRANCH  46  60
BRANCH  47  72
ATOM     72  C   UNL A   1      44.269  28.693  36.020  1.00  0.00     0.058 A 
ATOM     73  C   UNL A   1      44.123  27.633  36.926  1.00  0.00     0.135 A 
ATOM     74  C   UNL A   1      45.560  29.218  35.835  1.00  0.00     0.135 A 
ATOM     75  F   UNL A   1      42.910  27.102  37.146  1.00  0.00    -0.206 F 
ATOM     76  C   UNL A   1      45.206  27.129  37.638  1.00  0.00     0.059 A 
ATOM     77  C   UNL A   1      46.664  28.706  36.506  1.00  0.00     0.059 A 
ATOM     78  F   UNL A   1      45.761  30.225  34.970  1.00  0.00    -0.206 F 
ATOM     79  C   UNL A   1      46.474  27.672  37.421  1.00  0.00     0.060 A 
BRANCH  79  80
ATOM     80  S   UNL A   1      47.878  26.999  38.335  1.00  0.00     0.124 S 
ATOM     81  O   UNL A   1      48.129  28.058  39.304  1.00  0.00    -0.237 OA
ATOM     82  O   UNL A   1      47.328  25.758  38.872  1.00  0.00    -0.237 OA
ATOM     83  O   UNL A   1      48.899  26.830  37.304  1.00  0.00    -0.744 OA
ENDBRANCH  79  80
ENDBRANCH  47  72
BRANCH  59  84
ATOM     84  C   UNL A   1      39.832  33.906  37.308  1.00  0.00     0.058 A 
ATOM     85  C   UNL A   1      40.502  35.139  37.346  1.00  0.00     0.135 A 
ATOM     86  C   UNL A   1      38.987  33.584  38.382  1.00  0.00     0.135 A 
ATOM     87  F   UNL A   1      41.331  35.489  36.350  1.00  0.00    -0.206 F 
ATOM     88  C   UNL A   1      40.358  36.010  38.421  1.00  0.00     0.059 A 
ATOM     89  C   UNL A   1      38.804  34.454  39.451  1.00  0.00     0.059 A 
ATOM     90  F   UNL A   1      38.318  32.420  38.392  1.00  0.00    -0.206 F 
ATOM     91  C   UNL A   1      39.504  35.659  39.468  1.00  0.00     0.060 A 
BRANCH  91  92
ATOM     92  S   UNL A   1      39.303  36.813  40.842  1.00  0.00     0.124 S 
ATOM     93  O   UNL A   1      40.690  37.128  41.166  1.00  0.00    -0.237 OA
ATOM     94  O   UNL A   1      38.533  37.892  40.232  1.00  0.00    -0.237 OA
ATOM     95  O   UNL A   1      38.587  36.028  41.843  1.00  0.00    -0.744 OA
ENDBRANCH  91  92
ENDBRANCH  59  84
ENDBRANCH  33  34
ENDBRANCH  26  28
ENDBRANCH  25  26
ENDBRANCH  24  25
ENDBRANCH  23  24
ENDBRANCH   1  23
TORSDOF 21
ENDMDL
MODEL 2
REMARK VINA RESULT:     -10.2      1.149      2.483
REMARK SMILES COCCCNC(=O)/C(C#N)=C/c1ccc(C(=O)OCCOC(=O)c2ccc(-c3c4nc(c(-c5c(F)cc(S(=O)(=O)[O-])cc5F)c5ccc([nH]5)c(-c5c(F)cc(S(=O)(=O)[O-])cc5F)c5nc(c(-c6c(F)cc(S(=O)(=O)[O-])cc6F)c6ccc3[nH]6)C=C5)C=C4)cc2)cc1
REMARK SMILES IDX 19 1 17 2 18 3 16 4 13 5 14 6 92 7 15 8 91 9 12 10 9 11 7 12
REMARK SMILES IDX 6 13 8 15 5 16 4 17 3 18 2 19 1 20 10 21 11 22 20 23 21 24
REMARK SMILES IDX 22 25 23 26 24 27 25 28 26 29 90 30 27 31 89 32 28 33 29 34
REMARK SMILES IDX 30 35 83 36 31 37 88 38 82 39 84 40 32 41 87 42 81 43 80 44
REMARK SMILES IDX 33 46 67 47 46 48 66 49 47 50 50 51 65 52 85 53 48 54 49 55
REMARK SMILES IDX 64 57 86 58 51 59 34 60 35 61 44 62 36 63 37 64 43 65 45 66
REMARK SMILES IDX 38 67 39 68 40 69 41 70 42 71 68 72 69 73 78 74 70 75 71 76
REMARK SMILES IDX 77 77 79 78 72 79 73 80 74 81 75 82 76 83 52 84 53 85 62 86
REMARK SMILES IDX 54 87 55 88 61 89 63 90 56 91 57 92 58 93 59 94 60 95
REMARK H PARENT 6 14 84 45 50 56
REMARK Flexibility Score: inf
ROOT
ATOM      1  O   UNL A   1      41.441  21.715  25.844  1.00  0.00    -0.458 OA
ENDROOT
BRANCH   1   2
ATOM      2  C   UNL A   1      40.539  21.711  26.854  1.00  0.00     0.338 C 
ATOM      3  O   UNL A   1      40.739  21.351  28.005  1.00  0.00    -0.246 OA
BRANCH   2   4
ATOM      4  C   UNL A   1      39.257  22.313  26.423  1.00  0.00     0.060 A 
ATOM      5  C   UNL A   1      36.908  23.400  25.368  1.00  0.00    -0.024 A 
ATOM      6  C   UNL A   1      37.213  22.062  25.134  1.00  0.00     0.009 A 
ATOM      7  C   UNL A   1      37.735  24.174  26.200  1.00  0.00     0.009 A 
ATOM      8  C   UNL A   1      38.403  21.542  25.621  1.00  0.00     0.016 A 
ATOM      9  C   UNL A   1      38.909  23.629  26.732  1.00  0.00     0.016 A 
BRANCH   5  10
ATOM     10  C   UNL A   1      35.872  23.980  24.510  1.00  0.00     0.033 C 
ATOM     11  C   UNL A   1      34.580  23.935  24.887  1.00  0.00     0.117 C 
BRANCH  11  12
ATOM     12  C   UNL A   1      33.517  24.599  24.055  1.00  0.00     0.261 C 
ATOM     13  N   UNL A   1      32.796  25.687  24.490  1.00  0.00    -0.351 N 
ATOM     14  H   UNL A   1      32.174  26.052  23.819  1.00  0.00     0.163 HD
ATOM     15  O   UNL A   1      33.245  24.163  22.934  1.00  0.00    -0.268 OA
BRANCH  13  16
ATOM     16  C   UNL A   1      32.785  26.397  25.766  1.00  0.00     0.118 C 
BRANCH  16  17
ATOM     17  C   UNL A   1      33.978  27.301  26.055  1.00  0.00     0.050 C 
BRANCH  17  18
ATOM     18  C   UNL A   1      33.770  28.467  27.011  1.00  0.00     0.161 C 
BRANCH  18  19
ATOM     19  O   UNL A   1      34.957  29.205  27.282  1.00  0.00    -0.385 OA
ATOM     20  C   UNL A   1      34.741  30.562  27.632  1.00  0.00     0.194 C 
ENDBRANCH  18  19
ENDBRANCH  17  18
ENDBRANCH  16  17
ENDBRANCH  13  16
ENDBRANCH  11  12
BRANCH  11  21
ATOM     21  C   UNL A   1      34.140  23.049  26.041  1.00  0.00     0.105 C 
ATOM     22  N   UNL A   1      33.774  22.314  26.998  1.00  0.00    -0.192 NA
ENDBRANCH  11  21
ENDBRANCH   5  10
ENDBRANCH   2   4
ENDBRANCH   1   2
BRANCH   1  23
ATOM     23  C   UNL A   1      42.699  22.352  26.146  1.00  0.00     0.275 C 
BRANCH  23  24
ATOM     24  C   UNL A   1      42.884  23.610  25.297  1.00  0.00     0.275 C 
BRANCH  24  25
ATOM     25  O   UNL A   1      43.070  24.765  26.136  1.00  0.00    -0.458 OA
BRANCH  25  26
ATOM     26  C   UNL A   1      42.124  25.726  26.024  1.00  0.00     0.338 C 
ATOM     27  O   UNL A   1      41.404  25.948  25.066  1.00  0.00    -0.246 OA
BRANCH  26  28
ATOM     28  C   UNL A   1      42.000  26.465  27.292  1.00  0.00     0.060 A 
ATOM     29  C   UNL A   1      41.115  25.981  28.244  1.00  0.00     0.016 A 
ATOM     30  C   UNL A   1      42.605  27.706  27.478  1.00  0.00     0.016 A 
ATOM     31  C   UNL A   1      40.718  26.780  29.311  1.00  0.00     0.010 A 
ATOM     32  C   UNL A   1      42.323  28.441  28.640  1.00  0.00     0.010 A 
ATOM     33  C   UNL A   1      41.351  28.005  29.560  1.00  0.00    -0.014 A 
BRANCH  33  34
ATOM     34  C   UNL A   1      41.014  28.787  30.791  1.00  0.00     0.031 A 
ATOM     35  C   UNL A   1      39.855  29.756  30.803  1.00  0.00     0.074 A 
ATOM     36  C   UNL A   1      41.755  28.630  31.911  1.00  0.00     0.049 A 
ATOM     37  N   UNL A   1      39.533  30.647  31.707  1.00  0.00    -0.248 NA
ATOM     38  C   UNL A   1      38.944  29.730  29.646  1.00  0.00     0.031 C 
ATOM     39  C   UNL A   1      42.888  27.709  32.060  1.00  0.00     0.029 A 
ATOM     40  N   UNL A   1      41.675  29.236  33.143  1.00  0.00    -0.354 N 
ATOM     41  C   UNL A   1      38.427  31.325  31.205  1.00  0.00     0.074 A 
ATOM     42  C   UNL A   1      38.127  30.741  29.915  1.00  0.00     0.031 C 
ATOM     43  C   UNL A   1      43.360  27.776  33.312  1.00  0.00     0.029 A 
ATOM     44  C   UNL A   1      42.655  28.833  34.022  1.00  0.00     0.049 A 
ATOM     45  H   UNL A   1      40.982  29.897  33.375  1.00  0.00     0.167 HD
ATOM     46  C   UNL A   1      37.730  32.343  31.769  1.00  0.00     0.037 A 
ATOM     47  C   UNL A   1      43.007  29.297  35.236  1.00  0.00     0.037 A 
ATOM     48  C   UNL A   1      38.004  32.880  33.079  1.00  0.00     0.049 A 
ATOM     49  C   UNL A   1      42.251  30.457  35.815  1.00  0.00     0.074 A 
ATOM     50  C   UNL A   1      37.330  33.885  33.753  1.00  0.00     0.029 A 
ATOM     51  N   UNL A   1      39.026  32.458  33.917  1.00  0.00    -0.354 N 
ATOM     52  N   UNL A   1      41.223  31.101  35.315  1.00  0.00    -0.248 NA
ATOM     53  C   UNL A   1      42.712  30.971  37.111  1.00  0.00     0.031 C 
ATOM     54  C   UNL A   1      37.978  34.109  34.972  1.00  0.00     0.029 A 
ATOM     55  C   UNL A   1      39.019  33.203  35.086  1.00  0.00     0.049 A 
ATOM     56  H   UNL A   1      39.662  31.735  33.711  1.00  0.00     0.167 HD
ATOM     57  C   UNL A   1      40.909  32.088  36.240  1.00  0.00     0.074 A 
ATOM     58  C   UNL A   1      41.835  31.938  37.343  1.00  0.00     0.031 C 
ATOM     59  C   UNL A   1      39.946  33.040  36.178  1.00  0.00     0.037 A 
BRANCH  46  60
ATOM     60  C   UNL A   1      36.618  32.979  30.976  1.00  0.00     0.058 A 
ATOM     61  C   UNL A   1      35.265  32.772  31.283  1.00  0.00     0.135 A 
ATOM     62  C   UNL A   1      36.921  33.888  29.946  1.00  0.00     0.135 A 
ATOM     63  F   UNL A   1      34.914  31.906  32.246  1.00  0.00    -0.206 F 
ATOM     64  C   UNL A   1      34.253  33.438  30.595  1.00  0.00     0.059 A 
ATOM     65  C   UNL A   1      35.927  34.584  29.263  1.00  0.00     0.059 A 
ATOM     66  F   UNL A   1      38.199  34.124  29.609  1.00  0.00    -0.206 F 
ATOM     67  C   UNL A   1      34.594  34.349  29.592  1.00  0.00     0.060 A 
BRANCH  67  68
ATOM     68  S   UNL A   1      33.271  35.235  28.741  1.00  0.00     0.124 S 
ATOM     69  O   UNL A   1      32.662  34.166  27.954  1.00  0.00    -0.237 OA
ATOM     70  O   UNL A   1      32.469  35.739  29.852  1.00  0.00    -0.237 OA
ATOM     71  O   UNL A   1      33.980  36.252  27.971  1.00  0.00    -0.744 OA
ENDBRANCH  67  68
ENDBRANCH  46  60
BRANCH  47  72
ATOM     72  C   UNL A   1      44.182  28.719  35.949  1.00  0.00     0.058 A 
ATOM     73  C   UNL A   1      45.479  29.199  35.724  1.00  0.00     0.135 A 
ATOM     74  C   UNL A   1      44.028  27.665  36.867  1.00  0.00     0.135 A 
ATOM     75  F   UNL A   1      45.683  30.198  34.850  1.00  0.00    -0.206 F 
ATOM     76  C   UNL A   1      46.584  28.644  36.362  1.00  0.00     0.059 A 
ATOM     77  C   UNL A   1      45.111  27.119  37.547  1.00  0.00     0.059 A 
ATOM     78  F   UNL A   1      42.806  27.174  37.131  1.00  0.00    -0.206 F 
ATOM     79  C   UNL A   1      46.389  27.603  37.273  1.00  0.00     0.060 A 
BRANCH  79  80
ATOM     80  S   UNL A   1      47.824  26.901  38.113  1.00  0.00     0.124 S 
ATOM     81  O   UNL A   1      48.780  27.997  38.021  1.00  0.00    -0.237 OA
ATOM     82  O   UNL A   1      47.295  26.623  39.444  1.00  0.00    -0.237 OA
ATOM     83  O   UNL A   1      48.137  25.720  37.312  1.00  0.00    -0.744 OA
ENDBRANCH  79  80
ENDBRANCH  47  72
BRANCH  59  84
ATOM     84  C   UNL A   1      39.828  33.972  37.350  1.00  0.00     0.058 A 
ATOM     85  C   UNL A   1      40.477  35.217  37.370  1.00  0.00     0.135 A 
ATOM     86  C   UNL A   1      39.029  33.630  38.453  1.00  0.00     0.135 A 
ATOM     87  F   UNL A   1      41.262  35.585  36.346  1.00  0.00    -0.206 F 
ATOM     88  C   UNL A   1      40.359  36.079  38.455  1.00  0.00     0.059 A 
ATOM     89  C   UNL A   1      38.872  34.491  39.534  1.00  0.00     0.059 A 
ATOM     90  F   UNL A   1      38.381  32.454  38.482  1.00  0.00    -0.206 F 
ATOM     91  C   UNL A   1      39.552  35.708  39.531  1.00  0.00     0.060 A 
BRANCH  91  92
ATOM     92  S   UNL A   1      39.385  36.850  40.919  1.00  0.00     0.124 S 
ATOM     93  O   UNL A   1      38.640  36.041  41.877  1.00  0.00    -0.237 OA
ATOM     94  O   UNL A   1      40.776  37.125  41.266  1.00  0.00    -0.237 OA
ATOM     95  O   UNL A   1      38.653  37.976  40.346  1.00  0.00    -0.744 OA
ENDBRANCH  91  92
ENDBRANCH  59  84
ENDBRANCH  33  34
ENDBRANCH  26  28
ENDBRANCH  25  26
ENDBRANCH  24  25
ENDBRANCH  23  24
ENDBRANCH   1  23
TORSDOF 21
ENDMDL
MODEL 3
REMARK VINA RESULT:     -10.2      3.394      9.505
REMARK SMILES COCCCNC(=O)/C(C#N)=C/c1ccc(C(=O)OCCOC(=O)c2ccc(-c3c4nc(c(-c5c(F)cc(S(=O)(=O)[O-])cc5F)c5ccc([nH]5)c(-c5c(F)cc(S(=O)(=O)[O-])cc5F)c5nc(c(-c6c(F)cc(S(=O)(=O)[O-])cc6F)c6ccc3[nH]6)C=C5)C=C4)cc2)cc1
REMARK SMILES IDX 19 1 17 2 18 3 16 4 13 5 14 6 92 7 15 8 91 9 12 10 9 11 7 12
REMARK SMILES IDX 6 13 8 15 5 16 4 17 3 18 2 19 1 20 10 21 11 22 20 23 21 24
REMARK SMILES IDX 22 25 23 26 24 27 25 28 26 29 90 30 27 31 89 32 28 33 29 34
REMARK SMILES IDX 30 35 83 36 31 37 88 38 82 39 84 40 32 41 87 42 81 43 80 44
REMARK SMILES IDX 33 46 67 47 46 48 66 49 47 50 50 51 65 52 85 53 48 54 49 55
REMARK SMILES IDX 64 57 86 58 51 59 34 60 35 61 44 62 36 63 37 64 43 65 45 66
REMARK SMILES IDX 38 67 39 68 40 69 41 70 42 71 68 72 69 73 78 74 70 75 71 76
REMARK SMILES IDX 77 77 79 78 72 79 73 80 74 81 75 82 76 83 52 84 53 85 62 86
REMARK SMILES IDX 54 87 55 88 61 89 63 90 56 91 57 92 58 93 59 94 60 95
REMARK H PARENT 6 14 84 45 50 56
REMARK Flexibility Score: inf
ROOT
ATOM      1  O   UNL A   1      34.814  22.506  24.981  1.00  0.00    -0.458 OA
ENDROOT
BRANCH   1   2
ATOM      2  C   UNL A   1      34.037  23.239  24.150  1.00  0.00     0.338 C 
ATOM      3  O   UNL A   1      33.716  22.946  23.007  1.00  0.00    -0.246 OA
BRANCH   2   4
ATOM      4  C   UNL A   1      33.506  24.437  24.839  1.00  0.00     0.060 A 
ATOM      5  C   UNL A   1      32.412  26.775  25.910  1.00  0.00    -0.024 A 
ATOM      6  C   UNL A   1      31.579  25.846  25.293  1.00  0.00     0.009 A 
ATOM      7  C   UNL A   1      33.781  26.498  26.066  1.00  0.00     0.009 A 
ATOM      8  C   UNL A   1      32.135  24.710  24.723  1.00  0.00     0.016 A 
ATOM      9  C   UNL A   1      34.328  25.325  25.534  1.00  0.00     0.016 A 
BRANCH   5  10
ATOM     10  C   UNL A   1      31.838  28.106  26.125  1.00  0.00     0.033 C 
ATOM     11  C   UNL A   1      31.975  29.060  25.186  1.00  0.00     0.117 C 
BRANCH  11  12
ATOM     12  C   UNL A   1      31.321  30.404  25.358  1.00  0.00     0.261 C 
ATOM     13  N   UNL A   1      30.298  30.848  24.552  1.00  0.00    -0.351 N 
ATOM     14  H   UNL A   1      29.928  31.722  24.817  1.00  0.00     0.163 HD
ATOM     15  O   UNL A   1      31.706  31.172  26.243  1.00  0.00    -0.268 OA
BRANCH  13  16
ATOM     16  C   UNL A   1      29.663  30.260  23.377  1.00  0.00     0.118 C 
BRANCH  16  17
ATOM     17  C   UNL A   1      28.542  31.066  22.729  1.00  0.00     0.050 C 
BRANCH  17  18
ATOM     18  C   UNL A   1      28.662  32.583  22.740  1.00  0.00     0.161 C 
BRANCH  18  19
ATOM     19  O   UNL A   1      28.027  33.216  21.635  1.00  0.00    -0.385 OA
ATOM     20  C   UNL A   1      27.823  32.375  20.511  1.00  0.00     0.194 C 
ENDBRANCH  18  19
ENDBRANCH  17  18
ENDBRANCH  16  17
ENDBRANCH  13  16
ENDBRANCH  11  12
BRANCH  11  21
ATOM     21  C   UNL A   1      32.952  28.881  24.035  1.00  0.00     0.105 C 
ATOM     22  N   UNL A   1      33.762  28.732  23.080  1.00  0.00    -0.192 NA
ENDBRANCH  11  21
ENDBRANCH   5  10
ENDBRANCH   2   4
ENDBRANCH   1   2
BRANCH   1  23
ATOM     23  C   UNL A   1      36.008  21.959  24.384  1.00  0.00     0.275 C 
BRANCH  23  24
ATOM     24  C   UNL A   1      37.039  23.060  24.136  1.00  0.00     0.275 C 
BRANCH  24  25
ATOM     25  O   UNL A   1      37.440  23.668  25.378  1.00  0.00    -0.458 OA
BRANCH  25  26
ATOM     26  C   UNL A   1      38.616  23.234  25.887  1.00  0.00     0.338 C 
ATOM     27  O   UNL A   1      39.161  22.163  25.682  1.00  0.00    -0.246 OA
BRANCH  26  28
ATOM     28  C   UNL A   1      39.238  24.293  26.700  1.00  0.00     0.060 A 
ATOM     29  C   UNL A   1      38.878  24.382  28.038  1.00  0.00     0.016 A 
ATOM     30  C   UNL A   1      40.022  25.290  26.128  1.00  0.00     0.016 A 
ATOM     31  C   UNL A   1      39.174  25.524  28.774  1.00  0.00     0.010 A 
ATOM     32  C   UNL A   1      40.456  26.365  26.921  1.00  0.00     0.010 A 
ATOM     33  C   UNL A   1      40.013  26.516  28.248  1.00  0.00    -0.014 A 
BRANCH  33  34
ATOM     34  C   UNL A   1      40.439  27.669  29.102  1.00  0.00     0.031 A 
ATOM     35  C   UNL A   1      41.735  27.624  29.877  1.00  0.00     0.074 A 
ATOM     36  C   UNL A   1      39.657  28.768  29.187  1.00  0.00     0.049 A 
ATOM     37  N   UNL A   1      42.171  28.439  30.804  1.00  0.00    -0.248 NA
ATOM     38  C   UNL A   1      42.658  26.514  29.583  1.00  0.00     0.031 C 
ATOM     39  C   UNL A   1      38.391  28.969  28.473  1.00  0.00     0.029 A 
ATOM     40  N   UNL A   1      39.803  29.930  29.908  1.00  0.00    -0.354 N 
ATOM     41  C   UNL A   1      43.381  27.913  31.245  1.00  0.00     0.074 A 
ATOM     42  C   UNL A   1      43.616  26.706  30.481  1.00  0.00     0.031 C 
ATOM     43  C   UNL A   1      37.906  30.186  28.751  1.00  0.00     0.029 A 
ATOM     44  C   UNL A   1      38.751  30.807  29.760  1.00  0.00     0.049 A 
ATOM     45  H   UNL A   1      40.585  30.118  30.476  1.00  0.00     0.167 HD
ATOM     46  C   UNL A   1      44.216  28.393  32.200  1.00  0.00     0.037 A 
ATOM     47  C   UNL A   1      38.448  31.949  30.406  1.00  0.00     0.037 A 
ATOM     48  C   UNL A   1      43.999  29.626  32.916  1.00  0.00     0.049 A 
ATOM     49  C   UNL A   1      39.362  32.431  31.494  1.00  0.00     0.074 A 
ATOM     50  C   UNL A   1      44.806  30.215  33.876  1.00  0.00     0.029 A 
ATOM     51  N   UNL A   1      42.904  30.462  32.752  1.00  0.00    -0.354 N 
ATOM     52  N   UNL A   1      40.490  31.906  31.912  1.00  0.00    -0.248 NA
ATOM     53  C   UNL A   1      38.958  33.645  32.214  1.00  0.00     0.031 C 
ATOM     54  C   UNL A   1      44.173  31.376  34.331  1.00  0.00     0.029 A 
ATOM     55  C   UNL A   1      43.000  31.543  33.614  1.00  0.00     0.049 A 
ATOM     56  H   UNL A   1      42.168  30.309  32.117  1.00  0.00     0.167 HD
ATOM     57  C   UNL A   1      40.933  32.733  32.937  1.00  0.00     0.074 A 
ATOM     58  C   UNL A   1      39.970  33.808  33.055  1.00  0.00     0.031 C 
ATOM     59  C   UNL A   1      42.034  32.608  33.717  1.00  0.00     0.037 A 
BRANCH  46  60
ATOM     60  C   UNL A   1      45.432  27.582  32.566  1.00  0.00     0.058 A 
ATOM     61  C   UNL A   1      46.686  27.803  31.976  1.00  0.00     0.135 A 
ATOM     62  C   UNL A   1      45.355  26.627  33.596  1.00  0.00     0.135 A 
ATOM     63  F   UNL A   1      46.817  28.692  30.980  1.00  0.00    -0.206 F 
ATOM     64  C   UNL A   1      47.818  27.104  32.390  1.00  0.00     0.059 A 
ATOM     65  C   UNL A   1      46.478  25.936  34.043  1.00  0.00     0.059 A 
ATOM     66  F   UNL A   1      44.181  26.373  34.195  1.00  0.00    -0.206 F 
ATOM     67  C   UNL A   1      47.706  26.178  33.430  1.00  0.00     0.060 A 
BRANCH  67  68
ATOM     68  S   UNL A   1      49.192  25.313  33.982  1.00  0.00     0.124 S 
ATOM     69  O   UNL A   1      49.324  24.277  32.962  1.00  0.00    -0.237 OA
ATOM     70  O   UNL A   1      50.198  26.369  33.946  1.00  0.00    -0.237 OA
ATOM     71  O   UNL A   1      48.835  24.836  35.315  1.00  0.00    -0.744 OA
ENDBRANCH  67  68
ENDBRANCH  46  60
BRANCH  47  72
ATOM     72  C   UNL A   1      37.181  32.672  30.098  1.00  0.00     0.058 A 
ATOM     73  C   UNL A   1      35.999  32.403  30.802  1.00  0.00     0.135 A 
ATOM     74  C   UNL A   1      37.127  33.643  29.083  1.00  0.00     0.135 A 
ATOM     75  F   UNL A   1      35.993  31.477  31.775  1.00  0.00    -0.206 F 
ATOM     76  C   UNL A   1      34.805  33.051  30.499  1.00  0.00     0.059 A 
ATOM     77  C   UNL A   1      35.956  34.332  28.787  1.00  0.00     0.059 A 
ATOM     78  F   UNL A   1      38.231  33.951  28.384  1.00  0.00    -0.206 F 
ATOM     79  C   UNL A   1      34.794  34.015  29.489  1.00  0.00     0.060 A 
BRANCH  79  80
ATOM     80  S   UNL A   1      33.247  34.867  29.115  1.00  0.00     0.124 S 
ATOM     81  O   UNL A   1      33.733  36.135  28.586  1.00  0.00    -0.237 OA
ATOM     82  O   UNL A   1      32.627  33.965  28.149  1.00  0.00    -0.237 OA
ATOM     83  O   UNL A   1      32.581  34.937  30.413  1.00  0.00    -0.744 OA
ENDBRANCH  79  80
ENDBRANCH  47  72
BRANCH  59  84
ATOM     84  C   UNL A   1      42.270  33.678  34.746  1.00  0.00     0.058 A 
ATOM     85  C   UNL A   1      41.746  33.579  36.045  1.00  0.00     0.135 A 
ATOM     86  C   UNL A   1      43.056  34.800  34.438  1.00  0.00     0.135 A 
ATOM     87  F   UNL A   1      40.978  32.533  36.385  1.00  0.00    -0.206 F 
ATOM     88  C   UNL A   1      41.972  34.569  36.996  1.00  0.00     0.059 A 
ATOM     89  C   UNL A   1      43.320  35.786  35.383  1.00  0.00     0.059 A 
ATOM     90  F   UNL A   1      43.586  34.940  33.213  1.00  0.00    -0.206 F 
ATOM     91  C   UNL A   1      42.763  35.667  36.655  1.00  0.00     0.060 A 
BRANCH  91  92
ATOM     92  S   UNL A   1      43.073  36.929  37.908  1.00  0.00     0.124 S 
ATOM     93  O   UNL A   1      43.988  36.233  38.806  1.00  0.00    -0.237 OA
ATOM     94  O   UNL A   1      43.656  38.012  37.122  1.00  0.00    -0.237 OA
ATOM     95  O   UNL A   1      41.746  37.202  38.452  1.00  0.00    -0.744 OA
ENDBRANCH  91  92
ENDBRANCH  59  84
ENDBRANCH  33  34
ENDBRANCH  26  28
ENDBRANCH  25  26
ENDBRANCH  24  25
ENDBRANCH  23  24
ENDBRANCH   1  23
TORSDOF 21
ENDMDL
