MODEL 1
REMARK VINA RESULT:     -11.4      0.000      0.000
REMARK SMILES CCc1ccc(N2C(=O)C[C@@H](SC[C@@H](NC(C)=O)C(=O)OCCOC(=O)c3ccc(-c4c5nc(c(-c6c(F)cc(S(=O)(=O)[O-])cc6F)c6ccc([nH]6)c(-c6c(F)cc(S(=O)(=O)[O-])cc6F)c6nc(c(-c7c(F)cc(S(=O)(=O)[O-])cc7F)c7ccc4[nH]7)C=C6)C=C5)cc3)C2=O)cc1
REMARK SMILES IDX 22 1 21 2 19 3 20 4 14 5 13 6 12 7 11 8 7 9 8 10 93 11 9 12
REMARK SMILES IDX 10 13 94 14 6 15 3 16 4 17 96 18 5 19 95 20 2 21 1 22 15 23
REMARK SMILES IDX 16 24 17 26 18 27 23 28 24 29 25 30 26 31 27 32 28 33 92 34
REMARK SMILES IDX 29 35 91 36 30 37 31 38 32 39 85 40 33 41 90 42 84 43 86 44
REMARK SMILES IDX 34 45 89 46 83 47 82 48 35 50 69 51 48 52 68 53 49 54 52 55
REMARK SMILES IDX 67 56 87 57 50 58 51 59 66 61 88 62 53 63 36 64 37 65 46 66
REMARK SMILES IDX 38 67 39 68 45 69 47 70 40 71 41 72 42 73 43 74 44 75 70 76
REMARK SMILES IDX 71 77 80 78 72 79 73 80 79 81 81 82 74 83 75 84 76 85 77 86
REMARK SMILES IDX 78 87 54 88 55 89 64 90 56 91 57 92 63 93 65 94 58 95 59 96
REMARK SMILES IDX 60 97 61 98 62 99
REMARK H PARENT 15 25 86 49 52 60
REMARK Flexibility Score: inf
ROOT
ATOM      1  C   UNL A   1      33.453  29.565  25.610  1.00  0.00     0.274 C 
ENDROOT
BRANCH   1   2
ATOM      2  O   UNL A   1      32.024  29.760  25.728  1.00  0.00    -0.461 OA
BRANCH   2   3
ATOM      3  C   UNL A   1      31.314  28.720  25.224  1.00  0.00     0.329 C 
ATOM      4  O   UNL A   1      31.240  27.617  25.766  1.00  0.00    -0.250 OA
BRANCH   3   5
ATOM      5  C   UNL A   1      30.926  28.841  23.748  1.00  0.00     0.202 C 
BRANCH   5   6
ATOM      6  C   UNL A   1      30.396  27.674  22.944  1.00  0.00     0.107 C 
BRANCH   6   7
ATOM      7  S   UNL A   1      31.559  26.553  22.006  1.00  0.00    -0.145 SA
BRANCH   7   8
ATOM      8  C   UNL A   1      31.597  24.867  22.743  1.00  0.00     0.146 C 
ATOM      9  N   UNL A   1      32.992  23.637  24.162  1.00  0.00    -0.250 N 
ATOM     10  C   UNL A   1      31.840  23.864  24.883  1.00  0.00     0.235 C 
ATOM     11  C   UNL A   1      32.940  24.202  22.900  1.00  0.00     0.247 C 
ATOM     12  O   UNL A   1      31.576  23.506  26.015  1.00  0.00    -0.274 OA
ATOM     13  C   UNL A   1      30.876  24.666  24.055  1.00  0.00     0.125 C 
ATOM     14  O   UNL A   1      33.802  24.195  22.028  1.00  0.00    -0.273 OA
BRANCH   9  15
ATOM     15  C   UNL A   1      34.188  23.109  24.728  1.00  0.00     0.052 A 
ATOM     16  C   UNL A   1      36.805  22.162  25.266  1.00  0.00    -0.048 A 
ATOM     17  C   UNL A   1      36.495  23.517  25.400  1.00  0.00     0.006 A 
ATOM     18  C   UNL A   1      35.760  21.270  24.997  1.00  0.00     0.006 A 
ATOM     19  C   UNL A   1      35.192  23.978  25.180  1.00  0.00     0.027 A 
ATOM     20  C   UNL A   1      34.473  21.741  24.697  1.00  0.00     0.027 A 
BRANCH  16  21
ATOM     21  C   UNL A   1      38.223  21.663  25.412  1.00  0.00     0.032 C 
ATOM     22  C   UNL A   1      39.062  22.438  26.426  1.00  0.00     0.009 C 
ENDBRANCH  16  21
ENDBRANCH   9  15
ENDBRANCH   7   8
ENDBRANCH   6   7
ENDBRANCH   5   6
BRANCH   5  23
ATOM     23  N   UNL A   1      30.115  30.055  23.834  1.00  0.00    -0.342 N 
ATOM     24  C   UNL A   1      29.075  30.346  22.984  1.00  0.00     0.217 C 
ATOM     25  H   UNL A   1      30.325  30.703  24.544  1.00  0.00     0.164 HD
ATOM     26  C   UNL A   1      29.298  30.452  21.510  1.00  0.00     0.114 C 
ATOM     27  O   UNL A   1      27.956  30.506  23.467  1.00  0.00    -0.275 OA
ENDBRANCH   5  23
ENDBRANCH   3   5
ENDBRANCH   2   3
ENDBRANCH   1   2
BRANCH   1  28
ATOM     28  C   UNL A   1      34.214  29.359  26.931  1.00  0.00     0.275 C 
BRANCH  28  29
ATOM     29  O   UNL A   1      33.761  30.189  28.015  1.00  0.00    -0.458 OA
BRANCH  29  30
ATOM     30  C   UNL A   1      34.724  30.939  28.599  1.00  0.00     0.338 C 
ATOM     31  O   UNL A   1      34.562  32.000  29.193  1.00  0.00    -0.246 OA
BRANCH  30  32
ATOM     32  C   UNL A   1      36.016  30.234  28.585  1.00  0.00     0.060 A 
ATOM     33  C   UNL A   1      36.497  29.714  29.794  1.00  0.00     0.016 A 
ATOM     34  C   UNL A   1      36.804  30.199  27.437  1.00  0.00     0.016 A 
ATOM     35  C   UNL A   1      37.766  29.158  29.870  1.00  0.00     0.010 A 
ATOM     36  C   UNL A   1      38.096  29.671  27.520  1.00  0.00     0.010 A 
ATOM     37  C   UNL A   1      38.586  29.174  28.742  1.00  0.00    -0.014 A 
BRANCH  37  38
ATOM     38  C   UNL A   1      40.018  28.841  28.888  1.00  0.00     0.031 A 
ATOM     39  C   UNL A   1      40.954  29.929  29.329  1.00  0.00     0.074 A 
ATOM     40  C   UNL A   1      40.462  27.595  28.657  1.00  0.00     0.049 A 
ATOM     41  N   UNL A   1      42.259  29.947  29.330  1.00  0.00    -0.248 NA
ATOM     42  C   UNL A   1      40.332  31.167  29.831  1.00  0.00     0.031 C 
ATOM     43  C   UNL A   1      39.621  26.443  28.328  1.00  0.00     0.029 A 
ATOM     44  N   UNL A   1      41.738  27.094  28.645  1.00  0.00    -0.354 N 
ATOM     45  C   UNL A   1      42.615  31.211  29.786  1.00  0.00     0.074 A 
ATOM     46  C   UNL A   1      41.392  31.928  30.065  1.00  0.00     0.031 C 
ATOM     47  C   UNL A   1      40.410  25.376  28.113  1.00  0.00     0.029 A 
ATOM     48  C   UNL A   1      41.806  25.785  28.232  1.00  0.00     0.049 A 
ATOM     49  H   UNL A   1      42.528  27.621  28.906  1.00  0.00     0.167 HD
ATOM     50  C   UNL A   1      43.858  31.722  29.941  1.00  0.00     0.037 A 
ATOM     51  C   UNL A   1      42.880  25.028  27.932  1.00  0.00     0.037 A 
ATOM     52  C   UNL A   1      45.060  30.976  29.683  1.00  0.00     0.049 A 
ATOM     53  C   UNL A   1      44.252  25.638  28.055  1.00  0.00     0.074 A 
ATOM     54  C   UNL A   1      46.373  31.391  29.800  1.00  0.00     0.029 A 
ATOM     55  N   UNL A   1      45.089  29.653  29.265  1.00  0.00    -0.354 N 
ATOM     56  N   UNL A   1      44.585  26.850  28.437  1.00  0.00    -0.248 NA
ATOM     57  C   UNL A   1      45.394  24.787  27.697  1.00  0.00     0.031 C 
ATOM     58  C   UNL A   1      47.198  30.327  29.419  1.00  0.00     0.029 A 
ATOM     59  C   UNL A   1      46.399  29.237  29.110  1.00  0.00     0.049 A 
ATOM     60  H   UNL A   1      44.296  29.093  29.102  1.00  0.00     0.167 HD
ATOM     61  C   UNL A   1      45.974  26.893  28.398  1.00  0.00     0.074 A 
ATOM     62  C   UNL A   1      46.420  25.587  27.956  1.00  0.00     0.031 C 
ATOM     63  C   UNL A   1      46.809  27.918  28.699  1.00  0.00     0.037 A 
BRANCH  50  64
ATOM     64  C   UNL A   1      43.981  33.156  30.363  1.00  0.00     0.058 A 
ATOM     65  C   UNL A   1      43.952  34.211  29.439  1.00  0.00     0.135 A 
ATOM     66  C   UNL A   1      44.082  33.481  31.726  1.00  0.00     0.135 A 
ATOM     67  F   UNL A   1      43.884  33.954  28.123  1.00  0.00    -0.206 F 
ATOM     68  C   UNL A   1      44.025  35.539  29.850  1.00  0.00     0.059 A 
ATOM     69  C   UNL A   1      44.134  34.801  32.162  1.00  0.00     0.059 A 
ATOM     70  F   UNL A   1      44.126  32.509  32.651  1.00  0.00    -0.206 F 
ATOM     71  C   UNL A   1      44.111  35.824  31.214  1.00  0.00     0.060 A 
BRANCH  71  72
ATOM     72  S   UNL A   1      44.170  37.551  31.735  1.00  0.00     0.124 S 
ATOM     73  O   UNL A   1      43.657  38.231  30.549  1.00  0.00    -0.237 OA
ATOM     74  O   UNL A   1      43.289  37.557  32.898  1.00  0.00    -0.237 OA
ATOM     75  O   UNL A   1      45.584  37.773  32.022  1.00  0.00    -0.744 OA
ENDBRANCH  71  72
ENDBRANCH  50  64
BRANCH  51  76
ATOM     76  C   UNL A   1      42.704  23.638  27.433  1.00  0.00     0.058 A 
ATOM     77  C   UNL A   1      42.491  22.572  28.317  1.00  0.00     0.135 A 
ATOM     78  C   UNL A   1      42.765  23.346  26.061  1.00  0.00     0.135 A 
ATOM     79  F   UNL A   1      42.434  22.798  29.639  1.00  0.00    -0.206 F 
ATOM     80  C   UNL A   1      42.374  21.261  27.863  1.00  0.00     0.059 A 
ATOM     81  C   UNL A   1      42.623  22.049  25.581  1.00  0.00     0.059 A 
ATOM     82  F   UNL A   1      42.956  24.332  25.170  1.00  0.00    -0.206 F 
ATOM     83  C   UNL A   1      42.446  21.009  26.493  1.00  0.00     0.060 A 
BRANCH  83  84
ATOM     84  S   UNL A   1      42.279  19.308  25.910  1.00  0.00     0.124 S 
ATOM     85  O   UNL A   1      42.792  18.558  27.051  1.00  0.00    -0.237 OA
ATOM     86  O   UNL A   1      40.844  19.202  25.670  1.00  0.00    -0.237 OA
ATOM     87  O   UNL A   1      43.111  19.282  24.711  1.00  0.00    -0.744 OA
ENDBRANCH  83  84
ENDBRANCH  51  76
BRANCH  63  88
ATOM     88  C   UNL A   1      48.285  27.653  28.630  1.00  0.00     0.058 A 
ATOM     89  C   UNL A   1      48.972  27.024  29.678  1.00  0.00     0.135 A 
ATOM     90  C   UNL A   1      49.000  27.960  27.461  1.00  0.00     0.135 A 
ATOM     91  F   UNL A   1      48.333  26.716  30.817  1.00  0.00    -0.206 F 
ATOM     92  C   UNL A   1      50.324  26.719  29.574  1.00  0.00     0.059 A 
ATOM     93  C   UNL A   1      50.345  27.643  27.327  1.00  0.00     0.059 A 
ATOM     94  F   UNL A   1      48.381  28.553  26.427  1.00  0.00    -0.206 F 
ATOM     95  C   UNL A   1      51.002  27.028  28.392  1.00  0.00     0.060 A 
BRANCH  95  96
ATOM     96  S   UNL A   1      52.743  26.576  28.246  1.00  0.00     0.124 S 
ATOM     97  O   UNL A   1      53.091  26.298  29.635  1.00  0.00    -0.237 OA
ATOM     98  O   UNL A   1      52.693  25.417  27.361  1.00  0.00    -0.237 OA
ATOM     99  O   UNL A   1      53.356  27.770  27.672  1.00  0.00    -0.744 OA
ENDBRANCH  95  96
ENDBRANCH  63  88
ENDBRANCH  37  38
ENDBRANCH  30  32
ENDBRANCH  29  30
ENDBRANCH  28  29
ENDBRANCH   1  28
TORSDOF 20
ENDMDL
MODEL 2
REMARK VINA RESULT:     -11.2      2.906      8.444
REMARK SMILES CCc1ccc(N2C(=O)C[C@@H](SC[C@@H](NC(C)=O)C(=O)OCCOC(=O)c3ccc(-c4c5nc(c(-c6c(F)cc(S(=O)(=O)[O-])cc6F)c6ccc([nH]6)c(-c6c(F)cc(S(=O)(=O)[O-])cc6F)c6nc(c(-c7c(F)cc(S(=O)(=O)[O-])cc7F)c7ccc4[nH]7)C=C6)C=C5)cc3)C2=O)cc1
REMARK SMILES IDX 22 1 21 2 19 3 20 4 14 5 13 6 12 7 11 8 7 9 8 10 93 11 9 12
REMARK SMILES IDX 10 13 94 14 6 15 3 16 4 17 96 18 5 19 95 20 2 21 1 22 15 23
REMARK SMILES IDX 16 24 17 26 18 27 23 28 24 29 25 30 26 31 27 32 28 33 92 34
REMARK SMILES IDX 29 35 91 36 30 37 31 38 32 39 85 40 33 41 90 42 84 43 86 44
REMARK SMILES IDX 34 45 89 46 83 47 82 48 35 50 69 51 48 52 68 53 49 54 52 55
REMARK SMILES IDX 67 56 87 57 50 58 51 59 66 61 88 62 53 63 36 64 37 65 46 66
REMARK SMILES IDX 38 67 39 68 45 69 47 70 40 71 41 72 42 73 43 74 44 75 70 76
REMARK SMILES IDX 71 77 80 78 72 79 73 80 79 81 81 82 74 83 75 84 76 85 77 86
REMARK SMILES IDX 78 87 54 88 55 89 64 90 56 91 57 92 63 93 65 94 58 95 59 96
REMARK SMILES IDX 60 97 61 98 62 99
REMARK H PARENT 15 25 86 49 52 60
REMARK Flexibility Score: inf
ROOT
ATOM      1  C   UNL A   1      37.438  21.074  25.068  1.00  0.00     0.274 C 
ENDROOT
BRANCH   1   2
ATOM      2  O   UNL A   1      36.200  20.339  24.926  1.00  0.00    -0.461 OA
BRANCH   2   3
ATOM      3  C   UNL A   1      35.140  20.999  25.454  1.00  0.00     0.329 C 
ATOM      4  O   UNL A   1      35.245  21.936  26.246  1.00  0.00    -0.250 OA
BRANCH   3   5
ATOM      5  C   UNL A   1      33.792  20.283  25.337  1.00  0.00     0.202 C 
BRANCH   5   6
ATOM      6  C   UNL A   1      32.571  20.935  24.729  1.00  0.00     0.107 C 
BRANCH   6   7
ATOM      7  S   UNL A   1      31.557  22.164  25.705  1.00  0.00    -0.145 SA
BRANCH   7   8
ATOM      8  C   UNL A   1      32.059  23.893  25.324  1.00  0.00     0.146 C 
ATOM      9  N   UNL A   1      31.027  25.876  24.632  1.00  0.00    -0.250 N 
ATOM     10  C   UNL A   1      31.433  26.104  25.929  1.00  0.00     0.235 C 
ATOM     11  C   UNL A   1      31.343  24.599  24.201  1.00  0.00     0.247 C 
ATOM     12  O   UNL A   1      31.302  27.114  26.593  1.00  0.00    -0.274 OA
ATOM     13  C   UNL A   1      32.102  24.873  26.472  1.00  0.00     0.125 C 
ATOM     14  O   UNL A   1      31.104  24.083  23.115  1.00  0.00    -0.273 OA
BRANCH   9  15
ATOM     15  C   UNL A   1      30.164  26.749  23.908  1.00  0.00     0.052 A 
ATOM     16  C   UNL A   1      28.461  28.829  23.010  1.00  0.00    -0.048 A 
ATOM     17  C   UNL A   1      29.847  28.939  22.887  1.00  0.00     0.006 A 
ATOM     18  C   UNL A   1      27.934  27.611  23.458  1.00  0.00     0.006 A 
ATOM     19  C   UNL A   1      30.687  27.892  23.287  1.00  0.00     0.027 A 
ATOM     20  C   UNL A   1      28.775  26.596  23.934  1.00  0.00     0.027 A 
BRANCH  16  21
ATOM     21  C   UNL A   1      27.548  29.983  22.667  1.00  0.00     0.032 C 
ATOM     22  C   UNL A   1      27.778  31.238  23.506  1.00  0.00     0.009 C 
ENDBRANCH  16  21
ENDBRANCH   9  15
ENDBRANCH   7   8
ENDBRANCH   6   7
ENDBRANCH   5   6
BRANCH   5  23
ATOM     23  N   UNL A   1      34.264  19.020  24.770  1.00  0.00    -0.342 N 
ATOM     24  C   UNL A   1      33.446  17.956  24.478  1.00  0.00     0.217 C 
ATOM     25  H   UNL A   1      35.226  18.927  24.584  1.00  0.00     0.164 HD
ATOM     26  C   UNL A   1      32.620  17.311  25.544  1.00  0.00     0.114 C 
ATOM     27  O   UNL A   1      33.403  17.556  23.317  1.00  0.00    -0.275 OA
ENDBRANCH   5  23
ENDBRANCH   3   5
ENDBRANCH   2   3
ENDBRANCH   1   2
BRANCH   1  28
ATOM     28  C   UNL A   1      38.688  20.232  25.378  1.00  0.00     0.275 C 
BRANCH  28  29
ATOM     29  O   UNL A   1      39.625  20.863  26.269  1.00  0.00    -0.458 OA
BRANCH  29  30
ATOM     30  C   UNL A   1      40.883  20.367  26.217  1.00  0.00     0.338 C 
ATOM     31  O   UNL A   1      41.207  19.237  25.868  1.00  0.00    -0.246 OA
BRANCH  30  32
ATOM     32  C   UNL A   1      41.873  21.424  26.480  1.00  0.00     0.060 A 
ATOM     33  C   UNL A   1      42.237  21.672  27.810  1.00  0.00     0.016 A 
ATOM     34  C   UNL A   1      42.335  22.247  25.455  1.00  0.00     0.016 A 
ATOM     35  C   UNL A   1      43.062  22.740  28.131  1.00  0.00     0.010 A 
ATOM     36  C   UNL A   1      43.138  23.344  25.780  1.00  0.00     0.010 A 
ATOM     37  C   UNL A   1      43.480  23.606  27.121  1.00  0.00    -0.014 A 
BRANCH  37  38
ATOM     38  C   UNL A   1      44.119  24.886  27.488  1.00  0.00     0.031 A 
ATOM     39  C   UNL A   1      43.242  25.994  27.992  1.00  0.00     0.074 A 
ATOM     40  C   UNL A   1      45.450  25.042  27.395  1.00  0.00     0.049 A 
ATOM     41  N   UNL A   1      43.525  27.254  28.179  1.00  0.00    -0.248 NA
ATOM     42  C   UNL A   1      41.853  25.631  28.328  1.00  0.00     0.031 C 
ATOM     43  C   UNL A   1      46.402  23.996  27.019  1.00  0.00     0.029 A 
ATOM     44  N   UNL A   1      46.231  26.151  27.595  1.00  0.00    -0.354 N 
ATOM     45  C   UNL A   1      42.341  27.845  28.606  1.00  0.00     0.074 A 
ATOM     46  C   UNL A   1      41.339  26.805  28.665  1.00  0.00     0.031 C 
ATOM     47  C   UNL A   1      47.638  24.525  26.981  1.00  0.00     0.029 A 
ATOM     48  C   UNL A   1      47.552  25.953  27.273  1.00  0.00     0.049 A 
ATOM     49  H   UNL A   1      45.879  27.006  27.934  1.00  0.00     0.167 HD
ATOM     50  C   UNL A   1      42.119  29.145  28.905  1.00  0.00     0.037 A 
ATOM     51  C   UNL A   1      48.560  26.841  27.174  1.00  0.00     0.037 A 
ATOM     52  C   UNL A   1      43.142  30.154  28.865  1.00  0.00     0.049 A 
ATOM     53  C   UNL A   1      48.275  28.294  27.455  1.00  0.00     0.074 A 
ATOM     54  C   UNL A   1      43.032  31.504  29.143  1.00  0.00     0.029 A 
ATOM     55  N   UNL A   1      44.468  29.916  28.534  1.00  0.00    -0.354 N 
ATOM     56  N   UNL A   1      47.143  28.858  27.809  1.00  0.00    -0.248 NA
ATOM     57  C   UNL A   1      49.395  29.233  27.314  1.00  0.00     0.031 C 
ATOM     58  C   UNL A   1      44.288  32.090  28.947  1.00  0.00     0.029 A 
ATOM     59  C   UNL A   1      45.187  31.096  28.592  1.00  0.00     0.049 A 
ATOM     60  H   UNL A   1      44.843  29.038  28.292  1.00  0.00     0.167 HD
ATOM     61  C   UNL A   1      47.425  30.211  27.965  1.00  0.00     0.074 A 
ATOM     62  C   UNL A   1      48.833  30.381  27.668  1.00  0.00     0.031 C 
ATOM     63  C   UNL A   1      46.597  31.224  28.321  1.00  0.00     0.037 A 
BRANCH  50  64
ATOM     64  C   UNL A   1      40.719  29.556  29.256  1.00  0.00     0.058 A 
ATOM     65  C   UNL A   1      39.694  29.604  28.300  1.00  0.00     0.135 A 
ATOM     66  C   UNL A   1      40.390  29.863  30.587  1.00  0.00     0.135 A 
ATOM     67  F   UNL A   1      39.961  29.348  27.009  1.00  0.00    -0.206 F 
ATOM     68  C   UNL A   1      38.391  29.947  28.648  1.00  0.00     0.059 A 
ATOM     69  C   UNL A   1      39.090  30.187  30.963  1.00  0.00     0.059 A 
ATOM     70  F   UNL A   1      41.335  29.844  31.539  1.00  0.00    -0.206 F 
ATOM     71  C   UNL A   1      38.098  30.232  29.983  1.00  0.00     0.060 A 
BRANCH  71  72
ATOM     72  S   UNL A   1      36.397  30.641  30.427  1.00  0.00     0.124 S 
ATOM     73  O   UNL A   1      36.114  29.639  31.451  1.00  0.00    -0.237 OA
ATOM     74  O   UNL A   1      36.520  32.015  30.904  1.00  0.00    -0.237 OA
ATOM     75  O   UNL A   1      35.668  30.480  29.173  1.00  0.00    -0.744 OA
ENDBRANCH  71  72
ENDBRANCH  50  64
BRANCH  51  76
ATOM     76  C   UNL A   1      49.912  26.399  26.737  1.00  0.00     0.058 A 
ATOM     77  C   UNL A   1      50.243  26.315  25.378  1.00  0.00     0.135 A 
ATOM     78  C   UNL A   1      50.892  26.033  27.672  1.00  0.00     0.135 A 
ATOM     79  F   UNL A   1      49.337  26.645  24.446  1.00  0.00    -0.206 F 
ATOM     80  C   UNL A   1      51.488  25.856  24.959  1.00  0.00     0.059 A 
ATOM     81  C   UNL A   1      52.153  25.598  27.279  1.00  0.00     0.059 A 
ATOM     82  F   UNL A   1      50.631  26.105  28.987  1.00  0.00    -0.206 F 
ATOM     83  C   UNL A   1      52.436  25.495  25.918  1.00  0.00     0.060 A 
BRANCH  83  84
ATOM     84  S   UNL A   1      54.055  24.915  25.367  1.00  0.00     0.124 S 
ATOM     85  O   UNL A   1      54.395  25.912  24.358  1.00  0.00    -0.237 OA
ATOM     86  O   UNL A   1      54.836  24.960  26.598  1.00  0.00    -0.237 OA
ATOM     87  O   UNL A   1      53.775  23.575  24.860  1.00  0.00    -0.744 OA
ENDBRANCH  83  84
ENDBRANCH  51  76
BRANCH  63  88
ATOM     88  C   UNL A   1      47.201  32.589  28.478  1.00  0.00     0.058 A 
ATOM     89  C   UNL A   1      47.775  33.008  29.687  1.00  0.00     0.135 A 
ATOM     90  C   UNL A   1      47.276  33.455  27.374  1.00  0.00     0.135 A 
ATOM     91  F   UNL A   1      47.722  32.218  30.770  1.00  0.00    -0.206 F 
ATOM     92  C   UNL A   1      48.394  34.248  29.800  1.00  0.00     0.059 A 
ATOM     93  C   UNL A   1      47.912  34.687  27.460  1.00  0.00     0.059 A 
ATOM     94  F   UNL A   1      46.751  33.092  26.194  1.00  0.00    -0.206 F 
ATOM     95  C   UNL A   1      48.462  35.079  28.679  1.00  0.00     0.060 A 
BRANCH  95  96
ATOM     96  S   UNL A   1      49.319  36.661  28.823  1.00  0.00     0.124 S 
ATOM     97  O   UNL A   1      50.705  36.231  28.971  1.00  0.00    -0.237 OA
ATOM     98  O   UNL A   1      48.989  37.312  27.559  1.00  0.00    -0.237 OA
ATOM     99  O   UNL A   1      48.718  37.265  30.007  1.00  0.00    -0.744 OA
ENDBRANCH  95  96
ENDBRANCH  63  88
ENDBRANCH  37  38
ENDBRANCH  30  32
ENDBRANCH  29  30
ENDBRANCH  28  29
ENDBRANCH   1  28
TORSDOF 20
ENDMDL
MODEL 3
REMARK VINA RESULT:     -11.1      4.604     10.836
REMARK SMILES CCc1ccc(N2C(=O)C[C@@H](SC[C@@H](NC(C)=O)C(=O)OCCOC(=O)c3ccc(-c4c5nc(c(-c6c(F)cc(S(=O)(=O)[O-])cc6F)c6ccc([nH]6)c(-c6c(F)cc(S(=O)(=O)[O-])cc6F)c6nc(c(-c7c(F)cc(S(=O)(=O)[O-])cc7F)c7ccc4[nH]7)C=C6)C=C5)cc3)C2=O)cc1
REMARK SMILES IDX 22 1 21 2 19 3 20 4 14 5 13 6 12 7 11 8 7 9 8 10 93 11 9 12
REMARK SMILES IDX 10 13 94 14 6 15 3 16 4 17 96 18 5 19 95 20 2 21 1 22 15 23
REMARK SMILES IDX 16 24 17 26 18 27 23 28 24 29 25 30 26 31 27 32 28 33 92 34
REMARK SMILES IDX 29 35 91 36 30 37 31 38 32 39 85 40 33 41 90 42 84 43 86 44
REMARK SMILES IDX 34 45 89 46 83 47 82 48 35 50 69 51 48 52 68 53 49 54 52 55
REMARK SMILES IDX 67 56 87 57 50 58 51 59 66 61 88 62 53 63 36 64 37 65 46 66
REMARK SMILES IDX 38 67 39 68 45 69 47 70 40 71 41 72 42 73 43 74 44 75 70 76
REMARK SMILES IDX 71 77 80 78 72 79 73 80 79 81 81 82 74 83 75 84 76 85 77 86
REMARK SMILES IDX 78 87 54 88 55 89 64 90 56 91 57 92 63 93 65 94 58 95 59 96
REMARK SMILES IDX 60 97 61 98 62 99
REMARK H PARENT 15 25 86 49 52 60
REMARK Flexibility Score: inf
ROOT
ATOM      1  C   UNL A   1      38.056  22.571  25.763  1.00  0.00     0.274 C 
ENDROOT
BRANCH   1   2
ATOM      2  O   UNL A   1      36.915  21.680  25.768  1.00  0.00    -0.461 OA
BRANCH   2   3
ATOM      3  C   UNL A   1      35.735  22.347  25.799  1.00  0.00     0.329 C 
ATOM      4  O   UNL A   1      35.502  23.287  26.560  1.00  0.00    -0.250 OA
BRANCH   3   5
ATOM      5  C   UNL A   1      34.558  21.636  25.126  1.00  0.00     0.202 C 
BRANCH   5   6
ATOM      6  C   UNL A   1      34.076  21.990  23.736  1.00  0.00     0.107 C 
BRANCH   6   7
ATOM      7  S   UNL A   1      32.429  22.836  23.482  1.00  0.00    -0.145 SA
BRANCH   7   8
ATOM      8  C   UNL A   1      32.416  24.510  24.246  1.00  0.00     0.146 C 
ATOM      9  N   UNL A   1      31.059  26.416  24.200  1.00  0.00    -0.250 N 
ATOM     10  C   UNL A   1      30.925  25.898  25.470  1.00  0.00     0.235 C 
ATOM     11  C   UNL A   1      31.906  25.657  23.412  1.00  0.00     0.247 C 
ATOM     12  O   UNL A   1      30.257  26.324  26.392  1.00  0.00    -0.274 OA
ATOM     13  C   UNL A   1      31.756  24.652  25.597  1.00  0.00     0.125 C 
ATOM     14  O   UNL A   1      32.218  25.837  22.239  1.00  0.00    -0.273 OA
BRANCH   9  15
ATOM     15  C   UNL A   1      30.236  27.455  23.679  1.00  0.00     0.052 A 
ATOM     16  C   UNL A   1      28.521  29.673  23.262  1.00  0.00    -0.048 A 
ATOM     17  C   UNL A   1      29.902  29.849  23.370  1.00  0.00     0.006 A 
ATOM     18  C   UNL A   1      28.024  28.365  23.226  1.00  0.00     0.006 A 
ATOM     19  C   UNL A   1      30.753  28.750  23.529  1.00  0.00     0.027 A 
ATOM     20  C   UNL A   1      28.867  27.270  23.467  1.00  0.00     0.027 A 
BRANCH  16  21
ATOM     21  C   UNL A   1      27.583  30.855  23.181  1.00  0.00     0.032 C 
ATOM     22  C   UNL A   1      28.279  32.214  23.201  1.00  0.00     0.009 C 
ENDBRANCH  16  21
ENDBRANCH   9  15
ENDBRANCH   7   8
ENDBRANCH   6   7
ENDBRANCH   5   6
BRANCH   5  23
ATOM     23  N   UNL A   1      34.953  20.254  25.396  1.00  0.00    -0.342 N 
ATOM     24  C   UNL A   1      34.229  19.156  24.999  1.00  0.00     0.217 C 
ATOM     25  H   UNL A   1      35.789  20.100  25.891  1.00  0.00     0.164 HD
ATOM     26  C   UNL A   1      32.815  18.970  25.446  1.00  0.00     0.114 C 
ATOM     27  O   UNL A   1      34.771  18.339  24.258  1.00  0.00    -0.275 OA
ENDBRANCH   5  23
ENDBRANCH   3   5
ENDBRANCH   2   3
ENDBRANCH   1   2
BRANCH   1  28
ATOM     28  C   UNL A   1      39.392  21.954  26.211  1.00  0.00     0.275 C 
BRANCH  28  29
ATOM     29  O   UNL A   1      40.061  22.679  27.258  1.00  0.00    -0.458 OA
BRANCH  29  30
ATOM     30  C   UNL A   1      40.979  23.576  26.832  1.00  0.00     0.338 C 
ATOM     31  O   UNL A   1      41.782  23.420  25.918  1.00  0.00    -0.246 OA
BRANCH  30  32
ATOM     32  C   UNL A   1      40.794  24.872  27.504  1.00  0.00     0.060 A 
ATOM     33  C   UNL A   1      41.814  25.826  27.393  1.00  0.00     0.016 A 
ATOM     34  C   UNL A   1      39.701  25.100  28.338  1.00  0.00     0.016 A 
ATOM     35  C   UNL A   1      41.757  27.012  28.111  1.00  0.00     0.010 A 
ATOM     36  C   UNL A   1      39.658  26.278  29.089  1.00  0.00     0.010 A 
ATOM     37  C   UNL A   1      40.699  27.223  28.995  1.00  0.00    -0.014 A 
BRANCH  37  38
ATOM     38  C   UNL A   1      40.775  28.342  29.957  1.00  0.00     0.031 A 
ATOM     39  C   UNL A   1      41.854  28.304  30.999  1.00  0.00     0.074 A 
ATOM     40  C   UNL A   1      39.918  29.373  29.881  1.00  0.00     0.049 A 
ATOM     41  N   UNL A   1      42.001  29.043  32.064  1.00  0.00    -0.248 NA
ATOM     42  C   UNL A   1      42.908  27.290  30.818  1.00  0.00     0.031 C 
ATOM     43  C   UNL A   1      38.903  29.558  28.843  1.00  0.00     0.029 A 
ATOM     44  N   UNL A   1      39.754  30.454  30.708  1.00  0.00    -0.354 N 
ATOM     45  C   UNL A   1      43.133  28.555  32.706  1.00  0.00     0.074 A 
ATOM     46  C   UNL A   1      43.644  27.465  31.906  1.00  0.00     0.031 C 
ATOM     47  C   UNL A   1      38.198  30.669  29.116  1.00  0.00     0.029 A 
ATOM     48  C   UNL A   1      38.675  31.237  30.374  1.00  0.00     0.049 A 
ATOM     49  H   UNL A   1      40.350  30.650  31.467  1.00  0.00     0.167 HD
ATOM     50  C   UNL A   1      43.681  28.978  33.868  1.00  0.00     0.037 A 
ATOM     51  C   UNL A   1      38.108  32.259  31.044  1.00  0.00     0.037 A 
ATOM     52  C   UNL A   1      43.168  30.084  34.630  1.00  0.00     0.049 A 
ATOM     53  C   UNL A   1      38.700  32.674  32.367  1.00  0.00     0.074 A 
ATOM     54  C   UNL A   1      43.637  30.599  35.824  1.00  0.00     0.029 A 
ATOM     55  N   UNL A   1      42.073  30.852  34.261  1.00  0.00    -0.354 N 
ATOM     56  N   UNL A   1      39.740  32.178  32.996  1.00  0.00    -0.248 NA
ATOM     57  C   UNL A   1      38.040  33.778  33.076  1.00  0.00     0.031 C 
ATOM     58  C   UNL A   1      42.804  31.659  36.195  1.00  0.00     0.029 A 
ATOM     59  C   UNL A   1      41.845  31.833  35.210  1.00  0.00     0.049 A 
ATOM     60  H   UNL A   1      41.537  30.719  33.447  1.00  0.00     0.167 HD
ATOM     61  C   UNL A   1      39.877  32.931  34.157  1.00  0.00     0.074 A 
ATOM     62  C   UNL A   1      38.815  33.916  34.143  1.00  0.00     0.031 C 
ATOM     63  C   UNL A   1      40.797  32.820  35.148  1.00  0.00     0.037 A 
BRANCH  50  64
ATOM     64  C   UNL A   1      44.860  28.222  34.406  1.00  0.00     0.058 A 
ATOM     65  C   UNL A   1      46.180  28.610  34.137  1.00  0.00     0.135 A 
ATOM     66  C   UNL A   1      44.660  27.114  35.247  1.00  0.00     0.135 A 
ATOM     67  F   UNL A   1      46.427  29.644  33.317  1.00  0.00    -0.206 F 
ATOM     68  C   UNL A   1      47.264  27.924  34.678  1.00  0.00     0.059 A 
ATOM     69  C   UNL A   1      45.727  26.426  35.817  1.00  0.00     0.059 A 
ATOM     70  F   UNL A   1      43.417  26.694  35.527  1.00  0.00    -0.206 F 
ATOM     71  C   UNL A   1      47.026  26.836  35.520  1.00  0.00     0.060 A 
BRANCH  71  72
ATOM     72  S   UNL A   1      48.440  25.976  36.243  1.00  0.00     0.124 S 
ATOM     73  O   UNL A   1      48.064  25.931  37.653  1.00  0.00    -0.237 OA
ATOM     74  O   UNL A   1      48.419  24.697  35.542  1.00  0.00    -0.237 OA
ATOM     75  O   UNL A   1      49.568  26.845  35.922  1.00  0.00    -0.744 OA
ENDBRANCH  71  72
ENDBRANCH  50  64
BRANCH  51  76
ATOM     76  C   UNL A   1      36.887  32.922  30.513  1.00  0.00     0.058 A 
ATOM     77  C   UNL A   1      36.969  33.900  29.513  1.00  0.00     0.135 A 
ATOM     78  C   UNL A   1      35.614  32.603  31.011  1.00  0.00     0.135 A 
ATOM     79  F   UNL A   1      38.165  34.246  29.011  1.00  0.00    -0.206 F 
ATOM     80  C   UNL A   1      35.838  34.560  29.044  1.00  0.00     0.059 A 
ATOM     81  C   UNL A   1      34.465  33.229  30.539  1.00  0.00     0.059 A 
ATOM     82  F   UNL A   1      35.477  31.665  31.961  1.00  0.00    -0.206 F 
ATOM     83  C   UNL A   1      34.589  34.220  29.567  1.00  0.00     0.060 A 
BRANCH  83  84
ATOM     84  S   UNL A   1      33.124  35.071  28.943  1.00  0.00     0.124 S 
ATOM     85  O   UNL A   1      32.360  35.273  30.170  1.00  0.00    -0.237 OA
ATOM     86  O   UNL A   1      33.694  36.272  28.342  1.00  0.00    -0.237 OA
ATOM     87  O   UNL A   1      32.558  34.114  27.997  1.00  0.00    -0.744 OA
ENDBRANCH  83  84
ENDBRANCH  51  76
BRANCH  63  88
ATOM     88  C   UNL A   1      40.741  33.827  36.259  1.00  0.00     0.058 A 
ATOM     89  C   UNL A   1      41.478  35.019  36.214  1.00  0.00     0.135 A 
ATOM     90  C   UNL A   1      39.873  33.627  37.345  1.00  0.00     0.135 A 
ATOM     91  F   UNL A   1      42.326  35.252  35.200  1.00  0.00    -0.206 F 
ATOM     92  C   UNL A   1      41.365  35.976  37.216  1.00  0.00     0.059 A 
ATOM     93  C   UNL A   1      39.726  34.581  38.344  1.00  0.00     0.059 A 
ATOM     94  F   UNL A   1      39.138  32.506  37.426  1.00  0.00    -0.206 F 
ATOM     95  C   UNL A   1      40.482  35.751  38.275  1.00  0.00     0.060 A 
BRANCH  95  96
ATOM     96  S   UNL A   1      40.300  37.026  39.539  1.00  0.00     0.124 S 
ATOM     97  O   UNL A   1      41.561  37.748  39.411  1.00  0.00    -0.237 OA
ATOM     98  O   UNL A   1      39.111  37.743  39.092  1.00  0.00    -0.237 OA
ATOM     99  O   UNL A   1      40.137  36.260  40.771  1.00  0.00    -0.744 OA
ENDBRANCH  95  96
ENDBRANCH  63  88
ENDBRANCH  37  38
ENDBRANCH  30  32
ENDBRANCH  29  30
ENDBRANCH  28  29
ENDBRANCH   1  28
TORSDOF 20
ENDMDL
