MODEL 1
REMARK VINA RESULT:     -12.5      0.000      0.000
REMARK SMILES COc1ccc(CC(=O)Nc2ccc(N3CC[NH+](C)CC3)cc2C(=O)OCCOC(=O)c2ccc(-c3c4nc(c(-c5c(F)cc(S(=O)(=O)[O-])cc5F)c5ccc([nH]5)c(-c5c(F)cc(S(=O)(=O)[O-])cc5F)c5nc(c(-c6c(F)cc(S(=O)(=O)[O-])cc6F)c6ccc3[nH]6)C=C5)C=C4)cc2)cc1
REMARK SMILES IDX 27 1 26 2 24 3 25 4 23 5 11 6 12 7 13 8 22 9 14 10 10 11
REMARK SMILES IDX 8 12 9 13 7 15 6 16 3 17 4 18 99 19 5 20 98 21 2 22 1 23
REMARK SMILES IDX 15 24 16 25 21 26 17 27 20 28 18 29 19 30 28 32 29 33 30 34
REMARK SMILES IDX 31 35 32 36 33 37 97 38 34 39 96 40 35 41 36 42 37 43 90 44
REMARK SMILES IDX 38 45 95 46 89 47 91 48 39 49 94 50 88 51 87 52 40 54 74 55
REMARK SMILES IDX 53 56 73 57 54 58 57 59 72 60 92 61 55 62 56 63 71 65 93 66
REMARK SMILES IDX 58 67 41 68 42 69 51 70 43 71 44 72 50 73 52 74 45 75 46 76
REMARK SMILES IDX 47 77 48 78 49 79 75 80 76 81 85 82 77 83 78 84 84 85 86 86
REMARK SMILES IDX 79 87 80 88 81 89 82 90 83 91 59 92 60 93 69 94 61 95 62 96
REMARK SMILES IDX 68 97 70 98 63 99 64 100 65 101 66 102 67 103
REMARK H PARENT 10 14 18 31 91 53 57 64
REMARK Flexibility Score: inf
ROOT
ATOM      1  C   UNL A   1      33.363  29.416  26.290  1.00  0.00     0.275 C 
ENDROOT
BRANCH   1   2
ATOM      2  O   UNL A   1      33.172  28.043  26.705  1.00  0.00    -0.458 OA
BRANCH   2   3
ATOM      3  C   UNL A   1      31.863  27.736  26.828  1.00  0.00     0.340 C 
ATOM      4  O   UNL A   1      31.241  27.753  27.870  1.00  0.00    -0.246 OA
BRANCH   3   5
ATOM      5  C   UNL A   1      31.198  27.220  25.631  1.00  0.00     0.085 A 
ATOM      6  C   UNL A   1      30.692  25.921  25.621  1.00  0.00     0.055 A 
ATOM      7  C   UNL A   1      30.007  25.489  24.493  1.00  0.00     0.029 A 
ATOM      8  C   UNL A   1      29.622  26.423  23.516  1.00  0.00     0.028 A 
ATOM      9  C   UNL A   1      30.822  28.138  24.628  1.00  0.00     0.043 A 
ATOM     10  C   UNL A   1      29.922  27.793  23.615  1.00  0.00     0.038 A 
BRANCH   6  11
ATOM     11  N   UNL A   1      30.831  25.040  26.709  1.00  0.00    -0.325 N 
ATOM     12  C   UNL A   1      30.834  23.658  26.639  1.00  0.00     0.228 C 
ATOM     13  O   UNL A   1      30.405  23.024  27.607  1.00  0.00    -0.274 OA
ATOM     14  H   UNL A   1      30.934  25.443  27.601  1.00  0.00     0.169 HD
BRANCH  12  15
ATOM     15  C   UNL A   1      31.515  22.965  25.451  1.00  0.00     0.135 C 
BRANCH  15  16
ATOM     16  C   UNL A   1      33.029  22.909  25.436  1.00  0.00    -0.038 A 
ATOM     17  C   UNL A   1      35.849  22.639  25.569  1.00  0.00     0.118 A 
ATOM     18  C   UNL A   1      35.216  23.802  26.016  1.00  0.00     0.047 A 
ATOM     19  C   UNL A   1      35.077  21.642  24.977  1.00  0.00     0.047 A 
ATOM     20  C   UNL A   1      33.823  23.949  25.935  1.00  0.00     0.008 A 
ATOM     21  C   UNL A   1      33.680  21.775  24.915  1.00  0.00     0.008 A 
BRANCH  17  22
ATOM     22  O   UNL A   1      37.200  22.610  25.776  1.00  0.00    -0.497 OA
ATOM     23  C   UNL A   1      37.930  21.497  25.274  1.00  0.00     0.278 C 
ENDBRANCH  17  22
ENDBRANCH  15  16
ENDBRANCH  12  15
ENDBRANCH   6  11
BRANCH  10  24
ATOM     24  N   UNL A   1      29.280  28.745  22.841  1.00  0.00    -0.360 N 
ATOM     25  C   UNL A   1      29.858  29.385  21.636  1.00  0.00     0.178 C 
ATOM     26  C   UNL A   1      27.863  29.094  23.081  1.00  0.00     0.178 C 
ATOM     27  C   UNL A   1      29.514  30.900  21.558  1.00  0.00     0.283 C 
ATOM     28  C   UNL A   1      27.632  30.622  23.011  1.00  0.00     0.283 C 
ATOM     29  N   UNL A   1      28.079  31.201  21.732  1.00  0.00    -0.334 N 
ATOM     30  C   UNL A   1      27.860  32.652  21.726  1.00  0.00     0.332 C 
ATOM     31  H   UNL A   1      27.543  30.798  20.964  1.00  0.00     0.347 HD
ENDBRANCH  10  24
ENDBRANCH   3   5
ENDBRANCH   2   3
ENDBRANCH   1   2
BRANCH   1  32
ATOM     32  C   UNL A   1      33.103  30.500  27.357  1.00  0.00     0.275 C 
BRANCH  32  33
ATOM     33  O   UNL A   1      34.158  31.474  27.497  1.00  0.00    -0.458 OA
BRANCH  33  34
ATOM     34  C   UNL A   1      34.814  31.456  28.680  1.00  0.00     0.338 C 
ATOM     35  O   UNL A   1      34.504  32.074  29.689  1.00  0.00    -0.246 OA
BRANCH  34  36
ATOM     36  C   UNL A   1      35.974  30.537  28.672  1.00  0.00     0.060 A 
ATOM     37  C   UNL A   1      36.474  30.065  29.880  1.00  0.00     0.016 A 
ATOM     38  C   UNL A   1      36.731  30.357  27.517  1.00  0.00     0.016 A 
ATOM     39  C   UNL A   1      37.743  29.512  29.980  1.00  0.00     0.010 A 
ATOM     40  C   UNL A   1      37.988  29.733  27.603  1.00  0.00     0.010 A 
ATOM     41  C   UNL A   1      38.532  29.354  28.848  1.00  0.00    -0.014 A 
BRANCH  41  42
ATOM     42  C   UNL A   1      39.960  28.952  28.985  1.00  0.00     0.031 A 
ATOM     43  C   UNL A   1      40.952  29.987  29.447  1.00  0.00     0.074 A 
ATOM     44  C   UNL A   1      40.384  27.687  28.783  1.00  0.00     0.049 A 
ATOM     45  N   UNL A   1      42.256  29.979  29.378  1.00  0.00    -0.248 NA
ATOM     46  C   UNL A   1      40.389  31.195  30.077  1.00  0.00     0.031 C 
ATOM     47  C   UNL A   1      39.537  26.527  28.504  1.00  0.00     0.029 A 
ATOM     48  N   UNL A   1      41.658  27.168  28.770  1.00  0.00    -0.354 N 
ATOM     49  C   UNL A   1      42.667  31.200  29.901  1.00  0.00     0.074 A 
ATOM     50  C   UNL A   1      41.475  31.926  30.278  1.00  0.00     0.031 C 
ATOM     51  C   UNL A   1      40.309  25.446  28.312  1.00  0.00     0.029 A 
ATOM     52  C   UNL A   1      41.707  25.848  28.381  1.00  0.00     0.049 A 
ATOM     53  H   UNL A   1      42.456  27.688  29.015  1.00  0.00     0.167 HD
ATOM     54  C   UNL A   1      43.928  31.669  30.056  1.00  0.00     0.037 A 
ATOM     55  C   UNL A   1      42.754  25.067  28.050  1.00  0.00     0.037 A 
ATOM     56  C   UNL A   1      45.109  30.918  29.730  1.00  0.00     0.049 A 
ATOM     57  C   UNL A   1      44.143  25.642  28.108  1.00  0.00     0.074 A 
ATOM     58  C   UNL A   1      46.433  31.314  29.807  1.00  0.00     0.029 A 
ATOM     59  N   UNL A   1      45.109  29.604  29.289  1.00  0.00    -0.354 N 
ATOM     60  N   UNL A   1      44.523  26.838  28.489  1.00  0.00    -0.248 NA
ATOM     61  C   UNL A   1      45.245  24.768  27.679  1.00  0.00     0.031 C 
ATOM     62  C   UNL A   1      47.233  30.243  29.392  1.00  0.00     0.029 A 
ATOM     63  C   UNL A   1      46.407  29.172  29.091  1.00  0.00     0.049 A 
ATOM     64  H   UNL A   1      44.302  29.058  29.141  1.00  0.00     0.167 HD
ATOM     65  C   UNL A   1      45.909  26.849  28.377  1.00  0.00     0.074 A 
ATOM     66  C   UNL A   1      46.300  25.540  27.898  1.00  0.00     0.031 C 
ATOM     67  C   UNL A   1      46.779  27.853  28.644  1.00  0.00     0.037 A 
BRANCH  54  68
ATOM     68  C   UNL A   1      44.085  33.069  30.576  1.00  0.00     0.058 A 
ATOM     69  C   UNL A   1      44.003  34.186  29.731  1.00  0.00     0.135 A 
ATOM     70  C   UNL A   1      44.311  33.294  31.944  1.00  0.00     0.135 A 
ATOM     71  F   UNL A   1      43.815  34.024  28.413  1.00  0.00    -0.206 F 
ATOM     72  C   UNL A   1      44.166  35.478  30.221  1.00  0.00     0.059 A 
ATOM     73  C   UNL A   1      44.451  34.579  32.459  1.00  0.00     0.059 A 
ATOM     74  F   UNL A   1      44.402  32.258  32.793  1.00  0.00    -0.206 F 
ATOM     75  C   UNL A   1      44.391  35.664  31.587  1.00  0.00     0.060 A 
BRANCH  75  76
ATOM     76  S   UNL A   1      44.602  37.346  32.207  1.00  0.00     0.124 S 
ATOM     77  O   UNL A   1      45.959  37.289  32.743  1.00  0.00    -0.237 OA
ATOM     78  O   UNL A   1      44.431  38.149  31.000  1.00  0.00    -0.237 OA
ATOM     79  O   UNL A   1      43.541  37.477  33.199  1.00  0.00    -0.744 OA
ENDBRANCH  75  76
ENDBRANCH  54  68
BRANCH  55  80
ATOM     80  C   UNL A   1      42.534  23.678  27.561  1.00  0.00     0.058 A 
ATOM     81  C   UNL A   1      42.512  22.592  28.447  1.00  0.00     0.135 A 
ATOM     82  C   UNL A   1      42.383  23.407  26.191  1.00  0.00     0.135 A 
ATOM     83  F   UNL A   1      42.659  22.799  29.765  1.00  0.00    -0.206 F 
ATOM     84  C   UNL A   1      42.383  21.283  27.993  1.00  0.00     0.059 A 
ATOM     85  C   UNL A   1      42.224  22.110  25.714  1.00  0.00     0.059 A 
ATOM     86  F   UNL A   1      42.383  24.411  25.301  1.00  0.00    -0.206 F 
ATOM     87  C   UNL A   1      42.246  21.052  26.623  1.00  0.00     0.060 A 
BRANCH  87  88
ATOM     88  S   UNL A   1      42.075  19.351  26.041  1.00  0.00     0.124 S 
ATOM     89  O   UNL A   1      42.531  18.599  27.204  1.00  0.00    -0.237 OA
ATOM     90  O   UNL A   1      40.647  19.270  25.746  1.00  0.00    -0.237 OA
ATOM     91  O   UNL A   1      42.951  19.307  24.875  1.00  0.00    -0.744 OA
ENDBRANCH  87  88
ENDBRANCH  55  80
BRANCH  67  92
ATOM     92  C   UNL A   1      48.242  27.562  28.486  1.00  0.00     0.058 A 
ATOM     93  C   UNL A   1      48.947  27.936  27.331  1.00  0.00     0.135 A 
ATOM     94  C   UNL A   1      48.960  26.960  29.532  1.00  0.00     0.135 A 
ATOM     95  F   UNL A   1      48.301  28.504  26.301  1.00  0.00    -0.206 F 
ATOM     96  C   UNL A   1      50.314  27.714  27.216  1.00  0.00     0.059 A 
ATOM     97  C   UNL A   1      50.332  26.751  29.446  1.00  0.00     0.059 A 
ATOM     98  F   UNL A   1      48.331  26.589  30.659  1.00  0.00    -0.206 F 
ATOM     99  C   UNL A   1      50.999  27.127  28.281  1.00  0.00     0.060 A 
BRANCH  99 100
ATOM    100  S   UNL A   1      52.785  26.899  28.143  1.00  0.00     0.124 S 
ATOM    101  O   UNL A   1      53.150  26.598  29.523  1.00  0.00    -0.237 OA
ATOM    102  O   UNL A   1      52.886  25.786  27.203  1.00  0.00    -0.237 OA
ATOM    103  O   UNL A   1      53.253  28.184  27.635  1.00  0.00    -0.744 OA
ENDBRANCH  99 100
ENDBRANCH  67  92
ENDBRANCH  41  42
ENDBRANCH  34  36
ENDBRANCH  33  34
ENDBRANCH  32  33
ENDBRANCH   1  32
TORSDOF 19
ENDMDL
MODEL 2
REMARK VINA RESULT:     -12.2      4.204     10.308
REMARK SMILES COc1ccc(CC(=O)Nc2ccc(N3CC[NH+](C)CC3)cc2C(=O)OCCOC(=O)c2ccc(-c3c4nc(c(-c5c(F)cc(S(=O)(=O)[O-])cc5F)c5ccc([nH]5)c(-c5c(F)cc(S(=O)(=O)[O-])cc5F)c5nc(c(-c6c(F)cc(S(=O)(=O)[O-])cc6F)c6ccc3[nH]6)C=C5)C=C4)cc2)cc1
REMARK SMILES IDX 27 1 26 2 24 3 25 4 23 5 11 6 12 7 13 8 22 9 14 10 10 11
REMARK SMILES IDX 8 12 9 13 7 15 6 16 3 17 4 18 99 19 5 20 98 21 2 22 1 23
REMARK SMILES IDX 15 24 16 25 21 26 17 27 20 28 18 29 19 30 28 32 29 33 30 34
REMARK SMILES IDX 31 35 32 36 33 37 97 38 34 39 96 40 35 41 36 42 37 43 90 44
REMARK SMILES IDX 38 45 95 46 89 47 91 48 39 49 94 50 88 51 87 52 40 54 74 55
REMARK SMILES IDX 53 56 73 57 54 58 57 59 72 60 92 61 55 62 56 63 71 65 93 66
REMARK SMILES IDX 58 67 41 68 42 69 51 70 43 71 44 72 50 73 52 74 45 75 46 76
REMARK SMILES IDX 47 77 48 78 49 79 75 80 76 81 85 82 77 83 78 84 84 85 86 86
REMARK SMILES IDX 79 87 80 88 81 89 82 90 83 91 59 92 60 93 69 94 61 95 62 96
REMARK SMILES IDX 68 97 70 98 63 99 64 100 65 101 66 102 67 103
REMARK H PARENT 10 14 18 31 91 53 57 64
REMARK Flexibility Score: inf
ROOT
ATOM      1  C   UNL A   1      36.978  21.948  25.713  1.00  0.00     0.275 C 
ENDROOT
BRANCH   1   2
ATOM      2  O   UNL A   1      36.472  23.121  25.035  1.00  0.00    -0.458 OA
BRANCH   2   3
ATOM      3  C   UNL A   1      35.956  22.815  23.825  1.00  0.00     0.340 C 
ATOM      4  O   UNL A   1      36.550  22.920  22.772  1.00  0.00    -0.246 OA
BRANCH   3   5
ATOM      5  C   UNL A   1      34.537  22.459  23.791  1.00  0.00     0.085 A 
ATOM      6  C   UNL A   1      33.656  23.189  22.994  1.00  0.00     0.055 A 
ATOM      7  C   UNL A   1      32.330  22.780  22.933  1.00  0.00     0.029 A 
ATOM      8  C   UNL A   1      31.967  21.526  23.451  1.00  0.00     0.028 A 
ATOM      9  C   UNL A   1      34.148  21.213  24.325  1.00  0.00     0.043 A 
ATOM     10  C   UNL A   1      32.892  20.659  24.061  1.00  0.00     0.038 A 
BRANCH   6  11
ATOM     11  N   UNL A   1      34.057  24.306  22.239  1.00  0.00    -0.325 N 
ATOM     12  C   UNL A   1      33.799  25.630  22.549  1.00  0.00     0.228 C 
ATOM     13  O   UNL A   1      33.681  26.434  21.620  1.00  0.00    -0.274 OA
ATOM     14  H   UNL A   1      34.567  24.130  21.416  1.00  0.00     0.169 HD
BRANCH  12  15
ATOM     15  C   UNL A   1      33.835  26.082  24.015  1.00  0.00     0.135 C 
BRANCH  15  16
ATOM     16  C   UNL A   1      32.715  25.624  24.925  1.00  0.00    -0.038 A 
ATOM     17  C   UNL A   1      30.641  24.554  26.538  1.00  0.00     0.118 A 
ATOM     18  C   UNL A   1      30.364  25.487  25.535  1.00  0.00     0.047 A 
ATOM     19  C   UNL A   1      31.969  24.217  26.790  1.00  0.00     0.047 A 
ATOM     20  C   UNL A   1      31.387  26.033  24.747  1.00  0.00     0.008 A 
ATOM     21  C   UNL A   1      32.995  24.745  25.988  1.00  0.00     0.008 A 
BRANCH  17  22
ATOM     22  O   UNL A   1      29.538  24.056  27.175  1.00  0.00    -0.497 OA
ATOM     23  C   UNL A   1      29.397  22.643  27.261  1.00  0.00     0.278 C 
ENDBRANCH  17  22
ENDBRANCH  15  16
ENDBRANCH  12  15
ENDBRANCH   6  11
BRANCH  10  24
ATOM     24  N   UNL A   1      32.614  19.320  24.276  1.00  0.00    -0.360 N 
ATOM     25  C   UNL A   1      32.253  18.730  25.586  1.00  0.00     0.178 C 
ATOM     26  C   UNL A   1      32.507  18.373  23.145  1.00  0.00     0.178 C 
ATOM     27  C   UNL A   1      32.919  17.341  25.805  1.00  0.00     0.283 C 
ATOM     28  C   UNL A   1      33.224  17.036  23.450  1.00  0.00     0.283 C 
ATOM     29  N   UNL A   1      32.728  16.400  24.683  1.00  0.00    -0.334 N 
ATOM     30  C   UNL A   1      33.456  15.151  24.939  1.00  0.00     0.332 C 
ATOM     31  H   UNL A   1      31.739  16.174  24.582  1.00  0.00     0.347 HD
ENDBRANCH  10  24
ENDBRANCH   3   5
ENDBRANCH   2   3
ENDBRANCH   1   2
BRANCH   1  32
ATOM     32  C   UNL A   1      38.487  21.664  25.564  1.00  0.00     0.275 C 
BRANCH  32  33
ATOM     33  O   UNL A   1      39.290  22.055  26.697  1.00  0.00    -0.458 OA
BRANCH  33  34
ATOM     34  C   UNL A   1      40.339  22.863  26.417  1.00  0.00     0.338 C 
ATOM     35  O   UNL A   1      41.329  22.564  25.764  1.00  0.00    -0.246 OA
BRANCH  34  36
ATOM     36  C   UNL A   1      40.160  24.231  26.952  1.00  0.00     0.060 A 
ATOM     37  C   UNL A   1      41.054  25.228  26.577  1.00  0.00     0.016 A 
ATOM     38  C   UNL A   1      39.295  24.472  28.016  1.00  0.00     0.016 A 
ATOM     39  C   UNL A   1      41.174  26.410  27.295  1.00  0.00     0.010 A 
ATOM     40  C   UNL A   1      39.365  25.697  28.702  1.00  0.00     0.010 A 
ATOM     41  C   UNL A   1      40.347  26.658  28.384  1.00  0.00    -0.014 A 
BRANCH  41  42
ATOM     42  C   UNL A   1      40.611  27.826  29.269  1.00  0.00     0.031 A 
ATOM     43  C   UNL A   1      41.843  27.801  30.135  1.00  0.00     0.074 A 
ATOM     44  C   UNL A   1      39.835  28.930  29.272  1.00  0.00     0.049 A 
ATOM     45  N   UNL A   1      42.147  28.535  31.171  1.00  0.00    -0.248 NA
ATOM     46  C   UNL A   1      42.874  26.812  29.774  1.00  0.00     0.031 C 
ATOM     47  C   UNL A   1      38.709  29.195  28.376  1.00  0.00     0.029 A 
ATOM     48  N   UNL A   1      39.874  30.042  30.081  1.00  0.00    -0.354 N 
ATOM     49  C   UNL A   1      43.374  28.060  31.621  1.00  0.00     0.074 A 
ATOM     50  C   UNL A   1      43.756  26.971  30.749  1.00  0.00     0.031 C 
ATOM     51  C   UNL A   1      38.144  30.368  28.704  1.00  0.00     0.029 A 
ATOM     52  C   UNL A   1      38.819  30.904  29.879  1.00  0.00     0.049 A 
ATOM     53  H   UNL A   1      40.586  30.206  30.740  1.00  0.00     0.167 HD
ATOM     54  C   UNL A   1      44.116  28.497  32.666  1.00  0.00     0.037 A 
ATOM     55  C   UNL A   1      38.399  31.965  30.596  1.00  0.00     0.037 A 
ATOM     56  C   UNL A   1      43.755  29.615  33.494  1.00  0.00     0.049 A 
ATOM     57  C   UNL A   1      39.164  32.363  31.828  1.00  0.00     0.074 A 
ATOM     58  C   UNL A   1      44.412  30.114  34.605  1.00  0.00     0.029 A 
ATOM     59  N   UNL A   1      42.650  30.425  33.284  1.00  0.00    -0.354 N 
ATOM     60  N   UNL A   1      40.260  31.838  32.322  1.00  0.00    -0.248 NA
ATOM     61  C   UNL A   1      38.632  33.489  32.608  1.00  0.00     0.031 C 
ATOM     62  C   UNL A   1      43.690  31.216  35.079  1.00  0.00     0.029 A 
ATOM     63  C   UNL A   1      42.606  31.421  34.242  1.00  0.00     0.049 A 
ATOM     64  H   UNL A   1      41.994  30.309  32.558  1.00  0.00     0.167 HD
ATOM     65  C   UNL A   1      40.565  32.589  33.452  1.00  0.00     0.074 A 
ATOM     66  C   UNL A   1      39.542  33.608  33.565  1.00  0.00     0.031 C 
ATOM     67  C   UNL A   1      41.597  32.447  34.318  1.00  0.00     0.037 A 
BRANCH  54  68
ATOM     68  C   UNL A   1      45.375  27.742  32.984  1.00  0.00     0.058 A 
ATOM     69  C   UNL A   1      46.621  28.131  32.472  1.00  0.00     0.135 A 
ATOM     70  C   UNL A   1      45.331  26.618  33.826  1.00  0.00     0.135 A 
ATOM     71  F   UNL A   1      46.713  29.182  31.643  1.00  0.00    -0.206 F 
ATOM     72  C   UNL A   1      47.779  27.415  32.761  1.00  0.00     0.059 A 
ATOM     73  C   UNL A   1      46.480  25.903  34.148  1.00  0.00     0.059 A 
ATOM     74  F   UNL A   1      44.162  26.202  34.337  1.00  0.00    -0.206 F 
ATOM     75  C   UNL A   1      47.697  26.301  33.599  1.00  0.00     0.060 A 
BRANCH  75  76
ATOM     76  S   UNL A   1      49.207  25.381  33.964  1.00  0.00     0.124 S 
ATOM     77  O   UNL A   1      48.677  24.046  34.225  1.00  0.00    -0.237 OA
ATOM     78  O   UNL A   1      49.970  25.529  32.729  1.00  0.00    -0.237 OA
ATOM     79  O   UNL A   1      49.756  26.076  35.123  1.00  0.00    -0.744 OA
ENDBRANCH  75  76
ENDBRANCH  54  68
BRANCH  55  80
ATOM     80  C   UNL A   1      37.153  32.686  30.217  1.00  0.00     0.058 A 
ATOM     81  C   UNL A   1      35.904  32.277  30.703  1.00  0.00     0.135 A 
ATOM     82  C   UNL A   1      37.185  33.773  29.329  1.00  0.00     0.135 A 
ATOM     83  F   UNL A   1      35.820  31.239  31.549  1.00  0.00    -0.206 F 
ATOM     84  C   UNL A   1      34.726  32.897  30.297  1.00  0.00     0.059 A 
ATOM     85  C   UNL A   1      36.025  34.428  28.930  1.00  0.00     0.059 A 
ATOM     86  F   UNL A   1      38.358  34.214  28.845  1.00  0.00    -0.206 F 
ATOM     87  C   UNL A   1      34.796  33.968  29.404  1.00  0.00     0.060 A 
BRANCH  87  88
ATOM     88  S   UNL A   1      33.265  34.770  28.883  1.00  0.00     0.124 S 
ATOM     89  O   UNL A   1      32.576  34.936  30.158  1.00  0.00    -0.237 OA
ATOM     90  O   UNL A   1      33.756  35.994  28.259  1.00  0.00    -0.237 OA
ATOM     91  O   UNL A   1      32.674  33.800  27.966  1.00  0.00    -0.744 OA
ENDBRANCH  87  88
ENDBRANCH  55  80
BRANCH  67  92
ATOM     92  C   UNL A   1      41.711  33.450  35.429  1.00  0.00     0.058 A 
ATOM     93  C   UNL A   1      42.531  34.583  35.318  1.00  0.00     0.135 A 
ATOM     94  C   UNL A   1      40.938  33.306  36.593  1.00  0.00     0.135 A 
ATOM     95  F   UNL A   1      43.297  34.757  34.229  1.00  0.00    -0.206 F 
ATOM     96  C   UNL A   1      42.587  35.536  36.327  1.00  0.00     0.059 A 
ATOM     97  C   UNL A   1      40.962  34.260  37.604  1.00  0.00     0.059 A 
ATOM     98  F   UNL A   1      40.134  32.241  36.743  1.00  0.00    -0.206 F 
ATOM     99  C   UNL A   1      41.795  35.369  37.465  1.00  0.00     0.060 A 
BRANCH  99 100
ATOM    100  S   UNL A   1      41.832  36.644  38.742  1.00  0.00     0.124 S 
ATOM    101  O   UNL A   1      40.472  37.167  38.674  1.00  0.00    -0.237 OA
ATOM    102  O   UNL A   1      42.157  35.876  39.940  1.00  0.00    -0.237 OA
ATOM    103  O   UNL A   1      42.878  37.553  38.285  1.00  0.00    -0.744 OA
ENDBRANCH  99 100
ENDBRANCH  67  92
ENDBRANCH  41  42
ENDBRANCH  34  36
ENDBRANCH  33  34
ENDBRANCH  32  33
ENDBRANCH   1  32
TORSDOF 19
ENDMDL
MODEL 3
REMARK VINA RESULT:     -12.1      1.561      3.697
REMARK SMILES COc1ccc(CC(=O)Nc2ccc(N3CC[NH+](C)CC3)cc2C(=O)OCCOC(=O)c2ccc(-c3c4nc(c(-c5c(F)cc(S(=O)(=O)[O-])cc5F)c5ccc([nH]5)c(-c5c(F)cc(S(=O)(=O)[O-])cc5F)c5nc(c(-c6c(F)cc(S(=O)(=O)[O-])cc6F)c6ccc3[nH]6)C=C5)C=C4)cc2)cc1
REMARK SMILES IDX 27 1 26 2 24 3 25 4 23 5 11 6 12 7 13 8 22 9 14 10 10 11
REMARK SMILES IDX 8 12 9 13 7 15 6 16 3 17 4 18 99 19 5 20 98 21 2 22 1 23
REMARK SMILES IDX 15 24 16 25 21 26 17 27 20 28 18 29 19 30 28 32 29 33 30 34
REMARK SMILES IDX 31 35 32 36 33 37 97 38 34 39 96 40 35 41 36 42 37 43 90 44
REMARK SMILES IDX 38 45 95 46 89 47 91 48 39 49 94 50 88 51 87 52 40 54 74 55
REMARK SMILES IDX 53 56 73 57 54 58 57 59 72 60 92 61 55 62 56 63 71 65 93 66
REMARK SMILES IDX 58 67 41 68 42 69 51 70 43 71 44 72 50 73 52 74 45 75 46 76
REMARK SMILES IDX 47 77 48 78 49 79 75 80 76 81 85 82 77 83 78 84 84 85 86 86
REMARK SMILES IDX 79 87 80 88 81 89 82 90 83 91 59 92 60 93 69 94 61 95 62 96
REMARK SMILES IDX 68 97 70 98 63 99 64 100 65 101 66 102 67 103
REMARK H PARENT 10 14 18 31 91 53 57 64
REMARK Flexibility Score: inf
ROOT
ATOM      1  C   UNL A   1      33.288  29.882  26.551  1.00  0.00     0.275 C 
ENDROOT
BRANCH   1   2
ATOM      2  O   UNL A   1      32.365  28.786  26.755  1.00  0.00    -0.458 OA
BRANCH   2   3
ATOM      3  C   UNL A   1      32.917  27.600  26.423  1.00  0.00     0.340 C 
ATOM      4  O   UNL A   1      34.082  27.435  26.124  1.00  0.00    -0.246 OA
BRANCH   3   5
ATOM      5  C   UNL A   1      31.999  26.467  26.292  1.00  0.00     0.085 A 
ATOM      6  C   UNL A   1      30.813  26.611  25.574  1.00  0.00     0.055 A 
ATOM      7  C   UNL A   1      30.001  25.497  25.412  1.00  0.00     0.029 A 
ATOM      8  C   UNL A   1      30.496  24.224  25.741  1.00  0.00     0.028 A 
ATOM      9  C   UNL A   1      32.470  25.183  26.637  1.00  0.00     0.043 A 
ATOM     10  C   UNL A   1      31.789  24.023  26.257  1.00  0.00     0.038 A 
BRANCH   6  11
ATOM     11  N   UNL A   1      30.417  27.831  24.993  1.00  0.00    -0.325 N 
ATOM     12  C   UNL A   1      30.754  28.274  23.727  1.00  0.00     0.228 C 
ATOM     13  O   UNL A   1      30.850  29.490  23.540  1.00  0.00    -0.274 OA
ATOM     14  H   UNL A   1      29.847  28.421  25.537  1.00  0.00     0.169 HD
BRANCH  12  15
ATOM     15  C   UNL A   1      30.833  27.267  22.571  1.00  0.00     0.135 C 
BRANCH  15  16
ATOM     16  C   UNL A   1      31.910  26.204  22.630  1.00  0.00    -0.038 A 
ATOM     17  C   UNL A   1      33.828  24.136  22.935  1.00  0.00     0.118 A 
ATOM     18  C   UNL A   1      34.188  25.478  23.083  1.00  0.00     0.047 A 
ATOM     19  C   UNL A   1      32.524  23.831  22.551  1.00  0.00     0.047 A 
ATOM     20  C   UNL A   1      33.248  26.505  22.915  1.00  0.00     0.008 A 
ATOM     21  C   UNL A   1      31.574  24.856  22.404  1.00  0.00     0.008 A 
BRANCH  17  22
ATOM     22  O   UNL A   1      34.831  23.244  23.198  1.00  0.00    -0.497 OA
ATOM     23  C   UNL A   1      35.899  23.669  24.037  1.00  0.00     0.278 C 
ENDBRANCH  17  22
ENDBRANCH  15  16
ENDBRANCH  12  15
ENDBRANCH   6  11
BRANCH  10  24
ATOM     24  N   UNL A   1      32.387  22.774  26.276  1.00  0.00    -0.360 N 
ATOM     25  C   UNL A   1      33.497  22.382  27.175  1.00  0.00     0.178 C 
ATOM     26  C   UNL A   1      31.842  21.655  25.477  1.00  0.00     0.178 C 
ATOM     27  C   UNL A   1      34.550  21.495  26.450  1.00  0.00     0.283 C 
ATOM     28  C   UNL A   1      32.963  20.855  24.776  1.00  0.00     0.283 C 
ATOM     29  N   UNL A   1      33.971  20.347  25.723  1.00  0.00    -0.334 N 
ATOM     30  C   UNL A   1      35.023  19.618  25.005  1.00  0.00     0.332 C 
ATOM     31  H   UNL A   1      33.533  19.703  26.381  1.00  0.00     0.347 HD
ENDBRANCH  10  24
ENDBRANCH   3   5
ENDBRANCH   2   3
ENDBRANCH   1   2
BRANCH   1  32
ATOM     32  C   UNL A   1      33.273  31.001  27.612  1.00  0.00     0.275 C 
BRANCH  32  33
ATOM     33  O   UNL A   1      34.537  31.670  27.803  1.00  0.00    -0.458 OA
BRANCH  33  34
ATOM     34  C   UNL A   1      35.117  31.486  29.011  1.00  0.00     0.338 C 
ATOM     35  O   UNL A   1      34.746  31.967  30.073  1.00  0.00    -0.246 OA
BRANCH  34  36
ATOM     36  C   UNL A   1      36.272  30.564  28.952  1.00  0.00     0.060 A 
ATOM     37  C   UNL A   1      36.908  30.195  30.133  1.00  0.00     0.016 A 
ATOM     38  C   UNL A   1      36.895  30.280  27.739  1.00  0.00     0.016 A 
ATOM     39  C   UNL A   1      38.182  29.646  30.136  1.00  0.00     0.010 A 
ATOM     40  C   UNL A   1      38.157  29.658  27.736  1.00  0.00     0.010 A 
ATOM     41  C   UNL A   1      38.839  29.386  28.940  1.00  0.00    -0.014 A 
BRANCH  41  42
ATOM     42  C   UNL A   1      40.275  28.989  28.950  1.00  0.00     0.031 A 
ATOM     43  C   UNL A   1      41.302  30.036  29.293  1.00  0.00     0.074 A 
ATOM     44  C   UNL A   1      40.683  27.721  28.735  1.00  0.00     0.049 A 
ATOM     45  N   UNL A   1      42.594  30.028  29.101  1.00  0.00    -0.248 NA
ATOM     46  C   UNL A   1      40.798  31.255  29.948  1.00  0.00     0.031 C 
ATOM     47  C   UNL A   1      39.817  26.554  28.562  1.00  0.00     0.029 A 
ATOM     48  N   UNL A   1      41.951  27.204  28.612  1.00  0.00    -0.354 N 
ATOM     49  C   UNL A   1      43.049  31.260  29.557  1.00  0.00     0.074 A 
ATOM     50  C   UNL A   1      41.895  31.993  30.030  1.00  0.00     0.031 C 
ATOM     51  C   UNL A   1      40.571  25.470  28.320  1.00  0.00     0.029 A 
ATOM     52  C   UNL A   1      41.969  25.876  28.248  1.00  0.00     0.049 A 
ATOM     53  H   UNL A   1      42.767  27.731  28.769  1.00  0.00     0.167 HD
ATOM     54  C   UNL A   1      44.316  31.735  29.582  1.00  0.00     0.037 A 
ATOM     55  C   UNL A   1      42.982  25.089  27.836  1.00  0.00     0.037 A 
ATOM     56  C   UNL A   1      45.464  30.979  29.161  1.00  0.00     0.049 A 
ATOM     57  C   UNL A   1      44.368  25.668  27.749  1.00  0.00     0.074 A 
ATOM     58  C   UNL A   1      46.788  31.379  29.104  1.00  0.00     0.029 A 
ATOM     59  N   UNL A   1      45.427  29.656  28.750  1.00  0.00    -0.354 N 
ATOM     60  N   UNL A   1      44.778  26.873  28.068  1.00  0.00    -0.248 NA
ATOM     61  C   UNL A   1      45.427  24.787  27.237  1.00  0.00     0.031 C 
ATOM     62  C   UNL A   1      47.549  30.301  28.637  1.00  0.00     0.029 A 
ATOM     63  C   UNL A   1      46.703  29.222  28.438  1.00  0.00     0.049 A 
ATOM     64  H   UNL A   1      44.612  29.106  28.690  1.00  0.00     0.167 HD
ATOM     65  C   UNL A   1      46.147  26.884  27.824  1.00  0.00     0.074 A 
ATOM     66  C   UNL A   1      46.496  25.565  27.337  1.00  0.00     0.031 C 
ATOM     67  C   UNL A   1      47.035  27.894  27.987  1.00  0.00     0.037 A 
BRANCH  54  68
ATOM     68  C   UNL A   1      44.517  33.146  30.055  1.00  0.00     0.058 A 
ATOM     69  C   UNL A   1      44.800  33.445  31.396  1.00  0.00     0.135 A 
ATOM     70  C   UNL A   1      44.437  34.214  29.146  1.00  0.00     0.135 A 
ATOM     71  F   UNL A   1      44.862  32.464  32.309  1.00  0.00    -0.206 F 
ATOM     72  C   UNL A   1      44.970  34.758  31.826  1.00  0.00     0.059 A 
ATOM     73  C   UNL A   1      44.629  35.531  29.549  1.00  0.00     0.059 A 
ATOM     74  F   UNL A   1      44.165  33.981  27.852  1.00  0.00    -0.206 F 
ATOM     75  C   UNL A   1      44.880  35.794  30.894  1.00  0.00     0.060 A 
BRANCH  75  76
ATOM     76  S   UNL A   1      45.100  37.492  31.466  1.00  0.00     0.124 S 
ATOM     77  O   UNL A   1      43.972  38.162  30.827  1.00  0.00    -0.237 OA
ATOM     78  O   UNL A   1      45.013  37.348  32.916  1.00  0.00    -0.237 OA
ATOM     79  O   UNL A   1      46.417  37.855  30.954  1.00  0.00    -0.744 OA
ENDBRANCH  75  76
ENDBRANCH  54  68
BRANCH  55  80
ATOM     80  C   UNL A   1      42.722  23.690  27.399  1.00  0.00     0.058 A 
ATOM     81  C   UNL A   1      42.612  22.649  28.330  1.00  0.00     0.135 A 
ATOM     82  C   UNL A   1      42.620  23.363  26.037  1.00  0.00     0.135 A 
ATOM     83  F   UNL A   1      42.710  22.910  29.643  1.00  0.00    -0.206 F 
ATOM     84  C   UNL A   1      42.445  21.327  27.929  1.00  0.00     0.059 A 
ATOM     85  C   UNL A   1      42.424  22.053  25.611  1.00  0.00     0.059 A 
ATOM     86  F   UNL A   1      42.704  24.324  25.104  1.00  0.00    -0.206 F 
ATOM     87  C   UNL A   1      42.358  21.038  26.565  1.00  0.00     0.060 A 
BRANCH  87  88
ATOM     88  S   UNL A   1      42.137  19.322  26.052  1.00  0.00     0.124 S 
ATOM     89  O   UNL A   1      43.070  19.230  24.935  1.00  0.00    -0.237 OA
ATOM     90  O   UNL A   1      42.511  18.590  27.258  1.00  0.00    -0.237 OA
ATOM     91  O   UNL A   1      40.721  19.257  25.702  1.00  0.00    -0.744 OA
ENDBRANCH  87  88
ENDBRANCH  55  80
BRANCH  67  92
ATOM     92  C   UNL A   1      48.478  27.602  27.696  1.00  0.00     0.058 A 
ATOM     93  C   UNL A   1      49.024  27.790  26.417  1.00  0.00     0.135 A 
ATOM     94  C   UNL A   1      49.337  27.193  28.728  1.00  0.00     0.135 A 
ATOM     95  F   UNL A   1      48.239  28.170  25.397  1.00  0.00    -0.206 F 
ATOM     96  C   UNL A   1      50.374  27.572  26.170  1.00  0.00     0.059 A 
ATOM     97  C   UNL A   1      50.696  26.993  28.507  1.00  0.00     0.059 A 
ATOM     98  F   UNL A   1      48.863  27.006  29.970  1.00  0.00    -0.206 F 
ATOM     99  C   UNL A   1      51.204  27.180  27.222  1.00  0.00     0.060 A 
BRANCH  99 100
ATOM    100  S   UNL A   1      52.966  26.958  26.901  1.00  0.00     0.124 S 
ATOM    101  O   UNL A   1      53.265  25.779  27.707  1.00  0.00    -0.237 OA
ATOM    102  O   UNL A   1      52.998  26.763  25.454  1.00  0.00    -0.237 OA
ATOM    103  O   UNL A   1      53.556  28.207  27.371  1.00  0.00    -0.744 OA
ENDBRANCH  99 100
ENDBRANCH  67  92
ENDBRANCH  41  42
ENDBRANCH  34  36
ENDBRANCH  33  34
ENDBRANCH  32  33
ENDBRANCH   1  32
TORSDOF 19
ENDMDL
