MODEL 1
REMARK VINA RESULT:     -10.3      0.000      0.000
REMARK SMILES [NH3+]C[C@@H]1CCCC[C@H]1CC(=O)OCCOC(=O)c1ccc(-c2c3nc(c(-c4c(F)cc(S(=O)(=O)[O-])cc4F)c4ccc([nH]4)c(-c4c(F)cc(S(=O)(=O)[O-])cc4F)c4nc(c(-c5c(F)cc(S(=O)(=O)[O-])cc5F)c5ccc2[nH]5)C=C4)C=C3)cc1
REMARK SMILES IDX 13 1 12 2 10 3 11 4 9 5 8 6 3 7 4 8 5 9 7 10 6 11 2 12 1 13
REMARK SMILES IDX 14 17 15 18 16 19 17 20 18 21 19 22 83 23 20 24 82 25 21 26
REMARK SMILES IDX 22 27 23 28 76 29 24 30 81 31 75 32 77 33 25 34 80 35 74 36
REMARK SMILES IDX 73 37 26 39 60 40 39 41 59 42 40 43 43 44 58 45 78 46 41 47
REMARK SMILES IDX 42 48 57 50 79 51 44 52 27 53 28 54 37 55 29 56 30 57 36 58
REMARK SMILES IDX 38 59 31 60 32 61 33 62 34 63 35 64 61 65 62 66 71 67 63 68
REMARK SMILES IDX 64 69 70 70 72 71 65 72 66 73 67 74 68 75 69 76 45 77 46 78
REMARK SMILES IDX 55 79 47 80 48 81 54 82 56 83 49 84 50 85 51 86 52 87 53 88
REMARK H PARENT 1 14 1 15 1 16 77 38 43 49
REMARK Flexibility Score: inf
ROOT
ATOM      1  C   UNL A   1      39.843  21.288  26.194  1.00  0.00     0.274 C 
ENDROOT
BRANCH   1   2
ATOM      2  O   UNL A   1      38.583  21.875  25.820  1.00  0.00    -0.462 OA
BRANCH   2   3
ATOM      3  C   UNL A   1      37.764  21.143  25.032  1.00  0.00     0.306 C 
ATOM      4  O   UNL A   1      37.711  19.920  25.028  1.00  0.00    -0.252 OA
BRANCH   3   5
ATOM      5  C   UNL A   1      36.992  22.002  24.053  1.00  0.00     0.126 C 
BRANCH   5   6
ATOM      6  C   UNL A   1      35.579  22.506  24.452  1.00  0.00     0.009 C 
ATOM      7  C   UNL A   1      34.816  21.511  25.387  1.00  0.00     0.048 C 
ATOM      8  C   UNL A   1      33.615  22.157  26.110  1.00  0.00     0.010 C 
ATOM      9  C   UNL A   1      33.992  23.444  26.823  1.00  0.00     0.001 C 
ATOM     10  C   UNL A   1      35.775  23.887  25.135  1.00  0.00     0.005 C 
ATOM     11  C   UNL A   1      34.533  24.441  25.817  1.00  0.00     0.000 C 
BRANCH   7  12
ATOM     12  C   UNL A   1      34.333  20.200  24.723  1.00  0.00     0.262 C 
BRANCH  12  13
ATOM     13  N   UNL A   1      33.665  19.251  25.606  1.00  0.00    -0.357 N 
ATOM     14  H   UNL A   1      33.238  18.510  25.049  1.00  0.00     0.344 HD
ATOM     15  H   UNL A   1      32.941  19.735  26.138  1.00  0.00     0.344 HD
ATOM     16  H   UNL A   1      34.345  18.846  26.248  1.00  0.00     0.344 HD
ENDBRANCH  12  13
ENDBRANCH   7  12
ENDBRANCH   5   6
ENDBRANCH   3   5
ENDBRANCH   2   3
ENDBRANCH   1   2
BRANCH   1  17
ATOM     17  C   UNL A   1      40.903  22.350  26.497  1.00  0.00     0.275 C 
BRANCH  17  18
ATOM     18  O   UNL A   1      40.311  23.548  27.024  1.00  0.00    -0.458 OA
BRANCH  18  19
ATOM     19  C   UNL A   1      40.825  24.705  26.543  1.00  0.00     0.338 C 
ATOM     20  O   UNL A   1      41.229  24.918  25.413  1.00  0.00    -0.246 OA
BRANCH  19  21
ATOM     21  C   UNL A   1      40.709  25.748  27.569  1.00  0.00     0.060 A 
ATOM     22  C   UNL A   1      41.692  26.742  27.619  1.00  0.00     0.016 A 
ATOM     23  C   UNL A   1      39.666  25.721  28.498  1.00  0.00     0.016 A 
ATOM     24  C   UNL A   1      41.630  27.725  28.602  1.00  0.00     0.010 A 
ATOM     25  C   UNL A   1      39.608  26.706  29.483  1.00  0.00     0.010 A 
ATOM     26  C   UNL A   1      40.591  27.709  29.542  1.00  0.00    -0.014 A 
BRANCH  26  27
ATOM     27  C   UNL A   1      40.531  28.740  30.599  1.00  0.00     0.031 A 
ATOM     28  C   UNL A   1      41.431  28.640  31.794  1.00  0.00     0.074 A 
ATOM     29  C   UNL A   1      39.641  29.742  30.490  1.00  0.00     0.049 A 
ATOM     30  N   UNL A   1      41.473  29.392  32.861  1.00  0.00    -0.248 NA
ATOM     31  C   UNL A   1      42.407  27.540  31.788  1.00  0.00     0.031 C 
ATOM     32  C   UNL A   1      38.723  29.931  29.366  1.00  0.00     0.029 A 
ATOM     33  N   UNL A   1      39.348  30.774  31.342  1.00  0.00    -0.354 N 
ATOM     34  C   UNL A   1      42.464  28.847  33.668  1.00  0.00     0.074 A 
ATOM     35  C   UNL A   1      42.987  27.691  32.970  1.00  0.00     0.031 C 
ATOM     36  C   UNL A   1      37.956  31.006  29.606  1.00  0.00     0.029 A 
ATOM     37  C   UNL A   1      38.305  31.558  30.912  1.00  0.00     0.049 A 
ATOM     38  H   UNL A   1      39.838  30.938  32.181  1.00  0.00     0.167 HD
ATOM     39  C   UNL A   1      42.890  29.273  34.881  1.00  0.00     0.037 A 
ATOM     40  C   UNL A   1      37.683  32.588  31.517  1.00  0.00     0.037 A 
ATOM     41  C   UNL A   1      42.358  30.426  35.561  1.00  0.00     0.049 A 
ATOM     42  C   UNL A   1      38.165  33.040  32.866  1.00  0.00     0.074 A 
ATOM     43  C   UNL A   1      42.745  30.970  36.773  1.00  0.00     0.029 A 
ATOM     44  N   UNL A   1      41.310  31.207  35.089  1.00  0.00    -0.354 N 
ATOM     45  N   UNL A   1      39.127  32.539  33.605  1.00  0.00    -0.248 NA
ATOM     46  C   UNL A   1      37.483  34.194  33.463  1.00  0.00     0.031 C 
ATOM     47  C   UNL A   1      41.906  32.056  37.052  1.00  0.00     0.029 A 
ATOM     48  C   UNL A   1      41.022  32.214  35.995  1.00  0.00     0.049 A 
ATOM     49  H   UNL A   1      40.842  31.066  34.235  1.00  0.00     0.167 HD
ATOM     50  C   UNL A   1      39.174  33.321  34.752  1.00  0.00     0.074 A 
ATOM     51  C   UNL A   1      38.151  34.338  34.601  1.00  0.00     0.031 C 
ATOM     52  C   UNL A   1      39.988  33.208  35.830  1.00  0.00     0.037 A 
BRANCH  39  53
ATOM     53  C   UNL A   1      43.957  28.459  35.557  1.00  0.00     0.058 A 
ATOM     54  C   UNL A   1      45.323  28.665  35.300  1.00  0.00     0.135 A 
ATOM     55  C   UNL A   1      43.608  27.443  36.460  1.00  0.00     0.135 A 
ATOM     56  F   UNL A   1      45.712  29.613  34.434  1.00  0.00    -0.206 F 
ATOM     57  C   UNL A   1      46.301  27.864  35.881  1.00  0.00     0.059 A 
ATOM     58  C   UNL A   1      44.570  26.644  37.071  1.00  0.00     0.059 A 
ATOM     59  F   UNL A   1      42.318  27.203  36.743  1.00  0.00    -0.206 F 
ATOM     60  C   UNL A   1      45.913  26.847  36.757  1.00  0.00     0.060 A 
BRANCH  60  61
ATOM     61  S   UNL A   1      47.186  25.783  37.471  1.00  0.00     0.124 S 
ATOM     62  O   UNL A   1      47.351  24.784  36.420  1.00  0.00    -0.237 OA
ATOM     63  O   UNL A   1      48.304  26.703  37.650  1.00  0.00    -0.237 OA
ATOM     64  O   UNL A   1      46.572  25.301  38.704  1.00  0.00    -0.744 OA
ENDBRANCH  60  61
ENDBRANCH  39  53
BRANCH  40  65
ATOM     65  C   UNL A   1      36.537  33.240  30.835  1.00  0.00     0.058 A 
ATOM     66  C   UNL A   1      35.231  33.099  31.323  1.00  0.00     0.135 A 
ATOM     67  C   UNL A   1      36.741  34.089  29.736  1.00  0.00     0.135 A 
ATOM     68  F   UNL A   1      34.987  32.292  32.366  1.00  0.00    -0.206 F 
ATOM     69  C   UNL A   1      34.165  33.790  30.754  1.00  0.00     0.059 A 
ATOM     70  C   UNL A   1      35.694  34.805  29.163  1.00  0.00     0.059 A 
ATOM     71  F   UNL A   1      37.977  34.267  29.243  1.00  0.00    -0.206 F 
ATOM     72  C   UNL A   1      34.410  34.649  29.681  1.00  0.00     0.060 A 
BRANCH  72  73
ATOM     73  S   UNL A   1      33.040  35.626  29.021  1.00  0.00     0.124 S 
ATOM     74  O   UNL A   1      32.302  35.954  30.235  1.00  0.00    -0.237 OA
ATOM     75  O   UNL A   1      33.734  36.736  28.375  1.00  0.00    -0.237 OA
ATOM     76  O   UNL A   1      32.376  34.698  28.109  1.00  0.00    -0.744 OA
ENDBRANCH  72  73
ENDBRANCH  40  65
BRANCH  52  77
ATOM     77  C   UNL A   1      39.809  34.217  36.930  1.00  0.00     0.058 A 
ATOM     78  C   UNL A   1      40.343  35.510  36.830  1.00  0.00     0.135 A 
ATOM     79  C   UNL A   1      39.059  33.899  38.073  1.00  0.00     0.135 A 
ATOM     80  F   UNL A   1      41.075  35.859  35.760  1.00  0.00    -0.206 F 
ATOM     81  C   UNL A   1      40.156  36.451  37.837  1.00  0.00     0.059 A 
ATOM     82  C   UNL A   1      38.841  34.831  39.082  1.00  0.00     0.059 A 
ATOM     83  F   UNL A   1      38.520  32.677  38.210  1.00  0.00    -0.206 F 
ATOM     84  C   UNL A   1      39.403  36.102  38.960  1.00  0.00     0.060 A 
BRANCH  84  85
ATOM     85  S   UNL A   1      39.138  37.339  40.249  1.00  0.00     0.124 S 
ATOM     86  O   UNL A   1      38.244  38.276  39.575  1.00  0.00    -0.237 OA
ATOM     87  O   UNL A   1      38.540  36.552  41.323  1.00  0.00    -0.237 OA
ATOM     88  O   UNL A   1      40.483  37.838  40.520  1.00  0.00    -0.744 OA
ENDBRANCH  84  85
ENDBRANCH  52  77
ENDBRANCH  26  27
ENDBRANCH  19  21
ENDBRANCH  18  19
ENDBRANCH  17  18
ENDBRANCH   1  17
TORSDOF 17
ENDMDL
MODEL 2
REMARK VINA RESULT:     -10.2      6.877     13.575
REMARK SMILES [NH3+]C[C@@H]1CCCC[C@H]1CC(=O)OCCOC(=O)c1ccc(-c2c3nc(c(-c4c(F)cc(S(=O)(=O)[O-])cc4F)c4ccc([nH]4)c(-c4c(F)cc(S(=O)(=O)[O-])cc4F)c4nc(c(-c5c(F)cc(S(=O)(=O)[O-])cc5F)c5ccc2[nH]5)C=C4)C=C3)cc1
REMARK SMILES IDX 13 1 12 2 10 3 11 4 9 5 8 6 3 7 4 8 5 9 7 10 6 11 2 12 1 13
REMARK SMILES IDX 14 17 15 18 16 19 17 20 18 21 19 22 83 23 20 24 82 25 21 26
REMARK SMILES IDX 22 27 23 28 76 29 24 30 81 31 75 32 77 33 25 34 80 35 74 36
REMARK SMILES IDX 73 37 26 39 60 40 39 41 59 42 40 43 43 44 58 45 78 46 41 47
REMARK SMILES IDX 42 48 57 50 79 51 44 52 27 53 28 54 37 55 29 56 30 57 36 58
REMARK SMILES IDX 38 59 31 60 32 61 33 62 34 63 35 64 61 65 62 66 71 67 63 68
REMARK SMILES IDX 64 69 70 70 72 71 65 72 66 73 67 74 68 75 69 76 45 77 46 78
REMARK SMILES IDX 55 79 47 80 48 81 54 82 56 83 49 84 50 85 51 86 52 87 53 88
REMARK H PARENT 1 14 1 15 1 16 77 38 43 49
REMARK Flexibility Score: inf
ROOT
ATOM      1  C   UNL A   1      34.463  31.423  27.776  1.00  0.00     0.274 C 
ENDROOT
BRANCH   1   2
ATOM      2  O   UNL A   1      35.176  32.665  27.619  1.00  0.00    -0.462 OA
BRANCH   2   3
ATOM      3  C   UNL A   1      34.673  33.755  28.240  1.00  0.00     0.306 C 
ATOM      4  O   UNL A   1      34.515  34.847  27.710  1.00  0.00    -0.252 OA
BRANCH   3   5
ATOM      5  C   UNL A   1      34.433  33.515  29.715  1.00  0.00     0.126 C 
BRANCH   5   6
ATOM      6  C   UNL A   1      34.868  34.607  30.730  1.00  0.00     0.009 C 
ATOM      7  C   UNL A   1      33.657  35.312  31.426  1.00  0.00     0.048 C 
ATOM      8  C   UNL A   1      34.057  36.085  32.702  1.00  0.00     0.010 C 
ATOM      9  C   UNL A   1      34.861  35.233  33.668  1.00  0.00     0.001 C 
ATOM     10  C   UNL A   1      35.789  33.909  31.768  1.00  0.00     0.005 C 
ATOM     11  C   UNL A   1      36.128  34.754  32.987  1.00  0.00     0.000 C 
BRANCH   7  12
ATOM     12  C   UNL A   1      32.821  36.255  30.530  1.00  0.00     0.262 C 
BRANCH  12  13
ATOM     13  N   UNL A   1      33.330  37.615  30.391  1.00  0.00    -0.357 N 
ATOM     14  H   UNL A   1      33.361  37.868  29.404  1.00  0.00     0.344 HD
ATOM     15  H   UNL A   1      34.270  37.667  30.784  1.00  0.00     0.344 HD
ATOM     16  H   UNL A   1      32.718  38.260  30.890  1.00  0.00     0.344 HD
ENDBRANCH  12  13
ENDBRANCH   7  12
ENDBRANCH   5   6
ENDBRANCH   3   5
ENDBRANCH   2   3
ENDBRANCH   1   2
BRANCH   1  17
ATOM     17  C   UNL A   1      35.395  30.212  27.694  1.00  0.00     0.275 C 
BRANCH  17  18
ATOM     18  O   UNL A   1      35.492  29.537  28.959  1.00  0.00    -0.458 OA
BRANCH  18  19
ATOM     19  C   UNL A   1      36.280  30.143  29.878  1.00  0.00     0.338 C 
ATOM     20  O   UNL A   1      35.919  30.800  30.839  1.00  0.00    -0.246 OA
BRANCH  19  21
ATOM     21  C   UNL A   1      37.681  29.784  29.625  1.00  0.00     0.060 A 
ATOM     22  C   UNL A   1      38.188  29.962  28.334  1.00  0.00     0.016 A 
ATOM     23  C   UNL A   1      38.470  29.240  30.640  1.00  0.00     0.016 A 
ATOM     24  C   UNL A   1      39.502  29.598  28.053  1.00  0.00     0.010 A 
ATOM     25  C   UNL A   1      39.785  28.874  30.354  1.00  0.00     0.010 A 
ATOM     26  C   UNL A   1      40.305  29.048  29.060  1.00  0.00    -0.014 A 
BRANCH  26  27
ATOM     27  C   UNL A   1      41.696  28.644  28.762  1.00  0.00     0.031 A 
ATOM     28  C   UNL A   1      42.789  29.668  28.762  1.00  0.00     0.074 A 
ATOM     29  C   UNL A   1      41.956  27.359  28.461  1.00  0.00     0.049 A 
ATOM     30  N   UNL A   1      44.049  29.531  28.447  1.00  0.00    -0.248 NA
ATOM     31  C   UNL A   1      42.409  31.032  29.160  1.00  0.00     0.031 C 
ATOM     32  C   UNL A   1      40.962  26.284  28.437  1.00  0.00     0.029 A 
ATOM     33  N   UNL A   1      43.125  26.745  28.098  1.00  0.00    -0.354 N 
ATOM     34  C   UNL A   1      44.613  30.793  28.587  1.00  0.00     0.074 A 
ATOM     35  C   UNL A   1      43.552  31.685  29.002  1.00  0.00     0.031 C 
ATOM     36  C   UNL A   1      41.563  25.144  28.061  1.00  0.00     0.029 A 
ATOM     37  C   UNL A   1      42.971  25.416  27.786  1.00  0.00     0.049 A 
ATOM     38  H   UNL A   1      43.992  27.211  28.064  1.00  0.00     0.167 HD
ATOM     39  C   UNL A   1      45.899  31.167  28.382  1.00  0.00     0.037 A 
ATOM     40  C   UNL A   1      43.860  24.526  27.306  1.00  0.00     0.037 A 
ATOM     41  C   UNL A   1      46.943  30.265  27.969  1.00  0.00     0.049 A 
ATOM     42  C   UNL A   1      45.279  24.964  27.076  1.00  0.00     0.074 A 
ATOM     43  C   UNL A   1      48.287  30.530  27.772  1.00  0.00     0.029 A 
ATOM     44  N   UNL A   1      46.754  28.920  27.676  1.00  0.00    -0.354 N 
ATOM     45  N   UNL A   1      45.810  26.151  27.247  1.00  0.00    -0.248 NA
ATOM     46  C   UNL A   1      46.219  23.944  26.595  1.00  0.00     0.031 C 
ATOM     47  C   UNL A   1      48.903  29.355  27.324  1.00  0.00     0.029 A 
ATOM     48  C   UNL A   1      47.951  28.348  27.278  1.00  0.00     0.049 A 
ATOM     49  H   UNL A   1      45.896  28.443  27.742  1.00  0.00     0.167 HD
ATOM     50  C   UNL A   1      47.149  26.023  26.901  1.00  0.00     0.074 A 
ATOM     51  C   UNL A   1      47.349  24.637  26.526  1.00  0.00     0.031 C 
ATOM     52  C   UNL A   1      48.124  26.966  26.895  1.00  0.00     0.037 A 
BRANCH  39  53
ATOM     53  C   UNL A   1      46.226  32.622  28.567  1.00  0.00     0.058 A 
ATOM     54  C   UNL A   1      46.152  33.540  27.507  1.00  0.00     0.135 A 
ATOM     55  C   UNL A   1      46.641  33.102  29.820  1.00  0.00     0.135 A 
ATOM     56  F   UNL A   1      45.775  33.132  26.285  1.00  0.00    -0.206 F 
ATOM     57  C   UNL A   1      46.519  34.872  27.671  1.00  0.00     0.059 A 
ATOM     58  C   UNL A   1      46.991  34.435  30.013  1.00  0.00     0.059 A 
ATOM     59  F   UNL A   1      46.729  32.268  30.868  1.00  0.00    -0.206 F 
ATOM     60  C   UNL A   1      46.949  35.308  28.927  1.00  0.00     0.060 A 
BRANCH  60  61
ATOM     61  S   UNL A   1      47.466  37.027  29.120  1.00  0.00     0.124 S 
ATOM     62  O   UNL A   1      48.840  36.973  28.628  1.00  0.00    -0.237 OA
ATOM     63  O   UNL A   1      46.519  37.741  28.270  1.00  0.00    -0.237 OA
ATOM     64  O   UNL A   1      47.321  37.266  30.552  1.00  0.00    -0.744 OA
ENDBRANCH  60  61
ENDBRANCH  39  53
BRANCH  40  65
ATOM     65  C   UNL A   1      43.409  23.143  27.011  1.00  0.00     0.058 A 
ATOM     66  C   UNL A   1      43.265  22.696  25.692  1.00  0.00     0.135 A 
ATOM     67  C   UNL A   1      43.201  22.217  28.046  1.00  0.00     0.135 A 
ATOM     68  F   UNL A   1      43.445  23.546  24.670  1.00  0.00    -0.206 F 
ATOM     69  C   UNL A   1      42.943  21.372  25.404  1.00  0.00     0.059 A 
ATOM     70  C   UNL A   1      42.899  20.884  27.784  1.00  0.00     0.059 A 
ATOM     71  F   UNL A   1      43.343  22.596  29.326  1.00  0.00    -0.206 F 
ATOM     72  C   UNL A   1      42.774  20.471  26.458  1.00  0.00     0.060 A 
BRANCH  72  73
ATOM     73  S   UNL A   1      42.468  18.733  26.074  1.00  0.00     0.124 S 
ATOM     74  O   UNL A   1      41.076  18.768  25.642  1.00  0.00    -0.237 OA
ATOM     75  O   UNL A   1      43.455  18.468  25.031  1.00  0.00    -0.237 OA
ATOM     76  O   UNL A   1      42.718  18.060  27.346  1.00  0.00    -0.744 OA
ENDBRANCH  72  73
ENDBRANCH  40  65
BRANCH  52  77
ATOM     77  C   UNL A   1      49.498  26.526  26.475  1.00  0.00     0.058 A 
ATOM     78  C   UNL A   1      50.359  25.868  27.365  1.00  0.00     0.135 A 
ATOM     79  C   UNL A   1      49.938  26.725  25.157  1.00  0.00     0.135 A 
ATOM     80  F   UNL A   1      49.986  25.661  28.639  1.00  0.00    -0.206 F 
ATOM     81  C   UNL A   1      51.621  25.438  26.969  1.00  0.00     0.059 A 
ATOM     82  C   UNL A   1      51.187  26.284  24.733  1.00  0.00     0.059 A 
ATOM     83  F   UNL A   1      49.146  27.342  24.266  1.00  0.00    -0.206 F 
ATOM     84  C   UNL A   1      52.027  25.651  25.650  1.00  0.00     0.060 A 
BRANCH  84  85
ATOM     85  S   UNL A   1      53.654  25.062  25.135  1.00  0.00     0.124 S 
ATOM     86  O   UNL A   1      53.725  25.561  23.765  1.00  0.00    -0.237 OA
ATOM     87  O   UNL A   1      54.543  25.712  26.093  1.00  0.00    -0.237 OA
ATOM     88  O   UNL A   1      53.548  23.613  25.272  1.00  0.00    -0.744 OA
ENDBRANCH  84  85
ENDBRANCH  52  77
ENDBRANCH  26  27
ENDBRANCH  19  21
ENDBRANCH  18  19
ENDBRANCH  17  18
ENDBRANCH   1  17
TORSDOF 17
ENDMDL
MODEL 3
REMARK VINA RESULT:     -10.2      2.540      4.259
REMARK SMILES [NH3+]C[C@@H]1CCCC[C@H]1CC(=O)OCCOC(=O)c1ccc(-c2c3nc(c(-c4c(F)cc(S(=O)(=O)[O-])cc4F)c4ccc([nH]4)c(-c4c(F)cc(S(=O)(=O)[O-])cc4F)c4nc(c(-c5c(F)cc(S(=O)(=O)[O-])cc5F)c5ccc2[nH]5)C=C4)C=C3)cc1
REMARK SMILES IDX 13 1 12 2 10 3 11 4 9 5 8 6 3 7 4 8 5 9 7 10 6 11 2 12 1 13
REMARK SMILES IDX 14 17 15 18 16 19 17 20 18 21 19 22 83 23 20 24 82 25 21 26
REMARK SMILES IDX 22 27 23 28 76 29 24 30 81 31 75 32 77 33 25 34 80 35 74 36
REMARK SMILES IDX 73 37 26 39 60 40 39 41 59 42 40 43 43 44 58 45 78 46 41 47
REMARK SMILES IDX 42 48 57 50 79 51 44 52 27 53 28 54 37 55 29 56 30 57 36 58
REMARK SMILES IDX 38 59 31 60 32 61 33 62 34 63 35 64 61 65 62 66 71 67 63 68
REMARK SMILES IDX 64 69 70 70 72 71 65 72 66 73 67 74 68 75 69 76 45 77 46 78
REMARK SMILES IDX 55 79 47 80 48 81 54 82 56 83 49 84 50 85 51 86 52 87 53 88
REMARK H PARENT 1 14 1 15 1 16 77 38 43 49
REMARK Flexibility Score: inf
ROOT
ATOM      1  C   UNL A   1      44.324  23.916  24.925  1.00  0.00     0.274 C 
ENDROOT
BRANCH   1   2
ATOM      2  O   UNL A   1      45.445  23.881  25.829  1.00  0.00    -0.462 OA
BRANCH   2   3
ATOM      3  C   UNL A   1      45.540  24.874  26.742  1.00  0.00     0.306 C 
ATOM      4  O   UNL A   1      45.370  26.062  26.499  1.00  0.00    -0.252 OA
BRANCH   3   5
ATOM      5  C   UNL A   1      46.007  24.369  28.091  1.00  0.00     0.126 C 
BRANCH   5   6
ATOM      6  C   UNL A   1      45.314  24.908  29.371  1.00  0.00     0.009 C 
ATOM      7  C   UNL A   1      44.503  23.810  30.136  1.00  0.00     0.048 C 
ATOM      8  C   UNL A   1      44.160  24.210  31.587  1.00  0.00     0.010 C 
ATOM      9  C   UNL A   1      45.379  24.673  32.365  1.00  0.00     0.001 C 
ATOM     10  C   UNL A   1      46.434  25.509  30.264  1.00  0.00     0.005 C 
ATOM     11  C   UNL A   1      45.994  25.875  31.674  1.00  0.00     0.000 C 
BRANCH   7  12
ATOM     12  C   UNL A   1      43.205  23.329  29.446  1.00  0.00     0.262 C 
BRANCH  12  13
ATOM     13  N   UNL A   1      43.245  21.983  28.887  1.00  0.00    -0.357 N 
ATOM     14  H   UNL A   1      42.358  21.512  29.066  1.00  0.00     0.344 HD
ATOM     15  H   UNL A   1      44.003  21.457  29.324  1.00  0.00     0.344 HD
ATOM     16  H   UNL A   1      43.406  22.037  27.882  1.00  0.00     0.344 HD
ENDBRANCH  12  13
ENDBRANCH   7  12
ENDBRANCH   5   6
ENDBRANCH   3   5
ENDBRANCH   2   3
ENDBRANCH   1   2
BRANCH   1  17
ATOM     17  C   UNL A   1      43.012  23.548  25.622  1.00  0.00     0.275 C 
BRANCH  17  18
ATOM     18  O   UNL A   1      42.197  24.709  25.851  1.00  0.00    -0.458 OA
BRANCH  18  19
ATOM     19  C   UNL A   1      41.077  24.491  26.581  1.00  0.00     0.338 C 
ATOM     20  O   UNL A   1      40.328  23.532  26.513  1.00  0.00    -0.246 OA
BRANCH  19  21
ATOM     21  C   UNL A   1      40.949  25.546  27.595  1.00  0.00     0.060 A 
ATOM     22  C   UNL A   1      41.977  26.486  27.708  1.00  0.00     0.016 A 
ATOM     23  C   UNL A   1      39.847  25.578  28.452  1.00  0.00     0.016 A 
ATOM     24  C   UNL A   1      41.903  27.477  28.682  1.00  0.00     0.010 A 
ATOM     25  C   UNL A   1      39.777  26.570  29.429  1.00  0.00     0.010 A 
ATOM     26  C   UNL A   1      40.805  27.521  29.550  1.00  0.00    -0.014 A 
BRANCH  26  27
ATOM     27  C   UNL A   1      40.730  28.560  30.600  1.00  0.00     0.031 A 
ATOM     28  C   UNL A   1      41.636  28.486  31.792  1.00  0.00     0.074 A 
ATOM     29  C   UNL A   1      39.822  29.545  30.485  1.00  0.00     0.049 A 
ATOM     30  N   UNL A   1      41.668  29.248  32.852  1.00  0.00    -0.248 NA
ATOM     31  C   UNL A   1      42.631  27.404  31.792  1.00  0.00     0.031 C 
ATOM     32  C   UNL A   1      38.897  29.707  29.362  1.00  0.00     0.029 A 
ATOM     33  N   UNL A   1      39.513  30.579  31.329  1.00  0.00    -0.354 N 
ATOM     34  C   UNL A   1      42.671  28.728  33.660  1.00  0.00     0.074 A 
ATOM     35  C   UNL A   1      43.213  27.575  32.971  1.00  0.00     0.031 C 
ATOM     36  C   UNL A   1      38.111  30.771  29.596  1.00  0.00     0.029 A 
ATOM     37  C   UNL A   1      38.455  31.340  30.896  1.00  0.00     0.049 A 
ATOM     38  H   UNL A   1      40.003  30.759  32.164  1.00  0.00     0.167 HD
ATOM     39  C   UNL A   1      43.094  29.172  34.868  1.00  0.00     0.037 A 
ATOM     40  C   UNL A   1      37.817  32.363  31.494  1.00  0.00     0.037 A 
ATOM     41  C   UNL A   1      42.543  30.321  35.540  1.00  0.00     0.049 A 
ATOM     42  C   UNL A   1      38.295  32.836  32.838  1.00  0.00     0.074 A 
ATOM     43  C   UNL A   1      42.924  30.883  36.746  1.00  0.00     0.029 A 
ATOM     44  N   UNL A   1      41.480  31.079  35.065  1.00  0.00    -0.354 N 
ATOM     45  N   UNL A   1      39.269  32.359  33.577  1.00  0.00    -0.248 NA
ATOM     46  C   UNL A   1      37.594  33.983  33.427  1.00  0.00     0.031 C 
ATOM     47  C   UNL A   1      42.067  31.956  37.018  1.00  0.00     0.029 A 
ATOM     48  C   UNL A   1      41.177  32.088  35.964  1.00  0.00     0.049 A 
ATOM     49  H   UNL A   1      41.011  30.922  34.214  1.00  0.00     0.167 HD
ATOM     50  C   UNL A   1      39.305  33.151  34.717  1.00  0.00     0.074 A 
ATOM     51  C   UNL A   1      38.264  34.149  34.561  1.00  0.00     0.031 C 
ATOM     52  C   UNL A   1      40.125  33.063  35.794  1.00  0.00     0.037 A 
BRANCH  39  53
ATOM     53  C   UNL A   1      44.178  28.383  35.547  1.00  0.00     0.058 A 
ATOM     54  C   UNL A   1      45.539  28.622  35.296  1.00  0.00     0.135 A 
ATOM     55  C   UNL A   1      43.849  27.358  36.448  1.00  0.00     0.135 A 
ATOM     56  F   UNL A   1      45.908  29.580  34.432  1.00  0.00    -0.206 F 
ATOM     57  C   UNL A   1      46.533  27.844  35.880  1.00  0.00     0.059 A 
ATOM     58  C   UNL A   1      44.829  26.582  37.062  1.00  0.00     0.059 A 
ATOM     59  F   UNL A   1      42.564  27.087  36.726  1.00  0.00    -0.206 F 
ATOM     60  C   UNL A   1      46.168  26.817  36.753  1.00  0.00     0.060 A 
BRANCH  60  61
ATOM     61  S   UNL A   1      47.463  25.784  37.471  1.00  0.00     0.124 S 
ATOM     62  O   UNL A   1      47.035  25.710  38.864  1.00  0.00    -0.237 OA
ATOM     63  O   UNL A   1      47.342  24.548  36.706  1.00  0.00    -0.237 OA
ATOM     64  O   UNL A   1      48.681  26.550  37.228  1.00  0.00    -0.744 OA
ENDBRANCH  60  61
ENDBRANCH  39  53
BRANCH  40  65
ATOM     65  C   UNL A   1      36.656  32.989  30.811  1.00  0.00     0.058 A 
ATOM     66  C   UNL A   1      35.350  32.785  31.273  1.00  0.00     0.135 A 
ATOM     67  C   UNL A   1      36.844  33.875  29.738  1.00  0.00     0.135 A 
ATOM     68  F   UNL A   1      35.121  31.941  32.291  1.00  0.00    -0.206 F 
ATOM     69  C   UNL A   1      34.266  33.449  30.705  1.00  0.00     0.059 A 
ATOM     70  C   UNL A   1      35.780  34.565  29.166  1.00  0.00     0.059 A 
ATOM     71  F   UNL A   1      38.080  34.113  29.271  1.00  0.00    -0.206 F 
ATOM     72  C   UNL A   1      34.494  34.346  29.659  1.00  0.00     0.060 A 
BRANCH  72  73
ATOM     73  S   UNL A   1      33.098  35.286  29.002  1.00  0.00     0.124 S 
ATOM     74  O   UNL A   1      32.550  34.354  28.025  1.00  0.00    -0.237 OA
ATOM     75  O   UNL A   1      32.288  35.511  30.195  1.00  0.00    -0.237 OA
ATOM     76  O   UNL A   1      33.729  36.482  28.450  1.00  0.00    -0.744 OA
ENDBRANCH  72  73
ENDBRANCH  40  65
BRANCH  52  77
ATOM     77  C   UNL A   1      39.931  34.077  36.885  1.00  0.00     0.058 A 
ATOM     78  C   UNL A   1      40.476  35.366  36.791  1.00  0.00     0.135 A 
ATOM     79  C   UNL A   1      39.156  33.770  38.015  1.00  0.00     0.135 A 
ATOM     80  F   UNL A   1      41.232  35.705  35.734  1.00  0.00    -0.206 F 
ATOM     81  C   UNL A   1      40.276  36.312  37.790  1.00  0.00     0.059 A 
ATOM     82  C   UNL A   1      38.925  34.708  39.015  1.00  0.00     0.059 A 
ATOM     83  F   UNL A   1      38.606  32.553  38.146  1.00  0.00    -0.206 F 
ATOM     84  C   UNL A   1      39.499  35.974  38.899  1.00  0.00     0.060 A 
BRANCH  84  85
ATOM     85  S   UNL A   1      39.217  37.219  40.177  1.00  0.00     0.124 S 
ATOM     86  O   UNL A   1      38.501  38.248  39.430  1.00  0.00    -0.237 OA
ATOM     87  O   UNL A   1      38.429  36.486  41.162  1.00  0.00    -0.237 OA
ATOM     88  O   UNL A   1      40.567  37.576  40.604  1.00  0.00    -0.744 OA
ENDBRANCH  84  85
ENDBRANCH  52  77
ENDBRANCH  26  27
ENDBRANCH  19  21
ENDBRANCH  18  19
ENDBRANCH  17  18
ENDBRANCH   1  17
TORSDOF 17
ENDMDL
