MODEL 1
REMARK VINA RESULT:     -10.3      0.000      0.000
REMARK SMILES CC[C@H]1CC[C@@](C(=O)OCCOC(=O)c2ccc(-c3c4nc(c(-c5c(F)cc(S(=O)(=O)[O-])cc5F)c5ccc([nH]5)c(-c5c(F)cc(S(=O)(=O)[O-])cc5F)c5nc(c(-c6c(F)cc(S(=O)(=O)[O-])cc6F)c6ccc3[nH]6)C=C5)C=C4)cc2)(C2CCCC2)C1
REMARK SMILES IDX 11 1 10 2 9 3 7 4 8 5 6 6 3 7 4 8 86 9 5 10 2 11 1 12 81 13
REMARK SMILES IDX 82 14 85 15 83 16 84 17 12 18 13 19 14 20 15 21 16 22 80 23
REMARK SMILES IDX 17 24 79 25 18 26 19 27 20 28 73 29 21 30 78 31 72 32 74 33
REMARK SMILES IDX 22 34 77 35 71 36 70 37 23 39 57 40 36 41 56 42 37 43 40 44
REMARK SMILES IDX 55 45 75 46 38 47 39 48 54 50 76 51 41 52 24 53 25 54 34 55
REMARK SMILES IDX 26 56 27 57 33 58 35 59 28 60 29 61 30 62 31 63 32 64 58 65
REMARK SMILES IDX 59 66 68 67 60 68 61 69 67 70 69 71 62 72 63 73 64 74 65 75
REMARK SMILES IDX 66 76 42 77 43 78 52 79 44 80 45 81 51 82 53 83 46 84 47 85
REMARK SMILES IDX 48 86 49 87 50 88
REMARK H PARENT 74 38 40 49
REMARK Flexibility Score: inf
ROOT
ATOM      1  C   UNL A   1      34.068  33.054  28.429  1.00  0.00     0.275 C 
ENDROOT
BRANCH   1   2
ATOM      2  C   UNL A   1      33.884  34.155  29.467  1.00  0.00     0.274 C 
BRANCH   2   3
ATOM      3  O   UNL A   1      33.998  33.635  30.809  1.00  0.00    -0.462 OA
BRANCH   3   4
ATOM      4  C   UNL A   1      34.649  34.442  31.690  1.00  0.00     0.312 C 
ATOM      5  O   UNL A   1      34.225  35.534  32.059  1.00  0.00    -0.252 OA
BRANCH   4   6
ATOM      6  C   UNL A   1      36.016  33.895  32.143  1.00  0.00     0.071 C 
ATOM      7  C   UNL A   1      36.606  31.814  33.407  1.00  0.00    -0.010 C 
ATOM      8  C   UNL A   1      37.104  33.043  34.176  1.00  0.00     0.005 C 
ATOM      9  C   UNL A   1      35.803  32.361  32.221  1.00  0.00     0.022 C 
ATOM     10  C   UNL A   1      36.360  34.241  33.602  1.00  0.00     0.019 C 
BRANCH   7  11
ATOM     11  C   UNL A   1      37.749  30.839  33.081  1.00  0.00     0.000 C 
ATOM     12  C   UNL A   1      39.150  31.402  33.274  1.00  0.00     0.004 C 
ENDBRANCH   7  11
BRANCH   6  13
ATOM     13  C   UNL A   1      37.073  34.276  31.062  1.00  0.00     0.006 C 
ATOM     14  C   UNL A   1      38.471  34.662  31.564  1.00  0.00     0.005 C 
ATOM     15  C   UNL A   1      37.429  33.236  29.997  1.00  0.00     0.005 C 
ATOM     16  C   UNL A   1      39.349  34.674  30.308  1.00  0.00     0.000 C 
ATOM     17  C   UNL A   1      38.601  33.863  29.255  1.00  0.00     0.000 C 
ENDBRANCH   6  13
ENDBRANCH   4   6
ENDBRANCH   3   4
ENDBRANCH   2   3
ENDBRANCH   1   2
BRANCH   1  18
ATOM     18  O   UNL A   1      34.499  31.853  29.085  1.00  0.00    -0.458 OA
BRANCH  18  19
ATOM     19  C   UNL A   1      34.563  30.746  28.314  1.00  0.00     0.338 C 
ATOM     20  O   UNL A   1      33.680  30.322  27.580  1.00  0.00    -0.246 OA
BRANCH  19  21
ATOM     21  C   UNL A   1      35.897  30.110  28.430  1.00  0.00     0.060 A 
ATOM     22  C   UNL A   1      36.351  29.590  29.645  1.00  0.00     0.016 A 
ATOM     23  C   UNL A   1      36.765  30.146  27.337  1.00  0.00     0.016 A 
ATOM     24  C   UNL A   1      37.687  29.222  29.797  1.00  0.00     0.010 A 
ATOM     25  C   UNL A   1      38.077  29.672  27.466  1.00  0.00     0.010 A 
ATOM     26  C   UNL A   1      38.573  29.246  28.711  1.00  0.00    -0.014 A 
BRANCH  26  27
ATOM     27  C   UNL A   1      40.015  28.883  28.871  1.00  0.00     0.031 A 
ATOM     28  C   UNL A   1      41.003  29.901  29.394  1.00  0.00     0.074 A 
ATOM     29  C   UNL A   1      40.465  27.649  28.560  1.00  0.00     0.049 A 
ATOM     30  N   UNL A   1      42.311  29.889  29.343  1.00  0.00    -0.248 NA
ATOM     31  C   UNL A   1      40.446  31.099  30.044  1.00  0.00     0.031 C 
ATOM     32  C   UNL A   1      39.642  26.529  28.098  1.00  0.00     0.029 A 
ATOM     33  N   UNL A   1      41.737  27.127  28.589  1.00  0.00    -0.354 N 
ATOM     34  C   UNL A   1      42.728  31.105  29.873  1.00  0.00     0.074 A 
ATOM     35  C   UNL A   1      41.535  31.824  30.267  1.00  0.00     0.031 C 
ATOM     36  C   UNL A   1      40.416  25.446  27.938  1.00  0.00     0.029 A 
ATOM     37  C   UNL A   1      41.806  25.819  28.170  1.00  0.00     0.049 A 
ATOM     38  H   UNL A   1      42.524  27.641  28.881  1.00  0.00     0.167 HD
ATOM     39  C   UNL A   1      43.989  31.584  30.006  1.00  0.00     0.037 A 
ATOM     40  C   UNL A   1      42.864  25.019  27.933  1.00  0.00     0.037 A 
ATOM     41  C   UNL A   1      45.178  30.836  29.690  1.00  0.00     0.049 A 
ATOM     42  C   UNL A   1      44.253  25.566  28.085  1.00  0.00     0.074 A 
ATOM     43  C   UNL A   1      46.501  31.236  29.788  1.00  0.00     0.029 A 
ATOM     44  N   UNL A   1      45.193  29.523  29.246  1.00  0.00    -0.354 N 
ATOM     45  N   UNL A   1      44.628  26.764  28.461  1.00  0.00    -0.248 NA
ATOM     46  C   UNL A   1      45.361  24.665  27.741  1.00  0.00     0.031 C 
ATOM     47  C   UNL A   1      47.315  30.170  29.389  1.00  0.00     0.029 A 
ATOM     48  C   UNL A   1      46.499  29.097  29.070  1.00  0.00     0.049 A 
ATOM     49  H   UNL A   1      44.392  28.974  29.080  1.00  0.00     0.167 HD
ATOM     50  C   UNL A   1      46.016  26.765  28.386  1.00  0.00     0.074 A 
ATOM     51  C   UNL A   1      46.415  25.439  27.960  1.00  0.00     0.031 C 
ATOM     52  C   UNL A   1      46.880  27.778  28.636  1.00  0.00     0.037 A 
BRANCH  39  53
ATOM     53  C   UNL A   1      44.157  33.001  30.478  1.00  0.00     0.058 A 
ATOM     54  C   UNL A   1      44.063  34.095  29.607  1.00  0.00     0.135 A 
ATOM     55  C   UNL A   1      44.353  33.264  31.845  1.00  0.00     0.135 A 
ATOM     56  F   UNL A   1      43.895  33.898  28.290  1.00  0.00    -0.206 F 
ATOM     57  C   UNL A   1      44.167  35.404  30.072  1.00  0.00     0.059 A 
ATOM     58  C   UNL A   1      44.441  34.564  32.335  1.00  0.00     0.059 A 
ATOM     59  F   UNL A   1      44.452  32.252  32.721  1.00  0.00    -0.206 F 
ATOM     60  C   UNL A   1      44.355  35.628  31.439  1.00  0.00     0.060 A 
BRANCH  60  61
ATOM     61  S   UNL A   1      44.460  37.329  32.036  1.00  0.00     0.124 S 
ATOM     62  O   UNL A   1      44.036  38.078  30.857  1.00  0.00    -0.237 OA
ATOM     63  O   UNL A   1      43.525  37.329  33.155  1.00  0.00    -0.237 OA
ATOM     64  O   UNL A   1      45.866  37.474  32.400  1.00  0.00    -0.744 OA
ENDBRANCH  60  61
ENDBRANCH  39  53
BRANCH  40  65
ATOM     65  C   UNL A   1      42.641  23.630  27.451  1.00  0.00     0.058 A 
ATOM     66  C   UNL A   1      42.688  23.324  26.084  1.00  0.00     0.135 A 
ATOM     67  C   UNL A   1      42.416  22.578  28.352  1.00  0.00     0.135 A 
ATOM     68  F   UNL A   1      42.884  24.301  25.185  1.00  0.00    -0.206 F 
ATOM     69  C   UNL A   1      42.526  22.021  25.625  1.00  0.00     0.059 A 
ATOM     70  C   UNL A   1      42.278  21.264  27.920  1.00  0.00     0.059 A 
ATOM     71  F   UNL A   1      42.371  22.820  29.672  1.00  0.00    -0.206 F 
ATOM     72  C   UNL A   1      42.329  20.996  26.552  1.00  0.00     0.060 A 
BRANCH  72  73
ATOM     73  S   UNL A   1      42.211  19.292  25.967  1.00  0.00     0.124 S 
ATOM     74  O   UNL A   1      43.034  19.337  24.765  1.00  0.00    -0.237 OA
ATOM     75  O   UNL A   1      42.758  18.535  27.088  1.00  0.00    -0.237 OA
ATOM     76  O   UNL A   1      40.777  19.119  25.747  1.00  0.00    -0.744 OA
ENDBRANCH  72  73
ENDBRANCH  40  65
BRANCH  52  77
ATOM     77  C   UNL A   1      48.341  27.486  28.461  1.00  0.00     0.058 A 
ATOM     78  C   UNL A   1      49.144  27.109  29.549  1.00  0.00     0.135 A 
ATOM     79  C   UNL A   1      48.938  27.562  27.194  1.00  0.00     0.135 A 
ATOM     80  F   UNL A   1      48.620  27.028  30.781  1.00  0.00    -0.206 F 
ATOM     81  C   UNL A   1      50.500  26.843  29.388  1.00  0.00     0.059 A 
ATOM     82  C   UNL A   1      50.288  27.284  27.009  1.00  0.00     0.059 A 
ATOM     83  F   UNL A   1      48.208  27.911  26.123  1.00  0.00    -0.206 F 
ATOM     84  C   UNL A   1      51.065  26.938  28.115  1.00  0.00     0.060 A 
BRANCH  84  85
ATOM     85  S   UNL A   1      52.823  26.583  27.915  1.00  0.00     0.124 S 
ATOM     86  O   UNL A   1      52.796  25.511  26.926  1.00  0.00    -0.237 OA
ATOM     87  O   UNL A   1      53.354  27.861  27.450  1.00  0.00    -0.237 OA
ATOM     88  O   UNL A   1      53.242  26.191  29.258  1.00  0.00    -0.744 OA
ENDBRANCH  84  85
ENDBRANCH  52  77
ENDBRANCH  26  27
ENDBRANCH  19  21
ENDBRANCH  18  19
ENDBRANCH   1  18
TORSDOF 16
ENDMDL
MODEL 2
REMARK VINA RESULT:      -9.9      3.802     11.755
REMARK SMILES CC[C@H]1CC[C@@](C(=O)OCCOC(=O)c2ccc(-c3c4nc(c(-c5c(F)cc(S(=O)(=O)[O-])cc5F)c5ccc([nH]5)c(-c5c(F)cc(S(=O)(=O)[O-])cc5F)c5nc(c(-c6c(F)cc(S(=O)(=O)[O-])cc6F)c6ccc3[nH]6)C=C5)C=C4)cc2)(C2CCCC2)C1
REMARK SMILES IDX 11 1 10 2 9 3 7 4 8 5 6 6 3 7 4 8 86 9 5 10 2 11 1 12 81 13
REMARK SMILES IDX 82 14 85 15 83 16 84 17 12 18 13 19 14 20 15 21 16 22 80 23
REMARK SMILES IDX 17 24 79 25 18 26 19 27 20 28 73 29 21 30 78 31 72 32 74 33
REMARK SMILES IDX 22 34 77 35 71 36 70 37 23 39 57 40 36 41 56 42 37 43 40 44
REMARK SMILES IDX 55 45 75 46 38 47 39 48 54 50 76 51 41 52 24 53 25 54 34 55
REMARK SMILES IDX 26 56 27 57 33 58 35 59 28 60 29 61 30 62 31 63 32 64 58 65
REMARK SMILES IDX 59 66 68 67 60 68 61 69 67 70 69 71 62 72 63 73 64 74 65 75
REMARK SMILES IDX 66 76 42 77 43 78 52 79 44 80 45 81 51 82 53 83 46 84 47 85
REMARK SMILES IDX 48 86 49 87 50 88
REMARK H PARENT 74 38 40 49
REMARK Flexibility Score: inf
ROOT
ATOM      1  C   UNL A   1      40.800  21.028  26.479  1.00  0.00     0.275 C 
ENDROOT
BRANCH   1   2
ATOM      2  C   UNL A   1      42.132  20.447  26.020  1.00  0.00     0.274 C 
BRANCH   2   3
ATOM      3  O   UNL A   1      42.869  21.392  25.216  1.00  0.00    -0.462 OA
BRANCH   3   4
ATOM      4  C   UNL A   1      44.192  21.499  25.512  1.00  0.00     0.312 C 
ATOM      5  O   UNL A   1      44.996  20.578  25.397  1.00  0.00    -0.252 OA
BRANCH   4   6
ATOM      6  C   UNL A   1      44.594  22.875  26.077  1.00  0.00     0.071 C 
ATOM      7  C   UNL A   1      44.378  25.171  25.099  1.00  0.00    -0.010 C 
ATOM      8  C   UNL A   1      45.852  24.876  25.400  1.00  0.00     0.005 C 
ATOM      9  C   UNL A   1      43.624  23.867  25.385  1.00  0.00     0.022 C 
ATOM     10  C   UNL A   1      45.962  23.366  25.574  1.00  0.00     0.019 C 
BRANCH   7  11
ATOM     11  C   UNL A   1      43.885  26.432  25.826  1.00  0.00     0.000 C 
ATOM     12  C   UNL A   1      44.860  27.012  26.842  1.00  0.00     0.004 C 
ENDBRANCH   7  11
BRANCH   6  13
ATOM     13  C   UNL A   1      44.383  22.845  27.622  1.00  0.00     0.006 C 
ATOM     14  C   UNL A   1      45.342  23.690  28.470  1.00  0.00     0.005 C 
ATOM     15  C   UNL A   1      43.032  23.300  28.178  1.00  0.00     0.005 C 
ATOM     16  C   UNL A   1      44.714  23.714  29.868  1.00  0.00     0.000 C 
ATOM     17  C   UNL A   1      43.250  23.325  29.685  1.00  0.00     0.000 C 
ENDBRANCH   6  13
ENDBRANCH   4   6
ENDBRANCH   3   4
ENDBRANCH   2   3
ENDBRANCH   1   2
BRANCH   1  18
ATOM     18  O   UNL A   1      40.685  22.377  26.003  1.00  0.00    -0.458 OA
BRANCH  18  19
ATOM     19  C   UNL A   1      39.465  22.945  26.121  1.00  0.00     0.338 C 
ATOM     20  O   UNL A   1      38.403  22.467  25.745  1.00  0.00    -0.246 OA
BRANCH  19  21
ATOM     21  C   UNL A   1      39.565  24.244  26.830  1.00  0.00     0.060 A 
ATOM     22  C   UNL A   1      40.323  25.297  26.312  1.00  0.00     0.016 A 
ATOM     23  C   UNL A   1      38.995  24.373  28.097  1.00  0.00     0.016 A 
ATOM     24  C   UNL A   1      40.606  26.413  27.100  1.00  0.00     0.010 A 
ATOM     25  C   UNL A   1      39.192  25.543  28.841  1.00  0.00     0.010 A 
ATOM     26  C   UNL A   1      40.039  26.564  28.373  1.00  0.00    -0.014 A 
BRANCH  26  27
ATOM     27  C   UNL A   1      40.361  27.741  29.237  1.00  0.00     0.031 A 
ATOM     28  C   UNL A   1      41.638  27.766  30.045  1.00  0.00     0.074 A 
ATOM     29  C   UNL A   1      39.530  28.801  29.312  1.00  0.00     0.049 A 
ATOM     30  N   UNL A   1      41.968  28.537  31.051  1.00  0.00    -0.248 NA
ATOM     31  C   UNL A   1      42.675  26.783  29.687  1.00  0.00     0.031 C 
ATOM     32  C   UNL A   1      38.285  28.969  28.558  1.00  0.00     0.029 A 
ATOM     33  N   UNL A   1      39.610  29.949  30.066  1.00  0.00    -0.354 N 
ATOM     34  C   UNL A   1      43.204  28.080  31.496  1.00  0.00     0.074 A 
ATOM     35  C   UNL A   1      43.582  26.980  30.635  1.00  0.00     0.031 C 
ATOM     36  C   UNL A   1      37.750  30.164  28.846  1.00  0.00     0.029 A 
ATOM     37  C   UNL A   1      38.544  30.800  29.891  1.00  0.00     0.049 A 
ATOM     38  H   UNL A   1      40.359  30.143  30.675  1.00  0.00     0.167 HD
ATOM     39  C   UNL A   1      43.947  28.528  32.537  1.00  0.00     0.037 A 
ATOM     40  C   UNL A   1      38.198  31.932  30.534  1.00  0.00     0.037 A 
ATOM     41  C   UNL A   1      43.611  29.673  33.342  1.00  0.00     0.049 A 
ATOM     42  C   UNL A   1      39.033  32.412  31.685  1.00  0.00     0.074 A 
ATOM     43  C   UNL A   1      44.299  30.203  34.421  1.00  0.00     0.029 A 
ATOM     44  N   UNL A   1      42.507  30.487  33.138  1.00  0.00    -0.354 N 
ATOM     45  N   UNL A   1      40.129  31.892  32.179  1.00  0.00    -0.248 NA
ATOM     46  C   UNL A   1      38.561  33.612  32.390  1.00  0.00     0.031 C 
ATOM     47  C   UNL A   1      43.604  31.328  34.878  1.00  0.00     0.029 A 
ATOM     48  C   UNL A   1      42.498  31.515  34.065  1.00  0.00     0.049 A 
ATOM     49  H   UNL A   1      41.829  30.353  32.436  1.00  0.00     0.167 HD
ATOM     50  C   UNL A   1      40.472  32.692  33.262  1.00  0.00     0.074 A 
ATOM     51  C   UNL A   1      39.484  33.750  33.332  1.00  0.00     0.031 C 
ATOM     52  C   UNL A   1      41.505  32.555  34.129  1.00  0.00     0.037 A 
BRANCH  39  53
ATOM     53  C   UNL A   1      45.186  27.757  32.900  1.00  0.00     0.058 A 
ATOM     54  C   UNL A   1      45.162  26.688  33.806  1.00  0.00     0.135 A 
ATOM     55  C   UNL A   1      46.407  28.059  32.273  1.00  0.00     0.135 A 
ATOM     56  F   UNL A   1      44.026  26.369  34.447  1.00  0.00    -0.206 F 
ATOM     57  C   UNL A   1      46.310  25.950  34.089  1.00  0.00     0.059 A 
ATOM     58  C   UNL A   1      47.561  27.324  32.524  1.00  0.00     0.059 A 
ATOM     59  F   UNL A   1      46.484  29.074  31.398  1.00  0.00    -0.206 F 
ATOM     60  C   UNL A   1      47.505  26.275  33.441  1.00  0.00     0.060 A 
BRANCH  60  61
ATOM     61  S   UNL A   1      48.980  25.295  33.792  1.00  0.00     0.124 S 
ATOM     62  O   UNL A   1      49.620  26.095  34.831  1.00  0.00    -0.237 OA
ATOM     63  O   UNL A   1      48.417  24.023  34.230  1.00  0.00    -0.237 OA
ATOM     64  O   UNL A   1      49.675  25.259  32.509  1.00  0.00    -0.744 OA
ENDBRANCH  60  61
ENDBRANCH  39  53
BRANCH  40  65
ATOM     65  C   UNL A   1      36.953  32.646  30.146  1.00  0.00     0.058 A 
ATOM     66  C   UNL A   1      35.739  32.385  30.796  1.00  0.00     0.135 A 
ATOM     67  C   UNL A   1      36.965  33.630  29.145  1.00  0.00     0.135 A 
ATOM     68  F   UNL A   1      35.677  31.441  31.747  1.00  0.00    -0.206 F 
ATOM     69  C   UNL A   1      34.578  33.080  30.472  1.00  0.00     0.059 A 
ATOM     70  C   UNL A   1      35.824  34.356  28.823  1.00  0.00     0.059 A 
ATOM     71  F   UNL A   1      38.105  33.921  28.501  1.00  0.00    -0.206 F 
ATOM     72  C   UNL A   1      34.632  34.070  29.489  1.00  0.00     0.060 A 
BRANCH  72  73
ATOM     73  S   UNL A   1      33.149  35.036  29.131  1.00  0.00     0.124 S 
ATOM     74  O   UNL A   1      32.497  34.208  28.124  1.00  0.00    -0.237 OA
ATOM     75  O   UNL A   1      32.491  35.098  30.433  1.00  0.00    -0.237 OA
ATOM     76  O   UNL A   1      33.692  36.306  28.654  1.00  0.00    -0.744 OA
ENDBRANCH  72  73
ENDBRANCH  40  65
BRANCH  52  77
ATOM     77  C   UNL A   1      41.619  33.579  35.219  1.00  0.00     0.058 A 
ATOM     78  C   UNL A   1      42.314  34.782  35.019  1.00  0.00     0.135 A 
ATOM     79  C   UNL A   1      41.014  33.365  36.467  1.00  0.00     0.135 A 
ATOM     80  F   UNL A   1      42.915  35.028  33.844  1.00  0.00    -0.206 F 
ATOM     81  C   UNL A   1      42.425  35.729  36.031  1.00  0.00     0.059 A 
ATOM     82  C   UNL A   1      41.099  34.306  37.487  1.00  0.00     0.059 A 
ATOM     83  F   UNL A   1      40.333  32.232  36.702  1.00  0.00    -0.206 F 
ATOM     84  C   UNL A   1      41.819  35.480  37.264  1.00  0.00     0.060 A 
BRANCH  84  85
ATOM     85  S   UNL A   1      41.963  36.718  38.569  1.00  0.00     0.124 S 
ATOM     86  O   UNL A   1      42.344  35.896  39.713  1.00  0.00    -0.237 OA
ATOM     87  O   UNL A   1      42.999  37.606  38.052  1.00  0.00    -0.237 OA
ATOM     88  O   UNL A   1      40.624  37.299  38.631  1.00  0.00    -0.744 OA
ENDBRANCH  84  85
ENDBRANCH  52  77
ENDBRANCH  26  27
ENDBRANCH  19  21
ENDBRANCH  18  19
ENDBRANCH   1  18
TORSDOF 16
ENDMDL
MODEL 3
REMARK VINA RESULT:      -9.5      2.984      5.274
REMARK SMILES CC[C@H]1CC[C@@](C(=O)OCCOC(=O)c2ccc(-c3c4nc(c(-c5c(F)cc(S(=O)(=O)[O-])cc5F)c5ccc([nH]5)c(-c5c(F)cc(S(=O)(=O)[O-])cc5F)c5nc(c(-c6c(F)cc(S(=O)(=O)[O-])cc6F)c6ccc3[nH]6)C=C5)C=C4)cc2)(C2CCCC2)C1
REMARK SMILES IDX 11 1 10 2 9 3 7 4 8 5 6 6 3 7 4 8 86 9 5 10 2 11 1 12 81 13
REMARK SMILES IDX 82 14 85 15 83 16 84 17 12 18 13 19 14 20 15 21 16 22 80 23
REMARK SMILES IDX 17 24 79 25 18 26 19 27 20 28 73 29 21 30 78 31 72 32 74 33
REMARK SMILES IDX 22 34 77 35 71 36 70 37 23 39 57 40 36 41 56 42 37 43 40 44
REMARK SMILES IDX 55 45 75 46 38 47 39 48 54 50 76 51 41 52 24 53 25 54 34 55
REMARK SMILES IDX 26 56 27 57 33 58 35 59 28 60 29 61 30 62 31 63 32 64 58 65
REMARK SMILES IDX 59 66 68 67 60 68 61 69 67 70 69 71 62 72 63 73 64 74 65 75
REMARK SMILES IDX 66 76 42 77 43 78 52 79 44 80 45 81 51 82 53 83 46 84 47 85
REMARK SMILES IDX 48 86 49 87 50 88
REMARK H PARENT 74 38 40 49
REMARK Flexibility Score: inf
ROOT
ATOM      1  C   UNL A   1      33.905  30.920  27.242  1.00  0.00     0.275 C 
ENDROOT
BRANCH   1   2
ATOM      2  C   UNL A   1      32.608  30.120  27.231  1.00  0.00     0.274 C 
BRANCH   2   3
ATOM      3  O   UNL A   1      32.853  28.723  26.968  1.00  0.00    -0.462 OA
BRANCH   3   4
ATOM      4  C   UNL A   1      31.763  27.914  27.060  1.00  0.00     0.312 C 
ATOM      5  O   UNL A   1      30.953  27.960  27.982  1.00  0.00    -0.252 OA
BRANCH   4   6
ATOM      6  C   UNL A   1      31.663  26.874  25.928  1.00  0.00     0.071 C 
ATOM      7  C   UNL A   1      30.865  27.102  23.564  1.00  0.00    -0.010 C 
ATOM      8  C   UNL A   1      30.023  26.049  24.292  1.00  0.00     0.005 C 
ATOM      9  C   UNL A   1      31.782  27.713  24.630  1.00  0.00     0.022 C 
ATOM     10  C   UNL A   1      30.258  26.265  25.782  1.00  0.00     0.019 C 
BRANCH   7  11
ATOM     11  C   UNL A   1      31.544  26.528  22.311  1.00  0.00     0.000 C 
ATOM     12  C   UNL A   1      31.832  25.033  22.362  1.00  0.00     0.004 C 
ENDBRANCH   7  11
BRANCH   6  13
ATOM     13  C   UNL A   1      32.850  25.875  26.081  1.00  0.00     0.006 C 
ATOM     14  C   UNL A   1      32.509  24.380  26.032  1.00  0.00     0.005 C 
ATOM     15  C   UNL A   1      33.990  25.942  25.061  1.00  0.00     0.005 C 
ATOM     16  C   UNL A   1      33.862  23.673  25.892  1.00  0.00     0.000 C 
ATOM     17  C   UNL A   1      34.846  24.727  25.394  1.00  0.00     0.000 C 
ENDBRANCH   6  13
ENDBRANCH   4   6
ENDBRANCH   3   4
ENDBRANCH   2   3
ENDBRANCH   1   2
BRANCH   1  18
ATOM     18  O   UNL A   1      34.984  30.062  27.644  1.00  0.00    -0.458 OA
BRANCH  18  19
ATOM     19  C   UNL A   1      35.818  30.560  28.584  1.00  0.00     0.338 C 
ATOM     20  O   UNL A   1      35.551  31.430  29.402  1.00  0.00    -0.246 OA
BRANCH  19  21
ATOM     21  C   UNL A   1      37.126  29.864  28.535  1.00  0.00     0.060 A 
ATOM     22  C   UNL A   1      37.729  29.368  29.694  1.00  0.00     0.016 A 
ATOM     23  C   UNL A   1      37.827  29.817  27.329  1.00  0.00     0.016 A 
ATOM     24  C   UNL A   1      39.057  28.941  29.668  1.00  0.00     0.010 A 
ATOM     25  C   UNL A   1      39.122  29.285  27.288  1.00  0.00     0.010 A 
ATOM     26  C   UNL A   1      39.775  28.881  28.466  1.00  0.00    -0.014 A 
BRANCH  26  27
ATOM     27  C   UNL A   1      41.208  28.455  28.433  1.00  0.00     0.031 A 
ATOM     28  C   UNL A   1      42.307  29.455  28.712  1.00  0.00     0.074 A 
ATOM     29  C   UNL A   1      41.552  27.179  28.161  1.00  0.00     0.049 A 
ATOM     30  N   UNL A   1      43.589  29.369  28.462  1.00  0.00    -0.248 NA
ATOM     31  C   UNL A   1      41.909  30.727  29.338  1.00  0.00     0.031 C 
ATOM     32  C   UNL A   1      40.621  26.073  27.924  1.00  0.00     0.029 A 
ATOM     33  N   UNL A   1      42.791  26.593  28.038  1.00  0.00    -0.354 N 
ATOM     34  C   UNL A   1      44.134  30.598  28.820  1.00  0.00     0.074 A 
ATOM     35  C   UNL A   1      43.048  31.407  29.330  1.00  0.00     0.031 C 
ATOM     36  C   UNL A   1      41.315  24.941  27.738  1.00  0.00     0.029 A 
ATOM     37  C   UNL A   1      42.739  25.255  27.723  1.00  0.00     0.049 A 
ATOM     38  H   UNL A   1      43.634  27.085  28.162  1.00  0.00     0.167 HD
ATOM     39  C   UNL A   1      45.419  31.016  28.717  1.00  0.00     0.037 A 
ATOM     40  C   UNL A   1      43.713  24.384  27.394  1.00  0.00     0.037 A 
ATOM     41  C   UNL A   1      46.512  30.184  28.286  1.00  0.00     0.049 A 
ATOM     42  C   UNL A   1      45.129  24.865  27.284  1.00  0.00     0.074 A 
ATOM     43  C   UNL A   1      47.849  30.519  28.147  1.00  0.00     0.029 A 
ATOM     44  N   UNL A   1      46.403  28.843  27.956  1.00  0.00    -0.354 N 
ATOM     45  N   UNL A   1      45.608  26.066  27.498  1.00  0.00    -0.248 NA
ATOM     46  C   UNL A   1      46.132  23.882  26.852  1.00  0.00     0.031 C 
ATOM     47  C   UNL A   1      48.545  29.384  27.717  1.00  0.00     0.029 A 
ATOM     48  C   UNL A   1      47.646  28.335  27.617  1.00  0.00     0.049 A 
ATOM     49  H   UNL A   1      45.564  28.326  27.961  1.00  0.00     0.167 HD
ATOM     50  C   UNL A   1      46.966  25.988  27.212  1.00  0.00     0.074 A 
ATOM     51  C   UNL A   1      47.238  24.614  26.841  1.00  0.00     0.031 C 
ATOM     52  C   UNL A   1      47.900  26.969  27.242  1.00  0.00     0.037 A 
BRANCH  39  53
ATOM     53  C   UNL A   1      45.718  32.455  29.039  1.00  0.00     0.058 A 
ATOM     54  C   UNL A   1      46.125  32.865  30.315  1.00  0.00     0.135 A 
ATOM     55  C   UNL A   1      45.655  33.426  28.025  1.00  0.00     0.135 A 
ATOM     56  F   UNL A   1      46.184  31.981  31.324  1.00  0.00    -0.206 F 
ATOM     57  C   UNL A   1      46.451  34.194  30.581  1.00  0.00     0.059 A 
ATOM     58  C   UNL A   1      45.993  34.754  28.262  1.00  0.00     0.059 A 
ATOM     59  F   UNL A   1      45.268  33.084  26.786  1.00  0.00    -0.206 F 
ATOM     60  C   UNL A   1      46.383  35.131  29.546  1.00  0.00     0.060 A 
BRANCH  60  61
ATOM     61  S   UNL A   1      46.835  36.845  29.893  1.00  0.00     0.124 S 
ATOM     62  O   UNL A   1      47.033  37.371  28.546  1.00  0.00    -0.237 OA
ATOM     63  O   UNL A   1      45.661  37.343  30.601  1.00  0.00    -0.237 OA
ATOM     64  O   UNL A   1      48.043  36.719  30.702  1.00  0.00    -0.744 OA
ENDBRANCH  60  61
ENDBRANCH  39  53
BRANCH  40  65
ATOM     65  C   UNL A   1      43.359  22.977  27.068  1.00  0.00     0.058 A 
ATOM     66  C   UNL A   1      43.389  22.512  25.746  1.00  0.00     0.135 A 
ATOM     67  C   UNL A   1      43.024  22.062  28.079  1.00  0.00     0.135 A 
ATOM     68  F   UNL A   1      43.687  23.355  24.746  1.00  0.00    -0.206 F 
ATOM     69  C   UNL A   1      43.105  21.186  25.436  1.00  0.00     0.059 A 
ATOM     70  C   UNL A   1      42.763  20.726  27.797  1.00  0.00     0.059 A 
ATOM     71  F   UNL A   1      42.992  22.457  29.361  1.00  0.00    -0.206 F 
ATOM     72  C   UNL A   1      42.800  20.298  26.470  1.00  0.00     0.060 A 
BRANCH  72  73
ATOM     73  S   UNL A   1      42.521  18.557  26.080  1.00  0.00     0.124 S 
ATOM     74  O   UNL A   1      43.393  18.372  24.926  1.00  0.00    -0.237 OA
ATOM     75  O   UNL A   1      42.937  17.889  27.309  1.00  0.00    -0.237 OA
ATOM     76  O   UNL A   1      41.087  18.508  25.806  1.00  0.00    -0.744 OA
ENDBRANCH  72  73
ENDBRANCH  40  65
BRANCH  52  77
ATOM     77  C   UNL A   1      49.302  26.586  26.870  1.00  0.00     0.058 A 
ATOM     78  C   UNL A   1      49.787  26.775  25.566  1.00  0.00     0.135 A 
ATOM     79  C   UNL A   1      50.173  26.045  27.827  1.00  0.00     0.135 A 
ATOM     80  F   UNL A   1      48.990  27.283  24.614  1.00  0.00    -0.206 F 
ATOM     81  C   UNL A   1      51.085  26.414  25.219  1.00  0.00     0.059 A 
ATOM     82  C   UNL A   1      51.479  25.693  27.506  1.00  0.00     0.059 A 
ATOM     83  F   UNL A   1      49.755  25.852  29.089  1.00  0.00    -0.206 F 
ATOM     84  C   UNL A   1      51.922  25.869  26.195  1.00  0.00     0.060 A 
BRANCH  84  85
ATOM     85  S   UNL A   1      53.608  25.411  25.737  1.00  0.00     0.124 S 
ATOM     86  O   UNL A   1      53.925  26.425  24.736  1.00  0.00    -0.237 OA
ATOM     87  O   UNL A   1      54.323  25.524  27.004  1.00  0.00    -0.237 OA
ATOM     88  O   UNL A   1      53.460  24.050  25.229  1.00  0.00    -0.744 OA
ENDBRANCH  84  85
ENDBRANCH  52  77
ENDBRANCH  26  27
ENDBRANCH  19  21
ENDBRANCH  18  19
ENDBRANCH   1  18
TORSDOF 16
ENDMDL
