MODEL 1
REMARK VINA RESULT:     -12.7      0.000      0.000
REMARK SMILES Cc1ccc(-c2cc(Cl)cc3c2O[C@H](C(F)(F)F)C(C(=O)OCCOC(=O)c2ccc(-c4c5nc(c(-c6c(F)cc(S(=O)(=O)[O-])cc6F)c6ccc([nH]6)c(-c6c(F)cc(S(=O)(=O)[O-])cc6F)c6nc(c(-c7c(F)cc(S(=O)(=O)[O-])cc7F)c7ccc4[nH]7)C=C6)C=C5)cc2)=C3)cc1F
REMARK SMILES IDX 24 1 23 2 22 3 20 4 21 5 19 6 6 7 7 8 12 9 8 10 11 11 13 12
REMARK SMILES IDX 9 13 10 14 94 15 14 16 5 17 1 18 2 19 3 20 96 21 4 22 95 23
REMARK SMILES IDX 97 24 15 25 16 26 17 27 18 28 25 29 26 30 27 31 28 32 29 33
REMARK SMILES IDX 93 34 30 35 92 36 31 37 32 38 33 39 86 40 34 41 91 42 85 43
REMARK SMILES IDX 87 44 35 45 90 46 84 47 83 48 36 50 70 51 49 52 69 53 50 54
REMARK SMILES IDX 53 55 68 56 88 57 51 58 52 59 67 61 89 62 54 63 37 64 38 65
REMARK SMILES IDX 47 66 39 67 40 68 46 69 48 70 41 71 42 72 43 73 44 74 45 75
REMARK SMILES IDX 71 76 72 77 81 78 73 79 74 80 80 81 82 82 75 83 76 84 77 85
REMARK SMILES IDX 78 86 79 87 55 88 56 89 65 90 57 91 58 92 64 93 66 94 59 95
REMARK SMILES IDX 60 96 61 97 62 98 63 99
REMARK H PARENT 87 49 53 60
REMARK Flexibility Score: inf
ROOT
ATOM      1  C   UNL A   1      35.958  30.436  27.621  1.00  0.00     0.275 C 
ENDROOT
BRANCH   1   2
ATOM      2  C   UNL A   1      34.314  31.383  27.708  1.00  0.00     0.275 C 
BRANCH   2   3
ATOM      3  O   UNL A   1      33.868  32.957  28.468  1.00  0.00    -0.459 OA
BRANCH   3   4
ATOM      4  C   UNL A   1      34.144  33.892  29.505  1.00  0.00     0.338 C 
ATOM      5  O   UNL A   1      33.262  34.605  29.996  1.00  0.00    -0.246 OA
BRANCH   4   6
ATOM      6  C   UNL A   1      35.539  34.170  30.084  1.00  0.00     0.087 C 
ATOM      7  C   UNL A   1      39.304  34.191  32.132  1.00  0.00     0.026 A 
ATOM      8  C   UNL A   1      40.505  34.302  31.418  1.00  0.00     0.033 A 
ATOM      9  C   UNL A   1      38.068  34.275  31.431  1.00  0.00     0.135 A 
ATOM     10  C   UNL A   1      40.466  34.476  30.036  1.00  0.00     0.042 A 
ATOM     11  C   UNL A   1      38.022  34.356  30.046  1.00  0.00     0.019 A 
ATOM     12  O   UNL A   1      36.921  34.335  32.184  1.00  0.00    -0.475 OA
ATOM     13  Cl  UNL A   1      41.952  34.647  29.175  1.00  0.00    -0.084 Cl
ATOM     14  C   UNL A   1      39.242  34.484  29.350  1.00  0.00     0.032 A 
ATOM     15  C   UNL A   1      36.701  34.277  29.384  1.00  0.00     0.027 C 
ATOM     16  C   UNL A   1      35.640  34.007  31.572  1.00  0.00     0.316 C 
BRANCH   7  17
ATOM     17  C   UNL A   1      39.312  33.899  33.573  1.00  0.00    -0.012 A 
ATOM     18  C   UNL A   1      38.574  32.953  37.709  1.00  0.00     0.047 C 
ATOM     19  C   UNL A   1      38.932  33.292  36.297  1.00  0.00    -0.015 A 
ATOM     20  C   UNL A   1      39.201  34.606  35.897  1.00  0.00     0.007 A 
ATOM     21  C   UNL A   1      38.935  32.283  35.336  1.00  0.00     0.126 A 
ATOM     22  C   UNL A   1      39.396  34.908  34.543  1.00  0.00     0.009 A 
ATOM     23  C   UNL A   1      39.139  32.572  33.996  1.00  0.00     0.048 A 
ATOM     24  F   UNL A   1      38.692  31.015  35.697  1.00  0.00    -0.207 F 
ENDBRANCH   7  17
BRANCH  16  25
ATOM     25  C   UNL A   1      35.288  32.577  31.992  1.00  0.00     0.430 C 
ATOM     26  F   UNL A   1      36.141  32.131  32.952  1.00  0.00    -0.167 F 
ATOM     27  F   UNL A   1      34.053  32.483  32.531  1.00  0.00    -0.167 F 
ATOM     28  F   UNL A   1      35.372  31.699  30.963  1.00  0.00    -0.167 F 
ENDBRANCH  16  25
ENDBRANCH   4   6
ENDBRANCH   3   4
ENDBRANCH   2   3
ENDBRANCH   1   2
BRANCH   1  29
ATOM     29  O   UNL A   1      36.917  29.226  28.477  1.00  0.00    -0.458 OA
BRANCH  29  30
ATOM     30  C   UNL A   1      37.403  29.013  29.842  1.00  0.00     0.338 C 
ATOM     31  O   UNL A   1      38.050  27.988  30.108  1.00  0.00    -0.246 OA
BRANCH  30  32
ATOM     32  C   UNL A   1      37.821  29.897  31.037  1.00  0.00     0.060 A 
ATOM     33  C   UNL A   1      38.659  30.954  30.652  1.00  0.00     0.016 A 
ATOM     34  C   UNL A   1      38.457  29.038  32.004  1.00  0.00     0.016 A 
ATOM     35  C   UNL A   1      40.075  30.759  30.601  1.00  0.00     0.010 A 
ATOM     36  C   UNL A   1      39.855  28.766  31.866  1.00  0.00     0.010 A 
ATOM     37  C   UNL A   1      40.656  29.559  31.041  1.00  0.00    -0.014 A 
BRANCH  37  38
ATOM     38  C   UNL A   1      42.052  29.143  30.712  1.00  0.00     0.031 A 
ATOM     39  C   UNL A   1      42.190  27.870  29.991  1.00  0.00     0.074 A 
ATOM     40  C   UNL A   1      43.221  29.740  31.085  1.00  0.00     0.049 A 
ATOM     41  N   UNL A   1      42.918  26.882  30.380  1.00  0.00    -0.248 NA
ATOM     42  C   UNL A   1      41.455  27.617  28.760  1.00  0.00     0.031 C 
ATOM     43  C   UNL A   1      44.608  29.278  30.887  1.00  0.00     0.029 A 
ATOM     44  N   UNL A   1      43.405  30.814  31.939  1.00  0.00    -0.354 N 
ATOM     45  C   UNL A   1      42.961  25.989  29.331  1.00  0.00     0.074 A 
ATOM     46  C   UNL A   1      41.931  26.419  28.416  1.00  0.00     0.031 C 
ATOM     47  C   UNL A   1      45.390  29.793  31.860  1.00  0.00     0.029 A 
ATOM     48  C   UNL A   1      44.538  30.571  32.729  1.00  0.00     0.049 A 
ATOM     49  H   UNL A   1      42.835  31.616  31.984  1.00  0.00     0.167 HD
ATOM     50  C   UNL A   1      43.981  25.091  29.234  1.00  0.00     0.037 A 
ATOM     51  C   UNL A   1      44.409  30.504  34.084  1.00  0.00     0.037 A 
ATOM     52  C   UNL A   1      44.977  25.340  30.272  1.00  0.00     0.049 A 
ATOM     53  C   UNL A   1      44.761  29.131  34.584  1.00  0.00     0.074 A 
ATOM     54  C   UNL A   1      46.154  26.070  30.252  1.00  0.00     0.029 A 
ATOM     55  N   UNL A   1      44.653  25.149  31.607  1.00  0.00    -0.354 N 
ATOM     56  N   UNL A   1      44.773  28.088  33.800  1.00  0.00    -0.248 NA
ATOM     57  C   UNL A   1      45.190  28.805  35.942  1.00  0.00     0.031 C 
ATOM     58  C   UNL A   1      46.493  26.392  31.588  1.00  0.00     0.029 A 
ATOM     59  C   UNL A   1      45.537  25.834  32.421  1.00  0.00     0.049 A 
ATOM     60  H   UNL A   1      43.899  24.604  31.931  1.00  0.00     0.167 HD
ATOM     61  C   UNL A   1      45.236  26.998  34.480  1.00  0.00     0.074 A 
ATOM     62  C   UNL A   1      45.471  27.492  35.824  1.00  0.00     0.031 C 
ATOM     63  C   UNL A   1      45.410  25.789  33.871  1.00  0.00     0.037 A 
BRANCH  50  64
ATOM     64  C   UNL A   1      44.215  24.224  28.018  1.00  0.00     0.058 A 
ATOM     65  C   UNL A   1      43.469  23.045  27.802  1.00  0.00     0.135 A 
ATOM     66  C   UNL A   1      45.160  24.521  27.013  1.00  0.00     0.135 A 
ATOM     67  F   UNL A   1      42.501  22.664  28.645  1.00  0.00    -0.206 F 
ATOM     68  C   UNL A   1      43.679  22.202  26.711  1.00  0.00     0.059 A 
ATOM     69  C   UNL A   1      45.424  23.665  25.937  1.00  0.00     0.059 A 
ATOM     70  F   UNL A   1      45.833  25.682  27.017  1.00  0.00    -0.206 F 
ATOM     71  C   UNL A   1      44.667  22.512  25.787  1.00  0.00     0.060 A 
BRANCH  71  72
ATOM     72  S   UNL A   1      44.900  21.416  24.373  1.00  0.00     0.124 S 
ATOM     73  O   UNL A   1      46.325  21.110  24.447  1.00  0.00    -0.237 OA
ATOM     74  O   UNL A   1      43.998  20.316  24.696  1.00  0.00    -0.237 OA
ATOM     75  O   UNL A   1      44.501  22.238  23.235  1.00  0.00    -0.744 OA
ENDBRANCH  71  72
ENDBRANCH  50  64
BRANCH  51  76
ATOM     76  C   UNL A   1      43.374  31.476  34.582  1.00  0.00     0.058 A 
ATOM     77  C   UNL A   1      42.325  30.898  35.254  1.00  0.00     0.135 A 
ATOM     78  C   UNL A   1      43.766  32.604  35.248  1.00  0.00     0.135 A 
ATOM     79  F   UNL A   1      41.580  29.972  34.625  1.00  0.00    -0.206 F 
ATOM     80  C   UNL A   1      42.070  31.130  36.663  1.00  0.00     0.059 A 
ATOM     81  C   UNL A   1      43.484  32.802  36.667  1.00  0.00     0.059 A 
ATOM     82  F   UNL A   1      44.536  33.507  34.617  1.00  0.00    -0.206 F 
ATOM     83  C   UNL A   1      42.776  31.970  37.610  1.00  0.00     0.060 A 
BRANCH  83  84
ATOM     84  S   UNL A   1      42.472  32.260  39.909  1.00  0.00     0.124 S 
ATOM     85  O   UNL A   1      43.207  31.305  40.748  1.00  0.00    -0.237 OA
ATOM     86  O   UNL A   1      42.902  33.625  40.164  1.00  0.00    -0.237 OA
ATOM     87  O   UNL A   1      41.086  32.013  40.336  1.00  0.00    -0.744 OA
ENDBRANCH  83  84
ENDBRANCH  51  76
BRANCH  63  88
ATOM     88  C   UNL A   1      45.573  24.464  34.571  1.00  0.00     0.058 A 
ATOM     89  C   UNL A   1      44.516  23.561  34.768  1.00  0.00     0.135 A 
ATOM     90  C   UNL A   1      46.864  23.979  34.899  1.00  0.00     0.135 A 
ATOM     91  F   UNL A   1      43.261  23.854  34.401  1.00  0.00    -0.206 F 
ATOM     92  C   UNL A   1      44.716  22.291  35.304  1.00  0.00     0.059 A 
ATOM     93  C   UNL A   1      47.092  22.690  35.365  1.00  0.00     0.059 A 
ATOM     94  F   UNL A   1      47.961  24.739  34.754  1.00  0.00    -0.206 F 
ATOM     95  C   UNL A   1      46.008  21.862  35.591  1.00  0.00     0.060 A 
BRANCH  95  96
ATOM     96  S   UNL A   1      46.252  20.194  36.217  1.00  0.00     0.124 S 
ATOM     97  O   UNL A   1      45.792  20.331  37.592  1.00  0.00    -0.237 OA
ATOM     98  O   UNL A   1      45.405  19.397  35.340  1.00  0.00    -0.237 OA
ATOM     99  O   UNL A   1      47.693  19.979  36.049  1.00  0.00    -0.744 OA
ENDBRANCH  95  96
ENDBRANCH  63  88
ENDBRANCH  37  38
ENDBRANCH  30  32
ENDBRANCH  29  30
ENDBRANCH   1  29
TORSDOF 16
ENDMDL
MODEL 2
REMARK VINA RESULT:     -12.6      4.814     12.692
REMARK SMILES Cc1ccc(-c2cc(Cl)cc3c2O[C@H](C(F)(F)F)C(C(=O)OCCOC(=O)c2ccc(-c4c5nc(c(-c6c(F)cc(S(=O)(=O)[O-])cc6F)c6ccc([nH]6)c(-c6c(F)cc(S(=O)(=O)[O-])cc6F)c6nc(c(-c7c(F)cc(S(=O)(=O)[O-])cc7F)c7ccc4[nH]7)C=C6)C=C5)cc2)=C3)cc1F
REMARK SMILES IDX 24 1 23 2 22 3 20 4 21 5 19 6 6 7 7 8 12 9 8 10 11 11 13 12
REMARK SMILES IDX 9 13 10 14 94 15 14 16 5 17 1 18 2 19 3 20 96 21 4 22 95 23
REMARK SMILES IDX 97 24 15 25 16 26 17 27 18 28 25 29 26 30 27 31 28 32 29 33
REMARK SMILES IDX 93 34 30 35 92 36 31 37 32 38 33 39 86 40 34 41 91 42 85 43
REMARK SMILES IDX 87 44 35 45 90 46 84 47 83 48 36 50 70 51 49 52 69 53 50 54
REMARK SMILES IDX 53 55 68 56 88 57 51 58 52 59 67 61 89 62 54 63 37 64 38 65
REMARK SMILES IDX 47 66 39 67 40 68 46 69 48 70 41 71 42 72 43 73 44 74 45 75
REMARK SMILES IDX 71 76 72 77 81 78 73 79 74 80 80 81 82 82 75 83 76 84 77 85
REMARK SMILES IDX 78 86 79 87 55 88 56 89 65 90 57 91 58 92 64 93 66 94 59 95
REMARK SMILES IDX 60 96 61 97 62 98 63 99
REMARK H PARENT 87 49 53 60
REMARK Flexibility Score: inf
ROOT
ATOM      1  C   UNL A   1      39.285  23.937  27.362  1.00  0.00     0.275 C 
ENDROOT
BRANCH   1   2
ATOM      2  C   UNL A   1      39.311  22.246  26.497  1.00  0.00     0.275 C 
BRANCH   2   3
ATOM      3  O   UNL A   1      40.668  21.156  26.022  1.00  0.00    -0.459 OA
BRANCH   3   4
ATOM      4  C   UNL A   1      42.068  20.905  26.098  1.00  0.00     0.338 C 
ATOM      5  O   UNL A   1      42.596  19.962  25.497  1.00  0.00    -0.246 OA
BRANCH   4   6
ATOM      6  C   UNL A   1      43.056  21.707  26.957  1.00  0.00     0.087 C 
ATOM      7  C   UNL A   1      45.682  24.576  28.755  1.00  0.00     0.026 A 
ATOM      8  C   UNL A   1      45.523  24.948  30.097  1.00  0.00     0.033 A 
ATOM      9  C   UNL A   1      44.850  23.557  28.212  1.00  0.00     0.135 A 
ATOM     10  C   UNL A   1      44.543  24.327  30.868  1.00  0.00     0.042 A 
ATOM     11  C   UNL A   1      43.812  22.999  28.947  1.00  0.00     0.019 A 
ATOM     12  O   UNL A   1      45.154  23.103  26.953  1.00  0.00    -0.475 OA
ATOM     13  Cl  UNL A   1      44.381  24.771  32.528  1.00  0.00    -0.084 Cl
ATOM     14  C   UNL A   1      43.681  23.376  30.299  1.00  0.00     0.032 A 
ATOM     15  C   UNL A   1      42.894  22.064  28.260  1.00  0.00     0.027 C 
ATOM     16  C   UNL A   1      44.141  22.392  26.181  1.00  0.00     0.316 C 
BRANCH   7  17
ATOM     17  C   UNL A   1      46.632  25.287  27.887  1.00  0.00    -0.012 A 
ATOM     18  C   UNL A   1      49.047  27.015  24.767  1.00  0.00     0.047 C 
ATOM     19  C   UNL A   1      48.267  26.468  25.921  1.00  0.00    -0.015 A 
ATOM     20  C   UNL A   1      48.768  25.445  26.734  1.00  0.00     0.007 A 
ATOM     21  C   UNL A   1      46.978  26.943  26.156  1.00  0.00     0.126 A 
ATOM     22  C   UNL A   1      47.957  24.861  27.716  1.00  0.00     0.009 A 
ATOM     23  C   UNL A   1      46.174  26.378  27.134  1.00  0.00     0.048 A 
ATOM     24  F   UNL A   1      46.481  27.931  25.398  1.00  0.00    -0.207 F 
ENDBRANCH   7  17
BRANCH  16  25
ATOM     25  C   UNL A   1      43.553  23.388  25.178  1.00  0.00     0.430 C 
ATOM     26  F   UNL A   1      44.308  24.516  25.115  1.00  0.00    -0.167 F 
ATOM     27  F   UNL A   1      43.523  22.900  23.918  1.00  0.00    -0.167 F 
ATOM     28  F   UNL A   1      42.300  23.781  25.512  1.00  0.00    -0.167 F 
ENDBRANCH  16  25
ENDBRANCH   4   6
ENDBRANCH   3   4
ENDBRANCH   2   3
ENDBRANCH   1   2
BRANCH   1  29
ATOM     29  O   UNL A   1      39.503  25.662  27.058  1.00  0.00    -0.458 OA
BRANCH  29  30
ATOM     30  C   UNL A   1      40.597  26.552  26.663  1.00  0.00     0.338 C 
ATOM     31  O   UNL A   1      40.409  27.778  26.634  1.00  0.00    -0.246 OA
BRANCH  30  32
ATOM     32  C   UNL A   1      42.140  26.530  26.722  1.00  0.00     0.060 A 
ATOM     33  C   UNL A   1      42.620  26.124  27.975  1.00  0.00     0.016 A 
ATOM     34  C   UNL A   1      42.600  27.852  26.377  1.00  0.00     0.016 A 
ATOM     35  C   UNL A   1      42.826  27.091  29.007  1.00  0.00     0.010 A 
ATOM     36  C   UNL A   1      42.690  28.837  27.410  1.00  0.00     0.010 A 
ATOM     37  C   UNL A   1      42.667  28.463  28.756  1.00  0.00    -0.014 A 
BRANCH  37  38
ATOM     38  C   UNL A   1      42.524  29.492  29.828  1.00  0.00     0.031 A 
ATOM     39  C   UNL A   1      41.240  30.205  29.869  1.00  0.00     0.074 A 
ATOM     40  C   UNL A   1      43.471  29.931  30.707  1.00  0.00     0.049 A 
ATOM     41  N   UNL A   1      41.109  31.485  29.833  1.00  0.00    -0.248 NA
ATOM     42  C   UNL A   1      39.978  29.481  29.917  1.00  0.00     0.031 C 
ATOM     43  C   UNL A   1      43.396  31.035  31.684  1.00  0.00     0.029 A 
ATOM     44  N   UNL A   1      44.815  29.604  30.760  1.00  0.00    -0.354 N 
ATOM     45  C   UNL A   1      39.789  31.754  30.126  1.00  0.00     0.074 A 
ATOM     46  C   UNL A   1      39.106  30.486  30.026  1.00  0.00     0.031 C 
ATOM     47  C   UNL A   1      44.639  31.511  31.911  1.00  0.00     0.029 A 
ATOM     48  C   UNL A   1      45.546  30.760  31.074  1.00  0.00     0.049 A 
ATOM     49  H   UNL A   1      45.195  28.710  30.603  1.00  0.00     0.167 HD
ATOM     50  C   UNL A   1      39.427  32.973  30.612  1.00  0.00     0.037 A 
ATOM     51  C   UNL A   1      46.481  31.221  30.197  1.00  0.00     0.037 A 
ATOM     52  C   UNL A   1      40.609  33.791  30.865  1.00  0.00     0.049 A 
ATOM     53  C   UNL A   1      46.100  32.580  29.679  1.00  0.00     0.074 A 
ATOM     54  C   UNL A   1      41.347  33.997  32.020  1.00  0.00     0.029 A 
ATOM     55  N   UNL A   1      41.404  34.211  29.808  1.00  0.00    -0.354 N 
ATOM     56  N   UNL A   1      44.876  33.030  29.745  1.00  0.00    -0.248 NA
ATOM     57  C   UNL A   1      47.022  33.566  29.121  1.00  0.00     0.031 C 
ATOM     58  C   UNL A   1      42.628  34.468  31.643  1.00  0.00     0.029 A 
ATOM     59  C   UNL A   1      42.660  34.573  30.263  1.00  0.00     0.049 A 
ATOM     60  H   UNL A   1      41.116  34.246  28.867  1.00  0.00     0.167 HD
ATOM     61  C   UNL A   1      44.832  34.325  29.313  1.00  0.00     0.074 A 
ATOM     62  C   UNL A   1      46.198  34.614  28.918  1.00  0.00     0.031 C 
ATOM     63  C   UNL A   1      43.679  35.055  29.342  1.00  0.00     0.037 A 
BRANCH  50  64
ATOM     64  C   UNL A   1      38.047  33.280  31.149  1.00  0.00     0.058 A 
ATOM     65  C   UNL A   1      36.992  33.654  30.291  1.00  0.00     0.135 A 
ATOM     66  C   UNL A   1      37.703  33.202  32.516  1.00  0.00     0.135 A 
ATOM     67  F   UNL A   1      37.157  33.719  28.963  1.00  0.00    -0.206 F 
ATOM     68  C   UNL A   1      35.716  33.978  30.751  1.00  0.00     0.059 A 
ATOM     69  C   UNL A   1      36.444  33.572  33.007  1.00  0.00     0.059 A 
ATOM     70  F   UNL A   1      38.568  32.721  33.421  1.00  0.00    -0.206 F 
ATOM     71  C   UNL A   1      35.451  33.945  32.114  1.00  0.00     0.060 A 
BRANCH  71  72
ATOM     72  S   UNL A   1      33.785  34.346  32.679  1.00  0.00     0.124 S 
ATOM     73  O   UNL A   1      33.128  34.757  31.443  1.00  0.00    -0.237 OA
ATOM     74  O   UNL A   1      33.345  33.072  33.237  1.00  0.00    -0.237 OA
ATOM     75  O   UNL A   1      34.002  35.413  33.651  1.00  0.00    -0.744 OA
ENDBRANCH  71  72
ENDBRANCH  50  64
BRANCH  51  76
ATOM     76  C   UNL A   1      47.184  30.086  29.502  1.00  0.00     0.058 A 
ATOM     77  C   UNL A   1      47.022  30.064  28.138  1.00  0.00     0.135 A 
ATOM     78  C   UNL A   1      48.488  29.808  29.804  1.00  0.00     0.135 A 
ATOM     79  F   UNL A   1      45.778  29.995  27.631  1.00  0.00    -0.206 F 
ATOM     80  C   UNL A   1      48.121  30.262  27.213  1.00  0.00     0.059 A 
ATOM     81  C   UNL A   1      49.566  30.016  28.840  1.00  0.00     0.059 A 
ATOM     82  F   UNL A   1      48.812  29.448  31.057  1.00  0.00    -0.206 F 
ATOM     83  C   UNL A   1      49.530  30.482  27.474  1.00  0.00     0.060 A 
BRANCH  83  84
ATOM     84  S   UNL A   1      51.297  30.936  26.014  1.00  0.00     0.124 S 
ATOM     85  O   UNL A   1      51.138  32.164  25.226  1.00  0.00    -0.237 OA
ATOM     86  O   UNL A   1      52.468  31.008  26.872  1.00  0.00    -0.237 OA
ATOM     87  O   UNL A   1      51.432  29.926  24.953  1.00  0.00    -0.744 OA
ENDBRANCH  83  84
ENDBRANCH  51  76
BRANCH  63  88
ATOM     88  C   UNL A   1      43.428  36.336  28.589  1.00  0.00     0.058 A 
ATOM     89  C   UNL A   1      42.949  36.375  27.270  1.00  0.00     0.135 A 
ATOM     90  C   UNL A   1      43.485  37.585  29.258  1.00  0.00     0.135 A 
ATOM     91  F   UNL A   1      42.747  35.255  26.561  1.00  0.00    -0.206 F 
ATOM     92  C   UNL A   1      42.605  37.568  26.639  1.00  0.00     0.059 A 
ATOM     93  C   UNL A   1      43.076  38.776  28.671  1.00  0.00     0.059 A 
ATOM     94  F   UNL A   1      43.920  37.689  30.522  1.00  0.00    -0.206 F 
ATOM     95  C   UNL A   1      42.664  38.762  27.350  1.00  0.00     0.060 A 
BRANCH  95  96
ATOM     96  S   UNL A   1      42.149  40.283  26.541  1.00  0.00     0.124 S 
ATOM     97  O   UNL A   1      43.257  40.511  25.624  1.00  0.00    -0.237 OA
ATOM     98  O   UNL A   1      40.883  39.906  25.928  1.00  0.00    -0.237 OA
ATOM     99  O   UNL A   1      42.040  41.235  27.652  1.00  0.00    -0.744 OA
ENDBRANCH  95  96
ENDBRANCH  63  88
ENDBRANCH  37  38
ENDBRANCH  30  32
ENDBRANCH  29  30
ENDBRANCH   1  29
TORSDOF 16
ENDMDL
MODEL 3
REMARK VINA RESULT:     -12.5      4.196      6.680
REMARK SMILES Cc1ccc(-c2cc(Cl)cc3c2O[C@H](C(F)(F)F)C(C(=O)OCCOC(=O)c2ccc(-c4c5nc(c(-c6c(F)cc(S(=O)(=O)[O-])cc6F)c6ccc([nH]6)c(-c6c(F)cc(S(=O)(=O)[O-])cc6F)c6nc(c(-c7c(F)cc(S(=O)(=O)[O-])cc7F)c7ccc4[nH]7)C=C6)C=C5)cc2)=C3)cc1F
REMARK SMILES IDX 24 1 23 2 22 3 20 4 21 5 19 6 6 7 7 8 12 9 8 10 11 11 13 12
REMARK SMILES IDX 9 13 10 14 94 15 14 16 5 17 1 18 2 19 3 20 96 21 4 22 95 23
REMARK SMILES IDX 97 24 15 25 16 26 17 27 18 28 25 29 26 30 27 31 28 32 29 33
REMARK SMILES IDX 93 34 30 35 92 36 31 37 32 38 33 39 86 40 34 41 91 42 85 43
REMARK SMILES IDX 87 44 35 45 90 46 84 47 83 48 36 50 70 51 49 52 69 53 50 54
REMARK SMILES IDX 53 55 68 56 88 57 51 58 52 59 67 61 89 62 54 63 37 64 38 65
REMARK SMILES IDX 47 66 39 67 40 68 46 69 48 70 41 71 42 72 43 73 44 74 45 75
REMARK SMILES IDX 71 76 72 77 81 78 73 79 74 80 80 81 82 82 75 83 76 84 77 85
REMARK SMILES IDX 78 86 79 87 55 88 56 89 65 90 57 91 58 92 64 93 66 94 59 95
REMARK SMILES IDX 60 96 61 97 62 98 63 99
REMARK H PARENT 87 49 53 60
REMARK Flexibility Score: inf
ROOT
ATOM      1  C   UNL A   1      35.194  33.111  28.422  1.00  0.00     0.275 C 
ENDROOT
BRANCH   1   2
ATOM      2  C   UNL A   1      33.560  32.563  27.624  1.00  0.00     0.275 C 
BRANCH   2   3
ATOM      3  O   UNL A   1      33.059  31.015  26.846  1.00  0.00    -0.459 OA
BRANCH   3   4
ATOM      4  C   UNL A   1      32.293  30.401  25.814  1.00  0.00     0.338 C 
ATOM      5  O   UNL A   1      31.176  30.821  25.491  1.00  0.00    -0.246 OA
BRANCH   4   6
ATOM      6  C   UNL A   1      32.715  29.143  25.041  1.00  0.00     0.087 C 
ATOM      7  C   UNL A   1      33.373  25.217  23.455  1.00  0.00     0.026 A 
ATOM      8  C   UNL A   1      33.147  24.947  22.098  1.00  0.00     0.033 A 
ATOM      9  C   UNL A   1      33.230  26.550  23.932  1.00  0.00     0.135 A 
ATOM     10  C   UNL A   1      32.770  25.984  21.248  1.00  0.00     0.042 A 
ATOM     11  C   UNL A   1      32.766  27.570  23.111  1.00  0.00     0.019 A 
ATOM     12  O   UNL A   1      33.627  26.802  25.222  1.00  0.00    -0.475 OA
ATOM     13  Cl  UNL A   1      32.529  25.644  19.573  1.00  0.00    -0.084 Cl
ATOM     14  C   UNL A   1      32.562  27.280  21.747  1.00  0.00     0.032 A 
ATOM     15  C   UNL A   1      32.492  28.889  23.723  1.00  0.00     0.027 C 
ATOM     16  C   UNL A   1      33.141  27.995  25.906  1.00  0.00     0.316 C 
BRANCH   7  17
ATOM     17  C   UNL A   1      33.665  24.128  24.398  1.00  0.00    -0.012 A 
ATOM     18  C   UNL A   1      34.029  21.302  27.628  1.00  0.00     0.047 C 
ATOM     19  C   UNL A   1      33.973  22.226  26.452  1.00  0.00    -0.015 A 
ATOM     20  C   UNL A   1      34.992  23.146  26.184  1.00  0.00     0.007 A 
ATOM     21  C   UNL A   1      32.843  22.217  25.636  1.00  0.00     0.126 A 
ATOM     22  C   UNL A   1      34.842  24.089  25.158  1.00  0.00     0.009 A 
ATOM     23  C   UNL A   1      32.693  23.139  24.612  1.00  0.00     0.048 A 
ATOM     24  F   UNL A   1      31.858  21.336  25.866  1.00  0.00    -0.207 F 
ENDBRANCH   7  17
BRANCH  16  25
ATOM     25  C   UNL A   1      32.004  27.555  26.832  1.00  0.00     0.430 C 
ATOM     26  F   UNL A   1      30.794  27.787  26.258  1.00  0.00    -0.167 F 
ATOM     27  F   UNL A   1      32.032  26.231  27.097  1.00  0.00    -0.167 F 
ATOM     28  F   UNL A   1      32.006  28.225  28.010  1.00  0.00    -0.167 F 
ENDBRANCH  16  25
ENDBRANCH   4   6
ENDBRANCH   3   4
ENDBRANCH   2   3
ENDBRANCH   1   2
BRANCH   1  29
ATOM     29  O   UNL A   1      36.520  32.523  29.429  1.00  0.00    -0.458 OA
BRANCH  29  30
ATOM     30  C   UNL A   1      36.957  31.241  29.986  1.00  0.00     0.338 C 
ATOM     31  O   UNL A   1      37.508  31.213  31.097  1.00  0.00    -0.246 OA
BRANCH  30  32
ATOM     32  C   UNL A   1      36.525  29.763  29.875  1.00  0.00     0.060 A 
ATOM     33  C   UNL A   1      37.176  28.945  30.810  1.00  0.00     0.016 A 
ATOM     34  C   UNL A   1      36.788  29.340  28.522  1.00  0.00     0.016 A 
ATOM     35  C   UNL A   1      38.439  28.358  30.486  1.00  0.00     0.010 A 
ATOM     36  C   UNL A   1      38.096  28.862  28.196  1.00  0.00     0.010 A 
ATOM     37  C   UNL A   1      38.991  28.490  29.202  1.00  0.00    -0.014 A 
BRANCH  37  38
ATOM     38  C   UNL A   1      40.423  28.217  28.882  1.00  0.00     0.031 A 
ATOM     39  C   UNL A   1      40.748  26.830  28.520  1.00  0.00     0.074 A 
ATOM     40  C   UNL A   1      41.487  29.065  28.984  1.00  0.00     0.049 A 
ATOM     41  N   UNL A   1      41.647  26.113  29.099  1.00  0.00    -0.248 NA
ATOM     42  C   UNL A   1      40.021  26.136  27.468  1.00  0.00     0.031 C 
ATOM     43  C   UNL A   1      42.925  28.784  28.803  1.00  0.00     0.029 A 
ATOM     44  N   UNL A   1      41.519  30.349  29.500  1.00  0.00    -0.354 N 
ATOM     45  C   UNL A   1      41.802  24.981  28.328  1.00  0.00     0.074 A 
ATOM     46  C   UNL A   1      40.680  24.976  27.419  1.00  0.00     0.031 C 
ATOM     47  C   UNL A   1      43.644  29.662  29.533  1.00  0.00     0.029 A 
ATOM     48  C   UNL A   1      42.705  30.511  30.230  1.00  0.00     0.049 A 
ATOM     49  H   UNL A   1      40.824  31.036  29.375  1.00  0.00     0.167 HD
ATOM     50  C   UNL A   1      42.954  24.257  28.391  1.00  0.00     0.037 A 
ATOM     51  C   UNL A   1      42.641  30.805  31.559  1.00  0.00     0.037 A 
ATOM     52  C   UNL A   1      43.932  24.934  29.238  1.00  0.00     0.049 A 
ATOM     53  C   UNL A   1      43.239  29.696  32.378  1.00  0.00     0.074 A 
ATOM     54  C   UNL A   1      44.967  25.801  28.926  1.00  0.00     0.029 A 
ATOM     55  N   UNL A   1      43.695  25.075  30.598  1.00  0.00    -0.354 N 
ATOM     56  N   UNL A   1      43.397  28.490  31.904  1.00  0.00    -0.248 NA
ATOM     57  C   UNL A   1      43.767  29.830  33.734  1.00  0.00     0.031 C 
ATOM     58  C   UNL A   1      45.296  26.529  30.094  1.00  0.00     0.029 A 
ATOM     59  C   UNL A   1      44.481  26.086  31.122  1.00  0.00     0.049 A 
ATOM     60  H   UNL A   1      43.058  24.533  31.117  1.00  0.00     0.167 HD
ATOM     61  C   UNL A   1      44.064  27.717  32.811  1.00  0.00     0.074 A 
ATOM     62  C   UNL A   1      44.262  28.595  33.949  1.00  0.00     0.031 C 
ATOM     63  C   UNL A   1      44.418  26.427  32.536  1.00  0.00     0.037 A 
BRANCH  50  64
ATOM     64  C   UNL A   1      43.286  23.132  27.437  1.00  0.00     0.058 A 
ATOM     65  C   UNL A   1      42.582  21.910  27.471  1.00  0.00     0.135 A 
ATOM     66  C   UNL A   1      44.288  23.214  26.447  1.00  0.00     0.135 A 
ATOM     67  F   UNL A   1      41.568  21.707  28.323  1.00  0.00    -0.206 F 
ATOM     68  C   UNL A   1      42.881  20.837  26.630  1.00  0.00     0.059 A 
ATOM     69  C   UNL A   1      44.641  22.134  25.628  1.00  0.00     0.059 A 
ATOM     70  F   UNL A   1      44.934  24.365  26.209  1.00  0.00    -0.206 F 
ATOM     71  C   UNL A   1      43.920  20.952  25.718  1.00  0.00     0.060 A 
BRANCH  71  72
ATOM     72  S   UNL A   1      44.269  19.557  24.628  1.00  0.00     0.124 S 
ATOM     73  O   UNL A   1      45.432  18.948  25.263  1.00  0.00    -0.237 OA
ATOM     74  O   UNL A   1      43.028  18.794  24.713  1.00  0.00    -0.237 OA
ATOM     75  O   UNL A   1      44.527  20.189  23.338  1.00  0.00    -0.744 OA
ENDBRANCH  71  72
ENDBRANCH  50  64
BRANCH  51  76
ATOM     76  C   UNL A   1      41.475  31.708  31.862  1.00  0.00     0.058 A 
ATOM     77  C   UNL A   1      40.609  31.223  32.811  1.00  0.00     0.135 A 
ATOM     78  C   UNL A   1      41.688  33.040  32.087  1.00  0.00     0.135 A 
ATOM     79  F   UNL A   1      40.015  30.034  32.604  1.00  0.00    -0.206 F 
ATOM     80  C   UNL A   1      40.417  31.861  34.099  1.00  0.00     0.059 A 
ATOM     81  C   UNL A   1      41.476  33.645  33.399  1.00  0.00     0.059 A 
ATOM     82  F   UNL A   1      42.221  33.795  31.112  1.00  0.00    -0.206 F 
ATOM     83  C   UNL A   1      41.012  33.068  34.638  1.00  0.00     0.060 A 
BRANCH  83  84
ATOM     84  S   UNL A   1      40.825  34.045  36.752  1.00  0.00     0.124 S 
ATOM     85  O   UNL A   1      42.052  34.685  37.241  1.00  0.00    -0.237 OA
ATOM     86  O   UNL A   1      39.747  35.011  36.613  1.00  0.00    -0.237 OA
ATOM     87  O   UNL A   1      40.569  33.060  37.815  1.00  0.00    -0.744 OA
ENDBRANCH  83  84
ENDBRANCH  51  76
BRANCH  63  88
ATOM     88  C   UNL A   1      44.828  25.391  33.550  1.00  0.00     0.058 A 
ATOM     89  C   UNL A   1      43.920  24.739  34.400  1.00  0.00     0.135 A 
ATOM     90  C   UNL A   1      46.151  24.880  33.559  1.00  0.00     0.135 A 
ATOM     91  F   UNL A   1      42.617  25.053  34.410  1.00  0.00    -0.206 F 
ATOM     92  C   UNL A   1      44.305  23.696  35.238  1.00  0.00     0.059 A 
ATOM     93  C   UNL A   1      46.537  23.793  34.334  1.00  0.00     0.059 A 
ATOM     94  F   UNL A   1      47.116  25.408  32.792  1.00  0.00    -0.206 F 
ATOM     95  C   UNL A   1      45.613  23.225  35.192  1.00  0.00     0.060 A 
BRANCH  95  96
ATOM     96  S   UNL A   1      46.073  21.832  36.232  1.00  0.00     0.124 S 
ATOM     97  O   UNL A   1      45.286  20.758  35.640  1.00  0.00    -0.237 OA
ATOM     98  O   UNL A   1      47.513  21.748  36.034  1.00  0.00    -0.237 OA
ATOM     99  O   UNL A   1      45.655  22.259  37.571  1.00  0.00    -0.744 OA
ENDBRANCH  95  96
ENDBRANCH  63  88
ENDBRANCH  37  38
ENDBRANCH  30  32
ENDBRANCH  29  30
ENDBRANCH   1  29
TORSDOF 16
ENDMDL
