MODEL 1
REMARK VINA RESULT:     -12.1      0.000      0.000
REMARK SMILES Cc1ccc(S(=O)(=O)N2C[C@@H](CC(=O)OCCOC(=O)c3ccc(-c4c5nc(c(-c6c(F)cc(S(=O)(=O)[O-])cc6F)c6ccc([nH]6)c(-c6c(F)cc(S(=O)(=O)[O-])cc6F)c6nc(c(-c7c(F)cc(S(=O)(=O)[O-])cc7F)c7ccc4[nH]7)C=C6)C=C5)cc3)c3ccccc32)c(C)c1
REMARK SMILES IDX 16 1 15 2 13 3 14 4 12 5 11 6 9 7 10 8 92 9 87 10 91 11
REMARK SMILES IDX 88 12 90 13 89 14 6 15 7 16 8 17 5 18 1 19 2 20 3 21 95 22
REMARK SMILES IDX 4 23 93 24 94 25 17 26 18 27 19 28 20 29 21 30 22 31 86 32
REMARK SMILES IDX 23 33 85 34 24 35 25 36 26 37 79 38 27 39 84 40 78 41 80 42
REMARK SMILES IDX 28 43 83 44 77 45 76 46 29 48 63 49 42 50 62 51 43 52 46 53
REMARK SMILES IDX 61 54 81 55 44 56 45 57 60 59 82 60 47 61 30 62 31 63 40 64
REMARK SMILES IDX 32 65 33 66 39 67 41 68 34 69 35 70 36 71 37 72 38 73 64 74
REMARK SMILES IDX 65 75 74 76 66 77 67 78 73 79 75 80 68 81 69 82 70 83 71 84
REMARK SMILES IDX 72 85 48 86 49 87 58 88 50 89 51 90 57 91 59 92 52 93 53 94
REMARK SMILES IDX 54 95 55 96 56 97
REMARK H PARENT 80 47 46 58
REMARK Flexibility Score: inf
ROOT
ATOM      1  C   UNL A   1      34.044  32.364  28.066  1.00  0.00     0.274 C 
ENDROOT
BRANCH   1   2
ATOM      2  O   UNL A   1      34.064  31.051  27.469  1.00  0.00    -0.462 OA
BRANCH   2   3
ATOM      3  C   UNL A   1      32.919  30.611  26.896  1.00  0.00     0.306 C 
ATOM      4  O   UNL A   1      31.912  31.288  26.737  1.00  0.00    -0.252 OA
BRANCH   3   5
ATOM      5  C   UNL A   1      33.002  29.154  26.499  1.00  0.00     0.133 C 
BRANCH   5   6
ATOM      6  C   UNL A   1      31.637  28.464  26.369  1.00  0.00     0.053 C 
ATOM      7  N   UNL A   1      31.893  26.179  25.629  1.00  0.00    -0.265 N 
ATOM      8  C   UNL A   1      31.697  26.994  26.861  1.00  0.00     0.144 C 
ATOM      9  C   UNL A   1      31.362  26.938  24.541  1.00  0.00     0.055 A 
ATOM     10  C   UNL A   1      31.206  28.268  24.936  1.00  0.00    -0.018 A 
ATOM     11  C   UNL A   1      31.133  26.552  23.230  1.00  0.00     0.027 A 
ATOM     12  C   UNL A   1      30.728  29.215  24.042  1.00  0.00     0.006 A 
ATOM     13  C   UNL A   1      30.698  27.513  22.314  1.00  0.00     0.002 A 
ATOM     14  C   UNL A   1      30.490  28.837  22.720  1.00  0.00     0.000 A 
BRANCH   7  15
ATOM     15  S   UNL A   1      31.605  24.518  25.759  1.00  0.00     0.264 S 
ATOM     16  O   UNL A   1      30.629  24.143  24.756  1.00  0.00    -0.201 OA
ATOM     17  O   UNL A   1      31.412  24.206  27.161  1.00  0.00    -0.201 OA
BRANCH  15  18
ATOM     18  C   UNL A   1      33.164  23.762  25.310  1.00  0.00     0.090 A 
ATOM     19  C   UNL A   1      36.930  22.094  24.051  1.00  0.00     0.044 C 
ATOM     20  C   UNL A   1      35.622  22.682  24.490  1.00  0.00    -0.051 A 
ATOM     21  C   UNL A   1      35.502  24.053  24.716  1.00  0.00     0.005 A 
ATOM     22  C   UNL A   1      34.516  21.852  24.720  1.00  0.00     0.008 A 
ATOM     23  C   UNL A   1      34.286  24.587  25.134  1.00  0.00     0.023 A 
ATOM     24  C   UNL A   1      33.273  22.371  25.133  1.00  0.00    -0.030 A 
ATOM     25  C   UNL A   1      32.173  21.385  25.414  1.00  0.00     0.046 C 
ENDBRANCH  15  18
ENDBRANCH   7  15
ENDBRANCH   5   6
ENDBRANCH   3   5
ENDBRANCH   2   3
ENDBRANCH   1   2
BRANCH   1  26
ATOM     26  C   UNL A   1      34.844  32.389  29.370  1.00  0.00     0.275 C 
BRANCH  26  27
ATOM     27  O   UNL A   1      35.634  31.195  29.503  1.00  0.00    -0.458 OA
BRANCH  27  28
ATOM     28  C   UNL A   1      36.434  31.137  30.592  1.00  0.00     0.338 C 
ATOM     29  O   UNL A   1      36.126  31.360  31.749  1.00  0.00    -0.246 OA
BRANCH  28  30
ATOM     30  C   UNL A   1      37.754  30.642  30.178  1.00  0.00     0.060 A 
ATOM     31  C   UNL A   1      38.733  30.423  31.152  1.00  0.00     0.016 A 
ATOM     32  C   UNL A   1      38.029  30.426  28.827  1.00  0.00     0.016 A 
ATOM     33  C   UNL A   1      39.998  29.973  30.776  1.00  0.00     0.010 A 
ATOM     34  C   UNL A   1      39.295  29.971  28.453  1.00  0.00     0.010 A 
ATOM     35  C   UNL A   1      40.286  29.745  29.424  1.00  0.00    -0.014 A 
BRANCH  35  36
ATOM     36  C   UNL A   1      41.637  29.294  29.013  1.00  0.00     0.031 A 
ATOM     37  C   UNL A   1      42.766  30.281  28.962  1.00  0.00     0.074 A 
ATOM     38  C   UNL A   1      41.837  28.007  28.673  1.00  0.00     0.049 A 
ATOM     39  N   UNL A   1      43.991  30.114  28.538  1.00  0.00    -0.248 NA
ATOM     40  C   UNL A   1      42.474  31.638  29.448  1.00  0.00     0.031 C 
ATOM     41  C   UNL A   1      40.822  26.955  28.716  1.00  0.00     0.029 A 
ATOM     42  N   UNL A   1      42.961  27.370  28.213  1.00  0.00    -0.354 N 
ATOM     43  C   UNL A   1      44.616  31.346  28.692  1.00  0.00     0.074 A 
ATOM     44  C   UNL A   1      43.626  32.257  29.228  1.00  0.00     0.031 C 
ATOM     45  C   UNL A   1      41.369  25.802  28.297  1.00  0.00     0.029 A 
ATOM     46  C   UNL A   1      42.758  26.044  27.915  1.00  0.00     0.049 A 
ATOM     47  H   UNL A   1      43.832  27.819  28.108  1.00  0.00     0.167 HD
ATOM     48  C   UNL A   1      45.899  31.681  28.417  1.00  0.00     0.037 A 
ATOM     49  C   UNL A   1      43.590  25.134  27.371  1.00  0.00     0.037 A 
ATOM     50  C   UNL A   1      46.875  30.765  27.884  1.00  0.00     0.049 A 
ATOM     51  C   UNL A   1      44.993  25.546  27.016  1.00  0.00     0.074 A 
ATOM     52  C   UNL A   1      48.203  31.004  27.576  1.00  0.00     0.029 A 
ATOM     53  N   UNL A   1      46.626  29.435  27.575  1.00  0.00    -0.354 N 
ATOM     54  N   UNL A   1      45.574  26.713  27.169  1.00  0.00    -0.248 NA
ATOM     55  C   UNL A   1      45.855  24.522  26.411  1.00  0.00     0.031 C 
ATOM     56  C   UNL A   1      48.746  29.829  27.045  1.00  0.00     0.029 A 
ATOM     57  C   UNL A   1      47.770  28.845  27.062  1.00  0.00     0.049 A 
ATOM     58  H   UNL A   1      45.763  28.978  27.701  1.00  0.00     0.167 HD
ATOM     59  C   UNL A   1      46.874  26.558  26.700  1.00  0.00     0.074 A 
ATOM     60  C   UNL A   1      46.997  25.180  26.267  1.00  0.00     0.031 C 
ATOM     61  C   UNL A   1      47.875  27.470  26.638  1.00  0.00     0.037 A 
BRANCH  48  62
ATOM     62  C   UNL A   1      46.308  33.107  28.660  1.00  0.00     0.058 A 
ATOM     63  C   UNL A   1      46.179  34.092  27.669  1.00  0.00     0.135 A 
ATOM     64  C   UNL A   1      46.827  33.496  29.906  1.00  0.00     0.135 A 
ATOM     65  F   UNL A   1      45.704  33.771  26.454  1.00  0.00    -0.206 F 
ATOM     66  C   UNL A   1      46.580  35.406  27.891  1.00  0.00     0.059 A 
ATOM     67  C   UNL A   1      47.210  34.810  30.160  1.00  0.00     0.059 A 
ATOM     68  F   UNL A   1      46.971  32.595  30.890  1.00  0.00    -0.206 F 
ATOM     69  C   UNL A   1      47.100  35.754  29.139  1.00  0.00     0.060 A 
BRANCH  69  70
ATOM     70  S   UNL A   1      47.633  37.457  29.411  1.00  0.00     0.124 S 
ATOM     71  O   UNL A   1      48.806  37.536  28.545  1.00  0.00    -0.237 OA
ATOM     72  O   UNL A   1      46.471  38.224  28.974  1.00  0.00    -0.237 OA
ATOM     73  O   UNL A   1      47.908  37.503  30.843  1.00  0.00    -0.744 OA
ENDBRANCH  69  70
ENDBRANCH  48  62
BRANCH  49  74
ATOM     74  C   UNL A   1      43.113  23.749  27.123  1.00  0.00     0.058 A 
ATOM     75  C   UNL A   1      42.747  23.332  25.836  1.00  0.00     0.135 A 
ATOM     76  C   UNL A   1      43.035  22.808  28.162  1.00  0.00     0.135 A 
ATOM     77  F   UNL A   1      42.795  24.198  24.812  1.00  0.00    -0.206 F 
ATOM     78  C   UNL A   1      42.314  22.034  25.586  1.00  0.00     0.059 A 
ATOM     79  C   UNL A   1      42.627  21.498  27.934  1.00  0.00     0.059 A 
ATOM     80  F   UNL A   1      43.384  23.155  29.412  1.00  0.00    -0.206 F 
ATOM     81  C   UNL A   1      42.261  21.122  26.642  1.00  0.00     0.060 A 
BRANCH  81  82
ATOM     82  S   UNL A   1      41.756  19.423  26.297  1.00  0.00     0.124 S 
ATOM     83  O   UNL A   1      42.559  19.111  25.120  1.00  0.00    -0.237 OA
ATOM     84  O   UNL A   1      42.132  18.733  27.527  1.00  0.00    -0.237 OA
ATOM     85  O   UNL A   1      40.319  19.540  26.070  1.00  0.00    -0.744 OA
ENDBRANCH  81  82
ENDBRANCH  49  74
BRANCH  61  86
ATOM     86  C   UNL A   1      49.202  27.003  26.110  1.00  0.00     0.058 A 
ATOM     87  C   UNL A   1      49.553  27.153  24.759  1.00  0.00     0.135 A 
ATOM     88  C   UNL A   1      50.156  26.448  26.979  1.00  0.00     0.135 A 
ATOM     89  F   UNL A   1      48.674  27.672  23.888  1.00  0.00    -0.206 F 
ATOM     90  C   UNL A   1      50.796  26.753  24.283  1.00  0.00     0.059 A 
ATOM     91  C   UNL A   1      51.415  26.062  26.529  1.00  0.00     0.059 A 
ATOM     92  F   UNL A   1      49.874  26.291  28.281  1.00  0.00    -0.206 F 
ATOM     93  C   UNL A   1      51.723  26.209  25.177  1.00  0.00     0.060 A 
BRANCH  93  94
ATOM     94  S   UNL A   1      53.348  25.729  24.556  1.00  0.00     0.124 S 
ATOM     95  O   UNL A   1      54.200  26.763  25.133  1.00  0.00    -0.237 OA
ATOM     96  O   UNL A   1      53.514  24.389  25.111  1.00  0.00    -0.237 OA
ATOM     97  O   UNL A   1      53.188  25.783  23.106  1.00  0.00    -0.744 OA
ENDBRANCH  93  94
ENDBRANCH  61  86
ENDBRANCH  35  36
ENDBRANCH  28  30
ENDBRANCH  27  28
ENDBRANCH  26  27
ENDBRANCH   1  26
TORSDOF 17
ENDMDL
MODEL 2
REMARK VINA RESULT:     -11.9      6.018     11.803
REMARK SMILES Cc1ccc(S(=O)(=O)N2C[C@@H](CC(=O)OCCOC(=O)c3ccc(-c4c5nc(c(-c6c(F)cc(S(=O)(=O)[O-])cc6F)c6ccc([nH]6)c(-c6c(F)cc(S(=O)(=O)[O-])cc6F)c6nc(c(-c7c(F)cc(S(=O)(=O)[O-])cc7F)c7ccc4[nH]7)C=C6)C=C5)cc3)c3ccccc32)c(C)c1
REMARK SMILES IDX 16 1 15 2 13 3 14 4 12 5 11 6 9 7 10 8 92 9 87 10 91 11
REMARK SMILES IDX 88 12 90 13 89 14 6 15 7 16 8 17 5 18 1 19 2 20 3 21 95 22
REMARK SMILES IDX 4 23 93 24 94 25 17 26 18 27 19 28 20 29 21 30 22 31 86 32
REMARK SMILES IDX 23 33 85 34 24 35 25 36 26 37 79 38 27 39 84 40 78 41 80 42
REMARK SMILES IDX 28 43 83 44 77 45 76 46 29 48 63 49 42 50 62 51 43 52 46 53
REMARK SMILES IDX 61 54 81 55 44 56 45 57 60 59 82 60 47 61 30 62 31 63 40 64
REMARK SMILES IDX 32 65 33 66 39 67 41 68 34 69 35 70 36 71 37 72 38 73 64 74
REMARK SMILES IDX 65 75 74 76 66 77 67 78 73 79 75 80 68 81 69 82 70 83 71 84
REMARK SMILES IDX 72 85 48 86 49 87 58 88 50 89 51 90 57 91 59 92 52 93 53 94
REMARK SMILES IDX 54 95 55 96 56 97
REMARK H PARENT 80 47 46 58
REMARK Flexibility Score: inf
ROOT
ATOM      1  C   UNL A   1      40.169  21.915  26.794  1.00  0.00     0.274 C 
ENDROOT
BRANCH   1   2
ATOM      2  O   UNL A   1      39.051  22.644  26.247  1.00  0.00    -0.462 OA
BRANCH   2   3
ATOM      3  C   UNL A   1      38.086  21.927  25.626  1.00  0.00     0.306 C 
ATOM      4  O   UNL A   1      38.220  20.781  25.215  1.00  0.00    -0.252 OA
BRANCH   3   5
ATOM      5  C   UNL A   1      36.809  22.718  25.451  1.00  0.00     0.133 C 
BRANCH   5   6
ATOM      6  C   UNL A   1      36.016  22.353  24.189  1.00  0.00     0.053 C 
ATOM      7  N   UNL A   1      34.068  23.762  23.955  1.00  0.00    -0.265 N 
ATOM      8  C   UNL A   1      35.471  23.618  23.476  1.00  0.00     0.144 C 
ATOM      9  C   UNL A   1      33.626  22.459  24.340  1.00  0.00     0.055 A 
ATOM     10  C   UNL A   1      34.731  21.619  24.488  1.00  0.00    -0.018 A 
ATOM     11  C   UNL A   1      32.351  22.027  24.672  1.00  0.00     0.027 A 
ATOM     12  C   UNL A   1      34.563  20.300  24.885  1.00  0.00     0.006 A 
ATOM     13  C   UNL A   1      32.184  20.714  25.119  1.00  0.00     0.002 A 
ATOM     14  C   UNL A   1      33.284  19.853  25.218  1.00  0.00     0.000 A 
BRANCH   7  15
ATOM     15  S   UNL A   1      33.066  24.803  23.079  1.00  0.00     0.264 S 
ATOM     16  O   UNL A   1      31.825  24.110  22.793  1.00  0.00    -0.201 OA
ATOM     17  O   UNL A   1      33.858  25.407  22.026  1.00  0.00    -0.201 OA
BRANCH  15  18
ATOM     18  C   UNL A   1      32.696  26.129  24.222  1.00  0.00     0.090 A 
ATOM     19  C   UNL A   1      31.784  29.160  27.142  1.00  0.00     0.044 C 
ATOM     20  C   UNL A   1      32.107  28.103  26.130  1.00  0.00    -0.051 A 
ATOM     21  C   UNL A   1      33.126  27.182  26.370  1.00  0.00     0.005 A 
ATOM     22  C   UNL A   1      31.417  28.056  24.911  1.00  0.00     0.008 A 
ATOM     23  C   UNL A   1      33.426  26.210  25.419  1.00  0.00     0.023 A 
ATOM     24  C   UNL A   1      31.696  27.076  23.938  1.00  0.00    -0.030 A 
ATOM     25  C   UNL A   1      30.940  27.159  22.640  1.00  0.00     0.046 C 
ENDBRANCH  15  18
ENDBRANCH   7  15
ENDBRANCH   5   6
ENDBRANCH   3   5
ENDBRANCH   2   3
ENDBRANCH   1   2
BRANCH   1  26
ATOM     26  C   UNL A   1      41.491  22.405  26.199  1.00  0.00     0.275 C 
BRANCH  26  27
ATOM     27  O   UNL A   1      42.047  23.461  27.001  1.00  0.00    -0.458 OA
BRANCH  27  28
ATOM     28  C   UNL A   1      42.036  24.693  26.441  1.00  0.00     0.338 C 
ATOM     29  O   UNL A   1      42.095  24.965  25.255  1.00  0.00    -0.246 OA
BRANCH  28  30
ATOM     30  C   UNL A   1      41.823  25.688  27.500  1.00  0.00     0.060 A 
ATOM     31  C   UNL A   1      42.727  26.746  27.629  1.00  0.00     0.016 A 
ATOM     32  C   UNL A   1      40.749  25.555  28.380  1.00  0.00     0.016 A 
ATOM     33  C   UNL A   1      42.554  27.689  28.641  1.00  0.00     0.010 A 
ATOM     34  C   UNL A   1      40.573  26.503  29.390  1.00  0.00     0.010 A 
ATOM     35  C   UNL A   1      41.475  27.572  29.528  1.00  0.00    -0.014 A 
BRANCH  35  36
ATOM     36  C   UNL A   1      41.299  28.554  30.624  1.00  0.00     0.031 A 
ATOM     37  C   UNL A   1      42.179  28.479  31.837  1.00  0.00     0.074 A 
ATOM     38  C   UNL A   1      40.340  29.494  30.532  1.00  0.00     0.049 A 
ATOM     39  N   UNL A   1      42.125  29.175  32.943  1.00  0.00    -0.248 NA
ATOM     40  C   UNL A   1      43.262  27.485  31.802  1.00  0.00     0.031 C 
ATOM     41  C   UNL A   1      39.448  29.681  29.388  1.00  0.00     0.029 A 
ATOM     42  N   UNL A   1      39.950  30.461  31.423  1.00  0.00    -0.354 N 
ATOM     43  C   UNL A   1      43.155  28.696  33.742  1.00  0.00     0.074 A 
ATOM     44  C   UNL A   1      43.805  27.634  33.003  1.00  0.00     0.031 C 
ATOM     45  C   UNL A   1      38.612  30.699  29.646  1.00  0.00     0.029 A 
ATOM     46  C   UNL A   1      38.880  31.208  30.989  1.00  0.00     0.049 A 
ATOM     47  H   UNL A   1      40.395  30.609  32.289  1.00  0.00     0.167 HD
ATOM     48  C   UNL A   1      43.527  29.110  34.977  1.00  0.00     0.037 A 
ATOM     49  C   UNL A   1      38.179  32.173  31.615  1.00  0.00     0.037 A 
ATOM     50  C   UNL A   1      42.873  30.168  35.702  1.00  0.00     0.049 A 
ATOM     51  C   UNL A   1      38.572  32.574  33.012  1.00  0.00     0.074 A 
ATOM     52  C   UNL A   1      43.176  30.669  36.957  1.00  0.00     0.029 A 
ATOM     53  N   UNL A   1      41.779  30.887  35.240  1.00  0.00    -0.354 N 
ATOM     54  N   UNL A   1      39.550  32.116  33.756  1.00  0.00    -0.248 NA
ATOM     55  C   UNL A   1      37.765  33.620  33.656  1.00  0.00     0.031 C 
ATOM     56  C   UNL A   1      42.242  31.663  37.269  1.00  0.00     0.029 A 
ATOM     57  C   UNL A   1      41.383  31.814  36.191  1.00  0.00     0.049 A 
ATOM     58  H   UNL A   1      41.347  30.757  34.365  1.00  0.00     0.167 HD
ATOM     59  C   UNL A   1      39.491  32.832  34.947  1.00  0.00     0.074 A 
ATOM     60  C   UNL A   1      38.385  33.761  34.819  1.00  0.00     0.031 C 
ATOM     61  C   UNL A   1      40.281  32.733  36.045  1.00  0.00     0.037 A 
BRANCH  48  62
ATOM     62  C   UNL A   1      44.676  28.393  35.630  1.00  0.00     0.058 A 
ATOM     63  C   UNL A   1      44.475  27.289  36.473  1.00  0.00     0.135 A 
ATOM     64  C   UNL A   1      45.997  28.810  35.401  1.00  0.00     0.135 A 
ATOM     65  F   UNL A   1      43.231  26.859  36.738  1.00  0.00    -0.206 F 
ATOM     66  C   UNL A   1      45.540  26.642  37.093  1.00  0.00     0.059 A 
ATOM     67  C   UNL A   1      47.080  28.163  35.990  1.00  0.00     0.059 A 
ATOM     68  F   UNL A   1      46.247  29.860  34.604  1.00  0.00    -0.206 F 
ATOM     69  C   UNL A   1      46.839  27.091  36.849  1.00  0.00     0.060 A 
BRANCH  69  70
ATOM     70  S   UNL A   1      48.212  26.256  37.672  1.00  0.00     0.124 S 
ATOM     71  O   UNL A   1      49.277  26.405  36.684  1.00  0.00    -0.237 OA
ATOM     72  O   UNL A   1      48.369  27.037  38.894  1.00  0.00    -0.237 OA
ATOM     73  O   UNL A   1      47.719  24.896  37.860  1.00  0.00    -0.744 OA
ENDBRANCH  69  70
ENDBRANCH  48  62
BRANCH  49  74
ATOM     74  C   UNL A   1      37.031  32.819  30.928  1.00  0.00     0.058 A 
ATOM     75  C   UNL A   1      37.236  33.805  29.953  1.00  0.00     0.135 A 
ATOM     76  C   UNL A   1      35.708  32.447  31.214  1.00  0.00     0.135 A 
ATOM     77  F   UNL A   1      38.482  34.201  29.652  1.00  0.00    -0.206 F 
ATOM     78  C   UNL A   1      36.171  34.406  29.289  1.00  0.00     0.059 A 
ATOM     79  C   UNL A   1      34.627  33.016  30.548  1.00  0.00     0.059 A 
ATOM     80  F   UNL A   1      35.459  31.499  32.132  1.00  0.00    -0.206 F 
ATOM     81  C   UNL A   1      34.869  34.002  29.591  1.00  0.00     0.060 A 
BRANCH  81  82
ATOM     82  S   UNL A   1      33.497  34.744  28.681  1.00  0.00     0.124 S 
ATOM     83  O   UNL A   1      33.168  33.686  27.732  1.00  0.00    -0.237 OA
ATOM     84  O   UNL A   1      32.518  34.981  29.738  1.00  0.00    -0.237 OA
ATOM     85  O   UNL A   1      34.089  35.948  28.106  1.00  0.00    -0.744 OA
ENDBRANCH  81  82
ENDBRANCH  49  74
BRANCH  61  86
ATOM     86  C   UNL A   1      40.001  33.672  37.184  1.00  0.00     0.058 A 
ATOM     87  C   UNL A   1      40.638  34.918  37.287  1.00  0.00     0.135 A 
ATOM     88  C   UNL A   1      39.042  33.342  38.156  1.00  0.00     0.135 A 
ATOM     89  F   UNL A   1      41.566  35.277  36.387  1.00  0.00    -0.206 F 
ATOM     90  C   UNL A   1      40.347  35.799  38.323  1.00  0.00     0.059 A 
ATOM     91  C   UNL A   1      38.718  34.217  39.189  1.00  0.00     0.059 A 
ATOM     92  F   UNL A   1      38.398  32.166  38.099  1.00  0.00    -0.206 F 
ATOM     93  C   UNL A   1      39.384  35.440  39.269  1.00  0.00     0.060 A 
BRANCH  93  94
ATOM     94  S   UNL A   1      38.986  36.607  40.588  1.00  0.00     0.124 S 
ATOM     95  O   UNL A   1      40.284  36.773  41.234  1.00  0.00    -0.237 OA
ATOM     96  O   UNL A   1      38.495  37.764  39.846  1.00  0.00    -0.237 OA
ATOM     97  O   UNL A   1      37.978  35.901  41.374  1.00  0.00    -0.744 OA
ENDBRANCH  93  94
ENDBRANCH  61  86
ENDBRANCH  35  36
ENDBRANCH  28  30
ENDBRANCH  27  28
ENDBRANCH  26  27
ENDBRANCH   1  26
TORSDOF 17
ENDMDL
MODEL 3
REMARK VINA RESULT:     -11.8      0.860      8.126
REMARK SMILES Cc1ccc(S(=O)(=O)N2C[C@@H](CC(=O)OCCOC(=O)c3ccc(-c4c5nc(c(-c6c(F)cc(S(=O)(=O)[O-])cc6F)c6ccc([nH]6)c(-c6c(F)cc(S(=O)(=O)[O-])cc6F)c6nc(c(-c7c(F)cc(S(=O)(=O)[O-])cc7F)c7ccc4[nH]7)C=C6)C=C5)cc3)c3ccccc32)c(C)c1
REMARK SMILES IDX 16 1 15 2 13 3 14 4 12 5 11 6 9 7 10 8 92 9 87 10 91 11
REMARK SMILES IDX 88 12 90 13 89 14 6 15 7 16 8 17 5 18 1 19 2 20 3 21 95 22
REMARK SMILES IDX 4 23 93 24 94 25 17 26 18 27 19 28 20 29 21 30 22 31 86 32
REMARK SMILES IDX 23 33 85 34 24 35 25 36 26 37 79 38 27 39 84 40 78 41 80 42
REMARK SMILES IDX 28 43 83 44 77 45 76 46 29 48 63 49 42 50 62 51 43 52 46 53
REMARK SMILES IDX 61 54 81 55 44 56 45 57 60 59 82 60 47 61 30 62 31 63 40 64
REMARK SMILES IDX 32 65 33 66 39 67 41 68 34 69 35 70 36 71 37 72 38 73 64 74
REMARK SMILES IDX 65 75 74 76 66 77 67 78 73 79 75 80 68 81 69 82 70 83 71 84
REMARK SMILES IDX 72 85 48 86 49 87 58 88 50 89 51 90 57 91 59 92 52 93 53 94
REMARK SMILES IDX 54 95 55 96 56 97
REMARK H PARENT 80 47 46 58
REMARK Flexibility Score: inf
ROOT
ATOM      1  C   UNL A   1      34.732  32.129  28.381  1.00  0.00     0.274 C 
ENDROOT
BRANCH   1   2
ATOM      2  O   UNL A   1      34.691  30.884  27.654  1.00  0.00    -0.462 OA
BRANCH   2   3
ATOM      3  C   UNL A   1      33.477  30.439  27.250  1.00  0.00     0.306 C 
ATOM      4  O   UNL A   1      32.517  31.157  27.003  1.00  0.00    -0.252 OA
BRANCH   3   5
ATOM      5  C   UNL A   1      33.419  28.931  27.172  1.00  0.00     0.133 C 
BRANCH   5   6
ATOM      6  C   UNL A   1      32.265  28.394  26.313  1.00  0.00     0.053 C 
ATOM      7  N   UNL A   1      32.527  26.030  25.894  1.00  0.00    -0.265 N 
ATOM      8  C   UNL A   1      31.814  26.987  26.786  1.00  0.00     0.144 C 
ATOM      9  C   UNL A   1      32.811  26.728  24.680  1.00  0.00     0.055 A 
ATOM     10  C   UNL A   1      32.671  28.100  24.889  1.00  0.00    -0.018 A 
ATOM     11  C   UNL A   1      33.286  26.234  23.474  1.00  0.00     0.027 A 
ATOM     12  C   UNL A   1      32.921  28.997  23.861  1.00  0.00     0.006 A 
ATOM     13  C   UNL A   1      33.584  27.138  22.452  1.00  0.00     0.002 A 
ATOM     14  C   UNL A   1      33.396  28.513  22.642  1.00  0.00     0.000 A 
BRANCH   7  15
ATOM     15  S   UNL A   1      31.961  24.438  25.877  1.00  0.00     0.264 S 
ATOM     16  O   UNL A   1      31.114  24.266  24.714  1.00  0.00    -0.201 OA
ATOM     17  O   UNL A   1      31.497  24.112  27.210  1.00  0.00    -0.201 OA
BRANCH  15  18
ATOM     18  C   UNL A   1      33.432  23.448  25.627  1.00  0.00     0.090 A 
ATOM     19  C   UNL A   1      37.055  21.239  24.891  1.00  0.00     0.044 C 
ATOM     20  C   UNL A   1      35.798  22.013  25.150  1.00  0.00    -0.051 A 
ATOM     21  C   UNL A   1      35.859  23.323  25.625  1.00  0.00     0.005 A 
ATOM     22  C   UNL A   1      34.545  21.414  24.959  1.00  0.00     0.008 A 
ATOM     23  C   UNL A   1      34.686  24.031  25.872  1.00  0.00     0.023 A 
ATOM     24  C   UNL A   1      33.345  22.113  25.193  1.00  0.00    -0.030 A 
ATOM     25  C   UNL A   1      32.059  21.353  25.019  1.00  0.00     0.046 C 
ENDBRANCH  15  18
ENDBRANCH   7  15
ENDBRANCH   5   6
ENDBRANCH   3   5
ENDBRANCH   2   3
ENDBRANCH   1   2
BRANCH   1  26
ATOM     26  C   UNL A   1      35.204  31.912  29.820  1.00  0.00     0.275 C 
BRANCH  26  27
ATOM     27  O   UNL A   1      36.111  30.798  29.894  1.00  0.00    -0.458 OA
BRANCH  27  28
ATOM     28  C   UNL A   1      37.051  30.868  30.863  1.00  0.00     0.338 C 
ATOM     29  O   UNL A   1      36.881  31.135  32.040  1.00  0.00    -0.246 OA
BRANCH  28  30
ATOM     30  C   UNL A   1      38.341  30.452  30.297  1.00  0.00     0.060 A 
ATOM     31  C   UNL A   1      39.411  30.199  31.160  1.00  0.00     0.016 A 
ATOM     32  C   UNL A   1      38.497  30.345  28.915  1.00  0.00     0.016 A 
ATOM     33  C   UNL A   1      40.649  29.824  30.640  1.00  0.00     0.010 A 
ATOM     34  C   UNL A   1      39.736  29.965  28.396  1.00  0.00     0.010 A 
ATOM     35  C   UNL A   1      40.819  29.705  29.254  1.00  0.00    -0.014 A 
BRANCH  35  36
ATOM     36  C   UNL A   1      42.139  29.335  28.692  1.00  0.00     0.031 A 
ATOM     37  C   UNL A   1      42.389  27.924  28.247  1.00  0.00     0.074 A 
ATOM     38  C   UNL A   1      43.110  30.263  28.601  1.00  0.00     0.049 A 
ATOM     39  N   UNL A   1      43.497  27.375  27.823  1.00  0.00    -0.248 NA
ATOM     40  C   UNL A   1      41.238  27.009  28.291  1.00  0.00     0.031 C 
ATOM     41  C   UNL A   1      42.970  31.671  28.973  1.00  0.00     0.029 A 
ATOM     42  N   UNL A   1      44.410  30.156  28.177  1.00  0.00    -0.354 N 
ATOM     43  C   UNL A   1      43.184  26.047  27.561  1.00  0.00     0.074 A 
ATOM     44  C   UNL A   1      41.787  25.868  27.896  1.00  0.00     0.031 C 
ATOM     45  C   UNL A   1      44.139  32.297  28.763  1.00  0.00     0.029 A 
ATOM     46  C   UNL A   1      45.121  31.328  28.284  1.00  0.00     0.049 A 
ATOM     47  H   UNL A   1      44.797  29.320  27.827  1.00  0.00     0.167 HD
ATOM     48  C   UNL A   1      43.989  25.070  27.079  1.00  0.00     0.037 A 
ATOM     49  C   UNL A   1      46.423  31.583  28.049  1.00  0.00     0.037 A 
ATOM     50  C   UNL A   1      45.378  25.260  26.748  1.00  0.00     0.049 A 
ATOM     51  C   UNL A   1      47.313  30.466  27.573  1.00  0.00     0.074 A 
ATOM     52  C   UNL A   1      46.279  24.337  26.247  1.00  0.00     0.029 A 
ATOM     53  N   UNL A   1      46.069  26.455  26.891  1.00  0.00    -0.354 N 
ATOM     54  N   UNL A   1      47.005  29.215  27.326  1.00  0.00    -0.248 NA
ATOM     55  C   UNL A   1      48.728  30.793  27.346  1.00  0.00     0.031 C 
ATOM     56  C   UNL A   1      47.524  24.964  26.124  1.00  0.00     0.029 A 
ATOM     57  C   UNL A   1      47.389  26.290  26.505  1.00  0.00     0.049 A 
ATOM     58  H   UNL A   1      45.678  27.298  27.218  1.00  0.00     0.167 HD
ATOM     59  C   UNL A   1      48.181  28.611  26.895  1.00  0.00     0.074 A 
ATOM     60  C   UNL A   1      49.204  29.637  26.906  1.00  0.00     0.031 C 
ATOM     61  C   UNL A   1      48.394  27.325  26.520  1.00  0.00     0.037 A 
BRANCH  48  62
ATOM     62  C   UNL A   1      43.390  23.701  26.911  1.00  0.00     0.058 A 
ATOM     63  C   UNL A   1      43.209  22.835  28.001  1.00  0.00     0.135 A 
ATOM     64  C   UNL A   1      42.982  23.253  25.644  1.00  0.00     0.135 A 
ATOM     65  F   UNL A   1      43.597  23.207  29.232  1.00  0.00    -0.206 F 
ATOM     66  C   UNL A   1      42.675  21.560  27.837  1.00  0.00     0.059 A 
ATOM     67  C   UNL A   1      42.423  21.992  25.461  1.00  0.00     0.059 A 
ATOM     68  F   UNL A   1      43.132  24.040  24.568  1.00  0.00    -0.206 F 
ATOM     69  C   UNL A   1      42.291  21.145  26.561  1.00  0.00     0.060 A 
BRANCH  69  70
ATOM     70  S   UNL A   1      41.615  19.484  26.357  1.00  0.00     0.124 S 
ATOM     71  O   UNL A   1      42.406  18.984  25.236  1.00  0.00    -0.237 OA
ATOM     72  O   UNL A   1      41.895  18.869  27.651  1.00  0.00    -0.237 OA
ATOM     73  O   UNL A   1      40.205  19.722  26.072  1.00  0.00    -0.744 OA
ENDBRANCH  69  70
ENDBRANCH  48  62
BRANCH  49  74
ATOM     74  C   UNL A   1      46.961  32.950  28.268  1.00  0.00     0.058 A 
ATOM     75  C   UNL A   1      46.893  33.923  27.261  1.00  0.00     0.135 A 
ATOM     76  C   UNL A   1      47.533  33.320  29.495  1.00  0.00     0.135 A 
ATOM     77  F   UNL A   1      46.364  33.614  26.066  1.00  0.00    -0.206 F 
ATOM     78  C   UNL A   1      47.377  35.212  27.458  1.00  0.00     0.059 A 
ATOM     79  C   UNL A   1      48.004  34.609  29.726  1.00  0.00     0.059 A 
ATOM     80  F   UNL A   1      47.613  32.428  30.497  1.00  0.00    -0.206 F 
ATOM     81  C   UNL A   1      47.928  35.547  28.697  1.00  0.00     0.060 A 
BRANCH  81  82
ATOM     82  S   UNL A   1      48.499  37.239  28.963  1.00  0.00     0.124 S 
ATOM     83  O   UNL A   1      49.925  37.116  28.679  1.00  0.00    -0.237 OA
ATOM     84  O   UNL A   1      47.716  37.987  27.985  1.00  0.00    -0.237 OA
ATOM     85  O   UNL A   1      48.152  37.494  30.358  1.00  0.00    -0.744 OA
ENDBRANCH  81  82
ENDBRANCH  49  74
BRANCH  61  86
ATOM     86  C   UNL A   1      49.777  26.960  26.061  1.00  0.00     0.058 A 
ATOM     87  C   UNL A   1      50.172  27.103  24.722  1.00  0.00     0.135 A 
ATOM     88  C   UNL A   1      50.736  26.512  26.985  1.00  0.00     0.135 A 
ATOM     89  F   UNL A   1      49.291  27.520  23.800  1.00  0.00    -0.206 F 
ATOM     90  C   UNL A   1      51.465  26.798  24.310  1.00  0.00     0.059 A 
ATOM     91  C   UNL A   1      52.042  26.224  26.599  1.00  0.00     0.059 A 
ATOM     92  F   UNL A   1      50.413  26.366  28.279  1.00  0.00    -0.206 F 
ATOM     93  C   UNL A   1      52.394  26.361  25.257  1.00  0.00     0.060 A 
BRANCH  93  94
ATOM     94  S   UNL A   1      54.080  26.006  24.718  1.00  0.00     0.124 S 
ATOM     95  O   UNL A   1      54.859  26.863  25.606  1.00  0.00    -0.237 OA
ATOM     96  O   UNL A   1      54.193  24.572  24.962  1.00  0.00    -0.237 OA
ATOM     97  O   UNL A   1      54.077  26.396  23.311  1.00  0.00    -0.744 OA
ENDBRANCH  93  94
ENDBRANCH  61  86
ENDBRANCH  35  36
ENDBRANCH  28  30
ENDBRANCH  27  28
ENDBRANCH  26  27
ENDBRANCH   1  26
TORSDOF 17
ENDMDL
