MODEL 1
REMARK VINA RESULT:     -11.9      0.000      0.000
REMARK SMILES CCOC(=O)c1ccc(NC(=O)[C@H]2CC(C)=C(C)C[C@@H]2C(=O)OCCOC(=O)c2ccc(-c3c4nc(c(-c5c(F)cc(S(=O)(=O)[O-])cc5F)c5ccc([nH]5)c(-c5c(F)cc(S(=O)(=O)[O-])cc5F)c5nc(c(-c6c(F)cc(S(=O)(=O)[O-])cc6F)c6ccc3[nH]6)C=C5)C=C4)cc2)cc1
REMARK SMILES IDX 24 1 23 2 21 3 22 4 20 5 13 6 14 7 15 8 19 9 16 10 17 11
REMARK SMILES IDX 18 12 11 13 10 14 12 16 9 17 6 18 7 19 96 20 8 21 95 22 4 23
REMARK SMILES IDX 5 24 3 25 2 26 1 27 25 28 26 29 27 30 28 31 29 32 30 33
REMARK SMILES IDX 94 34 31 35 93 36 32 37 33 38 34 39 87 40 35 41 92 42 86 43
REMARK SMILES IDX 88 44 36 45 91 46 85 47 84 48 37 50 71 51 50 52 70 53 51 54
REMARK SMILES IDX 54 55 69 56 89 57 52 58 53 59 68 61 90 62 55 63 38 64 39 65
REMARK SMILES IDX 48 66 40 67 41 68 47 69 49 70 42 71 43 72 44 73 45 74 46 75
REMARK SMILES IDX 72 76 73 77 82 78 74 79 75 80 81 81 83 82 76 83 77 84 78 85
REMARK SMILES IDX 79 86 80 87 56 88 57 89 66 90 58 91 59 92 65 93 67 94 60 95
REMARK SMILES IDX 61 96 62 97 63 98 64 99
REMARK H PARENT 10 15 88 49 54 60
REMARK Flexibility Score: inf
ROOT
ATOM      1  C   UNL A   1      36.441  22.518  26.117  1.00  0.00     0.274 C 
ENDROOT
BRANCH   1   2
ATOM      2  O   UNL A   1      35.369  23.487  26.091  1.00  0.00    -0.462 OA
BRANCH   2   3
ATOM      3  C   UNL A   1      34.229  23.123  26.743  1.00  0.00     0.310 C 
ATOM      4  O   UNL A   1      34.204  22.315  27.663  1.00  0.00    -0.252 OA
BRANCH   3   5
ATOM      5  C   UNL A   1      32.988  23.804  26.156  1.00  0.00     0.116 C 
ATOM      6  C   UNL A   1      31.763  22.843  26.187  1.00  0.00     0.097 C 
ATOM      7  C   UNL A   1      31.295  22.358  24.794  1.00  0.00     0.045 C 
ATOM      8  C   UNL A   1      32.309  22.390  23.670  1.00  0.00    -0.074 C 
ATOM      9  C   UNL A   1      33.392  24.330  24.766  1.00  0.00     0.046 C 
ATOM     10  C   UNL A   1      32.066  21.415  22.543  1.00  0.00     0.039 C 
ATOM     11  C   UNL A   1      33.293  23.313  23.654  1.00  0.00    -0.073 C 
ATOM     12  C   UNL A   1      34.303  23.427  22.540  1.00  0.00     0.039 C 
BRANCH   6  13
ATOM     13  C   UNL A   1      30.541  23.457  26.895  1.00  0.00     0.228 C 
ATOM     14  N   UNL A   1      30.081  24.747  26.762  1.00  0.00    -0.326 N 
ATOM     15  H   UNL A   1      29.456  24.979  27.485  1.00  0.00     0.169 HD
ATOM     16  O   UNL A   1      29.958  22.770  27.751  1.00  0.00    -0.274 OA
BRANCH  14  17
ATOM     17  C   UNL A   1      30.261  25.832  25.869  1.00  0.00     0.041 A 
ATOM     18  C   UNL A   1      30.677  27.915  23.942  1.00  0.00     0.060 A 
ATOM     19  C   UNL A   1      31.292  27.924  25.178  1.00  0.00     0.018 A 
ATOM     20  C   UNL A   1      29.872  26.826  23.627  1.00  0.00     0.018 A 
ATOM     21  C   UNL A   1      31.035  26.936  26.138  1.00  0.00     0.027 A 
ATOM     22  C   UNL A   1      29.687  25.784  24.580  1.00  0.00     0.027 A 
BRANCH  18  23
ATOM     23  C   UNL A   1      30.947  29.086  23.073  1.00  0.00     0.338 C 
ATOM     24  O   UNL A   1      31.948  29.182  22.378  1.00  0.00    -0.246 OA
BRANCH  23  25
ATOM     25  O   UNL A   1      30.036  30.052  23.343  1.00  0.00    -0.462 OA
BRANCH  25  26
ATOM     26  C   UNL A   1      28.928  30.219  22.432  1.00  0.00     0.230 C 
ATOM     27  C   UNL A   1      27.637  30.499  23.187  1.00  0.00     0.049 C 
ENDBRANCH  25  26
ENDBRANCH  23  25
ENDBRANCH  18  23
ENDBRANCH  14  17
ENDBRANCH   6  13
ENDBRANCH   3   5
ENDBRANCH   2   3
ENDBRANCH   1   2
BRANCH   1  28
ATOM     28  C   UNL A   1      37.816  23.124  25.821  1.00  0.00     0.275 C 
BRANCH  28  29
ATOM     29  O   UNL A   1      38.035  24.344  26.568  1.00  0.00    -0.458 OA
BRANCH  29  30
ATOM     30  C   UNL A   1      39.312  24.770  26.491  1.00  0.00     0.338 C 
ATOM     31  O   UNL A   1      39.971  24.790  25.460  1.00  0.00    -0.246 OA
BRANCH  30  32
ATOM     32  C   UNL A   1      39.896  25.299  27.748  1.00  0.00     0.060 A 
ATOM     33  C   UNL A   1      39.051  25.419  28.855  1.00  0.00     0.016 A 
ATOM     34  C   UNL A   1      41.010  26.136  27.660  1.00  0.00     0.016 A 
ATOM     35  C   UNL A   1      39.184  26.505  29.732  1.00  0.00     0.010 A 
ATOM     36  C   UNL A   1      41.179  27.183  28.592  1.00  0.00     0.010 A 
ATOM     37  C   UNL A   1      40.207  27.449  29.572  1.00  0.00    -0.014 A 
BRANCH  37  38
ATOM     38  C   UNL A   1      40.359  28.559  30.554  1.00  0.00     0.031 A 
ATOM     39  C   UNL A   1      41.442  28.675  31.602  1.00  0.00     0.074 A 
ATOM     40  C   UNL A   1      39.480  29.566  30.459  1.00  0.00     0.049 A 
ATOM     41  N   UNL A   1      41.421  29.302  32.755  1.00  0.00    -0.248 NA
ATOM     42  C   UNL A   1      42.723  28.027  31.326  1.00  0.00     0.031 C 
ATOM     43  C   UNL A   1      38.490  29.710  29.394  1.00  0.00     0.029 A 
ATOM     44  N   UNL A   1      39.298  30.659  31.257  1.00  0.00    -0.354 N 
ATOM     45  C   UNL A   1      42.584  28.920  33.433  1.00  0.00     0.074 A 
ATOM     46  C   UNL A   1      43.358  28.144  32.492  1.00  0.00     0.031 C 
ATOM     47  C   UNL A   1      37.815  30.848  29.590  1.00  0.00     0.029 A 
ATOM     48  C   UNL A   1      38.254  31.442  30.849  1.00  0.00     0.049 A 
ATOM     49  H   UNL A   1      39.858  30.861  32.040  1.00  0.00     0.167 HD
ATOM     50  C   UNL A   1      42.901  29.159  34.734  1.00  0.00     0.037 A 
ATOM     51  C   UNL A   1      37.674  32.492  31.453  1.00  0.00     0.037 A 
ATOM     52  C   UNL A   1      42.223  30.171  35.523  1.00  0.00     0.049 A 
ATOM     53  C   UNL A   1      38.180  32.939  32.785  1.00  0.00     0.074 A 
ATOM     54  C   UNL A   1      42.477  30.584  36.822  1.00  0.00     0.029 A 
ATOM     55  N   UNL A   1      41.214  30.994  35.042  1.00  0.00    -0.354 N 
ATOM     56  N   UNL A   1      39.091  32.382  33.548  1.00  0.00    -0.248 NA
ATOM     57  C   UNL A   1      37.579  34.154  33.343  1.00  0.00     0.031 C 
ATOM     58  C   UNL A   1      41.625  31.655  37.122  1.00  0.00     0.029 A 
ATOM     59  C   UNL A   1      40.874  31.939  35.995  1.00  0.00     0.049 A 
ATOM     60  H   UNL A   1      40.801  30.917  34.152  1.00  0.00     0.167 HD
ATOM     61  C   UNL A   1      39.173  33.180  34.680  1.00  0.00     0.074 A 
ATOM     62  C   UNL A   1      38.241  34.274  34.485  1.00  0.00     0.031 C 
ATOM     63  C   UNL A   1      39.942  33.017  35.785  1.00  0.00     0.037 A 
BRANCH  50  64
ATOM     64  C   UNL A   1      43.946  28.316  35.445  1.00  0.00     0.058 A 
ATOM     65  C   UNL A   1      45.243  28.747  35.753  1.00  0.00     0.135 A 
ATOM     66  C   UNL A   1      43.566  27.049  35.945  1.00  0.00     0.135 A 
ATOM     67  F   UNL A   1      45.678  29.944  35.330  1.00  0.00    -0.206 F 
ATOM     68  C   UNL A   1      46.123  27.960  36.506  1.00  0.00     0.059 A 
ATOM     69  C   UNL A   1      44.413  26.263  36.726  1.00  0.00     0.059 A 
ATOM     70  F   UNL A   1      42.335  26.570  35.706  1.00  0.00    -0.206 F 
ATOM     71  C   UNL A   1      45.698  26.721  36.991  1.00  0.00     0.060 A 
BRANCH  71  72
ATOM     72  S   UNL A   1      46.821  25.730  38.006  1.00  0.00     0.124 S 
ATOM     73  O   UNL A   1      47.873  25.410  37.046  1.00  0.00    -0.237 OA
ATOM     74  O   UNL A   1      47.196  26.659  39.068  1.00  0.00    -0.237 OA
ATOM     75  O   UNL A   1      45.994  24.604  38.431  1.00  0.00    -0.744 OA
ENDBRANCH  71  72
ENDBRANCH  50  64
BRANCH  51  76
ATOM     76  C   UNL A   1      36.550  33.155  30.758  1.00  0.00     0.058 A 
ATOM     77  C   UNL A   1      35.250  33.054  31.265  1.00  0.00     0.135 A 
ATOM     78  C   UNL A   1      36.783  34.027  29.683  1.00  0.00     0.135 A 
ATOM     79  F   UNL A   1      34.993  32.238  32.298  1.00  0.00    -0.206 F 
ATOM     80  C   UNL A   1      34.213  33.811  30.738  1.00  0.00     0.059 A 
ATOM     81  C   UNL A   1      35.769  34.816  29.160  1.00  0.00     0.059 A 
ATOM     82  F   UNL A   1      38.026  34.181  29.197  1.00  0.00    -0.206 F 
ATOM     83  C   UNL A   1      34.486  34.702  29.697  1.00  0.00     0.060 A 
BRANCH  83  84
ATOM     84  S   UNL A   1      33.161  35.773  29.108  1.00  0.00     0.124 S 
ATOM     85  O   UNL A   1      32.370  34.845  28.309  1.00  0.00    -0.237 OA
ATOM     86  O   UNL A   1      32.551  36.225  30.355  1.00  0.00    -0.237 OA
ATOM     87  O   UNL A   1      33.874  36.805  28.360  1.00  0.00    -0.744 OA
ENDBRANCH  83  84
ENDBRANCH  51  76
BRANCH  63  88
ATOM     88  C   UNL A   1      39.829  34.074  36.845  1.00  0.00     0.058 A 
ATOM     89  C   UNL A   1      38.977  33.920  37.948  1.00  0.00     0.135 A 
ATOM     90  C   UNL A   1      40.569  35.262  36.740  1.00  0.00     0.135 A 
ATOM     91  F   UNL A   1      38.246  32.803  38.089  1.00  0.00    -0.206 F 
ATOM     92  C   UNL A   1      38.822  34.933  38.889  1.00  0.00     0.059 A 
ATOM     93  C   UNL A   1      40.448  36.278  37.682  1.00  0.00     0.059 A 
ATOM     94  F   UNL A   1      41.406  35.449  35.708  1.00  0.00    -0.206 F 
ATOM     95  C   UNL A   1      39.555  36.113  38.741  1.00  0.00     0.060 A 
BRANCH  95  96
ATOM     96  S   UNL A   1      39.321  37.434  39.947  1.00  0.00     0.124 S 
ATOM     97  O   UNL A   1      38.395  38.314  39.241  1.00  0.00    -0.237 OA
ATOM     98  O   UNL A   1      38.765  36.717  41.092  1.00  0.00    -0.237 OA
ATOM     99  O   UNL A   1      40.668  37.961  40.139  1.00  0.00    -0.744 OA
ENDBRANCH  95  96
ENDBRANCH  63  88
ENDBRANCH  37  38
ENDBRANCH  30  32
ENDBRANCH  29  30
ENDBRANCH  28  29
ENDBRANCH   1  28
TORSDOF 19
ENDMDL
MODEL 2
REMARK VINA RESULT:     -11.7      5.515      9.208
REMARK SMILES CCOC(=O)c1ccc(NC(=O)[C@H]2CC(C)=C(C)C[C@@H]2C(=O)OCCOC(=O)c2ccc(-c3c4nc(c(-c5c(F)cc(S(=O)(=O)[O-])cc5F)c5ccc([nH]5)c(-c5c(F)cc(S(=O)(=O)[O-])cc5F)c5nc(c(-c6c(F)cc(S(=O)(=O)[O-])cc6F)c6ccc3[nH]6)C=C5)C=C4)cc2)cc1
REMARK SMILES IDX 24 1 23 2 21 3 22 4 20 5 13 6 14 7 15 8 19 9 16 10 17 11
REMARK SMILES IDX 18 12 11 13 10 14 12 16 9 17 6 18 7 19 96 20 8 21 95 22 4 23
REMARK SMILES IDX 5 24 3 25 2 26 1 27 25 28 26 29 27 30 28 31 29 32 30 33
REMARK SMILES IDX 94 34 31 35 93 36 32 37 33 38 34 39 87 40 35 41 92 42 86 43
REMARK SMILES IDX 88 44 36 45 91 46 85 47 84 48 37 50 71 51 50 52 70 53 51 54
REMARK SMILES IDX 54 55 69 56 89 57 52 58 53 59 68 61 90 62 55 63 38 64 39 65
REMARK SMILES IDX 48 66 40 67 41 68 47 69 49 70 42 71 43 72 44 73 45 74 46 75
REMARK SMILES IDX 72 76 73 77 82 78 74 79 75 80 81 81 83 82 76 83 77 84 78 85
REMARK SMILES IDX 79 86 80 87 56 88 57 89 66 90 58 91 59 92 65 93 67 94 60 95
REMARK SMILES IDX 61 96 62 97 63 98 64 99
REMARK H PARENT 10 15 88 49 54 60
REMARK Flexibility Score: inf
ROOT
ATOM      1  C   UNL A   1      36.056  21.546  24.758  1.00  0.00     0.274 C 
ENDROOT
BRANCH   1   2
ATOM      2  O   UNL A   1      35.259  22.367  25.642  1.00  0.00    -0.462 OA
BRANCH   2   3
ATOM      3  C   UNL A   1      35.132  23.674  25.279  1.00  0.00     0.310 C 
ATOM      4  O   UNL A   1      36.084  24.419  25.088  1.00  0.00    -0.252 OA
BRANCH   3   5
ATOM      5  C   UNL A   1      33.664  24.106  25.190  1.00  0.00     0.116 C 
ATOM      6  C   UNL A   1      32.727  23.004  25.765  1.00  0.00     0.097 C 
ATOM      7  C   UNL A   1      31.854  22.288  24.707  1.00  0.00     0.045 C 
ATOM      8  C   UNL A   1      32.342  22.312  23.273  1.00  0.00    -0.074 C 
ATOM      9  C   UNL A   1      33.411  24.500  23.722  1.00  0.00     0.046 C 
ATOM     10  C   UNL A   1      31.858  21.178  22.400  1.00  0.00     0.039 C 
ATOM     11  C   UNL A   1      33.071  23.346  22.808  1.00  0.00    -0.073 C 
ATOM     12  C   UNL A   1      33.545  23.452  21.381  1.00  0.00     0.039 C 
BRANCH   6  13
ATOM     13  C   UNL A   1      31.782  23.535  26.858  1.00  0.00     0.228 C 
ATOM     14  N   UNL A   1      31.125  24.744  26.854  1.00  0.00    -0.326 N 
ATOM     15  H   UNL A   1      30.787  24.970  27.750  1.00  0.00     0.169 HD
ATOM     16  O   UNL A   1      31.664  22.869  27.901  1.00  0.00    -0.274 OA
BRANCH  14  17
ATOM     17  C   UNL A   1      30.801  25.753  25.913  1.00  0.00     0.041 A 
ATOM     18  C   UNL A   1      30.174  27.680  23.883  1.00  0.00     0.060 A 
ATOM     19  C   UNL A   1      31.155  27.901  24.829  1.00  0.00     0.018 A 
ATOM     20  C   UNL A   1      29.516  26.455  23.907  1.00  0.00     0.018 A 
ATOM     21  C   UNL A   1      31.412  26.982  25.855  1.00  0.00     0.027 A 
ATOM     22  C   UNL A   1      29.848  25.494  24.905  1.00  0.00     0.027 A 
BRANCH  18  23
ATOM     23  C   UNL A   1      29.927  28.788  22.930  1.00  0.00     0.338 C 
ATOM     24  O   UNL A   1      30.428  28.832  21.816  1.00  0.00    -0.246 OA
BRANCH  23  25
ATOM     25  O   UNL A   1      29.255  29.776  23.571  1.00  0.00    -0.462 OA
BRANCH  25  26
ATOM     26  C   UNL A   1      27.921  30.097  23.120  1.00  0.00     0.230 C 
ATOM     27  C   UNL A   1      27.602  31.565  23.358  1.00  0.00     0.049 C 
ENDBRANCH  25  26
ENDBRANCH  23  25
ENDBRANCH  18  23
ENDBRANCH  14  17
ENDBRANCH   6  13
ENDBRANCH   3   5
ENDBRANCH   2   3
ENDBRANCH   1   2
BRANCH   1  28
ATOM     28  C   UNL A   1      37.400  21.130  25.362  1.00  0.00     0.275 C 
BRANCH  28  29
ATOM     29  O   UNL A   1      38.359  22.213  25.332  1.00  0.00    -0.458 OA
BRANCH  29  30
ATOM     30  C   UNL A   1      39.385  22.012  26.184  1.00  0.00     0.338 C 
ATOM     31  O   UNL A   1      40.142  21.053  26.137  1.00  0.00    -0.246 OA
BRANCH  30  32
ATOM     32  C   UNL A   1      39.613  23.081  27.188  1.00  0.00     0.060 A 
ATOM     33  C   UNL A   1      39.089  24.347  26.917  1.00  0.00     0.016 A 
ATOM     34  C   UNL A   1      40.730  22.980  28.020  1.00  0.00     0.016 A 
ATOM     35  C   UNL A   1      39.802  25.500  27.276  1.00  0.00     0.010 A 
ATOM     36  C   UNL A   1      41.400  24.149  28.441  1.00  0.00     0.010 A 
ATOM     37  C   UNL A   1      41.010  25.419  27.981  1.00  0.00    -0.014 A 
BRANCH  37  38
ATOM     38  C   UNL A   1      41.716  26.662  28.401  1.00  0.00     0.031 A 
ATOM     39  C   UNL A   1      41.164  27.727  29.320  1.00  0.00     0.074 A 
ATOM     40  C   UNL A   1      42.970  26.816  27.956  1.00  0.00     0.049 A 
ATOM     41  N   UNL A   1      41.462  29.005  29.386  1.00  0.00    -0.248 NA
ATOM     42  C   UNL A   1      40.168  27.321  30.308  1.00  0.00     0.031 C 
ATOM     43  C   UNL A   1      43.723  25.804  27.219  1.00  0.00     0.029 A 
ATOM     44  N   UNL A   1      43.829  27.869  28.083  1.00  0.00    -0.354 N 
ATOM     45  C   UNL A   1      40.522  29.584  30.246  1.00  0.00     0.074 A 
ATOM     46  C   UNL A   1      39.758  28.489  30.799  1.00  0.00     0.031 C 
ATOM     47  C   UNL A   1      44.950  26.279  26.976  1.00  0.00     0.029 A 
ATOM     48  C   UNL A   1      45.020  27.659  27.444  1.00  0.00     0.049 A 
ATOM     49  H   UNL A   1      43.615  28.691  28.580  1.00  0.00     0.167 HD
ATOM     50  C   UNL A   1      40.310  30.910  30.469  1.00  0.00     0.037 A 
ATOM     51  C   UNL A   1      46.036  28.506  27.209  1.00  0.00     0.037 A 
ATOM     52  C   UNL A   1      41.285  31.921  30.108  1.00  0.00     0.049 A 
ATOM     53  C   UNL A   1      45.931  29.920  27.678  1.00  0.00     0.074 A 
ATOM     54  C   UNL A   1      41.252  33.289  30.335  1.00  0.00     0.029 A 
ATOM     55  N   UNL A   1      42.515  31.652  29.525  1.00  0.00    -0.354 N 
ATOM     56  N   UNL A   1      44.910  30.529  28.231  1.00  0.00    -0.248 NA
ATOM     57  C   UNL A   1      47.114  30.764  27.488  1.00  0.00     0.031 C 
ATOM     58  C   UNL A   1      42.461  33.841  29.893  1.00  0.00     0.029 A 
ATOM     59  C   UNL A   1      43.264  32.813  29.432  1.00  0.00     0.049 A 
ATOM     60  H   UNL A   1      42.811  30.764  29.221  1.00  0.00     0.167 HD
ATOM     61  C   UNL A   1      45.327  31.833  28.457  1.00  0.00     0.074 A 
ATOM     62  C   UNL A   1      46.703  31.912  28.007  1.00  0.00     0.031 C 
ATOM     63  C   UNL A   1      44.630  32.873  28.979  1.00  0.00     0.037 A 
BRANCH  50  64
ATOM     64  C   UNL A   1      38.994  31.396  31.052  1.00  0.00     0.058 A 
ATOM     65  C   UNL A   1      38.753  31.599  32.417  1.00  0.00     0.135 A 
ATOM     66  C   UNL A   1      37.967  31.792  30.164  1.00  0.00     0.135 A 
ATOM     67  F   UNL A   1      39.682  31.266  33.326  1.00  0.00    -0.206 F 
ATOM     68  C   UNL A   1      37.553  32.153  32.879  1.00  0.00     0.059 A 
ATOM     69  C   UNL A   1      36.778  32.377  30.599  1.00  0.00     0.059 A 
ATOM     70  F   UNL A   1      38.126  31.644  28.838  1.00  0.00    -0.206 F 
ATOM     71  C   UNL A   1      36.573  32.542  31.963  1.00  0.00     0.060 A 
BRANCH  71  72
ATOM     72  S   UNL A   1      35.046  33.304  32.564  1.00  0.00     0.124 S 
ATOM     73  O   UNL A   1      35.114  33.004  33.991  1.00  0.00    -0.237 OA
ATOM     74  O   UNL A   1      35.225  34.707  32.204  1.00  0.00    -0.237 OA
ATOM     75  O   UNL A   1      34.001  32.602  31.823  1.00  0.00    -0.744 OA
ENDBRANCH  71  72
ENDBRANCH  50  64
BRANCH  51  76
ATOM     76  C   UNL A   1      47.216  27.984  26.487  1.00  0.00     0.058 A 
ATOM     77  C   UNL A   1      47.203  27.888  25.092  1.00  0.00     0.135 A 
ATOM     78  C   UNL A   1      48.421  27.736  27.164  1.00  0.00     0.135 A 
ATOM     79  F   UNL A   1      46.072  28.128  24.412  1.00  0.00    -0.206 F 
ATOM     80  C   UNL A   1      48.355  27.576  24.383  1.00  0.00     0.059 A 
ATOM     81  C   UNL A   1      49.591  27.453  26.475  1.00  0.00     0.059 A 
ATOM     82  F   UNL A   1      48.482  27.860  28.500  1.00  0.00    -0.206 F 
ATOM     83  C   UNL A   1      49.547  27.376  25.082  1.00  0.00     0.060 A 
BRANCH  83  84
ATOM     84  S   UNL A   1      51.062  27.100  24.145  1.00  0.00     0.124 S 
ATOM     85  O   UNL A   1      51.850  28.271  24.514  1.00  0.00    -0.237 OA
ATOM     86  O   UNL A   1      51.527  25.823  24.678  1.00  0.00    -0.237 OA
ATOM     87  O   UNL A   1      50.597  27.059  22.762  1.00  0.00    -0.744 OA
ENDBRANCH  83  84
ENDBRANCH  51  76
BRANCH  63  88
ATOM     88  C   UNL A   1      45.369  34.172  29.125  1.00  0.00     0.058 A 
ATOM     89  C   UNL A   1      46.058  34.498  30.302  1.00  0.00     0.135 A 
ATOM     90  C   UNL A   1      45.366  35.107  28.078  1.00  0.00     0.135 A 
ATOM     91  F   UNL A   1      46.085  33.637  31.331  1.00  0.00    -0.206 F 
ATOM     92  C   UNL A   1      46.679  35.732  30.457  1.00  0.00     0.059 A 
ATOM     93  C   UNL A   1      46.001  36.338  28.203  1.00  0.00     0.059 A 
ATOM     94  F   UNL A   1      44.729  34.835  26.928  1.00  0.00    -0.206 F 
ATOM     95  C   UNL A   1      46.636  36.650  29.405  1.00  0.00     0.060 A 
BRANCH  95  96
ATOM     96  S   UNL A   1      47.415  38.261  29.631  1.00  0.00     0.124 S 
ATOM     97  O   UNL A   1      47.145  38.899  28.346  1.00  0.00    -0.237 OA
ATOM     98  O   UNL A   1      46.685  38.805  30.773  1.00  0.00    -0.237 OA
ATOM     99  O   UNL A   1      48.813  37.930  29.887  1.00  0.00    -0.744 OA
ENDBRANCH  95  96
ENDBRANCH  63  88
ENDBRANCH  37  38
ENDBRANCH  30  32
ENDBRANCH  29  30
ENDBRANCH  28  29
ENDBRANCH   1  28
TORSDOF 19
ENDMDL
MODEL 3
REMARK VINA RESULT:     -11.5      1.274      2.286
REMARK SMILES CCOC(=O)c1ccc(NC(=O)[C@H]2CC(C)=C(C)C[C@@H]2C(=O)OCCOC(=O)c2ccc(-c3c4nc(c(-c5c(F)cc(S(=O)(=O)[O-])cc5F)c5ccc([nH]5)c(-c5c(F)cc(S(=O)(=O)[O-])cc5F)c5nc(c(-c6c(F)cc(S(=O)(=O)[O-])cc6F)c6ccc3[nH]6)C=C5)C=C4)cc2)cc1
REMARK SMILES IDX 24 1 23 2 21 3 22 4 20 5 13 6 14 7 15 8 19 9 16 10 17 11
REMARK SMILES IDX 18 12 11 13 10 14 12 16 9 17 6 18 7 19 96 20 8 21 95 22 4 23
REMARK SMILES IDX 5 24 3 25 2 26 1 27 25 28 26 29 27 30 28 31 29 32 30 33
REMARK SMILES IDX 94 34 31 35 93 36 32 37 33 38 34 39 87 40 35 41 92 42 86 43
REMARK SMILES IDX 88 44 36 45 91 46 85 47 84 48 37 50 71 51 50 52 70 53 51 54
REMARK SMILES IDX 54 55 69 56 89 57 52 58 53 59 68 61 90 62 55 63 38 64 39 65
REMARK SMILES IDX 48 66 40 67 41 68 47 69 49 70 42 71 43 72 44 73 45 74 46 75
REMARK SMILES IDX 72 76 73 77 82 78 74 79 75 80 81 81 83 82 76 83 77 84 78 85
REMARK SMILES IDX 79 86 80 87 56 88 57 89 66 90 58 91 59 92 65 93 67 94 60 95
REMARK SMILES IDX 61 96 62 97 63 98 64 99
REMARK H PARENT 10 15 88 49 54 60
REMARK Flexibility Score: inf
ROOT
ATOM      1  C   UNL A   1      36.591  23.116  25.854  1.00  0.00     0.274 C 
ENDROOT
BRANCH   1   2
ATOM      2  O   UNL A   1      35.934  24.295  25.334  1.00  0.00    -0.462 OA
BRANCH   2   3
ATOM      3  C   UNL A   1      34.634  24.459  25.708  1.00  0.00     0.310 C 
ATOM      4  O   UNL A   1      34.020  23.651  26.392  1.00  0.00    -0.252 OA
BRANCH   3   5
ATOM      5  C   UNL A   1      34.028  25.743  25.132  1.00  0.00     0.116 C 
ATOM      6  C   UNL A   1      33.431  26.630  26.263  1.00  0.00     0.097 C 
ATOM      7  C   UNL A   1      31.887  26.727  26.254  1.00  0.00     0.045 C 
ATOM      8  C   UNL A   1      31.124  25.611  25.571  1.00  0.00    -0.074 C 
ATOM      9  C   UNL A   1      33.041  25.307  24.032  1.00  0.00     0.046 C 
ATOM     10  C   UNL A   1      29.711  25.394  26.056  1.00  0.00     0.039 C 
ATOM     11  C   UNL A   1      31.662  24.944  24.530  1.00  0.00    -0.073 C 
ATOM     12  C   UNL A   1      30.936  23.856  23.778  1.00  0.00     0.039 C 
BRANCH   6  13
ATOM     13  C   UNL A   1      33.983  28.067  26.250  1.00  0.00     0.228 C 
ATOM     14  N   UNL A   1      33.568  29.095  25.434  1.00  0.00    -0.326 N 
ATOM     15  H   UNL A   1      34.219  29.831  25.428  1.00  0.00     0.169 HD
ATOM     16  O   UNL A   1      34.967  28.321  26.965  1.00  0.00    -0.274 OA
BRANCH  14  17
ATOM     17  C   UNL A   1      32.458  29.383  24.602  1.00  0.00     0.041 A 
ATOM     18  C   UNL A   1      30.109  29.906  23.041  1.00  0.00     0.060 A 
ATOM     19  C   UNL A   1      31.136  29.111  22.578  1.00  0.00     0.018 A 
ATOM     20  C   UNL A   1      30.218  30.420  24.329  1.00  0.00     0.018 A 
ATOM     21  C   UNL A   1      32.308  28.911  23.320  1.00  0.00     0.027 A 
ATOM     22  C   UNL A   1      31.377  30.139  25.106  1.00  0.00     0.027 A 
BRANCH  18  23
ATOM     23  C   UNL A   1      28.983  30.129  22.102  1.00  0.00     0.338 C 
ATOM     24  O   UNL A   1      28.229  29.236  21.744  1.00  0.00    -0.246 OA
BRANCH  23  25
ATOM     25  O   UNL A   1      29.079  31.381  21.592  1.00  0.00    -0.462 OA
BRANCH  25  26
ATOM     26  C   UNL A   1      28.136  32.376  22.046  1.00  0.00     0.230 C 
ATOM     27  C   UNL A   1      28.828  33.440  22.886  1.00  0.00     0.049 C 
ENDBRANCH  25  26
ENDBRANCH  23  25
ENDBRANCH  18  23
ENDBRANCH  14  17
ENDBRANCH   6  13
ENDBRANCH   3   5
ENDBRANCH   2   3
ENDBRANCH   1   2
BRANCH   1  28
ATOM     28  C   UNL A   1      38.105  23.282  26.008  1.00  0.00     0.275 C 
BRANCH  28  29
ATOM     29  O   UNL A   1      38.456  24.614  26.453  1.00  0.00    -0.458 OA
BRANCH  29  30
ATOM     30  C   UNL A   1      39.782  24.755  26.649  1.00  0.00     0.338 C 
ATOM     31  O   UNL A   1      40.634  24.517  25.804  1.00  0.00    -0.246 OA
BRANCH  30  32
ATOM     32  C   UNL A   1      40.188  25.297  27.970  1.00  0.00     0.060 A 
ATOM     33  C   UNL A   1      39.177  25.573  28.895  1.00  0.00     0.016 A 
ATOM     34  C   UNL A   1      41.388  26.005  28.056  1.00  0.00     0.016 A 
ATOM     35  C   UNL A   1      39.273  26.692  29.735  1.00  0.00     0.010 A 
ATOM     36  C   UNL A   1      41.505  27.084  28.959  1.00  0.00     0.010 A 
ATOM     37  C   UNL A   1      40.409  27.510  29.730  1.00  0.00    -0.014 A 
BRANCH  37  38
ATOM     38  C   UNL A   1      40.508  28.658  30.676  1.00  0.00     0.031 A 
ATOM     39  C   UNL A   1      41.571  28.844  31.734  1.00  0.00     0.074 A 
ATOM     40  C   UNL A   1      39.597  29.629  30.535  1.00  0.00     0.049 A 
ATOM     41  N   UNL A   1      41.510  29.508  32.865  1.00  0.00    -0.248 NA
ATOM     42  C   UNL A   1      42.877  28.233  31.499  1.00  0.00     0.031 C 
ATOM     43  C   UNL A   1      38.620  29.705  29.451  1.00  0.00     0.029 A 
ATOM     44  N   UNL A   1      39.366  30.741  31.292  1.00  0.00    -0.354 N 
ATOM     45  C   UNL A   1      42.675  29.189  33.572  1.00  0.00     0.074 A 
ATOM     46  C   UNL A   1      43.490  28.409  32.669  1.00  0.00     0.031 C 
ATOM     47  C   UNL A   1      37.903  30.824  29.599  1.00  0.00     0.029 A 
ATOM     48  C   UNL A   1      38.303  31.474  30.844  1.00  0.00     0.049 A 
ATOM     49  H   UNL A   1      39.907  30.988  32.076  1.00  0.00     0.167 HD
ATOM     50  C   UNL A   1      42.963  29.482  34.869  1.00  0.00     0.037 A 
ATOM     51  C   UNL A   1      37.678  32.523  31.404  1.00  0.00     0.037 A 
ATOM     52  C   UNL A   1      42.239  30.496  35.614  1.00  0.00     0.049 A 
ATOM     53  C   UNL A   1      38.148  33.031  32.727  1.00  0.00     0.074 A 
ATOM     54  C   UNL A   1      42.460  30.960  36.902  1.00  0.00     0.029 A 
ATOM     55  N   UNL A   1      41.211  31.267  35.091  1.00  0.00    -0.354 N 
ATOM     56  N   UNL A   1      39.065  32.531  33.521  1.00  0.00    -0.248 NA
ATOM     57  C   UNL A   1      37.498  34.243  33.235  1.00  0.00     0.031 C 
ATOM     58  C   UNL A   1      41.567  32.011  37.153  1.00  0.00     0.029 A 
ATOM     59  C   UNL A   1      40.824  32.231  36.007  1.00  0.00     0.049 A 
ATOM     60  H   UNL A   1      40.815  31.146  34.199  1.00  0.00     0.167 HD
ATOM     61  C   UNL A   1      39.103  33.369  34.627  1.00  0.00     0.074 A 
ATOM     62  C   UNL A   1      38.138  34.423  34.381  1.00  0.00     0.031 C 
ATOM     63  C   UNL A   1      39.860  33.269  35.747  1.00  0.00     0.037 A 
BRANCH  50  64
ATOM     64  C   UNL A   1      44.025  28.700  35.623  1.00  0.00     0.058 A 
ATOM     65  C   UNL A   1      45.362  29.098  35.760  1.00  0.00     0.135 A 
ATOM     66  C   UNL A   1      43.633  27.548  36.343  1.00  0.00     0.135 A 
ATOM     67  F   UNL A   1      45.813  30.189  35.123  1.00  0.00    -0.206 F 
ATOM     68  C   UNL A   1      46.265  28.386  36.560  1.00  0.00     0.059 A 
ATOM     69  C   UNL A   1      44.505  26.843  37.172  1.00  0.00     0.059 A 
ATOM     70  F   UNL A   1      42.365  27.109  36.276  1.00  0.00    -0.206 F 
ATOM     71  C   UNL A   1      45.827  27.262  37.264  1.00  0.00     0.060 A 
BRANCH  71  72
ATOM     72  S   UNL A   1      46.986  26.376  38.335  1.00  0.00     0.124 S 
ATOM     73  O   UNL A   1      47.446  27.447  39.213  1.00  0.00    -0.237 OA
ATOM     74  O   UNL A   1      46.136  25.368  38.960  1.00  0.00    -0.237 OA
ATOM     75  O   UNL A   1      47.982  25.857  37.401  1.00  0.00    -0.744 OA
ENDBRANCH  71  72
ENDBRANCH  50  64
BRANCH  51  76
ATOM     76  C   UNL A   1      36.543  33.123  30.671  1.00  0.00     0.058 A 
ATOM     77  C   UNL A   1      35.234  32.943  31.128  1.00  0.00     0.135 A 
ATOM     78  C   UNL A   1      36.764  34.016  29.610  1.00  0.00     0.135 A 
ATOM     79  F   UNL A   1      34.988  32.105  32.147  1.00  0.00    -0.206 F 
ATOM     80  C   UNL A   1      34.174  33.641  30.567  1.00  0.00     0.059 A 
ATOM     81  C   UNL A   1      35.725  34.748  29.054  1.00  0.00     0.059 A 
ATOM     82  F   UNL A   1      38.012  34.247  29.171  1.00  0.00    -0.206 F 
ATOM     83  C   UNL A   1      34.432  34.554  29.541  1.00  0.00     0.060 A 
BRANCH  83  84
ATOM     84  S   UNL A   1      33.068  35.550  28.909  1.00  0.00     0.124 S 
ATOM     85  O   UNL A   1      32.399  35.944  30.144  1.00  0.00    -0.237 OA
ATOM     86  O   UNL A   1      33.768  36.612  28.193  1.00  0.00    -0.237 OA
ATOM     87  O   UNL A   1      32.336  34.614  28.062  1.00  0.00    -0.744 OA
ENDBRANCH  83  84
ENDBRANCH  51  76
BRANCH  63  88
ATOM     88  C   UNL A   1      39.695  34.355  36.770  1.00  0.00     0.058 A 
ATOM     89  C   UNL A   1      40.399  35.565  36.678  1.00  0.00     0.135 A 
ATOM     90  C   UNL A   1      38.836  34.171  37.865  1.00  0.00     0.135 A 
ATOM     91  F   UNL A   1      41.234  35.786  35.650  1.00  0.00    -0.206 F 
ATOM     92  C   UNL A   1      40.296  36.538  37.666  1.00  0.00     0.059 A 
ATOM     93  C   UNL A   1      38.701  35.140  38.853  1.00  0.00     0.059 A 
ATOM     94  F   UNL A   1      38.134  33.034  37.990  1.00  0.00    -0.206 F 
ATOM     95  C   UNL A   1      39.452  36.311  38.755  1.00  0.00     0.060 A 
BRANCH  95  96
ATOM     96  S   UNL A   1      39.354  37.565  40.049  1.00  0.00     0.124 S 
ATOM     97  O   UNL A   1      39.041  36.753  41.220  1.00  0.00    -0.237 OA
ATOM     98  O   UNL A   1      40.693  38.148  40.022  1.00  0.00    -0.237 OA
ATOM     99  O   UNL A   1      38.284  38.444  39.589  1.00  0.00    -0.744 OA
ENDBRANCH  95  96
ENDBRANCH  63  88
ENDBRANCH  37  38
ENDBRANCH  30  32
ENDBRANCH  29  30
ENDBRANCH  28  29
ENDBRANCH   1  28
TORSDOF 19
ENDMDL
