MODEL 1
REMARK VINA RESULT:     -10.4      0.000      0.000
REMARK SMILES CCCc1noc(C2C[NH+](CC(=O)OCCOC(=O)c3ccc(-c4c5nc(c(-c6c(F)cc(S(=O)(=O)[O-])cc6F)c6ccc([nH]6)c(-c6c(F)cc(S(=O)(=O)[O-])cc6F)c6nc(c(-c7c(F)cc(S(=O)(=O)[O-])cc7F)c7ccc4[nH]7)C=C6)C=C5)cc3)C2)n1
REMARK SMILES IDX 15 1 14 2 12 3 13 4 11 5 10 6 8 7 9 8 86 9 7 11 4 12 5 13
REMARK SMILES IDX 87 14 6 15 3 16 2 17 1 18 16 19 17 20 18 21 19 22 20 23
REMARK SMILES IDX 21 24 85 25 22 26 84 27 23 28 24 29 25 30 78 31 26 32 83 33
REMARK SMILES IDX 77 34 79 35 27 36 82 37 76 38 75 39 28 41 62 42 41 43 61 44
REMARK SMILES IDX 42 45 45 46 60 47 80 48 43 49 44 50 59 52 81 53 46 54 29 55
REMARK SMILES IDX 30 56 39 57 31 58 32 59 38 60 40 61 33 62 34 63 35 64 36 65
REMARK SMILES IDX 37 66 63 67 64 68 73 69 65 70 66 71 72 72 74 73 67 74 68 75
REMARK SMILES IDX 69 76 70 77 71 78 47 79 48 80 57 81 49 82 50 83 56 84 58 85
REMARK SMILES IDX 51 86 52 87 53 88 54 89 55 90
REMARK H PARENT 10 10 79 40 45 51
REMARK Flexibility Score: inf
ROOT
ATOM      1  C   UNL A   1      39.757  21.294  26.364  1.00  0.00     0.274 C 
ENDROOT
BRANCH   1   2
ATOM      2  O   UNL A   1      38.541  22.013  26.053  1.00  0.00    -0.458 OA
BRANCH   2   3
ATOM      3  C   UNL A   1      37.718  21.441  25.131  1.00  0.00     0.361 C 
ATOM      4  O   UNL A   1      37.589  20.229  24.991  1.00  0.00    -0.245 OA
BRANCH   3   5
ATOM      5  C   UNL A   1      37.050  22.443  24.194  1.00  0.00     0.386 C 
BRANCH   5   6
ATOM      6  N   UNL A   1      35.578  22.611  24.158  1.00  0.00    -0.324 N 
ATOM      7  C   UNL A   1      34.843  23.984  25.601  1.00  0.00     0.188 C 
ATOM      8  C   UNL A   1      34.888  22.456  25.455  1.00  0.00     0.282 C 
ATOM      9  C   UNL A   1      35.092  23.997  24.074  1.00  0.00     0.282 C 
ATOM     10  H   UNL A   1      35.401  21.958  23.394  1.00  0.00     0.348 HD
BRANCH   7  11
ATOM     11  C   UNL A   1      33.574  24.661  26.041  1.00  0.00     0.241 A 
ATOM     12  C   UNL A   1      32.008  25.999  26.393  1.00  0.00     0.171 A 
ATOM     13  N   UNL A   1      31.520  24.843  26.857  1.00  0.00    -0.062 NA
ATOM     14  N   UNL A   1      33.295  25.939  25.919  1.00  0.00    -0.196 NA
ATOM     15  O   UNL A   1      32.550  23.944  26.601  1.00  0.00    -0.339 OA
BRANCH  12  16
ATOM     16  C   UNL A   1      31.215  27.250  26.400  1.00  0.00     0.081 C 
BRANCH  16  17
ATOM     17  C   UNL A   1      31.545  28.160  27.583  1.00  0.00     0.005 C 
ATOM     18  C   UNL A   1      32.402  29.356  27.194  1.00  0.00     0.004 C 
ENDBRANCH  16  17
ENDBRANCH  12  16
ENDBRANCH   7  11
ENDBRANCH   5   6
ENDBRANCH   3   5
ENDBRANCH   2   3
ENDBRANCH   1   2
BRANCH   1  19
ATOM     19  C   UNL A   1      40.949  22.240  26.540  1.00  0.00     0.275 C 
BRANCH  19  20
ATOM     20  O   UNL A   1      40.484  23.600  26.568  1.00  0.00    -0.458 OA
BRANCH  20  21
ATOM     21  C   UNL A   1      41.420  24.560  26.385  1.00  0.00     0.338 C 
ATOM     22  O   UNL A   1      42.265  24.592  25.508  1.00  0.00    -0.246 OA
BRANCH  21  23
ATOM     23  C   UNL A   1      41.298  25.586  27.440  1.00  0.00     0.060 A 
ATOM     24  C   UNL A   1      40.290  25.526  28.407  1.00  0.00     0.016 A 
ATOM     25  C   UNL A   1      42.192  26.658  27.428  1.00  0.00     0.016 A 
ATOM     26  C   UNL A   1      40.157  26.547  29.348  1.00  0.00     0.010 A 
ATOM     27  C   UNL A   1      42.100  27.645  28.410  1.00  0.00     0.010 A 
ATOM     28  C   UNL A   1      41.076  27.605  29.372  1.00  0.00    -0.014 A 
BRANCH  28  29
ATOM     29  C   UNL A   1      41.012  28.660  30.412  1.00  0.00     0.031 A 
ATOM     30  C   UNL A   1      41.893  28.580  31.625  1.00  0.00     0.074 A 
ATOM     31  C   UNL A   1      40.094  29.638  30.303  1.00  0.00     0.049 A 
ATOM     32  N   UNL A   1      41.853  29.287  32.725  1.00  0.00    -0.248 NA
ATOM     33  C   UNL A   1      42.948  27.555  31.603  1.00  0.00     0.031 C 
ATOM     34  C   UNL A   1      39.178  29.815  29.174  1.00  0.00     0.029 A 
ATOM     35  N   UNL A   1      39.752  30.646  31.170  1.00  0.00    -0.354 N 
ATOM     36  C   UNL A   1      42.850  28.769  33.544  1.00  0.00     0.074 A 
ATOM     37  C   UNL A   1      43.470  27.682  32.814  1.00  0.00     0.031 C 
ATOM     38  C   UNL A   1      38.365  30.850  29.426  1.00  0.00     0.029 A 
ATOM     39  C   UNL A   1      38.666  31.379  30.753  1.00  0.00     0.049 A 
ATOM     40  H   UNL A   1      40.236  30.826  32.007  1.00  0.00     0.167 HD
ATOM     41  C   UNL A   1      43.209  29.165  34.790  1.00  0.00     0.037 A 
ATOM     42  C   UNL A   1      37.960  32.336  31.384  1.00  0.00     0.037 A 
ATOM     43  C   UNL A   1      42.592  30.256  35.498  1.00  0.00     0.049 A 
ATOM     44  C   UNL A   1      38.370  32.760  32.764  1.00  0.00     0.074 A 
ATOM     45  C   UNL A   1      42.912  30.769  36.742  1.00  0.00     0.029 A 
ATOM     46  N   UNL A   1      41.519  31.000  35.024  1.00  0.00    -0.354 N 
ATOM     47  N   UNL A   1      39.331  32.280  33.517  1.00  0.00    -0.248 NA
ATOM     48  C   UNL A   1      37.606  33.852  33.378  1.00  0.00     0.031 C 
ATOM     49  C   UNL A   1      42.010  31.799  37.037  1.00  0.00     0.029 A 
ATOM     50  C   UNL A   1      41.151  31.955  35.960  1.00  0.00     0.049 A 
ATOM     51  H   UNL A   1      41.083  30.869  34.152  1.00  0.00     0.167 HD
ATOM     52  C   UNL A   1      39.294  33.017  34.695  1.00  0.00     0.074 A 
ATOM     53  C   UNL A   1      38.224  33.984  34.546  1.00  0.00     0.031 C 
ATOM     54  C   UNL A   1      40.075  32.902  35.798  1.00  0.00     0.037 A 
BRANCH  41  55
ATOM     55  C   UNL A   1      44.298  28.382  35.471  1.00  0.00     0.058 A 
ATOM     56  C   UNL A   1      44.018  27.279  36.293  1.00  0.00     0.135 A 
ATOM     57  C   UNL A   1      45.645  28.752  35.310  1.00  0.00     0.135 A 
ATOM     58  F   UNL A   1      42.749  26.891  36.493  1.00  0.00    -0.206 F 
ATOM     59  C   UNL A   1      45.028  26.599  36.969  1.00  0.00     0.059 A 
ATOM     60  C   UNL A   1      46.673  28.070  35.956  1.00  0.00     0.059 A 
ATOM     61  F   UNL A   1      45.971  29.796  34.532  1.00  0.00    -0.206 F 
ATOM     62  C   UNL A   1      46.352  27.011  36.803  1.00  0.00     0.060 A 
BRANCH  62  63
ATOM     63  S   UNL A   1      47.650  26.151  37.717  1.00  0.00     0.124 S 
ATOM     64  O   UNL A   1      46.864  25.266  38.573  1.00  0.00    -0.237 OA
ATOM     65  O   UNL A   1      48.405  25.495  36.654  1.00  0.00    -0.237 OA
ATOM     66  O   UNL A   1      48.352  27.230  38.404  1.00  0.00    -0.744 OA
ENDBRANCH  62  63
ENDBRANCH  41  55
BRANCH  42  67
ATOM     67  C   UNL A   1      36.785  32.931  30.699  1.00  0.00     0.058 A 
ATOM     68  C   UNL A   1      35.480  32.617  31.102  1.00  0.00     0.135 A 
ATOM     69  C   UNL A   1      36.948  33.899  29.696  1.00  0.00     0.135 A 
ATOM     70  F   UNL A   1      35.276  31.692  32.053  1.00  0.00    -0.206 F 
ATOM     71  C   UNL A   1      34.376  33.255  30.547  1.00  0.00     0.059 A 
ATOM     72  C   UNL A   1      35.860  34.565  29.140  1.00  0.00     0.059 A 
ATOM     73  F   UNL A   1      38.179  34.245  29.288  1.00  0.00    -0.206 F 
ATOM     74  C   UNL A   1      34.577  34.238  29.576  1.00  0.00     0.060 A 
BRANCH  74  75
ATOM     75  S   UNL A   1      33.146  35.145  28.949  1.00  0.00     0.124 S 
ATOM     76  O   UNL A   1      33.774  36.342  28.401  1.00  0.00    -0.237 OA
ATOM     77  O   UNL A   1      32.591  34.212  27.974  1.00  0.00    -0.237 OA
ATOM     78  O   UNL A   1      32.330  35.348  30.143  1.00  0.00    -0.744 OA
ENDBRANCH  74  75
ENDBRANCH  42  67
BRANCH  54  79
ATOM     79  C   UNL A   1      39.807  33.856  36.926  1.00  0.00     0.058 A 
ATOM     80  C   UNL A   1      39.039  33.479  38.039  1.00  0.00     0.135 A 
ATOM     81  C   UNL A   1      40.356  35.148  36.913  1.00  0.00     0.135 A 
ATOM     82  F   UNL A   1      38.485  32.258  38.095  1.00  0.00    -0.206 F 
ATOM     83  C   UNL A   1      38.808  34.358  39.092  1.00  0.00     0.059 A 
ATOM     84  C   UNL A   1      40.155  36.036  37.965  1.00  0.00     0.059 A 
ATOM     85  F   UNL A   1      41.104  35.554  35.875  1.00  0.00    -0.206 F 
ATOM     86  C   UNL A   1      39.370  35.636  39.045  1.00  0.00     0.060 A 
BRANCH  86  87
ATOM     87  S   UNL A   1      39.087  36.761  40.429  1.00  0.00     0.124 S 
ATOM     88  O   UNL A   1      38.533  37.927  39.750  1.00  0.00    -0.237 OA
ATOM     89  O   UNL A   1      38.153  36.008  41.261  1.00  0.00    -0.237 OA
ATOM     90  O   UNL A   1      40.420  36.938  40.997  1.00  0.00    -0.744 OA
ENDBRANCH  86  87
ENDBRANCH  54  79
ENDBRANCH  28  29
ENDBRANCH  21  23
ENDBRANCH  20  21
ENDBRANCH  19  20
ENDBRANCH   1  19
TORSDOF 18
ENDMDL
MODEL 2
REMARK VINA RESULT:     -10.4      3.662      5.643
REMARK SMILES CCCc1noc(C2C[NH+](CC(=O)OCCOC(=O)c3ccc(-c4c5nc(c(-c6c(F)cc(S(=O)(=O)[O-])cc6F)c6ccc([nH]6)c(-c6c(F)cc(S(=O)(=O)[O-])cc6F)c6nc(c(-c7c(F)cc(S(=O)(=O)[O-])cc7F)c7ccc4[nH]7)C=C6)C=C5)cc3)C2)n1
REMARK SMILES IDX 15 1 14 2 12 3 13 4 11 5 10 6 8 7 9 8 86 9 7 11 4 12 5 13
REMARK SMILES IDX 87 14 6 15 3 16 2 17 1 18 16 19 17 20 18 21 19 22 20 23
REMARK SMILES IDX 21 24 85 25 22 26 84 27 23 28 24 29 25 30 78 31 26 32 83 33
REMARK SMILES IDX 77 34 79 35 27 36 82 37 76 38 75 39 28 41 62 42 41 43 61 44
REMARK SMILES IDX 42 45 45 46 60 47 80 48 43 49 44 50 59 52 81 53 46 54 29 55
REMARK SMILES IDX 30 56 39 57 31 58 32 59 38 60 40 61 33 62 34 63 35 64 36 65
REMARK SMILES IDX 37 66 63 67 64 68 73 69 65 70 66 71 72 72 74 73 67 74 68 75
REMARK SMILES IDX 69 76 70 77 71 78 47 79 48 80 57 81 49 82 50 83 56 84 58 85
REMARK SMILES IDX 51 86 52 87 53 88 54 89 55 90
REMARK H PARENT 10 10 79 40 45 51
REMARK Flexibility Score: inf
ROOT
ATOM      1  C   UNL A   1      40.808  20.041  26.665  1.00  0.00     0.274 C 
ENDROOT
BRANCH   1   2
ATOM      2  O   UNL A   1      41.415  19.178  25.675  1.00  0.00    -0.458 OA
BRANCH   2   3
ATOM      3  C   UNL A   1      42.696  18.786  25.916  1.00  0.00     0.361 C 
ATOM      4  O   UNL A   1      43.002  17.923  26.734  1.00  0.00    -0.245 OA
BRANCH   3   5
ATOM      5  C   UNL A   1      43.743  19.600  25.163  1.00  0.00     0.386 C 
BRANCH   5   6
ATOM      6  N   UNL A   1      44.457  20.730  25.802  1.00  0.00    -0.324 N 
ATOM      7  C   UNL A   1      44.256  22.566  24.755  1.00  0.00     0.188 C 
ATOM      8  C   UNL A   1      45.351  21.502  24.914  1.00  0.00     0.282 C 
ATOM      9  C   UNL A   1      43.659  21.943  26.039  1.00  0.00     0.282 C 
ATOM     10  H   UNL A   1      44.836  20.203  26.589  1.00  0.00     0.348 HD
BRANCH   7  11
ATOM     11  C   UNL A   1      44.602  24.026  24.861  1.00  0.00     0.241 A 
ATOM     12  C   UNL A   1      44.639  26.076  25.262  1.00  0.00     0.171 A 
ATOM     13  N   UNL A   1      45.863  25.849  24.773  1.00  0.00    -0.062 NA
ATOM     14  N   UNL A   1      43.811  24.981  25.293  1.00  0.00    -0.196 NA
ATOM     15  O   UNL A   1      45.851  24.480  24.529  1.00  0.00    -0.339 OA
BRANCH  12  16
ATOM     16  C   UNL A   1      44.211  27.415  25.729  1.00  0.00     0.081 C 
BRANCH  16  17
ATOM     17  C   UNL A   1      45.114  27.982  26.824  1.00  0.00     0.005 C 
ATOM     18  C   UNL A   1      44.728  29.394  27.242  1.00  0.00     0.004 C 
ENDBRANCH  16  17
ENDBRANCH  12  16
ENDBRANCH   7  11
ENDBRANCH   5   6
ENDBRANCH   3   5
ENDBRANCH   2   3
ENDBRANCH   1   2
BRANCH   1  19
ATOM     19  C   UNL A   1      39.604  20.800  26.098  1.00  0.00     0.275 C 
BRANCH  19  20
ATOM     20  O   UNL A   1      39.947  22.184  25.922  1.00  0.00    -0.458 OA
BRANCH  20  21
ATOM     21  C   UNL A   1      38.938  23.076  26.054  1.00  0.00     0.338 C 
ATOM     22  O   UNL A   1      37.793  22.940  25.661  1.00  0.00    -0.246 OA
BRANCH  21  23
ATOM     23  C   UNL A   1      39.429  24.291  26.736  1.00  0.00     0.060 A 
ATOM     24  C   UNL A   1      40.256  25.212  26.086  1.00  0.00     0.016 A 
ATOM     25  C   UNL A   1      39.084  24.483  28.075  1.00  0.00     0.016 A 
ATOM     26  C   UNL A   1      40.760  26.313  26.778  1.00  0.00     0.010 A 
ATOM     27  C   UNL A   1      39.535  25.619  28.747  1.00  0.00     0.010 A 
ATOM     28  C   UNL A   1      40.385  26.539  28.109  1.00  0.00    -0.014 A 
BRANCH  28  29
ATOM     29  C   UNL A   1      40.837  27.745  28.844  1.00  0.00     0.031 A 
ATOM     30  C   UNL A   1      42.153  27.741  29.566  1.00  0.00     0.074 A 
ATOM     31  C   UNL A   1      40.017  28.809  28.934  1.00  0.00     0.049 A 
ATOM     32  N   UNL A   1      42.635  28.612  30.415  1.00  0.00    -0.248 NA
ATOM     33  C   UNL A   1      43.036  26.592  29.313  1.00  0.00     0.031 C 
ATOM     34  C   UNL A   1      38.712  28.926  28.281  1.00  0.00     0.029 A 
ATOM     35  N   UNL A   1      40.142  29.979  29.641  1.00  0.00    -0.354 N 
ATOM     36  C   UNL A   1      43.860  28.101  30.828  1.00  0.00     0.074 A 
ATOM     37  C   UNL A   1      44.041  26.838  30.142  1.00  0.00     0.031 C 
ATOM     38  C   UNL A   1      38.146  30.089  28.635  1.00  0.00     0.029 A 
ATOM     39  C   UNL A   1      39.024  30.776  29.578  1.00  0.00     0.049 A 
ATOM     40  H   UNL A   1      40.952  30.223  30.143  1.00  0.00     0.167 HD
ATOM     41  C   UNL A   1      44.747  28.638  31.701  1.00  0.00     0.037 A 
ATOM     42  C   UNL A   1      38.716  31.909  30.237  1.00  0.00     0.037 A 
ATOM     43  C   UNL A   1      44.560  29.902  32.365  1.00  0.00     0.049 A 
ATOM     44  C   UNL A   1      39.709  32.487  31.203  1.00  0.00     0.074 A 
ATOM     45  C   UNL A   1      45.418  30.558  33.230  1.00  0.00     0.029 A 
ATOM     46  N   UNL A   1      43.430  30.699  32.244  1.00  0.00    -0.354 N 
ATOM     47  N   UNL A   1      40.875  32.007  31.565  1.00  0.00    -0.248 NA
ATOM     48  C   UNL A   1      39.349  33.756  31.845  1.00  0.00     0.031 C 
ATOM     49  C   UNL A   1      44.791  31.734  33.660  1.00  0.00     0.029 A 
ATOM     50  C   UNL A   1      43.558  31.831  33.034  1.00  0.00     0.049 A 
ATOM     51  H   UNL A   1      42.650  30.491  31.680  1.00  0.00     0.167 HD
ATOM     52  C   UNL A   1      41.395  32.920  32.475  1.00  0.00     0.074 A 
ATOM     53  C   UNL A   1      40.420  33.988  32.595  1.00  0.00     0.031 C 
ATOM     54  C   UNL A   1      42.572  32.878  33.148  1.00  0.00     0.037 A 
BRANCH  41  55
ATOM     55  C   UNL A   1      45.981  27.833  32.007  1.00  0.00     0.058 A 
ATOM     56  C   UNL A   1      47.163  27.972  31.262  1.00  0.00     0.135 A 
ATOM     57  C   UNL A   1      45.975  26.899  33.057  1.00  0.00     0.135 A 
ATOM     58  F   UNL A   1      47.219  28.840  30.240  1.00  0.00    -0.206 F 
ATOM     59  C   UNL A   1      48.279  27.179  31.514  1.00  0.00     0.059 A 
ATOM     60  C   UNL A   1      47.089  26.113  33.342  1.00  0.00     0.059 A 
ATOM     61  F   UNL A   1      44.874  26.728  33.804  1.00  0.00    -0.206 F 
ATOM     62  C   UNL A   1      48.228  26.244  32.549  1.00  0.00     0.060 A 
BRANCH  62  63
ATOM     63  S   UNL A   1      49.665  25.190  32.840  1.00  0.00     0.124 S 
ATOM     64  O   UNL A   1      50.577  26.118  33.502  1.00  0.00    -0.237 OA
ATOM     65  O   UNL A   1      49.117  24.131  33.683  1.00  0.00    -0.237 OA
ATOM     66  O   UNL A   1      50.058  24.775  31.497  1.00  0.00    -0.744 OA
ENDBRANCH  62  63
ENDBRANCH  41  55
BRANCH  42  67
ATOM     67  C   UNL A   1      37.394  32.541  30.002  1.00  0.00     0.058 A 
ATOM     68  C   UNL A   1      36.281  32.195  30.779  1.00  0.00     0.135 A 
ATOM     69  C   UNL A   1      37.244  33.573  29.062  1.00  0.00     0.135 A 
ATOM     70  F   UNL A   1      36.375  31.209  31.685  1.00  0.00    -0.206 F 
ATOM     71  C   UNL A   1      35.067  32.861  30.647  1.00  0.00     0.059 A 
ATOM     72  C   UNL A   1      36.047  34.268  28.926  1.00  0.00     0.059 A 
ATOM     73  F   UNL A   1      38.287  33.950  28.306  1.00  0.00    -0.206 F 
ATOM     74  C   UNL A   1      34.964  33.907  29.726  1.00  0.00     0.060 A 
BRANCH  74  75
ATOM     75  S   UNL A   1      33.423  34.846  29.647  1.00  0.00     0.124 S 
ATOM     76  O   UNL A   1      33.890  36.137  29.155  1.00  0.00    -0.237 OA
ATOM     77  O   UNL A   1      32.628  34.056  28.711  1.00  0.00    -0.237 OA
ATOM     78  O   UNL A   1      32.949  34.827  31.028  1.00  0.00    -0.744 OA
ENDBRANCH  74  75
ENDBRANCH  42  67
BRANCH  54  79
ATOM     79  C   UNL A   1      42.874  34.026  34.067  1.00  0.00     0.058 A 
ATOM     80  C   UNL A   1      42.405  34.051  35.390  1.00  0.00     0.135 A 
ATOM     81  C   UNL A   1      43.673  35.096  33.632  1.00  0.00     0.135 A 
ATOM     82  F   UNL A   1      41.630  33.057  35.851  1.00  0.00    -0.206 F 
ATOM     83  C   UNL A   1      42.703  35.107  36.246  1.00  0.00     0.059 A 
ATOM     84  C   UNL A   1      44.000  36.152  34.477  1.00  0.00     0.059 A 
ATOM     85  F   UNL A   1      44.151  35.115  32.379  1.00  0.00    -0.206 F 
ATOM     86  C   UNL A   1      43.500  36.154  35.779  1.00  0.00     0.060 A 
BRANCH  86  87
ATOM     87  S   UNL A   1      43.904  37.508  36.904  1.00  0.00     0.124 S 
ATOM     88  O   UNL A   1      42.813  37.423  37.868  1.00  0.00    -0.237 OA
ATOM     89  O   UNL A   1      45.221  37.121  37.401  1.00  0.00    -0.237 OA
ATOM     90  O   UNL A   1      43.889  38.683  36.038  1.00  0.00    -0.744 OA
ENDBRANCH  86  87
ENDBRANCH  54  79
ENDBRANCH  28  29
ENDBRANCH  21  23
ENDBRANCH  20  21
ENDBRANCH  19  20
ENDBRANCH   1  19
TORSDOF 18
ENDMDL
MODEL 3
REMARK VINA RESULT:     -10.2      1.251      2.020
REMARK SMILES CCCc1noc(C2C[NH+](CC(=O)OCCOC(=O)c3ccc(-c4c5nc(c(-c6c(F)cc(S(=O)(=O)[O-])cc6F)c6ccc([nH]6)c(-c6c(F)cc(S(=O)(=O)[O-])cc6F)c6nc(c(-c7c(F)cc(S(=O)(=O)[O-])cc7F)c7ccc4[nH]7)C=C6)C=C5)cc3)C2)n1
REMARK SMILES IDX 15 1 14 2 12 3 13 4 11 5 10 6 8 7 9 8 86 9 7 11 4 12 5 13
REMARK SMILES IDX 87 14 6 15 3 16 2 17 1 18 16 19 17 20 18 21 19 22 20 23
REMARK SMILES IDX 21 24 85 25 22 26 84 27 23 28 24 29 25 30 78 31 26 32 83 33
REMARK SMILES IDX 77 34 79 35 27 36 82 37 76 38 75 39 28 41 62 42 41 43 61 44
REMARK SMILES IDX 42 45 45 46 60 47 80 48 43 49 44 50 59 52 81 53 46 54 29 55
REMARK SMILES IDX 30 56 39 57 31 58 32 59 38 60 40 61 33 62 34 63 35 64 36 65
REMARK SMILES IDX 37 66 63 67 64 68 73 69 65 70 66 71 72 72 74 73 67 74 68 75
REMARK SMILES IDX 69 76 70 77 71 78 47 79 48 80 57 81 49 82 50 83 56 84 58 85
REMARK SMILES IDX 51 86 52 87 53 88 54 89 55 90
REMARK H PARENT 10 10 79 40 45 51
REMARK Flexibility Score: inf
ROOT
ATOM      1  C   UNL A   1      36.745  23.434  25.704  1.00  0.00     0.274 C 
ENDROOT
BRANCH   1   2
ATOM      2  O   UNL A   1      36.293  22.470  24.725  1.00  0.00    -0.458 OA
BRANCH   2   3
ATOM      3  C   UNL A   1      35.221  22.832  23.968  1.00  0.00     0.361 C 
ATOM      4  O   UNL A   1      35.246  22.912  22.744  1.00  0.00    -0.245 OA
BRANCH   3   5
ATOM      5  C   UNL A   1      34.003  23.253  24.785  1.00  0.00     0.386 C 
BRANCH   5   6
ATOM      6  N   UNL A   1      33.228  24.472  24.454  1.00  0.00    -0.324 N 
ATOM      7  C   UNL A   1      33.297  25.960  25.965  1.00  0.00     0.188 C 
ATOM      8  C   UNL A   1      32.273  24.919  25.489  1.00  0.00     0.282 C 
ATOM      9  C   UNL A   1      33.951  25.746  24.579  1.00  0.00     0.282 C 
ATOM     10  H   UNL A   1      32.894  24.158  23.542  1.00  0.00     0.348 HD
BRANCH   7  11
ATOM     11  C   UNL A   1      32.859  27.372  26.248  1.00  0.00     0.241 A 
ATOM     12  C   UNL A   1      32.757  29.418  26.660  1.00  0.00     0.171 A 
ATOM     13  N   UNL A   1      31.486  29.108  26.384  1.00  0.00    -0.062 NA
ATOM     14  N   UNL A   1      33.634  28.361  26.630  1.00  0.00    -0.196 NA
ATOM     15  O   UNL A   1      31.554  27.752  26.084  1.00  0.00    -0.339 OA
BRANCH  12  16
ATOM     16  C   UNL A   1      33.181  30.800  26.980  1.00  0.00     0.081 C 
BRANCH  16  17
ATOM     17  C   UNL A   1      34.287  30.857  28.034  1.00  0.00     0.005 C 
ATOM     18  C   UNL A   1      35.429  31.786  27.650  1.00  0.00     0.004 C 
ENDBRANCH  16  17
ENDBRANCH  12  16
ENDBRANCH   7  11
ENDBRANCH   5   6
ENDBRANCH   3   5
ENDBRANCH   2   3
ENDBRANCH   1   2
BRANCH   1  19
ATOM     19  C   UNL A   1      38.195  23.178  26.128  1.00  0.00     0.275 C 
BRANCH  19  20
ATOM     20  O   UNL A   1      38.904  24.427  26.195  1.00  0.00    -0.458 OA
BRANCH  20  21
ATOM     21  C   UNL A   1      40.116  24.399  26.796  1.00  0.00     0.338 C 
ATOM     22  O   UNL A   1      40.996  23.576  26.617  1.00  0.00    -0.246 OA
BRANCH  21  23
ATOM     23  C   UNL A   1      40.227  25.520  27.751  1.00  0.00     0.060 A 
ATOM     24  C   UNL A   1      41.293  26.423  27.699  1.00  0.00     0.016 A 
ATOM     25  C   UNL A   1      39.259  25.637  28.749  1.00  0.00     0.016 A 
ATOM     26  C   UNL A   1      41.407  27.430  28.658  1.00  0.00     0.010 A 
ATOM     27  C   UNL A   1      39.338  26.685  29.668  1.00  0.00     0.010 A 
ATOM     28  C   UNL A   1      40.418  27.584  29.637  1.00  0.00    -0.014 A 
BRANCH  28  29
ATOM     29  C   UNL A   1      40.468  28.696  30.618  1.00  0.00     0.031 A 
ATOM     30  C   UNL A   1      41.382  28.614  31.806  1.00  0.00     0.074 A 
ATOM     31  C   UNL A   1      39.623  29.735  30.481  1.00  0.00     0.049 A 
ATOM     32  N   UNL A   1      41.433  29.380  32.865  1.00  0.00    -0.248 NA
ATOM     33  C   UNL A   1      42.355  27.511  31.810  1.00  0.00     0.031 C 
ATOM     34  C   UNL A   1      38.686  29.920  29.372  1.00  0.00     0.029 A 
ATOM     35  N   UNL A   1      39.389  30.811  31.300  1.00  0.00    -0.354 N 
ATOM     36  C   UNL A   1      42.416  28.832  33.682  1.00  0.00     0.074 A 
ATOM     37  C   UNL A   1      42.927  27.662  32.996  1.00  0.00     0.031 C 
ATOM     38  C   UNL A   1      37.962  31.027  29.589  1.00  0.00     0.029 A 
ATOM     39  C   UNL A   1      38.348  31.602  30.875  1.00  0.00     0.049 A 
ATOM     40  H   UNL A   1      39.914  30.999  32.110  1.00  0.00     0.167 HD
ATOM     41  C   UNL A   1      42.847  29.266  34.891  1.00  0.00     0.037 A 
ATOM     42  C   UNL A   1      37.738  32.644  31.471  1.00  0.00     0.037 A 
ATOM     43  C   UNL A   1      42.338  30.439  35.555  1.00  0.00     0.049 A 
ATOM     44  C   UNL A   1      38.226  33.108  32.812  1.00  0.00     0.074 A 
ATOM     45  C   UNL A   1      42.738  30.992  36.758  1.00  0.00     0.029 A 
ATOM     46  N   UNL A   1      41.309  31.236  35.073  1.00  0.00    -0.354 N 
ATOM     47  N   UNL A   1      39.173  32.598  33.562  1.00  0.00    -0.248 NA
ATOM     48  C   UNL A   1      37.568  34.288  33.386  1.00  0.00     0.031 C 
ATOM     49  C   UNL A   1      41.927  32.103  37.021  1.00  0.00     0.029 A 
ATOM     50  C   UNL A   1      41.046  32.265  35.963  1.00  0.00     0.049 A 
ATOM     51  H   UNL A   1      40.834  31.092  34.222  1.00  0.00     0.167 HD
ATOM     52  C   UNL A   1      39.231  33.397  34.697  1.00  0.00     0.074 A 
ATOM     53  C   UNL A   1      38.233  34.435  34.526  1.00  0.00     0.031 C 
ATOM     54  C   UNL A   1      40.040  33.283  35.780  1.00  0.00     0.037 A 
BRANCH  41  55
ATOM     55  C   UNL A   1      43.896  28.440  35.583  1.00  0.00     0.058 A 
ATOM     56  C   UNL A   1      43.563  27.423  36.492  1.00  0.00     0.135 A 
ATOM     57  C   UNL A   1      45.260  28.679  35.342  1.00  0.00     0.135 A 
ATOM     58  F   UNL A   1      42.276  27.161  36.770  1.00  0.00    -0.206 F 
ATOM     59  C   UNL A   1      44.542  26.706  37.174  1.00  0.00     0.059 A 
ATOM     60  C   UNL A   1      46.256  27.956  35.994  1.00  0.00     0.059 A 
ATOM     61  F   UNL A   1      45.637  29.635  34.479  1.00  0.00    -0.206 F 
ATOM     62  C   UNL A   1      45.887  26.988  36.926  1.00  0.00     0.060 A 
BRANCH  62  63
ATOM     63  S   UNL A   1      47.148  26.083  37.847  1.00  0.00     0.124 S 
ATOM     64  O   UNL A   1      46.862  26.499  39.217  1.00  0.00    -0.237 OA
ATOM     65  O   UNL A   1      46.836  24.692  37.530  1.00  0.00    -0.237 OA
ATOM     66  O   UNL A   1      48.400  26.583  37.288  1.00  0.00    -0.744 OA
ENDBRANCH  62  63
ENDBRANCH  41  55
BRANCH  42  67
ATOM     67  C   UNL A   1      36.588  33.290  30.789  1.00  0.00     0.058 A 
ATOM     68  C   UNL A   1      35.273  33.047  31.208  1.00  0.00     0.135 A 
ATOM     69  C   UNL A   1      36.790  34.236  29.773  1.00  0.00     0.135 A 
ATOM     70  F   UNL A   1      35.031  32.146  32.171  1.00  0.00    -0.206 F 
ATOM     71  C   UNL A   1      34.197  33.734  30.655  1.00  0.00     0.059 A 
ATOM     72  C   UNL A   1      35.733  34.950  29.218  1.00  0.00     0.059 A 
ATOM     73  F   UNL A   1      38.033  34.513  29.350  1.00  0.00    -0.206 F 
ATOM     74  C   UNL A   1      34.439  34.694  29.669  1.00  0.00     0.060 A 
BRANCH  74  75
ATOM     75  S   UNL A   1      33.050  35.665  29.044  1.00  0.00     0.124 S 
ATOM     76  O   UNL A   1      32.346  35.999  30.277  1.00  0.00    -0.237 OA
ATOM     77  O   UNL A   1      33.725  36.774  28.375  1.00  0.00    -0.237 OA
ATOM     78  O   UNL A   1      32.363  34.734  28.155  1.00  0.00    -0.744 OA
ENDBRANCH  74  75
ENDBRANCH  42  67
BRANCH  54  79
ATOM     79  C   UNL A   1      39.883  34.314  36.860  1.00  0.00     0.058 A 
ATOM     80  C   UNL A   1      40.531  35.557  36.789  1.00  0.00     0.135 A 
ATOM     81  C   UNL A   1      39.043  34.072  37.959  1.00  0.00     0.135 A 
ATOM     82  F   UNL A   1      41.352  35.833  35.763  1.00  0.00    -0.206 F 
ATOM     83  C   UNL A   1      40.368  36.518  37.782  1.00  0.00     0.059 A 
ATOM     84  C   UNL A   1      38.850  35.027  38.953  1.00  0.00     0.059 A 
ATOM     85  F   UNL A   1      38.394  32.903  38.070  1.00  0.00    -0.206 F 
ATOM     86  C   UNL A   1      39.526  36.243  38.861  1.00  0.00     0.060 A 
BRANCH  86  87
ATOM     87  S   UNL A   1      39.299  37.507  40.131  1.00  0.00     0.124 S 
ATOM     88  O   UNL A   1      38.243  38.324  39.545  1.00  0.00    -0.237 OA
ATOM     89  O   UNL A   1      38.917  36.716  41.297  1.00  0.00    -0.237 OA
ATOM     90  O   UNL A   1      40.611  38.140  40.215  1.00  0.00    -0.744 OA
ENDBRANCH  86  87
ENDBRANCH  54  79
ENDBRANCH  28  29
ENDBRANCH  21  23
ENDBRANCH  20  21
ENDBRANCH  19  20
ENDBRANCH   1  19
TORSDOF 18
ENDMDL
