MODEL 1
REMARK VINA RESULT:     -12.3      0.000      0.000
REMARK SMILES CCC(=O)Nc1cc(NC(=O)/C=C/C(=O)OCCOC(=O)c2ccc(-c3c4nc(c(-c5c(F)cc(S(=O)(=O)[O-])cc5F)c5ccc([nH]5)c(-c5c(F)cc(S(=O)(=O)[O-])cc5F)c5nc(c(-c6c(F)cc(S(=O)(=O)[O-])cc6F)c6ccc3[nH]6)C=C5)C=C4)cc2)ccc1C
REMARK SMILES IDX 17 1 16 2 14 3 15 4 13 5 12 6 10 7 9 8 11 10 8 11 6 12 7 13
REMARK SMILES IDX 90 14 89 15 91 16 88 17 5 18 3 19 4 20 2 22 1 23 18 24 19 25
REMARK SMILES IDX 20 26 21 27 22 28 23 29 87 30 24 31 86 32 25 33 26 34 27 35
REMARK SMILES IDX 80 36 28 37 85 38 79 39 81 40 29 41 84 42 78 43 77 44 30 46
REMARK SMILES IDX 64 47 43 48 63 49 44 50 47 51 62 52 82 53 45 54 46 55 61 57
REMARK SMILES IDX 83 58 48 59 31 60 32 61 41 62 33 63 34 64 40 65 42 66 35 67
REMARK SMILES IDX 36 68 37 69 38 70 39 71 65 72 66 73 75 74 67 75 68 76 74 77
REMARK SMILES IDX 76 78 69 79 70 80 71 81 72 82 73 83 49 84 50 85 59 86 51 87
REMARK SMILES IDX 52 88 58 89 60 90 53 91 54 92 55 93 56 94 57 95
REMARK H PARENT 9 9 5 21 81 45 47 56
REMARK Flexibility Score: inf
ROOT
ATOM      1  C   UNL A   1      41.572  21.162  26.797  1.00  0.00     0.275 C 
ENDROOT
BRANCH   1   2
ATOM      2  O   UNL A   1      41.555  20.331  25.622  1.00  0.00    -0.459 OA
BRANCH   2   3
ATOM      3  C   UNL A   1      42.266  19.192  25.809  1.00  0.00     0.331 C 
ATOM      4  O   UNL A   1      41.773  18.068  25.868  1.00  0.00    -0.247 OA
BRANCH   3   5
ATOM      5  C   UNL A   1      43.730  19.357  25.834  1.00  0.00     0.099 C 
ATOM      6  C   UNL A   1      44.646  18.964  24.934  1.00  0.00     0.079 C 
BRANCH   6   7
ATOM      7  C   UNL A   1      45.979  19.585  25.101  1.00  0.00     0.248 C 
ATOM      8  N   UNL A   1      46.153  20.848  25.567  1.00  0.00    -0.322 N 
ATOM      9  H   UNL A   1      47.048  20.977  25.957  1.00  0.00     0.170 HD
ATOM     10  O   UNL A   1      46.981  18.872  24.983  1.00  0.00    -0.270 OA
BRANCH   8  11
ATOM     11  C   UNL A   1      45.378  22.018  25.632  1.00  0.00     0.043 A 
ATOM     12  C   UNL A   1      44.381  23.974  26.687  1.00  0.00     0.046 A 
ATOM     13  C   UNL A   1      45.233  22.847  26.746  1.00  0.00     0.052 A 
ATOM     14  C   UNL A   1      43.749  24.324  25.485  1.00  0.00    -0.027 A 
ATOM     15  C   UNL A   1      43.817  23.433  24.413  1.00  0.00     0.008 A 
ATOM     16  C   UNL A   1      43.059  25.648  25.289  1.00  0.00     0.046 C 
ATOM     17  C   UNL A   1      44.603  22.285  24.497  1.00  0.00     0.026 A 
BRANCH  12  18
ATOM     18  N   UNL A   1      44.326  24.869  27.770  1.00  0.00    -0.326 N 
ATOM     19  C   UNL A   1      43.294  24.968  28.680  1.00  0.00     0.224 C 
ATOM     20  O   UNL A   1      42.836  26.061  29.020  1.00  0.00    -0.275 OA
ATOM     21  H   UNL A   1      45.090  25.478  27.890  1.00  0.00     0.169 HD
BRANCH  19  22
ATOM     22  C   UNL A   1      42.820  23.711  29.377  1.00  0.00     0.097 C 
ATOM     23  C   UNL A   1      43.875  23.191  30.339  1.00  0.00     0.014 C 
ENDBRANCH  19  22
ENDBRANCH  12  18
ENDBRANCH   8  11
ENDBRANCH   6   7
ENDBRANCH   3   5
ENDBRANCH   2   3
ENDBRANCH   1   2
BRANCH   1  24
ATOM     24  C   UNL A   1      40.378  22.124  26.926  1.00  0.00     0.275 C 
BRANCH  24  25
ATOM     25  O   UNL A   1      40.490  23.482  26.440  1.00  0.00    -0.458 OA
BRANCH  25  26
ATOM     26  C   UNL A   1      39.506  24.411  26.558  1.00  0.00     0.338 C 
ATOM     27  O   UNL A   1      38.380  24.201  26.130  1.00  0.00    -0.246 OA
BRANCH  26  28
ATOM     28  C   UNL A   1      39.847  25.584  27.400  1.00  0.00     0.060 A 
ATOM     29  C   UNL A   1      40.393  26.701  26.763  1.00  0.00     0.016 A 
ATOM     30  C   UNL A   1      39.470  25.659  28.734  1.00  0.00     0.016 A 
ATOM     31  C   UNL A   1      40.436  27.938  27.405  1.00  0.00     0.010 A 
ATOM     32  C   UNL A   1      39.467  26.891  29.364  1.00  0.00     0.010 A 
ATOM     33  C   UNL A   1      39.933  28.038  28.702  1.00  0.00    -0.014 A 
BRANCH  33  34
ATOM     34  C   UNL A   1      39.913  29.300  29.446  1.00  0.00     0.031 A 
ATOM     35  C   UNL A   1      38.875  30.334  29.196  1.00  0.00     0.074 A 
ATOM     36  C   UNL A   1      40.901  29.510  30.346  1.00  0.00     0.049 A 
ATOM     37  N   UNL A   1      39.060  31.611  29.274  1.00  0.00    -0.248 NA
ATOM     38  C   UNL A   1      37.512  29.993  28.799  1.00  0.00     0.031 C 
ATOM     39  C   UNL A   1      41.068  30.612  31.274  1.00  0.00     0.029 A 
ATOM     40  N   UNL A   1      42.120  28.827  30.433  1.00  0.00    -0.354 N 
ATOM     41  C   UNL A   1      37.808  32.202  29.329  1.00  0.00     0.074 A 
ATOM     42  C   UNL A   1      36.900  31.181  28.871  1.00  0.00     0.031 C 
ATOM     43  C   UNL A   1      42.383  30.742  31.542  1.00  0.00     0.029 A 
ATOM     44  C   UNL A   1      43.093  29.798  30.687  1.00  0.00     0.049 A 
ATOM     45  H   UNL A   1      42.263  27.858  30.335  1.00  0.00     0.167 HD
ATOM     46  C   UNL A   1      37.661  33.399  29.977  1.00  0.00     0.037 A 
ATOM     47  C   UNL A   1      44.085  30.114  29.798  1.00  0.00     0.037 A 
ATOM     48  C   UNL A   1      38.966  33.903  30.396  1.00  0.00     0.049 A 
ATOM     49  C   UNL A   1      44.031  31.573  29.392  1.00  0.00     0.074 A 
ATOM     50  C   UNL A   1      39.631  33.818  31.609  1.00  0.00     0.029 A 
ATOM     51  N   UNL A   1      39.913  34.274  29.450  1.00  0.00    -0.354 N 
ATOM     52  N   UNL A   1      42.951  32.303  29.447  1.00  0.00    -0.248 NA
ATOM     53  C   UNL A   1      45.183  32.320  28.898  1.00  0.00     0.031 C 
ATOM     54  C   UNL A   1      41.003  34.042  31.374  1.00  0.00     0.029 A 
ATOM     55  C   UNL A   1      41.171  34.282  30.023  1.00  0.00     0.049 A 
ATOM     56  H   UNL A   1      39.719  34.497  28.511  1.00  0.00     0.167 HD
ATOM     57  C   UNL A   1      43.260  33.600  29.121  1.00  0.00     0.074 A 
ATOM     58  C   UNL A   1      44.661  33.551  28.748  1.00  0.00     0.031 C 
ATOM     59  C   UNL A   1      42.353  34.615  29.250  1.00  0.00     0.037 A 
BRANCH  46  60
ATOM     60  C   UNL A   1      36.351  33.890  30.590  1.00  0.00     0.058 A 
ATOM     61  C   UNL A   1      35.293  34.338  29.761  1.00  0.00     0.135 A 
ATOM     62  C   UNL A   1      36.089  34.013  31.969  1.00  0.00     0.135 A 
ATOM     63  F   UNL A   1      35.315  34.172  28.432  1.00  0.00    -0.206 F 
ATOM     64  C   UNL A   1      34.152  34.980  30.241  1.00  0.00     0.059 A 
ATOM     65  C   UNL A   1      34.957  34.674  32.479  1.00  0.00     0.059 A 
ATOM     66  F   UNL A   1      36.899  33.455  32.878  1.00  0.00    -0.206 F 
ATOM     67  C   UNL A   1      34.004  35.177  31.602  1.00  0.00     0.060 A 
BRANCH  67  68
ATOM     68  S   UNL A   1      32.539  36.055  32.182  1.00  0.00     0.124 S 
ATOM     69  O   UNL A   1      33.079  36.866  33.270  1.00  0.00    -0.237 OA
ATOM     70  O   UNL A   1      32.130  36.790  30.990  1.00  0.00    -0.237 OA
ATOM     71  O   UNL A   1      31.639  34.983  32.595  1.00  0.00    -0.744 OA
ENDBRANCH  67  68
ENDBRANCH  46  60
BRANCH  47  72
ATOM     72  C   UNL A   1      44.423  29.007  28.853  1.00  0.00     0.058 A 
ATOM     73  C   UNL A   1      44.048  29.082  27.494  1.00  0.00     0.135 A 
ATOM     74  C   UNL A   1      45.513  28.196  29.171  1.00  0.00     0.135 A 
ATOM     75  F   UNL A   1      43.002  29.842  27.135  1.00  0.00    -0.206 F 
ATOM     76  C   UNL A   1      44.796  28.472  26.479  1.00  0.00     0.059 A 
ATOM     77  C   UNL A   1      46.327  27.699  28.165  1.00  0.00     0.059 A 
ATOM     78  F   UNL A   1      45.931  28.065  30.438  1.00  0.00    -0.206 F 
ATOM     79  C   UNL A   1      45.979  27.833  26.824  1.00  0.00     0.060 A 
BRANCH  79  80
ATOM     80  S   UNL A   1      47.087  27.158  25.563  1.00  0.00     0.124 S 
ATOM     81  O   UNL A   1      46.177  26.533  24.612  1.00  0.00    -0.237 OA
ATOM     82  O   UNL A   1      47.758  28.366  25.090  1.00  0.00    -0.237 OA
ATOM     83  O   UNL A   1      47.925  26.239  26.335  1.00  0.00    -0.744 OA
ENDBRANCH  79  80
ENDBRANCH  47  72
BRANCH  59  84
ATOM     84  C   UNL A   1      42.545  36.059  28.858  1.00  0.00     0.058 A 
ATOM     85  C   UNL A   1      41.944  36.660  27.743  1.00  0.00     0.135 A 
ATOM     86  C   UNL A   1      43.282  36.931  29.701  1.00  0.00     0.135 A 
ATOM     87  F   UNL A   1      41.126  35.967  26.937  1.00  0.00    -0.206 F 
ATOM     88  C   UNL A   1      42.132  38.011  27.436  1.00  0.00     0.059 A 
ATOM     89  C   UNL A   1      43.437  38.287  29.444  1.00  0.00     0.059 A 
ATOM     90  F   UNL A   1      43.883  36.497  30.819  1.00  0.00    -0.206 F 
ATOM     91  C   UNL A   1      42.890  38.812  28.286  1.00  0.00     0.060 A 
BRANCH  91  92
ATOM     92  S   UNL A   1      43.141  40.552  27.905  1.00  0.00     0.124 S 
ATOM     93  O   UNL A   1      44.489  40.533  27.347  1.00  0.00    -0.237 OA
ATOM     94  O   UNL A   1      42.069  40.832  26.955  1.00  0.00    -0.237 OA
ATOM     95  O   UNL A   1      43.003  41.205  29.203  1.00  0.00    -0.744 OA
ENDBRANCH  91  92
ENDBRANCH  59  84
ENDBRANCH  33  34
ENDBRANCH  26  28
ENDBRANCH  25  26
ENDBRANCH  24  25
ENDBRANCH   1  24
TORSDOF 18
ENDMDL
MODEL 2
REMARK VINA RESULT:     -12.2      5.235     12.439
REMARK SMILES CCC(=O)Nc1cc(NC(=O)/C=C/C(=O)OCCOC(=O)c2ccc(-c3c4nc(c(-c5c(F)cc(S(=O)(=O)[O-])cc5F)c5ccc([nH]5)c(-c5c(F)cc(S(=O)(=O)[O-])cc5F)c5nc(c(-c6c(F)cc(S(=O)(=O)[O-])cc6F)c6ccc3[nH]6)C=C5)C=C4)cc2)ccc1C
REMARK SMILES IDX 17 1 16 2 14 3 15 4 13 5 12 6 10 7 9 8 11 10 8 11 6 12 7 13
REMARK SMILES IDX 90 14 89 15 91 16 88 17 5 18 3 19 4 20 2 22 1 23 18 24 19 25
REMARK SMILES IDX 20 26 21 27 22 28 23 29 87 30 24 31 86 32 25 33 26 34 27 35
REMARK SMILES IDX 80 36 28 37 85 38 79 39 81 40 29 41 84 42 78 43 77 44 30 46
REMARK SMILES IDX 64 47 43 48 63 49 44 50 47 51 62 52 82 53 45 54 46 55 61 57
REMARK SMILES IDX 83 58 48 59 31 60 32 61 41 62 33 63 34 64 40 65 42 66 35 67
REMARK SMILES IDX 36 68 37 69 38 70 39 71 65 72 66 73 75 74 67 75 68 76 74 77
REMARK SMILES IDX 76 78 69 79 70 80 71 81 72 82 73 83 49 84 50 85 59 86 51 87
REMARK SMILES IDX 52 88 58 89 60 90 53 91 54 92 55 93 56 94 57 95
REMARK H PARENT 9 9 5 21 81 45 47 56
REMARK Flexibility Score: inf
ROOT
ATOM      1  C   UNL A   1      33.573  28.623  25.376  1.00  0.00     0.275 C 
ENDROOT
BRANCH   1   2
ATOM      2  O   UNL A   1      33.076  27.280  25.511  1.00  0.00    -0.459 OA
BRANCH   2   3
ATOM      3  C   UNL A   1      31.722  27.242  25.452  1.00  0.00     0.331 C 
ATOM      4  O   UNL A   1      31.030  28.073  24.869  1.00  0.00    -0.247 OA
BRANCH   3   5
ATOM      5  C   UNL A   1      31.096  26.051  26.053  1.00  0.00     0.099 C 
ATOM      6  C   UNL A   1      31.024  24.797  25.580  1.00  0.00     0.079 C 
BRANCH   6   7
ATOM      7  C   UNL A   1      30.628  23.782  26.583  1.00  0.00     0.248 C 
ATOM      8  N   UNL A   1      31.455  22.786  26.992  1.00  0.00    -0.322 N 
ATOM      9  H   UNL A   1      31.207  22.442  27.880  1.00  0.00     0.170 HD
ATOM     10  O   UNL A   1      29.574  23.948  27.205  1.00  0.00    -0.270 OA
BRANCH   8  11
ATOM     11  C   UNL A   1      32.576  22.122  26.466  1.00  0.00     0.043 A 
ATOM     12  C   UNL A   1      34.946  21.701  26.100  1.00  0.00     0.046 A 
ATOM     13  C   UNL A   1      33.911  22.425  26.735  1.00  0.00     0.052 A 
ATOM     14  C   UNL A   1      34.645  20.613  25.267  1.00  0.00    -0.027 A 
ATOM     15  C   UNL A   1      33.311  20.388  24.924  1.00  0.00     0.008 A 
ATOM     16  C   UNL A   1      35.694  19.646  24.787  1.00  0.00     0.046 C 
ATOM     17  C   UNL A   1      32.295  21.149  25.500  1.00  0.00     0.026 A 
BRANCH  12  18
ATOM     18  N   UNL A   1      36.287  21.931  26.458  1.00  0.00    -0.326 N 
ATOM     19  C   UNL A   1      37.295  22.315  25.600  1.00  0.00     0.224 C 
ATOM     20  O   UNL A   1      38.404  21.778  25.625  1.00  0.00    -0.275 OA
ATOM     21  H   UNL A   1      36.526  21.808  27.405  1.00  0.00     0.169 HD
BRANCH  19  22
ATOM     22  C   UNL A   1      37.070  23.519  24.711  1.00  0.00     0.097 C 
ATOM     23  C   UNL A   1      36.749  23.093  23.289  1.00  0.00     0.014 C 
ENDBRANCH  19  22
ENDBRANCH  12  18
ENDBRANCH   8  11
ENDBRANCH   6   7
ENDBRANCH   3   5
ENDBRANCH   2   3
ENDBRANCH   1   2
BRANCH   1  24
ATOM     24  C   UNL A   1      33.793  29.368  26.705  1.00  0.00     0.275 C 
BRANCH  24  25
ATOM     25  O   UNL A   1      34.947  29.061  27.521  1.00  0.00    -0.458 OA
BRANCH  25  26
ATOM     26  C   UNL A   1      35.687  29.999  28.168  1.00  0.00     0.338 C 
ATOM     27  O   UNL A   1      35.165  30.993  28.655  1.00  0.00    -0.246 OA
BRANCH  26  28
ATOM     28  C   UNL A   1      37.104  29.631  28.400  1.00  0.00     0.060 A 
ATOM     29  C   UNL A   1      37.411  28.947  29.579  1.00  0.00     0.016 A 
ATOM     30  C   UNL A   1      38.069  29.783  27.413  1.00  0.00     0.016 A 
ATOM     31  C   UNL A   1      38.631  28.286  29.723  1.00  0.00     0.010 A 
ATOM     32  C   UNL A   1      39.264  29.096  27.529  1.00  0.00     0.010 A 
ATOM     33  C   UNL A   1      39.547  28.332  28.672  1.00  0.00    -0.014 A 
BRANCH  33  34
ATOM     34  C   UNL A   1      40.842  27.649  28.722  1.00  0.00     0.031 A 
ATOM     35  C   UNL A   1      40.968  26.197  28.430  1.00  0.00     0.074 A 
ATOM     36  C   UNL A   1      41.920  28.381  29.087  1.00  0.00     0.049 A 
ATOM     37  N   UNL A   1      41.807  25.393  28.994  1.00  0.00    -0.248 NA
ATOM     38  C   UNL A   1      40.108  25.518  27.466  1.00  0.00     0.031 C 
ATOM     39  C   UNL A   1      43.315  27.989  29.128  1.00  0.00     0.029 A 
ATOM     40  N   UNL A   1      41.915  29.624  29.732  1.00  0.00    -0.354 N 
ATOM     41  C   UNL A   1      41.862  24.248  28.216  1.00  0.00     0.074 A 
ATOM     42  C   UNL A   1      40.683  24.311  27.388  1.00  0.00     0.031 C 
ATOM     43  C   UNL A   1      43.942  28.751  30.046  1.00  0.00     0.029 A 
ATOM     44  C   UNL A   1      42.922  29.564  30.700  1.00  0.00     0.049 A 
ATOM     45  H   UNL A   1      41.322  30.386  29.542  1.00  0.00     0.167 HD
ATOM     46  C   UNL A   1      43.012  23.505  28.196  1.00  0.00     0.037 A 
ATOM     47  C   UNL A   1      42.672  29.602  32.045  1.00  0.00     0.037 A 
ATOM     48  C   UNL A   1      43.967  24.039  29.163  1.00  0.00     0.049 A 
ATOM     49  C   UNL A   1      43.176  28.357  32.745  1.00  0.00     0.074 A 
ATOM     50  C   UNL A   1      45.035  24.908  29.006  1.00  0.00     0.029 A 
ATOM     51  N   UNL A   1      43.691  23.991  30.524  1.00  0.00    -0.354 N 
ATOM     52  N   UNL A   1      43.355  27.209  32.150  1.00  0.00    -0.248 NA
ATOM     53  C   UNL A   1      43.521  28.307  34.163  1.00  0.00     0.031 C 
ATOM     54  C   UNL A   1      45.339  25.461  30.267  1.00  0.00     0.029 A 
ATOM     55  C   UNL A   1      44.469  24.916  31.194  1.00  0.00     0.049 A 
ATOM     56  H   UNL A   1      43.037  23.389  30.948  1.00  0.00     0.167 HD
ATOM     57  C   UNL A   1      43.924  26.321  33.029  1.00  0.00     0.074 A 
ATOM     58  C   UNL A   1      43.972  27.045  34.286  1.00  0.00     0.031 C 
ATOM     59  C   UNL A   1      44.368  25.091  32.631  1.00  0.00     0.037 A 
BRANCH  46  60
ATOM     60  C   UNL A   1      43.427  22.593  27.043  1.00  0.00     0.058 A 
ATOM     61  C   UNL A   1      42.847  21.308  26.899  1.00  0.00     0.135 A 
ATOM     62  C   UNL A   1      44.425  22.881  26.092  1.00  0.00     0.135 A 
ATOM     63  F   UNL A   1      41.794  20.919  27.629  1.00  0.00    -0.206 F 
ATOM     64  C   UNL A   1      43.310  20.347  26.000  1.00  0.00     0.059 A 
ATOM     65  C   UNL A   1      44.923  21.924  25.189  1.00  0.00     0.059 A 
ATOM     66  F   UNL A   1      44.926  24.118  25.969  1.00  0.00    -0.206 F 
ATOM     67  C   UNL A   1      44.373  20.649  25.169  1.00  0.00     0.060 A 
BRANCH  67  68
ATOM     68  S   UNL A   1      44.975  19.365  24.054  1.00  0.00     0.124 S 
ATOM     69  O   UNL A   1      44.324  18.171  24.584  1.00  0.00    -0.237 OA
ATOM     70  O   UNL A   1      44.487  19.828  22.759  1.00  0.00    -0.237 OA
ATOM     71  O   UNL A   1      46.424  19.412  24.230  1.00  0.00    -0.744 OA
ENDBRANCH  67  68
ENDBRANCH  46  60
BRANCH  47  72
ATOM     72  C   UNL A   1      41.391  30.286  32.400  1.00  0.00     0.058 A 
ATOM     73  C   UNL A   1      40.250  29.536  32.757  1.00  0.00     0.135 A 
ATOM     74  C   UNL A   1      41.470  31.595  32.876  1.00  0.00     0.135 A 
ATOM     75  F   UNL A   1      40.122  28.273  32.320  1.00  0.00    -0.206 F 
ATOM     76  C   UNL A   1      39.284  30.025  33.645  1.00  0.00     0.059 A 
ATOM     77  C   UNL A   1      40.587  32.035  33.851  1.00  0.00     0.059 A 
ATOM     78  F   UNL A   1      42.517  32.377  32.579  1.00  0.00    -0.206 F 
ATOM     79  C   UNL A   1      39.499  31.260  34.240  1.00  0.00     0.060 A 
BRANCH  79  80
ATOM     80  S   UNL A   1      38.387  31.897  35.518  1.00  0.00     0.124 S 
ATOM     81  O   UNL A   1      38.417  30.860  36.540  1.00  0.00    -0.237 OA
ATOM     82  O   UNL A   1      39.044  33.152  35.874  1.00  0.00    -0.237 OA
ATOM     83  O   UNL A   1      37.122  32.037  34.796  1.00  0.00    -0.744 OA
ENDBRANCH  79  80
ENDBRANCH  47  72
BRANCH  59  84
ATOM     84  C   UNL A   1      44.939  24.005  33.507  1.00  0.00     0.058 A 
ATOM     85  C   UNL A   1      44.237  22.857  33.899  1.00  0.00     0.135 A 
ATOM     86  C   UNL A   1      46.305  24.050  33.893  1.00  0.00     0.135 A 
ATOM     87  F   UNL A   1      42.976  22.642  33.495  1.00  0.00    -0.206 F 
ATOM     88  C   UNL A   1      44.820  21.865  34.692  1.00  0.00     0.059 A 
ATOM     89  C   UNL A   1      46.918  23.050  34.635  1.00  0.00     0.059 A 
ATOM     90  F   UNL A   1      47.103  25.075  33.560  1.00  0.00    -0.206 F 
ATOM     91  C   UNL A   1      46.157  21.976  35.065  1.00  0.00     0.060 A 
BRANCH  91  92
ATOM     92  S   UNL A   1      46.922  20.707  36.085  1.00  0.00     0.124 S 
ATOM     93  O   UNL A   1      46.224  19.510  35.626  1.00  0.00    -0.237 OA
ATOM     94  O   UNL A   1      48.330  20.799  35.711  1.00  0.00    -0.237 OA
ATOM     95  O   UNL A   1      46.613  21.136  37.445  1.00  0.00    -0.744 OA
ENDBRANCH  91  92
ENDBRANCH  59  84
ENDBRANCH  33  34
ENDBRANCH  26  28
ENDBRANCH  25  26
ENDBRANCH  24  25
ENDBRANCH   1  24
TORSDOF 18
ENDMDL
MODEL 3
REMARK VINA RESULT:     -12.2      5.600     12.768
REMARK SMILES CCC(=O)Nc1cc(NC(=O)/C=C/C(=O)OCCOC(=O)c2ccc(-c3c4nc(c(-c5c(F)cc(S(=O)(=O)[O-])cc5F)c5ccc([nH]5)c(-c5c(F)cc(S(=O)(=O)[O-])cc5F)c5nc(c(-c6c(F)cc(S(=O)(=O)[O-])cc6F)c6ccc3[nH]6)C=C5)C=C4)cc2)ccc1C
REMARK SMILES IDX 17 1 16 2 14 3 15 4 13 5 12 6 10 7 9 8 11 10 8 11 6 12 7 13
REMARK SMILES IDX 90 14 89 15 91 16 88 17 5 18 3 19 4 20 2 22 1 23 18 24 19 25
REMARK SMILES IDX 20 26 21 27 22 28 23 29 87 30 24 31 86 32 25 33 26 34 27 35
REMARK SMILES IDX 80 36 28 37 85 38 79 39 81 40 29 41 84 42 78 43 77 44 30 46
REMARK SMILES IDX 64 47 43 48 63 49 44 50 47 51 62 52 82 53 45 54 46 55 61 57
REMARK SMILES IDX 83 58 48 59 31 60 32 61 41 62 33 63 34 64 40 65 42 66 35 67
REMARK SMILES IDX 36 68 37 69 38 70 39 71 65 72 66 73 75 74 67 75 68 76 74 77
REMARK SMILES IDX 76 78 69 79 70 80 71 81 72 82 73 83 49 84 50 85 59 86 51 87
REMARK SMILES IDX 52 88 58 89 60 90 53 91 54 92 55 93 56 94 57 95
REMARK H PARENT 9 9 5 21 81 45 47 56
REMARK Flexibility Score: inf
ROOT
ATOM      1  C   UNL A   1      33.743  29.196  27.552  1.00  0.00     0.275 C 
ENDROOT
BRANCH   1   2
ATOM      2  O   UNL A   1      32.982  28.661  26.454  1.00  0.00    -0.459 OA
BRANCH   2   3
ATOM      3  C   UNL A   1      31.999  27.835  26.887  1.00  0.00     0.331 C 
ATOM      4  O   UNL A   1      31.447  27.925  27.981  1.00  0.00    -0.247 OA
BRANCH   3   5
ATOM      5  C   UNL A   1      31.528  26.844  25.903  1.00  0.00     0.099 C 
ATOM      6  C   UNL A   1      32.024  25.631  25.613  1.00  0.00     0.079 C 
BRANCH   6   7
ATOM      7  C   UNL A   1      31.115  24.766  24.826  1.00  0.00     0.248 C 
ATOM      8  N   UNL A   1      31.281  23.422  24.720  1.00  0.00    -0.322 N 
ATOM      9  H   UNL A   1      30.439  22.964  24.495  1.00  0.00     0.170 HD
ATOM     10  O   UNL A   1      30.064  25.252  24.396  1.00  0.00    -0.270 OA
BRANCH   8  11
ATOM     11  C   UNL A   1      32.352  22.523  24.850  1.00  0.00     0.043 A 
ATOM     12  C   UNL A   1      33.429  20.405  25.383  1.00  0.00     0.046 A 
ATOM     13  C   UNL A   1      32.260  21.189  25.252  1.00  0.00     0.052 A 
ATOM     14  C   UNL A   1      34.680  20.927  25.022  1.00  0.00    -0.027 A 
ATOM     15  C   UNL A   1      34.772  22.287  24.724  1.00  0.00     0.008 A 
ATOM     16  C   UNL A   1      35.907  20.066  24.882  1.00  0.00     0.046 C 
ATOM     17  C   UNL A   1      33.623  23.076  24.662  1.00  0.00     0.026 A 
BRANCH  12  18
ATOM     18  N   UNL A   1      33.325  19.033  25.677  1.00  0.00    -0.326 N 
ATOM     19  C   UNL A   1      32.666  18.094  24.912  1.00  0.00     0.224 C 
ATOM     20  O   UNL A   1      31.914  17.260  25.420  1.00  0.00    -0.275 OA
ATOM     21  H   UNL A   1      33.761  18.715  26.500  1.00  0.00     0.169 HD
BRANCH  19  22
ATOM     22  C   UNL A   1      32.992  18.004  23.437  1.00  0.00     0.097 C 
ATOM     23  C   UNL A   1      34.073  16.968  23.181  1.00  0.00     0.014 C 
ENDBRANCH  19  22
ENDBRANCH  12  18
ENDBRANCH   8  11
ENDBRANCH   6   7
ENDBRANCH   3   5
ENDBRANCH   2   3
ENDBRANCH   1   2
BRANCH   1  24
ATOM     24  C   UNL A   1      34.228  30.644  27.359  1.00  0.00     0.275 C 
BRANCH  24  25
ATOM     25  O   UNL A   1      35.584  31.004  27.714  1.00  0.00    -0.458 OA
BRANCH  25  26
ATOM     26  C   UNL A   1      36.178  30.654  28.884  1.00  0.00     0.338 C 
ATOM     27  O   UNL A   1      35.717  31.008  29.960  1.00  0.00    -0.246 OA
BRANCH  26  28
ATOM     28  C   UNL A   1      37.281  29.671  28.759  1.00  0.00     0.060 A 
ATOM     29  C   UNL A   1      38.096  29.752  27.627  1.00  0.00     0.016 A 
ATOM     30  C   UNL A   1      37.624  28.822  29.803  1.00  0.00     0.016 A 
ATOM     31  C   UNL A   1      39.329  29.101  27.587  1.00  0.00     0.010 A 
ATOM     32  C   UNL A   1      38.863  28.207  29.790  1.00  0.00     0.010 A 
ATOM     33  C   UNL A   1      39.728  28.353  28.694  1.00  0.00    -0.014 A 
BRANCH  33  34
ATOM     34  C   UNL A   1      41.014  27.655  28.754  1.00  0.00     0.031 A 
ATOM     35  C   UNL A   1      41.129  26.207  28.439  1.00  0.00     0.074 A 
ATOM     36  C   UNL A   1      42.094  28.368  29.149  1.00  0.00     0.049 A 
ATOM     37  N   UNL A   1      41.950  25.383  29.003  1.00  0.00    -0.248 NA
ATOM     38  C   UNL A   1      40.278  25.554  27.448  1.00  0.00     0.031 C 
ATOM     39  C   UNL A   1      43.484  27.959  29.206  1.00  0.00     0.029 A 
ATOM     40  N   UNL A   1      42.092  29.599  29.815  1.00  0.00    -0.354 N 
ATOM     41  C   UNL A   1      42.005  24.251  28.206  1.00  0.00     0.074 A 
ATOM     42  C   UNL A   1      40.841  24.342  27.359  1.00  0.00     0.031 C 
ATOM     43  C   UNL A   1      44.104  28.699  30.147  1.00  0.00     0.029 A 
ATOM     44  C   UNL A   1      43.083  29.512  30.798  1.00  0.00     0.049 A 
ATOM     45  H   UNL A   1      41.511  30.371  29.629  1.00  0.00     0.167 HD
ATOM     46  C   UNL A   1      43.147  23.496  28.192  1.00  0.00     0.037 A 
ATOM     47  C   UNL A   1      42.810  29.529  32.139  1.00  0.00     0.037 A 
ATOM     48  C   UNL A   1      44.091  24.002  29.184  1.00  0.00     0.049 A 
ATOM     49  C   UNL A   1      43.289  28.267  32.826  1.00  0.00     0.074 A 
ATOM     50  C   UNL A   1      45.171  24.862  29.060  1.00  0.00     0.029 A 
ATOM     51  N   UNL A   1      43.792  23.934  30.539  1.00  0.00    -0.354 N 
ATOM     52  N   UNL A   1      43.464  27.128  32.214  1.00  0.00    -0.248 NA
ATOM     53  C   UNL A   1      43.609  28.189  34.248  1.00  0.00     0.031 C 
ATOM     54  C   UNL A   1      45.460  25.390  30.335  1.00  0.00     0.029 A 
ATOM     55  C   UNL A   1      44.569  24.838  31.237  1.00  0.00     0.049 A 
ATOM     56  H   UNL A   1      43.125  23.333  30.942  1.00  0.00     0.167 HD
ATOM     57  C   UNL A   1      44.009  26.219  33.087  1.00  0.00     0.074 A 
ATOM     58  C   UNL A   1      44.044  26.920  34.357  1.00  0.00     0.031 C 
ATOM     59  C   UNL A   1      44.446  24.991  32.675  1.00  0.00     0.037 A 
BRANCH  46  60
ATOM     60  C   UNL A   1      43.571  22.599  27.030  1.00  0.00     0.058 A 
ATOM     61  C   UNL A   1      42.872  21.396  26.759  1.00  0.00     0.135 A 
ATOM     62  C   UNL A   1      44.682  22.817  26.193  1.00  0.00     0.135 A 
ATOM     63  F   UNL A   1      41.718  21.094  27.367  1.00  0.00    -0.206 F 
ATOM     64  C   UNL A   1      43.313  20.433  25.853  1.00  0.00     0.059 A 
ATOM     65  C   UNL A   1      45.159  21.855  25.285  1.00  0.00     0.059 A 
ATOM     66  F   UNL A   1      45.323  23.994  26.188  1.00  0.00    -0.206 F 
ATOM     67  C   UNL A   1      44.479  20.652  25.140  1.00  0.00     0.060 A 
BRANCH  67  68
ATOM     68  S   UNL A   1      45.044  19.363  24.013  1.00  0.00     0.124 S 
ATOM     69  O   UNL A   1      46.494  19.519  24.072  1.00  0.00    -0.237 OA
ATOM     70  O   UNL A   1      44.513  18.155  24.637  1.00  0.00    -0.237 OA
ATOM     71  O   UNL A   1      44.431  19.729  22.740  1.00  0.00    -0.744 OA
ENDBRANCH  67  68
ENDBRANCH  46  60
BRANCH  47  72
ATOM     72  C   UNL A   1      41.531  30.222  32.485  1.00  0.00     0.058 A 
ATOM     73  C   UNL A   1      40.401  29.482  32.894  1.00  0.00     0.135 A 
ATOM     74  C   UNL A   1      41.610  31.552  32.900  1.00  0.00     0.135 A 
ATOM     75  F   UNL A   1      40.273  28.201  32.517  1.00  0.00    -0.206 F 
ATOM     76  C   UNL A   1      39.447  30.006  33.776  1.00  0.00     0.059 A 
ATOM     77  C   UNL A   1      40.741  32.030  33.869  1.00  0.00     0.059 A 
ATOM     78  F   UNL A   1      42.647  32.325  32.551  1.00  0.00    -0.206 F 
ATOM     79  C   UNL A   1      39.664  31.268  34.311  1.00  0.00     0.060 A 
BRANCH  79  80
ATOM     80  S   UNL A   1      38.569  31.956  35.577  1.00  0.00     0.124 S 
ATOM     81  O   UNL A   1      37.259  31.930  34.942  1.00  0.00    -0.237 OA
ATOM     82  O   UNL A   1      38.757  31.004  36.670  1.00  0.00    -0.237 OA
ATOM     83  O   UNL A   1      39.139  33.285  35.802  1.00  0.00    -0.744 OA
ENDBRANCH  79  80
ENDBRANCH  47  72
BRANCH  59  84
ATOM     84  C   UNL A   1      44.990  23.884  33.542  1.00  0.00     0.058 A 
ATOM     85  C   UNL A   1      46.310  23.823  34.010  1.00  0.00     0.135 A 
ATOM     86  C   UNL A   1      44.119  22.875  34.034  1.00  0.00     0.135 A 
ATOM     87  F   UNL A   1      47.197  24.784  33.712  1.00  0.00    -0.206 F 
ATOM     88  C   UNL A   1      46.759  22.787  34.834  1.00  0.00     0.059 A 
ATOM     89  C   UNL A   1      44.532  21.869  34.896  1.00  0.00     0.059 A 
ATOM     90  F   UNL A   1      42.823  22.831  33.694  1.00  0.00    -0.206 F 
ATOM     91  C   UNL A   1      45.865  21.809  35.262  1.00  0.00     0.060 A 
BRANCH  91  92
ATOM     92  S   UNL A   1      46.428  20.470  36.324  1.00  0.00     0.124 S 
ATOM     93  O   UNL A   1      47.873  20.677  36.307  1.00  0.00    -0.237 OA
ATOM     94  O   UNL A   1      45.763  20.762  37.590  1.00  0.00    -0.237 OA
ATOM     95  O   UNL A   1      45.953  19.273  35.637  1.00  0.00    -0.744 OA
ENDBRANCH  91  92
ENDBRANCH  59  84
ENDBRANCH  33  34
ENDBRANCH  26  28
ENDBRANCH  25  26
ENDBRANCH  24  25
ENDBRANCH   1  24
TORSDOF 18
ENDMDL
