MODEL 1
REMARK VINA RESULT:     -11.6      0.000      0.000
REMARK SMILES Cc1c(Cl)cc2c(c1C)O[C@H](C(F)(F)F)C(C(=O)OCCOC(=O)c1ccc(-c3c4nc(c(-c5c(F)cc(S(=O)(=O)[O-])cc5F)c5ccc([nH]5)c(-c5c(F)cc(S(=O)(=O)[O-])cc5F)c5nc(c(-c6c(F)cc(S(=O)(=O)[O-])cc6F)c6ccc3[nH]6)C=C5)C=C4)cc1)=C2
REMARK SMILES IDX 21 1 20 2 19 3 17 4 18 5 16 6 1 7 2 8 3 9 8 10 4 11 5 12
REMARK SMILES IDX 7 13 9 14 6 15 10 16 91 17 11 18 12 19 13 20 14 21 15 22
REMARK SMILES IDX 22 23 23 24 24 25 25 26 26 27 90 28 27 29 89 30 28 31 29 32
REMARK SMILES IDX 30 33 83 34 31 35 88 36 82 37 84 38 32 39 87 40 81 41 80 42
REMARK SMILES IDX 33 44 67 45 46 46 66 47 47 48 50 49 65 50 85 51 48 52 49 53
REMARK SMILES IDX 64 55 86 56 51 57 34 58 35 59 44 60 36 61 37 62 43 63 45 64
REMARK SMILES IDX 38 65 39 66 40 67 41 68 42 69 68 70 69 71 78 72 70 73 71 74
REMARK SMILES IDX 77 75 79 76 72 77 73 78 74 79 75 80 76 81 52 82 53 83 62 84
REMARK SMILES IDX 54 85 55 86 61 87 63 88 56 89 57 90 58 91 59 92 60 93
REMARK H PARENT 84 43 50 54
REMARK Flexibility Score: inf
ROOT
ATOM      1  C   UNL A   1      33.867  28.744  25.753  1.00  0.00     0.275 C 
ENDROOT
BRANCH   1   2
ATOM      2  C   UNL A   1      32.484  28.169  25.443  1.00  0.00     0.275 C 
BRANCH   2   3
ATOM      3  O   UNL A   1      32.576  26.854  24.852  1.00  0.00    -0.459 OA
BRANCH   3   4
ATOM      4  C   UNL A   1      31.891  25.883  25.498  1.00  0.00     0.338 C 
ATOM      5  O   UNL A   1      30.784  25.990  26.006  1.00  0.00    -0.246 OA
BRANCH   4   6
ATOM      6  C   UNL A   1      32.653  24.621  25.513  1.00  0.00     0.087 C 
ATOM      7  C   UNL A   1      37.293  20.071  24.971  1.00  0.00     0.046 C 
ATOM      8  C   UNL A   1      36.406  21.258  25.247  1.00  0.00    -0.026 A 
ATOM      9  C   UNL A   1      36.947  22.466  25.728  1.00  0.00     0.045 A 
ATOM     10  C   UNL A   1      34.999  21.170  25.052  1.00  0.00    -0.004 A 
ATOM     11  Cl  UNL A   1      38.631  22.666  26.065  1.00  0.00    -0.084 Cl
ATOM     12  C   UNL A   1      36.132  23.573  25.950  1.00  0.00     0.032 A 
ATOM     13  C   UNL A   1      34.190  22.307  25.264  1.00  0.00     0.131 A 
ATOM     14  C   UNL A   1      34.326  19.900  24.597  1.00  0.00     0.049 C 
ATOM     15  C   UNL A   1      34.763  23.499  25.695  1.00  0.00     0.019 A 
ATOM     16  O   UNL A   1      32.841  22.177  25.044  1.00  0.00    -0.475 OA
ATOM     17  C   UNL A   1      33.945  24.683  25.843  1.00  0.00     0.027 C 
ATOM     18  C   UNL A   1      32.003  23.369  25.010  1.00  0.00     0.316 C 
BRANCH  18  19
ATOM     19  C   UNL A   1      31.458  23.553  23.586  1.00  0.00     0.430 C 
ATOM     20  F   UNL A   1      31.391  22.371  22.927  1.00  0.00    -0.167 F 
ATOM     21  F   UNL A   1      30.199  24.057  23.594  1.00  0.00    -0.167 F 
ATOM     22  F   UNL A   1      32.222  24.387  22.845  1.00  0.00    -0.167 F 
ENDBRANCH  18  19
ENDBRANCH   4   6
ENDBRANCH   3   4
ENDBRANCH   2   3
ENDBRANCH   1   2
BRANCH   1  23
ATOM     23  O   UNL A   1      34.146  28.669  27.163  1.00  0.00    -0.458 OA
BRANCH  23  24
ATOM     24  C   UNL A   1      34.428  29.854  27.750  1.00  0.00     0.338 C 
ATOM     25  O   UNL A   1      33.651  30.764  27.985  1.00  0.00    -0.246 OA
BRANCH  24  26
ATOM     26  C   UNL A   1      35.832  29.894  28.183  1.00  0.00     0.060 A 
ATOM     27  C   UNL A   1      36.792  30.276  27.257  1.00  0.00     0.016 A 
ATOM     28  C   UNL A   1      36.222  29.337  29.398  1.00  0.00     0.016 A 
ATOM     29  C   UNL A   1      38.123  29.923  27.450  1.00  0.00     0.010 A 
ATOM     30  C   UNL A   1      37.585  29.147  29.663  1.00  0.00     0.010 A 
ATOM     31  C   UNL A   1      38.552  29.380  28.668  1.00  0.00    -0.014 A 
BRANCH  31  32
ATOM     32  C   UNL A   1      39.995  29.044  28.881  1.00  0.00     0.031 A 
ATOM     33  C   UNL A   1      40.943  30.071  29.459  1.00  0.00     0.074 A 
ATOM     34  C   UNL A   1      40.458  27.809  28.585  1.00  0.00     0.049 A 
ATOM     35  N   UNL A   1      42.250  30.040  29.529  1.00  0.00    -0.248 NA
ATOM     36  C   UNL A   1      40.349  31.298  30.017  1.00  0.00     0.031 C 
ATOM     37  C   UNL A   1      39.651  26.696  28.074  1.00  0.00     0.029 A 
ATOM     38  N   UNL A   1      41.719  27.272  28.681  1.00  0.00    -0.354 N 
ATOM     39  C   UNL A   1      42.634  31.255  30.089  1.00  0.00     0.074 A 
ATOM     40  C   UNL A   1      41.424  32.011  30.324  1.00  0.00     0.031 C 
ATOM     41  C   UNL A   1      40.415  25.601  27.969  1.00  0.00     0.029 A 
ATOM     42  C   UNL A   1      41.792  25.957  28.275  1.00  0.00     0.049 A 
ATOM     43  H   UNL A   1      42.497  27.778  29.009  1.00  0.00     0.167 HD
ATOM     44  C   UNL A   1      43.882  31.694  30.386  1.00  0.00     0.037 A 
ATOM     45  C   UNL A   1      42.848  25.139  28.108  1.00  0.00     0.037 A 
ATOM     46  C   UNL A   1      45.076  30.907  30.205  1.00  0.00     0.049 A 
ATOM     47  C   UNL A   1      44.227  25.675  28.374  1.00  0.00     0.074 A 
ATOM     48  C   UNL A   1      46.388  31.262  30.470  1.00  0.00     0.029 A 
ATOM     49  N   UNL A   1      45.103  29.600  29.738  1.00  0.00    -0.354 N 
ATOM     50  N   UNL A   1      44.577  26.855  28.826  1.00  0.00    -0.248 NA
ATOM     51  C   UNL A   1      45.355  24.782  28.080  1.00  0.00     0.031 C 
ATOM     52  C   UNL A   1      47.211  30.186  30.125  1.00  0.00     0.029 A 
ATOM     53  C   UNL A   1      46.409  29.141  29.694  1.00  0.00     0.049 A 
ATOM     54  H   UNL A   1      44.311  29.077  29.478  1.00  0.00     0.167 HD
ATOM     55  C   UNL A   1      45.964  26.839  28.889  1.00  0.00     0.074 A 
ATOM     56  C   UNL A   1      46.389  25.525  28.448  1.00  0.00     0.031 C 
ATOM     57  C   UNL A   1      46.812  27.825  29.267  1.00  0.00     0.037 A 
BRANCH  44  58
ATOM     58  C   UNL A   1      44.043  33.088  30.933  1.00  0.00     0.058 A 
ATOM     59  C   UNL A   1      44.170  34.205  30.092  1.00  0.00     0.135 A 
ATOM     60  C   UNL A   1      43.970  33.321  32.317  1.00  0.00     0.135 A 
ATOM     61  F   UNL A   1      44.263  34.042  28.762  1.00  0.00    -0.206 F 
ATOM     62  C   UNL A   1      44.221  35.499  30.603  1.00  0.00     0.059 A 
ATOM     63  C   UNL A   1      43.993  34.608  32.849  1.00  0.00     0.059 A 
ATOM     64  F   UNL A   1      43.850  32.290  33.170  1.00  0.00    -0.206 F 
ATOM     65  C   UNL A   1      44.122  35.691  31.982  1.00  0.00     0.060 A 
BRANCH  65  66
ATOM     66  S   UNL A   1      44.141  37.381  32.619  1.00  0.00     0.124 S 
ATOM     67  O   UNL A   1      43.074  37.331  33.614  1.00  0.00    -0.237 OA
ATOM     68  O   UNL A   1      45.495  37.496  33.148  1.00  0.00    -0.237 OA
ATOM     69  O   UNL A   1      43.859  38.195  31.441  1.00  0.00    -0.744 OA
ENDBRANCH  65  66
ENDBRANCH  44  58
BRANCH  45  70
ATOM     70  C   UNL A   1      42.651  23.745  27.616  1.00  0.00     0.058 A 
ATOM     71  C   UNL A   1      42.567  23.470  26.244  1.00  0.00     0.135 A 
ATOM     72  C   UNL A   1      42.545  22.662  28.504  1.00  0.00     0.135 A 
ATOM     73  F   UNL A   1      42.651  24.470  25.353  1.00  0.00    -0.206 F 
ATOM     74  C   UNL A   1      42.367  22.177  25.770  1.00  0.00     0.059 A 
ATOM     75  C   UNL A   1      42.381  21.357  28.054  1.00  0.00     0.059 A 
ATOM     76  F   UNL A   1      42.629  22.865  29.829  1.00  0.00    -0.206 F 
ATOM     77  C   UNL A   1      42.279  21.126  26.684  1.00  0.00     0.060 A 
BRANCH  77  78
ATOM     78  S   UNL A   1      42.044  19.449  26.056  1.00  0.00     0.124 S 
ATOM     79  O   UNL A   1      42.524  18.646  27.174  1.00  0.00    -0.237 OA
ATOM     80  O   UNL A   1      40.606  19.413  25.814  1.00  0.00    -0.237 OA
ATOM     81  O   UNL A   1      42.875  19.421  24.856  1.00  0.00    -0.744 OA
ENDBRANCH  77  78
ENDBRANCH  45  70
BRANCH  57  82
ATOM     82  C   UNL A   1      48.282  27.516  29.258  1.00  0.00     0.058 A 
ATOM     83  C   UNL A   1      49.091  27.828  28.155  1.00  0.00     0.135 A 
ATOM     84  C   UNL A   1      48.900  26.964  30.392  1.00  0.00     0.135 A 
ATOM     85  F   UNL A   1      48.547  28.350  27.044  1.00  0.00    -0.206 F 
ATOM     86  C   UNL A   1      50.460  27.588  28.170  1.00  0.00     0.059 A 
ATOM     87  C   UNL A   1      50.272  26.742  30.440  1.00  0.00     0.059 A 
ATOM     88  F   UNL A   1      48.171  26.655  31.477  1.00  0.00    -0.206 F 
ATOM     89  C   UNL A   1      51.043  27.052  29.320  1.00  0.00     0.060 A 
BRANCH  89  90
ATOM     90  S   UNL A   1      52.828  26.791  29.337  1.00  0.00     0.124 S 
ATOM     91  O   UNL A   1      53.327  28.162  29.354  1.00  0.00    -0.237 OA
ATOM     92  O   UNL A   1      53.017  26.032  30.570  1.00  0.00    -0.237 OA
ATOM     93  O   UNL A   1      53.077  26.049  28.105  1.00  0.00    -0.744 OA
ENDBRANCH  89  90
ENDBRANCH  57  82
ENDBRANCH  31  32
ENDBRANCH  24  26
ENDBRANCH  23  24
ENDBRANCH   1  23
TORSDOF 15
ENDMDL
MODEL 2
REMARK VINA RESULT:     -11.3      5.496     11.006
REMARK SMILES Cc1c(Cl)cc2c(c1C)O[C@H](C(F)(F)F)C(C(=O)OCCOC(=O)c1ccc(-c3c4nc(c(-c5c(F)cc(S(=O)(=O)[O-])cc5F)c5ccc([nH]5)c(-c5c(F)cc(S(=O)(=O)[O-])cc5F)c5nc(c(-c6c(F)cc(S(=O)(=O)[O-])cc6F)c6ccc3[nH]6)C=C5)C=C4)cc1)=C2
REMARK SMILES IDX 21 1 20 2 19 3 17 4 18 5 16 6 1 7 2 8 3 9 8 10 4 11 5 12
REMARK SMILES IDX 7 13 9 14 6 15 10 16 91 17 11 18 12 19 13 20 14 21 15 22
REMARK SMILES IDX 22 23 23 24 24 25 25 26 26 27 90 28 27 29 89 30 28 31 29 32
REMARK SMILES IDX 30 33 83 34 31 35 88 36 82 37 84 38 32 39 87 40 81 41 80 42
REMARK SMILES IDX 33 44 67 45 46 46 66 47 47 48 50 49 65 50 85 51 48 52 49 53
REMARK SMILES IDX 64 55 86 56 51 57 34 58 35 59 44 60 36 61 37 62 43 63 45 64
REMARK SMILES IDX 38 65 39 66 40 67 41 68 42 69 68 70 69 71 78 72 70 73 71 74
REMARK SMILES IDX 77 75 79 76 72 77 73 78 74 79 75 80 76 81 52 82 53 83 62 84
REMARK SMILES IDX 54 85 55 86 61 87 63 88 56 89 57 90 58 91 59 92 60 93
REMARK H PARENT 84 43 50 54
REMARK Flexibility Score: inf
ROOT
ATOM      1  C   UNL A   1      33.149  33.494  27.987  1.00  0.00     0.275 C 
ENDROOT
BRANCH   1   2
ATOM      2  C   UNL A   1      33.361  34.543  29.080  1.00  0.00     0.275 C 
BRANCH   2   3
ATOM      3  O   UNL A   1      34.703  34.488  29.614  1.00  0.00    -0.459 OA
BRANCH   3   4
ATOM      4  C   UNL A   1      34.833  33.811  30.778  1.00  0.00     0.338 C 
ATOM      5  O   UNL A   1      34.077  32.951  31.206  1.00  0.00    -0.246 OA
BRANCH   4   6
ATOM      6  C   UNL A   1      36.047  34.233  31.500  1.00  0.00     0.087 C 
ATOM      7  C   UNL A   1      42.129  34.795  33.782  1.00  0.00     0.046 C 
ATOM      8  C   UNL A   1      40.841  34.685  33.007  1.00  0.00    -0.026 A 
ATOM      9  C   UNL A   1      40.852  34.397  31.629  1.00  0.00     0.045 A 
ATOM     10  C   UNL A   1      39.590  34.899  33.651  1.00  0.00    -0.004 A 
ATOM     11  Cl  UNL A   1      42.313  34.186  30.729  1.00  0.00    -0.084 Cl
ATOM     12  C   UNL A   1      39.660  34.261  30.920  1.00  0.00     0.032 A 
ATOM     13  C   UNL A   1      38.392  34.739  32.923  1.00  0.00     0.131 A 
ATOM     14  C   UNL A   1      39.487  35.269  35.109  1.00  0.00     0.049 C 
ATOM     15  C   UNL A   1      38.436  34.408  31.572  1.00  0.00     0.019 A 
ATOM     16  O   UNL A   1      37.210  34.936  33.592  1.00  0.00    -0.475 OA
ATOM     17  C   UNL A   1      37.208  34.175  30.844  1.00  0.00     0.027 C 
ATOM     18  C   UNL A   1      35.955  34.549  32.961  1.00  0.00     0.316 C 
BRANCH  18  19
ATOM     19  C   UNL A   1      35.341  33.383  33.749  1.00  0.00     0.430 C 
ATOM     20  F   UNL A   1      35.748  33.393  35.042  1.00  0.00    -0.167 F 
ATOM     21  F   UNL A   1      33.987  33.457  33.776  1.00  0.00    -0.167 F 
ATOM     22  F   UNL A   1      35.670  32.179  33.231  1.00  0.00    -0.167 F 
ENDBRANCH  18  19
ENDBRANCH   4   6
ENDBRANCH   3   4
ENDBRANCH   2   3
ENDBRANCH   1   2
BRANCH   1  23
ATOM     23  O   UNL A   1      34.397  32.878  27.622  1.00  0.00    -0.458 OA
BRANCH  23  24
ATOM     24  C   UNL A   1      34.382  31.525  27.614  1.00  0.00     0.338 C 
ATOM     25  O   UNL A   1      33.467  30.801  27.260  1.00  0.00    -0.246 OA
BRANCH  24  26
ATOM     26  C   UNL A   1      35.692  30.992  28.012  1.00  0.00     0.060 A 
ATOM     27  C   UNL A   1      35.745  29.704  28.526  1.00  0.00     0.016 A 
ATOM     28  C   UNL A   1      36.805  31.823  28.103  1.00  0.00     0.016 A 
ATOM     29  C   UNL A   1      36.828  29.311  29.305  1.00  0.00     0.010 A 
ATOM     30  C   UNL A   1      37.963  31.355  28.737  1.00  0.00     0.010 A 
ATOM     31  C   UNL A   1      37.972  30.114  29.402  1.00  0.00    -0.014 A 
BRANCH  31  32
ATOM     32  C   UNL A   1      39.148  29.663  30.208  1.00  0.00     0.031 A 
ATOM     33  C   UNL A   1      40.157  28.702  29.619  1.00  0.00     0.074 A 
ATOM     34  C   UNL A   1      39.335  30.131  31.462  1.00  0.00     0.049 A 
ATOM     35  N   UNL A   1      41.118  28.045  30.218  1.00  0.00    -0.248 NA
ATOM     36  C   UNL A   1      40.066  28.432  28.174  1.00  0.00     0.031 C 
ATOM     37  C   UNL A   1      38.479  31.107  32.145  1.00  0.00     0.029 A 
ATOM     38  N   UNL A   1      40.315  29.864  32.388  1.00  0.00    -0.354 N 
ATOM     39  C   UNL A   1      41.710  27.251  29.239  1.00  0.00     0.074 A 
ATOM     40  C   UNL A   1      40.989  27.494  28.009  1.00  0.00     0.031 C 
ATOM     41  C   UNL A   1      39.003  31.404  33.340  1.00  0.00     0.029 A 
ATOM     42  C   UNL A   1      40.158  30.550  33.573  1.00  0.00     0.049 A 
ATOM     43  H   UNL A   1      41.059  29.242  32.221  1.00  0.00     0.167 HD
ATOM     44  C   UNL A   1      42.763  26.405  29.356  1.00  0.00     0.037 A 
ATOM     45  C   UNL A   1      40.825  30.466  34.740  1.00  0.00     0.037 A 
ATOM     46  C   UNL A   1      43.512  26.219  30.573  1.00  0.00     0.049 A 
ATOM     47  C   UNL A   1      41.939  29.467  34.865  1.00  0.00     0.074 A 
ATOM     48  C   UNL A   1      44.592  25.381  30.797  1.00  0.00     0.029 A 
ATOM     49  N   UNL A   1      43.280  26.895  31.762  1.00  0.00    -0.354 N 
ATOM     50  N   UNL A   1      42.433  28.666  33.951  1.00  0.00    -0.248 NA
ATOM     51  C   UNL A   1      42.570  29.337  36.186  1.00  0.00     0.031 C 
ATOM     52  C   UNL A   1      44.985  25.521  32.131  1.00  0.00     0.029 A 
ATOM     53  C   UNL A   1      44.185  26.483  32.726  1.00  0.00     0.049 A 
ATOM     54  H   UNL A   1      42.575  27.569  31.900  1.00  0.00     0.167 HD
ATOM     55  C   UNL A   1      43.444  27.952  34.581  1.00  0.00     0.074 A 
ATOM     56  C   UNL A   1      43.506  28.428  35.948  1.00  0.00     0.031 C 
ATOM     57  C   UNL A   1      44.242  26.980  34.077  1.00  0.00     0.037 A 
BRANCH  44  58
ATOM     58  C   UNL A   1      43.178  25.603  28.151  1.00  0.00     0.058 A 
ATOM     59  C   UNL A   1      44.187  26.041  27.280  1.00  0.00     0.135 A 
ATOM     60  C   UNL A   1      42.627  24.330  27.922  1.00  0.00     0.135 A 
ATOM     61  F   UNL A   1      44.736  27.256  27.439  1.00  0.00    -0.206 F 
ATOM     62  C   UNL A   1      44.632  25.250  26.224  1.00  0.00     0.059 A 
ATOM     63  C   UNL A   1      43.075  23.510  26.889  1.00  0.00     0.059 A 
ATOM     64  F   UNL A   1      41.658  23.860  28.723  1.00  0.00    -0.206 F 
ATOM     65  C   UNL A   1      44.077  23.982  26.043  1.00  0.00     0.060 A 
BRANCH  65  66
ATOM     66  S   UNL A   1      44.703  22.953  24.697  1.00  0.00     0.124 S 
ATOM     67  O   UNL A   1      43.489  22.716  23.921  1.00  0.00    -0.237 OA
ATOM     68  O   UNL A   1      45.693  23.824  24.076  1.00  0.00    -0.237 OA
ATOM     69  O   UNL A   1      45.242  21.782  25.383  1.00  0.00    -0.744 OA
ENDBRANCH  65  66
ENDBRANCH  44  58
BRANCH  45  70
ATOM     70  C   UNL A   1      40.423  31.314  35.899  1.00  0.00     0.058 A 
ATOM     71  C   UNL A   1      41.291  32.286  36.416  1.00  0.00     0.135 A 
ATOM     72  C   UNL A   1      39.167  31.171  36.511  1.00  0.00     0.135 A 
ATOM     73  F   UNL A   1      42.507  32.456  35.876  1.00  0.00    -0.206 F 
ATOM     74  C   UNL A   1      40.936  33.073  37.508  1.00  0.00     0.059 A 
ATOM     75  C   UNL A   1      38.775  31.970  37.579  1.00  0.00     0.059 A 
ATOM     76  F   UNL A   1      38.291  30.263  36.051  1.00  0.00    -0.206 F 
ATOM     77  C   UNL A   1      39.674  32.910  38.081  1.00  0.00     0.060 A 
BRANCH  77  78
ATOM     78  S   UNL A   1      39.217  33.955  39.480  1.00  0.00     0.124 S 
ATOM     79  O   UNL A   1      40.432  33.916  40.286  1.00  0.00    -0.237 OA
ATOM     80  O   UNL A   1      38.924  35.227  38.828  1.00  0.00    -0.237 OA
ATOM     81  O   UNL A   1      38.060  33.269  40.048  1.00  0.00    -0.744 OA
ENDBRANCH  77  78
ENDBRANCH  45  70
BRANCH  57  82
ATOM     82  C   UNL A   1      45.277  26.390  34.992  1.00  0.00     0.058 A 
ATOM     83  C   UNL A   1      45.015  25.242  35.753  1.00  0.00     0.135 A 
ATOM     84  C   UNL A   1      46.567  26.943  35.056  1.00  0.00     0.135 A 
ATOM     85  F   UNL A   1      43.796  24.681  35.733  1.00  0.00    -0.206 F 
ATOM     86  C   UNL A   1      45.992  24.669  36.560  1.00  0.00     0.059 A 
ATOM     87  C   UNL A   1      47.568  26.369  35.834  1.00  0.00     0.059 A 
ATOM     88  F   UNL A   1      46.871  28.037  34.341  1.00  0.00    -0.206 F 
ATOM     89  C   UNL A   1      47.268  25.235  36.587  1.00  0.00     0.060 A 
BRANCH  89  90
ATOM     90  S   UNL A   1      48.535  24.450  37.604  1.00  0.00     0.124 S 
ATOM     91  O   UNL A   1      49.673  25.340  37.396  1.00  0.00    -0.237 OA
ATOM     92  O   UNL A   1      47.933  24.490  38.933  1.00  0.00    -0.237 OA
ATOM     93  O   UNL A   1      48.666  23.119  37.020  1.00  0.00    -0.744 OA
ENDBRANCH  89  90
ENDBRANCH  57  82
ENDBRANCH  31  32
ENDBRANCH  24  26
ENDBRANCH  23  24
ENDBRANCH   1  23
TORSDOF 15
ENDMDL
MODEL 3
REMARK VINA RESULT:     -11.2      0.390      1.784
REMARK SMILES Cc1c(Cl)cc2c(c1C)O[C@H](C(F)(F)F)C(C(=O)OCCOC(=O)c1ccc(-c3c4nc(c(-c5c(F)cc(S(=O)(=O)[O-])cc5F)c5ccc([nH]5)c(-c5c(F)cc(S(=O)(=O)[O-])cc5F)c5nc(c(-c6c(F)cc(S(=O)(=O)[O-])cc6F)c6ccc3[nH]6)C=C5)C=C4)cc1)=C2
REMARK SMILES IDX 21 1 20 2 19 3 17 4 18 5 16 6 1 7 2 8 3 9 8 10 4 11 5 12
REMARK SMILES IDX 7 13 9 14 6 15 10 16 91 17 11 18 12 19 13 20 14 21 15 22
REMARK SMILES IDX 22 23 23 24 24 25 25 26 26 27 90 28 27 29 89 30 28 31 29 32
REMARK SMILES IDX 30 33 83 34 31 35 88 36 82 37 84 38 32 39 87 40 81 41 80 42
REMARK SMILES IDX 33 44 67 45 46 46 66 47 47 48 50 49 65 50 85 51 48 52 49 53
REMARK SMILES IDX 64 55 86 56 51 57 34 58 35 59 44 60 36 61 37 62 43 63 45 64
REMARK SMILES IDX 38 65 39 66 40 67 41 68 42 69 68 70 69 71 78 72 70 73 71 74
REMARK SMILES IDX 77 75 79 76 72 77 73 78 74 79 75 80 76 81 52 82 53 83 62 84
REMARK SMILES IDX 54 85 55 86 61 87 63 88 56 89 57 90 58 91 59 92 60 93
REMARK H PARENT 84 43 50 54
REMARK Flexibility Score: inf
ROOT
ATOM      1  C   UNL A   1      32.518  28.397  26.679  1.00  0.00     0.275 C 
ENDROOT
BRANCH   1   2
ATOM      2  C   UNL A   1      32.274  28.320  25.171  1.00  0.00     0.275 C 
BRANCH   2   3
ATOM      3  O   UNL A   1      32.501  26.986  24.664  1.00  0.00    -0.459 OA
BRANCH   3   4
ATOM      4  C   UNL A   1      31.792  26.009  25.274  1.00  0.00     0.338 C 
ATOM      5  O   UNL A   1      30.654  26.103  25.710  1.00  0.00    -0.246 OA
BRANCH   4   6
ATOM      6  C   UNL A   1      32.571  24.760  25.348  1.00  0.00     0.087 C 
ATOM      7  C   UNL A   1      37.284  20.263  25.055  1.00  0.00     0.046 C 
ATOM      8  C   UNL A   1      36.375  21.445  25.272  1.00  0.00    -0.026 A 
ATOM      9  C   UNL A   1      36.890  22.678  25.719  1.00  0.00     0.045 A 
ATOM     10  C   UNL A   1      34.974  21.330  25.055  1.00  0.00    -0.004 A 
ATOM     11  Cl  UNL A   1      38.565  22.915  26.080  1.00  0.00    -0.084 Cl
ATOM     12  C   UNL A   1      36.056  23.780  25.886  1.00  0.00     0.032 A 
ATOM     13  C   UNL A   1      34.145  22.461  25.211  1.00  0.00     0.131 A 
ATOM     14  C   UNL A   1      34.327  20.034  24.633  1.00  0.00     0.049 C 
ATOM     15  C   UNL A   1      34.693  23.677  25.609  1.00  0.00     0.019 A 
ATOM     16  O   UNL A   1      32.803  22.304  24.971  1.00  0.00    -0.475 OA
ATOM     17  C   UNL A   1      33.856  24.853  25.700  1.00  0.00     0.027 C 
ATOM     18  C   UNL A   1      31.948  23.481  24.879  1.00  0.00     0.316 C 
BRANCH  18  19
ATOM     19  C   UNL A   1      31.428  23.607  23.439  1.00  0.00     0.430 C 
ATOM     20  F   UNL A   1      30.159  24.084  23.413  1.00  0.00    -0.167 F 
ATOM     21  F   UNL A   1      32.176  24.475  22.713  1.00  0.00    -0.167 F 
ATOM     22  F   UNL A   1      31.430  22.425  22.784  1.00  0.00    -0.167 F 
ENDBRANCH  18  19
ENDBRANCH   4   6
ENDBRANCH   3   4
ENDBRANCH   2   3
ENDBRANCH   1   2
BRANCH   1  23
ATOM     23  O   UNL A   1      33.906  28.655  26.959  1.00  0.00    -0.458 OA
BRANCH  23  24
ATOM     24  C   UNL A   1      34.158  29.859  27.522  1.00  0.00     0.338 C 
ATOM     25  O   UNL A   1      33.366  30.768  27.703  1.00  0.00    -0.246 OA
BRANCH  24  26
ATOM     26  C   UNL A   1      35.545  29.923  28.003  1.00  0.00     0.060 A 
ATOM     27  C   UNL A   1      36.533  30.295  27.103  1.00  0.00     0.016 A 
ATOM     28  C   UNL A   1      35.897  29.396  29.242  1.00  0.00     0.016 A 
ATOM     29  C   UNL A   1      37.860  29.961  27.351  1.00  0.00     0.010 A 
ATOM     30  C   UNL A   1      37.251  29.226  29.559  1.00  0.00     0.010 A 
ATOM     31  C   UNL A   1      38.251  29.448  28.595  1.00  0.00    -0.014 A 
BRANCH  31  32
ATOM     32  C   UNL A   1      39.688  29.132  28.865  1.00  0.00     0.031 A 
ATOM     33  C   UNL A   1      40.595  30.167  29.495  1.00  0.00     0.074 A 
ATOM     34  C   UNL A   1      40.184  27.909  28.575  1.00  0.00     0.049 A 
ATOM     35  N   UNL A   1      41.898  30.155  29.621  1.00  0.00    -0.248 NA
ATOM     36  C   UNL A   1      39.958  31.378  30.041  1.00  0.00     0.031 C 
ATOM     37  C   UNL A   1      39.418  26.789  28.017  1.00  0.00     0.029 A 
ATOM     38  N   UNL A   1      41.448  27.390  28.719  1.00  0.00    -0.354 N 
ATOM     39  C   UNL A   1      42.238  31.369  30.211  1.00  0.00     0.074 A 
ATOM     40  C   UNL A   1      41.007  32.104  30.403  1.00  0.00     0.031 C 
ATOM     41  C   UNL A   1      40.203  25.708  27.932  1.00  0.00     0.029 A 
ATOM     42  C   UNL A   1      41.560  26.081  28.301  1.00  0.00     0.049 A 
ATOM     43  H   UNL A   1      42.203  27.904  29.086  1.00  0.00     0.167 HD
ATOM     44  C   UNL A   1      43.465  31.824  30.567  1.00  0.00     0.037 A 
ATOM     45  C   UNL A   1      42.635  25.282  28.170  1.00  0.00     0.037 A 
ATOM     46  C   UNL A   1      44.677  31.058  30.428  1.00  0.00     0.049 A 
ATOM     47  C   UNL A   1      43.992  25.836  28.501  1.00  0.00     0.074 A 
ATOM     48  C   UNL A   1      45.971  31.430  30.753  1.00  0.00     0.029 A 
ATOM     49  N   UNL A   1      44.746  29.758  29.948  1.00  0.00    -0.354 N 
ATOM     50  N   UNL A   1      44.303  27.016  28.982  1.00  0.00    -0.248 NA
ATOM     51  C   UNL A   1      45.146  24.964  28.246  1.00  0.00     0.031 C 
ATOM     52  C   UNL A   1      46.825  30.371  30.431  1.00  0.00     0.029 A 
ATOM     53  C   UNL A   1      46.060  29.320  29.954  1.00  0.00     0.049 A 
ATOM     54  H   UNL A   1      43.974  29.226  29.647  1.00  0.00     0.167 HD
ATOM     55  C   UNL A   1      45.687  27.021  29.104  1.00  0.00     0.074 A 
ATOM     56  C   UNL A   1      46.151  25.720  28.666  1.00  0.00     0.031 C 
ATOM     57  C   UNL A   1      46.502  28.016  29.530  1.00  0.00     0.037 A 
BRANCH  44  58
ATOM     58  C   UNL A   1      43.580  33.214  31.136  1.00  0.00     0.058 A 
ATOM     59  C   UNL A   1      43.591  33.451  32.520  1.00  0.00     0.135 A 
ATOM     60  C   UNL A   1      43.781  34.315  30.285  1.00  0.00     0.135 A 
ATOM     61  F   UNL A   1      43.384  32.440  33.379  1.00  0.00    -0.206 F 
ATOM     62  C   UNL A   1      43.793  34.727  33.038  1.00  0.00     0.059 A 
ATOM     63  C   UNL A   1      44.013  35.595  30.783  1.00  0.00     0.059 A 
ATOM     64  F   UNL A   1      43.779  34.148  28.953  1.00  0.00    -0.206 F 
ATOM     65  C   UNL A   1      44.014  35.791  32.162  1.00  0.00     0.060 A 
BRANCH  65  66
ATOM     66  S   UNL A   1      44.323  37.429  32.857  1.00  0.00     0.124 S 
ATOM     67  O   UNL A   1      44.220  38.275  31.671  1.00  0.00    -0.237 OA
ATOM     68  O   UNL A   1      43.243  37.563  33.827  1.00  0.00    -0.237 OA
ATOM     69  O   UNL A   1      45.663  37.312  33.425  1.00  0.00    -0.744 OA
ENDBRANCH  65  66
ENDBRANCH  44  58
BRANCH  45  70
ATOM     70  C   UNL A   1      42.482  23.892  27.654  1.00  0.00     0.058 A 
ATOM     71  C   UNL A   1      42.443  22.798  28.530  1.00  0.00     0.135 A 
ATOM     72  C   UNL A   1      42.370  23.628  26.279  1.00  0.00     0.135 A 
ATOM     73  F   UNL A   1      42.557  22.993  29.853  1.00  0.00    -0.206 F 
ATOM     74  C   UNL A   1      42.317  21.493  28.063  1.00  0.00     0.059 A 
ATOM     75  C   UNL A   1      42.206  22.337  25.790  1.00  0.00     0.059 A 
ATOM     76  F   UNL A   1      42.390  24.638  25.394  1.00  0.00    -0.206 F 
ATOM     77  C   UNL A   1      42.195  21.273  26.690  1.00  0.00     0.060 A 
BRANCH  77  78
ATOM     78  S   UNL A   1      42.007  19.578  26.097  1.00  0.00     0.124 S 
ATOM     79  O   UNL A   1      42.885  19.574  24.933  1.00  0.00    -0.237 OA
ATOM     80  O   UNL A   1      42.464  18.802  27.245  1.00  0.00    -0.237 OA
ATOM     81  O   UNL A   1      40.578  19.479  25.811  1.00  0.00    -0.744 OA
ENDBRANCH  77  78
ENDBRANCH  45  70
BRANCH  57  82
ATOM     82  C   UNL A   1      47.976  27.730  29.580  1.00  0.00     0.058 A 
ATOM     83  C   UNL A   1      48.564  27.104  30.689  1.00  0.00     0.135 A 
ATOM     84  C   UNL A   1      48.795  28.025  28.479  1.00  0.00     0.135 A 
ATOM     85  F   UNL A   1      47.826  26.809  31.771  1.00  0.00    -0.206 F 
ATOM     86  C   UNL A   1      49.920  26.795  30.711  1.00  0.00     0.059 A 
ATOM     87  C   UNL A   1      50.147  27.698  28.467  1.00  0.00     0.059 A 
ATOM     88  F   UNL A   1      48.278  28.617  27.390  1.00  0.00    -0.206 F 
ATOM     89  C   UNL A   1      50.701  27.089  29.592  1.00  0.00     0.060 A 
BRANCH  89  90
ATOM     90  S   UNL A   1      52.448  26.637  29.621  1.00  0.00     0.124 S 
ATOM     91  O   UNL A   1      52.514  25.787  30.805  1.00  0.00    -0.237 OA
ATOM     92  O   UNL A   1      52.612  25.955  28.340  1.00  0.00    -0.237 OA
ATOM     93  O   UNL A   1      53.132  27.922  29.733  1.00  0.00    -0.744 OA
ENDBRANCH  89  90
ENDBRANCH  57  82
ENDBRANCH  31  32
ENDBRANCH  24  26
ENDBRANCH  23  24
ENDBRANCH   1  23
TORSDOF 15
ENDMDL
