MODEL 1
REMARK VINA RESULT:     -11.7      0.000      0.000
REMARK SMILES Cc1ccnc(C(=O)c2[nH]c3cc(Cl)c(F)cc3c2CC(=O)OCCOC(=O)c2ccc(-c3c4nc(c(-c5c(F)cc(S(=O)(=O)[O-])cc5F)c5ccc([nH]5)c(-c5c(F)cc(S(=O)(=O)[O-])cc5F)c5nc(c(-c6c(F)cc(S(=O)(=O)[O-])cc6F)c6ccc3[nH]6)C=C5)C=C4)cc2)c1
REMARK SMILES IDX 24 1 23 2 21 3 22 4 20 5 19 6 9 7 10 8 11 9 18 11 12 12
REMARK SMILES IDX 17 13 13 14 15 15 14 16 16 17 7 18 8 19 6 20 1 21 2 22 3 23
REMARK SMILES IDX 95 24 4 25 5 26 25 27 26 28 27 29 28 30 29 31 30 32 94 33
REMARK SMILES IDX 31 34 93 35 32 36 33 37 34 38 87 39 35 40 92 41 86 42 88 43
REMARK SMILES IDX 36 44 91 45 85 46 84 47 37 49 71 50 50 51 70 52 51 53 54 54
REMARK SMILES IDX 69 55 89 56 52 57 53 58 68 60 90 61 55 62 38 63 39 64 48 65
REMARK SMILES IDX 40 66 41 67 47 68 49 69 42 70 43 71 44 72 45 73 46 74 72 75
REMARK SMILES IDX 73 76 82 77 74 78 75 79 81 80 83 81 76 82 77 83 78 84 79 85
REMARK SMILES IDX 80 86 56 87 57 88 66 89 58 90 59 91 65 92 67 93 60 94 61 95
REMARK SMILES IDX 62 96 63 97 64 98
REMARK H PARENT 10 10 88 48 54 59
REMARK Flexibility Score: inf
ROOT
ATOM      1  C   UNL A   1      43.493  26.362  25.653  1.00  0.00     0.274 C 
ENDROOT
BRANCH   1   2
ATOM      2  O   UNL A   1      44.746  26.790  25.048  1.00  0.00    -0.462 OA
BRANCH   2   3
ATOM      3  C   UNL A   1      45.696  27.114  25.956  1.00  0.00     0.310 C 
ATOM      4  O   UNL A   1      45.939  28.280  26.263  1.00  0.00    -0.252 OA
BRANCH   3   5
ATOM      5  C   UNL A   1      46.571  26.027  26.506  1.00  0.00     0.161 C 
BRANCH   5   6
ATOM      6  C   UNL A   1      46.178  24.671  27.051  1.00  0.00     0.000 A 
ATOM      7  C   UNL A   1      45.895  23.425  26.467  1.00  0.00     0.093 A 
ATOM      8  N   UNL A   1      45.240  22.668  27.416  1.00  0.00    -0.351 N 
ATOM      9  C   UNL A   1      45.134  23.324  28.605  1.00  0.00     0.048 A 
ATOM     10  H   UNL A   1      44.890  21.762  27.252  1.00  0.00     0.167 HD
ATOM     11  C   UNL A   1      45.684  24.584  28.417  1.00  0.00     0.007 A 
ATOM     12  C   UNL A   1      44.542  22.908  29.803  1.00  0.00     0.050 A 
ATOM     13  C   UNL A   1      45.589  25.509  29.482  1.00  0.00     0.051 A 
ATOM     14  C   UNL A   1      44.500  23.830  30.851  1.00  0.00     0.078 A 
ATOM     15  C   UNL A   1      45.005  25.114  30.686  1.00  0.00     0.142 A 
ATOM     16  Cl  UNL A   1      43.808  23.347  32.353  1.00  0.00    -0.081 Cl
ATOM     17  F   UNL A   1      44.939  26.006  31.685  1.00  0.00    -0.205 F 
BRANCH   7  18
ATOM     18  C   UNL A   1      46.007  22.815  25.145  1.00  0.00     0.227 C 
ATOM     19  O   UNL A   1      46.209  23.519  24.158  1.00  0.00    -0.285 OA
BRANCH  18  20
ATOM     20  C   UNL A   1      45.646  21.360  24.979  1.00  0.00     0.113 A 
ATOM     21  C   UNL A   1      42.627  19.196  25.605  1.00  0.00     0.044 C 
ATOM     22  C   UNL A   1      44.032  19.616  25.302  1.00  0.00    -0.047 A 
ATOM     23  C   UNL A   1      45.097  18.719  25.412  1.00  0.00     0.023 A 
ATOM     24  C   UNL A   1      44.315  20.959  25.056  1.00  0.00     0.036 A 
ATOM     25  C   UNL A   1      46.390  19.189  25.210  1.00  0.00     0.112 A 
ATOM     26  N   UNL A   1      46.688  20.479  24.939  1.00  0.00    -0.253 NA
ENDBRANCH  18  20
ENDBRANCH   7  18
ENDBRANCH   5   6
ENDBRANCH   3   5
ENDBRANCH   2   3
ENDBRANCH   1   2
BRANCH   1  27
ATOM     27  C   UNL A   1      42.929  25.042  25.095  1.00  0.00     0.275 C 
BRANCH  27  28
ATOM     28  O   UNL A   1      42.890  23.981  26.056  1.00  0.00    -0.458 OA
BRANCH  28  29
ATOM     29  C   UNL A   1      41.654  23.484  26.295  1.00  0.00     0.338 C 
ATOM     30  O   UNL A   1      41.236  22.431  25.859  1.00  0.00    -0.246 OA
BRANCH  29  31
ATOM     31  C   UNL A   1      41.028  24.131  27.449  1.00  0.00     0.060 A 
ATOM     32  C   UNL A   1      39.800  24.725  27.232  1.00  0.00     0.016 A 
ATOM     33  C   UNL A   1      41.917  24.597  28.434  1.00  0.00     0.016 A 
ATOM     34  C   UNL A   1      39.661  26.013  27.685  1.00  0.00     0.010 A 
ATOM     35  C   UNL A   1      41.742  25.871  28.934  1.00  0.00     0.010 A 
ATOM     36  C   UNL A   1      40.688  26.621  28.439  1.00  0.00    -0.014 A 
BRANCH  36  37
ATOM     37  C   UNL A   1      40.391  27.934  28.971  1.00  0.00     0.031 A 
ATOM     38  C   UNL A   1      41.375  28.872  28.408  1.00  0.00     0.074 A 
ATOM     39  C   UNL A   1      39.501  28.324  29.899  1.00  0.00     0.049 A 
ATOM     40  N   UNL A   1      42.506  29.146  28.959  1.00  0.00    -0.248 NA
ATOM     41  C   UNL A   1      41.264  29.244  26.996  1.00  0.00     0.031 C 
ATOM     42  C   UNL A   1      38.330  27.666  30.468  1.00  0.00     0.029 A 
ATOM     43  N   UNL A   1      39.530  29.517  30.557  1.00  0.00    -0.354 N 
ATOM     44  C   UNL A   1      43.203  29.879  28.025  1.00  0.00     0.074 A 
ATOM     45  C   UNL A   1      42.479  29.748  26.785  1.00  0.00     0.031 C 
ATOM     46  C   UNL A   1      37.655  28.549  31.251  1.00  0.00     0.029 A 
ATOM     47  C   UNL A   1      38.440  29.770  31.373  1.00  0.00     0.049 A 
ATOM     48  H   UNL A   1      40.275  30.154  30.460  1.00  0.00     0.167 HD
ATOM     49  C   UNL A   1      44.189  30.715  28.433  1.00  0.00     0.037 A 
ATOM     50  C   UNL A   1      38.239  30.892  32.113  1.00  0.00     0.037 A 
ATOM     51  C   UNL A   1      44.675  30.343  29.745  1.00  0.00     0.049 A 
ATOM     52  C   UNL A   1      39.587  31.466  32.388  1.00  0.00     0.074 A 
ATOM     53  C   UNL A   1      45.288  29.214  30.260  1.00  0.00     0.029 A 
ATOM     54  N   UNL A   1      44.170  31.017  30.834  1.00  0.00    -0.354 N 
ATOM     55  N   UNL A   1      40.467  30.896  33.166  1.00  0.00    -0.248 NA
ATOM     56  C   UNL A   1      40.128  32.427  31.438  1.00  0.00     0.031 C 
ATOM     57  C   UNL A   1      44.723  29.034  31.559  1.00  0.00     0.029 A 
ATOM     58  C   UNL A   1      43.838  30.087  31.790  1.00  0.00     0.049 A 
ATOM     59  H   UNL A   1      44.066  31.993  30.914  1.00  0.00     0.167 HD
ATOM     60  C   UNL A   1      41.685  31.091  32.532  1.00  0.00     0.074 A 
ATOM     61  C   UNL A   1      41.422  32.101  31.508  1.00  0.00     0.031 C 
ATOM     62  C   UNL A   1      42.732  30.234  32.716  1.00  0.00     0.037 A 
BRANCH  49  63
ATOM     63  C   UNL A   1      44.366  32.079  27.826  1.00  0.00     0.058 A 
ATOM     64  C   UNL A   1      45.504  32.326  27.039  1.00  0.00     0.135 A 
ATOM     65  C   UNL A   1      43.630  33.223  28.219  1.00  0.00     0.135 A 
ATOM     66  F   UNL A   1      46.271  31.313  26.607  1.00  0.00    -0.206 F 
ATOM     67  C   UNL A   1      45.933  33.618  26.748  1.00  0.00     0.059 A 
ATOM     68  C   UNL A   1      44.011  34.513  27.896  1.00  0.00     0.059 A 
ATOM     69  F   UNL A   1      42.561  33.167  29.019  1.00  0.00    -0.206 F 
ATOM     70  C   UNL A   1      45.189  34.704  27.200  1.00  0.00     0.060 A 
BRANCH  70  71
ATOM     71  S   UNL A   1      45.803  36.371  26.938  1.00  0.00     0.124 S 
ATOM     72  O   UNL A   1      44.560  37.130  26.872  1.00  0.00    -0.237 OA
ATOM     73  O   UNL A   1      46.620  36.577  28.130  1.00  0.00    -0.237 OA
ATOM     74  O   UNL A   1      46.547  36.262  25.686  1.00  0.00    -0.744 OA
ENDBRANCH  70  71
ENDBRANCH  49  63
BRANCH  50  75
ATOM     75  C   UNL A   1      37.004  31.725  32.190  1.00  0.00     0.058 A 
ATOM     76  C   UNL A   1      36.585  32.281  33.417  1.00  0.00     0.135 A 
ATOM     77  C   UNL A   1      36.390  32.245  31.036  1.00  0.00     0.135 A 
ATOM     78  F   UNL A   1      37.122  31.855  34.570  1.00  0.00    -0.206 F 
ATOM     79  C   UNL A   1      35.666  33.335  33.487  1.00  0.00     0.059 A 
ATOM     80  C   UNL A   1      35.470  33.294  31.082  1.00  0.00     0.059 A 
ATOM     81  F   UNL A   1      36.738  31.809  29.816  1.00  0.00    -0.206 F 
ATOM     82  C   UNL A   1      35.133  33.853  32.310  1.00  0.00     0.060 A 
BRANCH  82  83
ATOM     83  S   UNL A   1      34.082  35.327  32.384  1.00  0.00     0.124 S 
ATOM     84  O   UNL A   1      32.812  34.770  32.837  1.00  0.00    -0.237 OA
ATOM     85  O   UNL A   1      34.790  36.162  33.348  1.00  0.00    -0.237 OA
ATOM     86  O   UNL A   1      34.091  35.820  31.010  1.00  0.00    -0.744 OA
ENDBRANCH  82  83
ENDBRANCH  50  75
BRANCH  62  87
ATOM     87  C   UNL A   1      42.643  29.233  33.844  1.00  0.00     0.058 A 
ATOM     88  C   UNL A   1      42.984  29.498  35.183  1.00  0.00     0.135 A 
ATOM     89  C   UNL A   1      42.053  27.988  33.573  1.00  0.00     0.135 A 
ATOM     90  F   UNL A   1      43.474  30.693  35.546  1.00  0.00    -0.206 F 
ATOM     91  C   UNL A   1      42.773  28.559  36.197  1.00  0.00     0.059 A 
ATOM     92  C   UNL A   1      41.806  27.050  34.572  1.00  0.00     0.059 A 
ATOM     93  F   UNL A   1      41.660  27.688  32.324  1.00  0.00    -0.206 F 
ATOM     94  C   UNL A   1      42.176  27.337  35.883  1.00  0.00     0.060 A 
BRANCH  94  95
ATOM     95  S   UNL A   1      41.825  26.156  37.205  1.00  0.00     0.124 S 
ATOM     96  O   UNL A   1      42.901  26.423  38.155  1.00  0.00    -0.237 OA
ATOM     97  O   UNL A   1      40.487  26.550  37.637  1.00  0.00    -0.237 OA
ATOM     98  O   UNL A   1      41.895  24.859  36.536  1.00  0.00    -0.744 OA
ENDBRANCH  94  95
ENDBRANCH  62  87
ENDBRANCH  36  37
ENDBRANCH  29  31
ENDBRANCH  28  29
ENDBRANCH  27  28
ENDBRANCH   1  27
TORSDOF 17
ENDMDL
MODEL 2
REMARK VINA RESULT:     -10.9      4.582      6.884
REMARK SMILES Cc1ccnc(C(=O)c2[nH]c3cc(Cl)c(F)cc3c2CC(=O)OCCOC(=O)c2ccc(-c3c4nc(c(-c5c(F)cc(S(=O)(=O)[O-])cc5F)c5ccc([nH]5)c(-c5c(F)cc(S(=O)(=O)[O-])cc5F)c5nc(c(-c6c(F)cc(S(=O)(=O)[O-])cc6F)c6ccc3[nH]6)C=C5)C=C4)cc2)c1
REMARK SMILES IDX 24 1 23 2 21 3 22 4 20 5 19 6 9 7 10 8 11 9 18 11 12 12
REMARK SMILES IDX 17 13 13 14 15 15 14 16 16 17 7 18 8 19 6 20 1 21 2 22 3 23
REMARK SMILES IDX 95 24 4 25 5 26 25 27 26 28 27 29 28 30 29 31 30 32 94 33
REMARK SMILES IDX 31 34 93 35 32 36 33 37 34 38 87 39 35 40 92 41 86 42 88 43
REMARK SMILES IDX 36 44 91 45 85 46 84 47 37 49 71 50 50 51 70 52 51 53 54 54
REMARK SMILES IDX 69 55 89 56 52 57 53 58 68 60 90 61 55 62 38 63 39 64 48 65
REMARK SMILES IDX 40 66 41 67 47 68 49 69 42 70 43 71 44 72 45 73 46 74 72 75
REMARK SMILES IDX 73 76 82 77 74 78 75 79 81 80 83 81 76 82 77 83 78 84 79 85
REMARK SMILES IDX 80 86 56 87 57 88 66 89 58 90 59 91 65 92 67 93 60 94 61 95
REMARK SMILES IDX 62 96 63 97 64 98
REMARK H PARENT 10 10 88 48 54 59
REMARK Flexibility Score: inf
ROOT
ATOM      1  C   UNL A   1      38.474  22.555  25.800  1.00  0.00     0.274 C 
ENDROOT
BRANCH   1   2
ATOM      2  O   UNL A   1      37.208  21.896  26.084  1.00  0.00    -0.462 OA
BRANCH   2   3
ATOM      3  C   UNL A   1      36.838  21.013  25.128  1.00  0.00     0.310 C 
ATOM      4  O   UNL A   1      37.577  20.102  24.754  1.00  0.00    -0.252 OA
BRANCH   3   5
ATOM      5  C   UNL A   1      35.541  21.229  24.405  1.00  0.00     0.161 C 
BRANCH   5   6
ATOM      6  C   UNL A   1      34.175  20.655  24.708  1.00  0.00     0.000 A 
ATOM      7  C   UNL A   1      32.986  21.182  25.239  1.00  0.00     0.093 A 
ATOM      8  N   UNL A   1      32.203  20.115  25.628  1.00  0.00    -0.351 N 
ATOM      9  C   UNL A   1      32.784  18.921  25.326  1.00  0.00     0.048 A 
ATOM     10  H   UNL A   1      31.329  20.206  26.072  1.00  0.00     0.167 HD
ATOM     11  C   UNL A   1      34.024  19.209  24.773  1.00  0.00     0.007 A 
ATOM     12  C   UNL A   1      32.322  17.620  25.557  1.00  0.00     0.050 A 
ATOM     13  C   UNL A   1      34.881  18.123  24.479  1.00  0.00     0.051 A 
ATOM     14  C   UNL A   1      33.174  16.568  25.218  1.00  0.00     0.078 A 
ATOM     15  C   UNL A   1      34.438  16.818  24.700  1.00  0.00     0.142 A 
ATOM     16  Cl  UNL A   1      32.631  14.950  25.457  1.00  0.00    -0.081 Cl
ATOM     17  F   UNL A   1      35.266  15.807  24.399  1.00  0.00    -0.205 F 
BRANCH   7  18
ATOM     18  C   UNL A   1      32.458  22.502  25.573  1.00  0.00     0.227 C 
ATOM     19  O   UNL A   1      31.404  22.604  26.197  1.00  0.00    -0.285 OA
BRANCH  18  20
ATOM     20  C   UNL A   1      33.094  23.721  24.952  1.00  0.00     0.113 A 
ATOM     21  C   UNL A   1      33.829  27.262  26.006  1.00  0.00     0.044 C 
ATOM     22  C   UNL A   1      33.656  26.044  25.153  1.00  0.00    -0.047 A 
ATOM     23  C   UNL A   1      33.536  26.141  23.764  1.00  0.00     0.023 A 
ATOM     24  C   UNL A   1      33.454  24.802  25.753  1.00  0.00     0.036 A 
ATOM     25  C   UNL A   1      33.282  24.986  23.033  1.00  0.00     0.112 A 
ATOM     26  N   UNL A   1      33.114  23.766  23.589  1.00  0.00    -0.253 NA
ENDBRANCH  18  20
ENDBRANCH   7  18
ENDBRANCH   5   6
ENDBRANCH   3   5
ENDBRANCH   2   3
ENDBRANCH   1   2
BRANCH   1  27
ATOM     27  C   UNL A   1      39.678  21.995  26.580  1.00  0.00     0.275 C 
BRANCH  27  28
ATOM     28  O   UNL A   1      40.279  22.942  27.471  1.00  0.00    -0.458 OA
BRANCH  28  29
ATOM     29  C   UNL A   1      41.615  23.089  27.317  1.00  0.00     0.338 C 
ATOM     30  O   UNL A   1      42.366  22.221  26.922  1.00  0.00    -0.246 OA
BRANCH  29  31
ATOM     31  C   UNL A   1      41.999  24.501  27.281  1.00  0.00     0.060 A 
ATOM     32  C   UNL A   1      42.600  25.006  28.418  1.00  0.00     0.016 A 
ATOM     33  C   UNL A   1      41.240  25.310  26.418  1.00  0.00     0.016 A 
ATOM     34  C   UNL A   1      42.084  26.182  28.904  1.00  0.00     0.010 A 
ATOM     35  C   UNL A   1      40.771  26.520  26.886  1.00  0.00     0.010 A 
ATOM     36  C   UNL A   1      41.085  26.874  28.189  1.00  0.00    -0.014 A 
BRANCH  36  37
ATOM     37  C   UNL A   1      40.698  28.162  28.726  1.00  0.00     0.031 A 
ATOM     38  C   UNL A   1      41.739  29.130  28.347  1.00  0.00     0.074 A 
ATOM     39  C   UNL A   1      39.681  28.505  29.534  1.00  0.00     0.049 A 
ATOM     40  N   UNL A   1      42.777  29.390  29.063  1.00  0.00    -0.248 NA
ATOM     41  C   UNL A   1      41.822  29.561  26.949  1.00  0.00     0.031 C 
ATOM     42  C   UNL A   1      38.451  27.814  29.905  1.00  0.00     0.029 A 
ATOM     43  N   UNL A   1      39.601  29.669  30.238  1.00  0.00    -0.354 N 
ATOM     44  C   UNL A   1      43.588  30.168  28.267  1.00  0.00     0.074 A 
ATOM     45  C   UNL A   1      43.048  30.083  26.933  1.00  0.00     0.031 C 
ATOM     46  C   UNL A   1      37.660  28.657  30.620  1.00  0.00     0.029 A 
ATOM     47  C   UNL A   1      38.403  29.879  30.901  1.00  0.00     0.049 A 
ATOM     48  H   UNL A   1      40.342  30.316  30.273  1.00  0.00     0.167 HD
ATOM     49  C   UNL A   1      44.495  30.994  28.843  1.00  0.00     0.037 A 
ATOM     50  C   UNL A   1      38.084  30.968  31.650  1.00  0.00     0.037 A 
ATOM     51  C   UNL A   1      44.796  30.571  30.195  1.00  0.00     0.049 A 
ATOM     52  C   UNL A   1      39.372  31.540  32.136  1.00  0.00     0.074 A 
ATOM     53  C   UNL A   1      45.347  29.427  30.745  1.00  0.00     0.029 A 
ATOM     54  N   UNL A   1      44.133  31.194  31.228  1.00  0.00    -0.354 N 
ATOM     55  N   UNL A   1      40.141  30.945  33.007  1.00  0.00    -0.248 NA
ATOM     56  C   UNL A   1      40.028  32.545  31.312  1.00  0.00     0.031 C 
ATOM     57  C   UNL A   1      44.607  29.187  31.943  1.00  0.00     0.029 A 
ATOM     58  C   UNL A   1      43.683  30.222  32.089  1.00  0.00     0.049 A 
ATOM     59  H   UNL A   1      44.005  32.166  31.332  1.00  0.00     0.167 HD
ATOM     60  C   UNL A   1      41.434  31.177  32.560  1.00  0.00     0.074 A 
ATOM     61  C   UNL A   1      41.303  32.227  31.551  1.00  0.00     0.031 C 
ATOM     62  C   UNL A   1      42.456  30.321  32.855  1.00  0.00     0.037 A 
BRANCH  49  63
ATOM     63  C   UNL A   1      44.736  32.383  28.324  1.00  0.00     0.058 A 
ATOM     64  C   UNL A   1      46.026  32.724  27.879  1.00  0.00     0.135 A 
ATOM     65  C   UNL A   1      43.846  33.467  28.514  1.00  0.00     0.135 A 
ATOM     66  F   UNL A   1      46.948  31.774  27.661  1.00  0.00    -0.206 F 
ATOM     67  C   UNL A   1      46.429  34.049  27.731  1.00  0.00     0.059 A 
ATOM     68  C   UNL A   1      44.211  34.788  28.322  1.00  0.00     0.059 A 
ATOM     69  F   UNL A   1      42.606  33.322  28.992  1.00  0.00    -0.206 F 
ATOM     70  C   UNL A   1      45.517  35.072  27.976  1.00  0.00     0.060 A 
BRANCH  70  71
ATOM     71  S   UNL A   1      46.065  36.781  27.910  1.00  0.00     0.124 S 
ATOM     72  O   UNL A   1      44.792  37.493  27.918  1.00  0.00    -0.237 OA
ATOM     73  O   UNL A   1      46.866  36.883  29.126  1.00  0.00    -0.237 OA
ATOM     74  O   UNL A   1      46.819  36.845  26.661  1.00  0.00    -0.744 OA
ENDBRANCH  70  71
ENDBRANCH  49  63
BRANCH  50  75
ATOM     75  C   UNL A   1      36.839  31.786  31.586  1.00  0.00     0.058 A 
ATOM     76  C   UNL A   1      36.201  32.223  32.766  1.00  0.00     0.135 A 
ATOM     77  C   UNL A   1      36.427  32.411  30.395  1.00  0.00     0.135 A 
ATOM     78  F   UNL A   1      36.537  31.691  33.951  1.00  0.00    -0.206 F 
ATOM     79  C   UNL A   1      35.265  33.263  32.771  1.00  0.00     0.059 A 
ATOM     80  C   UNL A   1      35.493  33.449  30.375  1.00  0.00     0.059 A 
ATOM     81  F   UNL A   1      36.991  32.093  29.220  1.00  0.00    -0.206 F 
ATOM     82  C   UNL A   1      34.936  33.889  31.571  1.00  0.00     0.060 A 
BRANCH  82  83
ATOM     83  S   UNL A   1      33.860  35.346  31.595  1.00  0.00     0.124 S 
ATOM     84  O   UNL A   1      33.772  35.680  30.177  1.00  0.00    -0.237 OA
ATOM     85  O   UNL A   1      32.641  34.820  32.201  1.00  0.00    -0.237 OA
ATOM     86  O   UNL A   1      34.600  36.301  32.416  1.00  0.00    -0.744 OA
ENDBRANCH  82  83
ENDBRANCH  50  75
BRANCH  62  87
ATOM     87  C   UNL A   1      42.224  29.273  33.917  1.00  0.00     0.058 A 
ATOM     88  C   UNL A   1      41.526  28.067  33.718  1.00  0.00     0.135 A 
ATOM     89  C   UNL A   1      42.860  29.441  35.157  1.00  0.00     0.135 A 
ATOM     90  F   UNL A   1      40.960  27.785  32.534  1.00  0.00    -0.206 F 
ATOM     91  C   UNL A   1      41.444  27.089  34.715  1.00  0.00     0.059 A 
ATOM     92  C   UNL A   1      42.817  28.468  36.153  1.00  0.00     0.059 A 
ATOM     93  F   UNL A   1      43.583  30.548  35.397  1.00  0.00    -0.206 F 
ATOM     94  C   UNL A   1      42.099  27.297  35.929  1.00  0.00     0.060 A 
BRANCH  94  95
ATOM     95  S   UNL A   1      42.064  25.999  37.187  1.00  0.00     0.124 S 
ATOM     96  O   UNL A   1      42.503  24.827  36.437  1.00  0.00    -0.237 OA
ATOM     97  O   UNL A   1      43.004  26.499  38.187  1.00  0.00    -0.237 OA
ATOM     98  O   UNL A   1      40.668  25.974  37.617  1.00  0.00    -0.744 OA
ENDBRANCH  94  95
ENDBRANCH  62  87
ENDBRANCH  36  37
ENDBRANCH  29  31
ENDBRANCH  28  29
ENDBRANCH  27  28
ENDBRANCH   1  27
TORSDOF 17
ENDMDL
MODEL 3
REMARK VINA RESULT:     -10.9      4.356      6.643
REMARK SMILES Cc1ccnc(C(=O)c2[nH]c3cc(Cl)c(F)cc3c2CC(=O)OCCOC(=O)c2ccc(-c3c4nc(c(-c5c(F)cc(S(=O)(=O)[O-])cc5F)c5ccc([nH]5)c(-c5c(F)cc(S(=O)(=O)[O-])cc5F)c5nc(c(-c6c(F)cc(S(=O)(=O)[O-])cc6F)c6ccc3[nH]6)C=C5)C=C4)cc2)c1
REMARK SMILES IDX 24 1 23 2 21 3 22 4 20 5 19 6 9 7 10 8 11 9 18 11 12 12
REMARK SMILES IDX 17 13 13 14 15 15 14 16 16 17 7 18 8 19 6 20 1 21 2 22 3 23
REMARK SMILES IDX 95 24 4 25 5 26 25 27 26 28 27 29 28 30 29 31 30 32 94 33
REMARK SMILES IDX 31 34 93 35 32 36 33 37 34 38 87 39 35 40 92 41 86 42 88 43
REMARK SMILES IDX 36 44 91 45 85 46 84 47 37 49 71 50 50 51 70 52 51 53 54 54
REMARK SMILES IDX 69 55 89 56 52 57 53 58 68 60 90 61 55 62 38 63 39 64 48 65
REMARK SMILES IDX 40 66 41 67 47 68 49 69 42 70 43 71 44 72 45 73 46 74 72 75
REMARK SMILES IDX 73 76 82 77 74 78 75 79 81 80 83 81 76 82 77 83 78 84 79 85
REMARK SMILES IDX 80 86 56 87 57 88 66 89 58 90 59 91 65 92 67 93 60 94 61 95
REMARK SMILES IDX 62 96 63 97 64 98
REMARK H PARENT 10 10 88 48 54 59
REMARK Flexibility Score: inf
ROOT
ATOM      1  C   UNL A   1      37.755  21.334  24.561  1.00  0.00     0.274 C 
ENDROOT
BRANCH   1   2
ATOM      2  O   UNL A   1      36.336  21.658  24.555  1.00  0.00    -0.462 OA
BRANCH   2   3
ATOM      3  C   UNL A   1      36.059  22.839  23.955  1.00  0.00     0.310 C 
ATOM      4  O   UNL A   1      36.210  23.012  22.746  1.00  0.00    -0.252 OA
BRANCH   3   5
ATOM      5  C   UNL A   1      35.684  24.014  24.809  1.00  0.00     0.161 C 
BRANCH   5   6
ATOM      6  C   UNL A   1      34.358  24.331  25.464  1.00  0.00     0.000 A 
ATOM      7  C   UNL A   1      33.359  23.558  26.080  1.00  0.00     0.093 A 
ATOM      8  N   UNL A   1      32.224  24.337  26.152  1.00  0.00    -0.351 N 
ATOM      9  C   UNL A   1      32.439  25.595  25.674  1.00  0.00     0.048 A 
ATOM     10  H   UNL A   1      31.361  24.022  26.505  1.00  0.00     0.167 HD
ATOM     11  C   UNL A   1      33.748  25.628  25.213  1.00  0.00     0.007 A 
ATOM     12  C   UNL A   1      31.553  26.673  25.569  1.00  0.00     0.050 A 
ATOM     13  C   UNL A   1      34.184  26.802  24.556  1.00  0.00     0.051 A 
ATOM     14  C   UNL A   1      32.026  27.833  24.953  1.00  0.00     0.078 A 
ATOM     15  C   UNL A   1      33.317  27.889  24.443  1.00  0.00     0.142 A 
ATOM     16  Cl  UNL A   1      30.976  29.195  24.831  1.00  0.00    -0.081 Cl
ATOM     17  F   UNL A   1      33.760  28.995  23.827  1.00  0.00    -0.205 F 
BRANCH   7  18
ATOM     18  C   UNL A   1      33.201  22.177  26.526  1.00  0.00     0.227 C 
ATOM     19  O   UNL A   1      33.611  21.837  27.634  1.00  0.00    -0.285 OA
BRANCH  18  20
ATOM     20  C   UNL A   1      32.745  21.136  25.534  1.00  0.00     0.113 A 
ATOM     21  C   UNL A   1      33.466  17.503  24.850  1.00  0.00     0.044 C 
ATOM     22  C   UNL A   1      32.965  18.903  24.685  1.00  0.00    -0.047 A 
ATOM     23  C   UNL A   1      32.581  19.394  23.435  1.00  0.00     0.023 A 
ATOM     24  C   UNL A   1      33.023  19.790  25.760  1.00  0.00     0.036 A 
ATOM     25  C   UNL A   1      32.214  20.731  23.327  1.00  0.00     0.112 A 
ATOM     26  N   UNL A   1      32.232  21.603  24.359  1.00  0.00    -0.253 NA
ENDBRANCH  18  20
ENDBRANCH   7  18
ENDBRANCH   5   6
ENDBRANCH   3   5
ENDBRANCH   2   3
ENDBRANCH   1   2
BRANCH   1  27
ATOM     27  C   UNL A   1      38.493  21.705  25.861  1.00  0.00     0.275 C 
BRANCH  27  28
ATOM     28  O   UNL A   1      39.187  22.956  25.792  1.00  0.00    -0.458 OA
BRANCH  28  29
ATOM     29  C   UNL A   1      40.371  22.978  26.448  1.00  0.00     0.338 C 
ATOM     30  O   UNL A   1      41.443  22.704  25.950  1.00  0.00    -0.246 OA
BRANCH  29  31
ATOM     31  C   UNL A   1      40.284  23.753  27.687  1.00  0.00     0.060 A 
ATOM     32  C   UNL A   1      39.101  24.431  27.909  1.00  0.00     0.016 A 
ATOM     33  C   UNL A   1      41.511  24.209  28.200  1.00  0.00     0.016 A 
ATOM     34  C   UNL A   1      39.216  25.754  28.255  1.00  0.00     0.010 A 
ATOM     35  C   UNL A   1      41.611  25.525  28.604  1.00  0.00     0.010 A 
ATOM     36  C   UNL A   1      40.485  26.324  28.489  1.00  0.00    -0.014 A 
BRANCH  36  37
ATOM     37  C   UNL A   1      40.488  27.691  28.966  1.00  0.00     0.031 A 
ATOM     38  C   UNL A   1      41.593  28.392  28.293  1.00  0.00     0.074 A 
ATOM     39  C   UNL A   1      39.759  28.287  29.925  1.00  0.00     0.049 A 
ATOM     40  N   UNL A   1      42.792  28.459  28.758  1.00  0.00    -0.248 NA
ATOM     41  C   UNL A   1      41.456  28.720  26.872  1.00  0.00     0.031 C 
ATOM     42  C   UNL A   1      38.526  27.897  30.599  1.00  0.00     0.029 A 
ATOM     43  N   UNL A   1      40.066  29.476  30.514  1.00  0.00    -0.354 N 
ATOM     44  C   UNL A   1      43.550  29.002  27.744  1.00  0.00     0.074 A 
ATOM     45  C   UNL A   1      42.728  28.965  26.560  1.00  0.00     0.031 C 
ATOM     46  C   UNL A   1      38.092  28.927  31.374  1.00  0.00     0.029 A 
ATOM     47  C   UNL A   1      39.107  29.973  31.380  1.00  0.00     0.049 A 
ATOM     48  H   UNL A   1      40.911  29.949  30.337  1.00  0.00     0.167 HD
ATOM     49  C   UNL A   1      44.706  29.643  28.044  1.00  0.00     0.037 A 
ATOM     50  C   UNL A   1      39.180  31.143  32.069  1.00  0.00     0.037 A 
ATOM     51  C   UNL A   1      45.202  29.237  29.343  1.00  0.00     0.049 A 
ATOM     52  C   UNL A   1      40.630  31.450  32.229  1.00  0.00     0.074 A 
ATOM     53  C   UNL A   1      45.620  28.031  29.879  1.00  0.00     0.029 A 
ATOM     54  N   UNL A   1      44.917  30.041  30.423  1.00  0.00    -0.354 N 
ATOM     55  N   UNL A   1      41.436  30.749  32.981  1.00  0.00    -0.248 NA
ATOM     56  C   UNL A   1      41.279  32.245  31.197  1.00  0.00     0.031 C 
ATOM     57  C   UNL A   1      45.125  28.020  31.219  1.00  0.00     0.029 A 
ATOM     58  C   UNL A   1      44.479  29.235  31.446  1.00  0.00     0.049 A 
ATOM     59  H   UNL A   1      45.010  31.021  30.456  1.00  0.00     0.167 HD
ATOM     60  C   UNL A   1      42.621  30.674  32.264  1.00  0.00     0.074 A 
ATOM     61  C   UNL A   1      42.486  31.673  31.205  1.00  0.00     0.031 C 
ATOM     62  C   UNL A   1      43.491  29.635  32.429  1.00  0.00     0.037 A 
BRANCH  49  63
ATOM     63  C   UNL A   1      45.101  30.918  27.355  1.00  0.00     0.058 A 
ATOM     64  C   UNL A   1      46.386  31.013  26.793  1.00  0.00     0.135 A 
ATOM     65  C   UNL A   1      44.392  32.138  27.477  1.00  0.00     0.135 A 
ATOM     66  F   UNL A   1      47.143  29.917  26.626  1.00  0.00    -0.206 F 
ATOM     67  C   UNL A   1      46.960  32.239  26.468  1.00  0.00     0.059 A 
ATOM     68  C   UNL A   1      44.926  33.361  27.112  1.00  0.00     0.059 A 
ATOM     69  F   UNL A   1      43.187  32.231  28.047  1.00  0.00    -0.206 F 
ATOM     70  C   UNL A   1      46.227  33.408  26.653  1.00  0.00     0.060 A 
BRANCH  70  71
ATOM     71  S   UNL A   1      47.006  34.999  26.357  1.00  0.00     0.124 S 
ATOM     72  O   UNL A   1      47.852  35.130  27.538  1.00  0.00    -0.237 OA
ATOM     73  O   UNL A   1      47.698  34.760  25.094  1.00  0.00    -0.237 OA
ATOM     74  O   UNL A   1      45.875  35.919  26.283  1.00  0.00    -0.744 OA
ENDBRANCH  70  71
ENDBRANCH  49  63
BRANCH  50  75
ATOM     75  C   UNL A   1      38.140  32.205  32.177  1.00  0.00     0.058 A 
ATOM     76  C   UNL A   1      37.634  32.840  31.024  1.00  0.00     0.135 A 
ATOM     77  C   UNL A   1      37.405  32.401  33.362  1.00  0.00     0.135 A 
ATOM     78  F   UNL A   1      38.263  32.702  29.847  1.00  0.00    -0.206 F 
ATOM     79  C   UNL A   1      36.437  33.565  31.032  1.00  0.00     0.059 A 
ATOM     80  C   UNL A   1      36.210  33.122  33.393  1.00  0.00     0.059 A 
ATOM     81  F   UNL A   1      37.781  31.816  34.509  1.00  0.00    -0.206 F 
ATOM     82  C   UNL A   1      35.716  33.679  32.218  1.00  0.00     0.060 A 
BRANCH  82  83
ATOM     83  S   UNL A   1      34.084  34.464  32.196  1.00  0.00     0.124 S 
ATOM     84  O   UNL A   1      34.382  35.795  32.713  1.00  0.00    -0.237 OA
ATOM     85  O   UNL A   1      33.729  34.396  30.782  1.00  0.00    -0.237 OA
ATOM     86  O   UNL A   1      33.287  33.616  33.077  1.00  0.00    -0.744 OA
ENDBRANCH  82  83
ENDBRANCH  50  75
BRANCH  62  87
ATOM     87  C   UNL A   1      43.291  28.719  33.613  1.00  0.00     0.058 A 
ATOM     88  C   UNL A   1      43.930  28.863  34.858  1.00  0.00     0.135 A 
ATOM     89  C   UNL A   1      42.297  27.731  33.518  1.00  0.00     0.135 A 
ATOM     90  F   UNL A   1      44.830  29.836  35.063  1.00  0.00    -0.206 F 
ATOM     91  C   UNL A   1      43.614  28.044  35.947  1.00  0.00     0.059 A 
ATOM     92  C   UNL A   1      41.946  26.925  34.598  1.00  0.00     0.059 A 
ATOM     93  F   UNL A   1      41.614  27.572  32.372  1.00  0.00    -0.206 F 
ATOM     94  C   UNL A   1      42.614  27.080  35.809  1.00  0.00     0.060 A 
BRANCH  94  95
ATOM     95  S   UNL A   1      42.146  26.078  37.240  1.00  0.00     0.124 S 
ATOM     96  O   UNL A   1      43.033  26.589  38.281  1.00  0.00    -0.237 OA
ATOM     97  O   UNL A   1      40.730  26.396  37.401  1.00  0.00    -0.237 OA
ATOM     98  O   UNL A   1      42.421  24.710  36.806  1.00  0.00    -0.744 OA
ENDBRANCH  94  95
ENDBRANCH  62  87
ENDBRANCH  36  37
ENDBRANCH  29  31
ENDBRANCH  28  29
ENDBRANCH  27  28
ENDBRANCH   1  27
TORSDOF 17
ENDMDL
