MODEL 1
REMARK VINA RESULT:     -11.5      0.000      0.000
REMARK SMILES CCc1nc(N2CCC[C@@H](C(=O)OCCOC(=O)c3ccc(-c4c5nc(c(-c6c(F)cc(S(=O)(=O)[O-])cc6F)c6ccc([nH]6)c(-c6c(F)cc(S(=O)(=O)[O-])cc6F)c6nc(c(-c7c(F)cc(S(=O)(=O)[O-])cc7F)c7ccc4[nH]7)C=C6)C=C5)cc3)C2)c2c(C)c(C)oc2n1
REMARK SMILES IDX 15 1 14 2 13 3 11 4 12 5 10 6 6 7 7 8 85 9 8 10 9 11 5 12
REMARK SMILES IDX 3 13 4 14 93 15 92 16 86 17 91 18 87 19 89 20 88 21 90 22
REMARK SMILES IDX 2 23 1 24 16 25 17 26 18 27 19 28 20 29 84 30 21 31 83 32
REMARK SMILES IDX 22 33 23 34 24 35 77 36 25 37 82 38 76 39 78 40 26 41 81 42
REMARK SMILES IDX 75 43 74 44 27 46 61 47 40 48 60 49 41 50 44 51 59 52 79 53
REMARK SMILES IDX 42 54 43 55 58 57 80 58 45 59 28 60 29 61 38 62 30 63 31 64
REMARK SMILES IDX 37 65 39 66 32 67 33 68 34 69 35 70 36 71 62 72 63 73 72 74
REMARK SMILES IDX 64 75 65 76 71 77 73 78 66 79 67 80 68 81 69 82 70 83 46 84
REMARK SMILES IDX 47 85 56 86 48 87 49 88 55 89 57 90 50 91 51 92 52 93 53 94
REMARK SMILES IDX 54 95
REMARK H PARENT 78 45 44 56
REMARK Flexibility Score: inf
ROOT
ATOM      1  C   UNL A   1      39.747  21.406  25.934  1.00  0.00     0.275 C 
ENDROOT
BRANCH   1   2
ATOM      2  C   UNL A   1      38.243  21.236  25.715  1.00  0.00     0.274 C 
BRANCH   2   3
ATOM      3  O   UNL A   1      37.750  22.294  24.882  1.00  0.00    -0.462 OA
BRANCH   3   4
ATOM      4  C   UNL A   1      37.048  23.243  25.565  1.00  0.00     0.310 C 
ATOM      5  O   UNL A   1      37.516  23.965  26.428  1.00  0.00    -0.252 OA
BRANCH   4   6
ATOM      6  C   UNL A   1      35.610  23.277  25.102  1.00  0.00     0.118 C 
ATOM      7  N   UNL A   1      33.859  24.744  24.493  1.00  0.00    -0.355 N 
ATOM      8  C   UNL A   1      33.734  24.444  23.081  1.00  0.00     0.118 C 
ATOM      9  C   UNL A   1      35.192  24.741  25.039  1.00  0.00     0.133 C 
ATOM     10  C   UNL A   1      34.315  23.057  22.804  1.00  0.00     0.022 C 
ATOM     11  C   UNL A   1      35.418  22.554  23.754  1.00  0.00     0.019 C 
BRANCH   7  12
ATOM     12  C   UNL A   1      32.873  25.414  25.166  1.00  0.00     0.143 A 
ATOM     13  C   UNL A   1      32.034  27.407  26.061  1.00  0.00     0.134 A 
ATOM     14  N   UNL A   1      32.988  26.746  25.373  1.00  0.00    -0.215 NA
ATOM     15  N   UNL A   1      30.931  26.866  26.606  1.00  0.00    -0.197 NA
ATOM     16  C   UNL A   1      30.882  25.538  26.429  1.00  0.00     0.231 A 
ATOM     17  C   UNL A   1      31.804  24.745  25.769  1.00  0.00     0.086 A 
ATOM     18  O   UNL A   1      29.881  24.755  26.928  1.00  0.00    -0.443 OA
ATOM     19  C   UNL A   1      31.406  23.388  25.984  1.00  0.00     0.004 A 
ATOM     20  C   UNL A   1      30.192  23.462  26.635  1.00  0.00     0.107 A 
ATOM     21  C   UNL A   1      32.130  22.147  25.623  1.00  0.00     0.049 C 
ATOM     22  C   UNL A   1      29.236  22.428  27.078  1.00  0.00     0.088 C 
BRANCH  13  23
ATOM     23  C   UNL A   1      32.247  28.881  26.316  1.00  0.00     0.074 C 
ATOM     24  C   UNL A   1      31.518  29.816  25.359  1.00  0.00     0.012 C 
ENDBRANCH  13  23
ENDBRANCH   7  12
ENDBRANCH   4   6
ENDBRANCH   3   4
ENDBRANCH   2   3
ENDBRANCH   1   2
BRANCH   1  25
ATOM     25  O   UNL A   1      40.094  21.384  27.338  1.00  0.00    -0.458 OA
BRANCH  25  26
ATOM     26  C   UNL A   1      41.414  21.601  27.584  1.00  0.00     0.338 C 
ATOM     27  O   UNL A   1      42.249  20.716  27.725  1.00  0.00    -0.246 OA
BRANCH  26  28
ATOM     28  C   UNL A   1      41.793  23.046  27.590  1.00  0.00     0.060 A 
ATOM     29  C   UNL A   1      41.563  23.916  28.666  1.00  0.00     0.016 A 
ATOM     30  C   UNL A   1      42.350  23.558  26.412  1.00  0.00     0.016 A 
ATOM     31  C   UNL A   1      41.876  25.282  28.548  1.00  0.00     0.010 A 
ATOM     32  C   UNL A   1      42.672  24.911  26.300  1.00  0.00     0.010 A 
ATOM     33  C   UNL A   1      42.441  25.787  27.368  1.00  0.00    -0.014 A 
BRANCH  33  34
ATOM     34  C   UNL A   1      43.033  27.151  27.374  1.00  0.00     0.031 A 
ATOM     35  C   UNL A   1      41.953  28.190  27.355  1.00  0.00     0.074 A 
ATOM     36  C   UNL A   1      44.179  27.520  27.992  1.00  0.00     0.049 A 
ATOM     37  N   UNL A   1      41.237  28.430  28.415  1.00  0.00    -0.248 NA
ATOM     38  C   UNL A   1      41.408  28.762  26.127  1.00  0.00     0.031 C 
ATOM     39  C   UNL A   1      44.795  26.783  29.100  1.00  0.00     0.029 A 
ATOM     40  N   UNL A   1      44.881  28.713  27.949  1.00  0.00    -0.354 N 
ATOM     41  C   UNL A   1      40.109  29.103  28.003  1.00  0.00     0.074 A 
ATOM     42  C   UNL A   1      40.269  29.314  26.579  1.00  0.00     0.031 C 
ATOM     43  C   UNL A   1      45.645  27.608  29.749  1.00  0.00     0.029 A 
ATOM     44  C   UNL A   1      45.762  28.872  29.022  1.00  0.00     0.049 A 
ATOM     45  H   UNL A   1      44.771  29.381  27.234  1.00  0.00     0.167 HD
ATOM     46  C   UNL A   1      39.096  29.414  28.852  1.00  0.00     0.037 A 
ATOM     47  C   UNL A   1      46.091  30.059  29.612  1.00  0.00     0.037 A 
ATOM     48  C   UNL A   1      39.282  29.023  30.220  1.00  0.00     0.049 A 
ATOM     49  C   UNL A   1      44.805  30.410  30.313  1.00  0.00     0.074 A 
ATOM     50  C   UNL A   1      38.946  27.957  31.026  1.00  0.00     0.029 A 
ATOM     51  N   UNL A   1      40.042  29.839  31.025  1.00  0.00    -0.354 N 
ATOM     52  N   UNL A   1      44.383  29.927  31.451  1.00  0.00    -0.248 NA
ATOM     53  C   UNL A   1      43.782  31.097  29.522  1.00  0.00     0.031 C 
ATOM     54  C   UNL A   1      39.894  27.972  32.099  1.00  0.00     0.029 A 
ATOM     55  C   UNL A   1      40.777  29.019  31.844  1.00  0.00     0.049 A 
ATOM     56  H   UNL A   1      40.056  30.824  31.015  1.00  0.00     0.167 HD
ATOM     57  C   UNL A   1      42.990  30.008  31.390  1.00  0.00     0.074 A 
ATOM     58  C   UNL A   1      42.690  30.772  30.197  1.00  0.00     0.031 C 
ATOM     59  C   UNL A   1      42.154  29.291  32.195  1.00  0.00     0.037 A 
BRANCH  46  60
ATOM     60  C   UNL A   1      37.938  30.245  28.485  1.00  0.00     0.058 A 
ATOM     61  C   UNL A   1      37.991  31.611  28.798  1.00  0.00     0.135 A 
ATOM     62  C   UNL A   1      36.730  29.708  28.032  1.00  0.00     0.135 A 
ATOM     63  F   UNL A   1      39.137  32.154  29.241  1.00  0.00    -0.206 F 
ATOM     64  C   UNL A   1      36.865  32.415  28.720  1.00  0.00     0.059 A 
ATOM     65  C   UNL A   1      35.587  30.498  27.937  1.00  0.00     0.059 A 
ATOM     66  F   UNL A   1      36.639  28.404  27.724  1.00  0.00    -0.206 F 
ATOM     67  C   UNL A   1      35.661  31.843  28.309  1.00  0.00     0.060 A 
BRANCH  67  68
ATOM     68  S   UNL A   1      34.190  32.887  28.322  1.00  0.00     0.124 S 
ATOM     69  O   UNL A   1      33.234  32.066  27.587  1.00  0.00    -0.237 OA
ATOM     70  O   UNL A   1      33.937  33.030  29.752  1.00  0.00    -0.237 OA
ATOM     71  O   UNL A   1      34.629  34.101  27.641  1.00  0.00    -0.744 OA
ENDBRANCH  67  68
ENDBRANCH  46  60
BRANCH  47  72
ATOM     72  C   UNL A   1      46.858  31.054  28.787  1.00  0.00     0.058 A 
ATOM     73  C   UNL A   1      48.081  31.548  29.289  1.00  0.00     0.135 A 
ATOM     74  C   UNL A   1      46.455  31.574  27.544  1.00  0.00     0.135 A 
ATOM     75  F   UNL A   1      48.477  31.233  30.533  1.00  0.00    -0.206 F 
ATOM     76  C   UNL A   1      48.926  32.360  28.536  1.00  0.00     0.059 A 
ATOM     77  C   UNL A   1      47.296  32.362  26.756  1.00  0.00     0.059 A 
ATOM     78  F   UNL A   1      45.239  31.315  27.046  1.00  0.00    -0.206 F 
ATOM     79  C   UNL A   1      48.547  32.719  27.246  1.00  0.00     0.060 A 
BRANCH  79  80
ATOM     80  S   UNL A   1      49.741  33.582  26.204  1.00  0.00     0.124 S 
ATOM     81  O   UNL A   1      50.574  32.485  25.723  1.00  0.00    -0.237 OA
ATOM     82  O   UNL A   1      48.873  34.206  25.210  1.00  0.00    -0.237 OA
ATOM     83  O   UNL A   1      50.390  34.507  27.128  1.00  0.00    -0.744 OA
ENDBRANCH  79  80
ENDBRANCH  47  72
BRANCH  59  84
ATOM     84  C   UNL A   1      42.790  28.577  33.340  1.00  0.00     0.058 A 
ATOM     85  C   UNL A   1      42.843  29.184  34.602  1.00  0.00     0.135 A 
ATOM     86  C   UNL A   1      43.280  27.266  33.221  1.00  0.00     0.135 A 
ATOM     87  F   UNL A   1      42.385  30.435  34.772  1.00  0.00    -0.206 F 
ATOM     88  C   UNL A   1      43.320  28.501  35.717  1.00  0.00     0.059 A 
ATOM     89  C   UNL A   1      43.741  26.557  34.327  1.00  0.00     0.059 A 
ATOM     90  F   UNL A   1      43.281  26.640  32.032  1.00  0.00    -0.206 F 
ATOM     91  C   UNL A   1      43.745  27.180  35.574  1.00  0.00     0.060 A 
BRANCH  91  92
ATOM     92  S   UNL A   1      44.224  26.265  37.055  1.00  0.00     0.124 S 
ATOM     93  O   UNL A   1      45.405  26.995  37.499  1.00  0.00    -0.237 OA
ATOM     94  O   UNL A   1      43.040  26.401  37.899  1.00  0.00    -0.237 OA
ATOM     95  O   UNL A   1      44.474  24.913  36.558  1.00  0.00    -0.744 OA
ENDBRANCH  91  92
ENDBRANCH  59  84
ENDBRANCH  33  34
ENDBRANCH  26  28
ENDBRANCH  25  26
ENDBRANCH   1  25
TORSDOF 16
ENDMDL
MODEL 2
REMARK VINA RESULT:     -11.1      1.067      1.824
REMARK SMILES CCc1nc(N2CCC[C@@H](C(=O)OCCOC(=O)c3ccc(-c4c5nc(c(-c6c(F)cc(S(=O)(=O)[O-])cc6F)c6ccc([nH]6)c(-c6c(F)cc(S(=O)(=O)[O-])cc6F)c6nc(c(-c7c(F)cc(S(=O)(=O)[O-])cc7F)c7ccc4[nH]7)C=C6)C=C5)cc3)C2)c2c(C)c(C)oc2n1
REMARK SMILES IDX 15 1 14 2 13 3 11 4 12 5 10 6 6 7 7 8 85 9 8 10 9 11 5 12
REMARK SMILES IDX 3 13 4 14 93 15 92 16 86 17 91 18 87 19 89 20 88 21 90 22
REMARK SMILES IDX 2 23 1 24 16 25 17 26 18 27 19 28 20 29 84 30 21 31 83 32
REMARK SMILES IDX 22 33 23 34 24 35 77 36 25 37 82 38 76 39 78 40 26 41 81 42
REMARK SMILES IDX 75 43 74 44 27 46 61 47 40 48 60 49 41 50 44 51 59 52 79 53
REMARK SMILES IDX 42 54 43 55 58 57 80 58 45 59 28 60 29 61 38 62 30 63 31 64
REMARK SMILES IDX 37 65 39 66 32 67 33 68 34 69 35 70 36 71 62 72 63 73 72 74
REMARK SMILES IDX 64 75 65 76 71 77 73 78 66 79 67 80 68 81 69 82 70 83 46 84
REMARK SMILES IDX 47 85 56 86 48 87 49 88 55 89 57 90 50 91 51 92 52 93 53 94
REMARK SMILES IDX 54 95
REMARK H PARENT 78 45 44 56
REMARK Flexibility Score: inf
ROOT
ATOM      1  C   UNL A   1      39.419  21.262  25.858  1.00  0.00     0.275 C 
ENDROOT
BRANCH   1   2
ATOM      2  C   UNL A   1      37.896  21.341  25.742  1.00  0.00     0.274 C 
BRANCH   2   3
ATOM      3  O   UNL A   1      37.520  22.575  25.116  1.00  0.00    -0.462 OA
BRANCH   3   4
ATOM      4  C   UNL A   1      37.389  23.613  25.992  1.00  0.00     0.310 C 
ATOM      5  O   UNL A   1      38.320  24.207  26.508  1.00  0.00    -0.252 OA
BRANCH   4   6
ATOM      6  C   UNL A   1      35.930  23.925  26.234  1.00  0.00     0.118 C 
ATOM      7  N   UNL A   1      33.894  24.391  25.127  1.00  0.00    -0.355 N 
ATOM      8  C   UNL A   1      33.131  23.205  25.455  1.00  0.00     0.118 C 
ATOM      9  C   UNL A   1      35.301  24.206  24.875  1.00  0.00     0.133 C 
ATOM     10  C   UNL A   1      33.716  22.556  26.710  1.00  0.00     0.022 C 
ATOM     11  C   UNL A   1      35.212  22.790  26.989  1.00  0.00     0.019 C 
BRANCH   7  12
ATOM     12  C   UNL A   1      33.283  25.519  24.649  1.00  0.00     0.143 A 
ATOM     13  C   UNL A   1      32.238  27.574  25.050  1.00  0.00     0.134 A 
ATOM     14  N   UNL A   1      32.869  26.474  25.512  1.00  0.00    -0.215 NA
ATOM     15  N   UNL A   1      31.945  27.839  23.765  1.00  0.00    -0.197 NA
ATOM     16  C   UNL A   1      32.320  26.845  22.949  1.00  0.00     0.231 A 
ATOM     17  C   UNL A   1      32.946  25.662  23.300  1.00  0.00     0.086 A 
ATOM     18  O   UNL A   1      32.092  26.858  21.602  1.00  0.00    -0.443 OA
ATOM     19  C   UNL A   1      32.992  24.856  22.118  1.00  0.00     0.004 A 
ATOM     20  C   UNL A   1      32.522  25.666  21.105  1.00  0.00     0.107 A 
ATOM     21  C   UNL A   1      33.421  23.445  21.982  1.00  0.00     0.049 C 
ATOM     22  C   UNL A   1      32.379  25.457  19.651  1.00  0.00     0.088 C 
BRANCH  13  23
ATOM     23  C   UNL A   1      31.743  28.578  26.065  1.00  0.00     0.074 C 
ATOM     24  C   UNL A   1      31.777  28.106  27.514  1.00  0.00     0.012 C 
ENDBRANCH  13  23
ENDBRANCH   7  12
ENDBRANCH   4   6
ENDBRANCH   3   4
ENDBRANCH   2   3
ENDBRANCH   1   2
BRANCH   1  25
ATOM     25  O   UNL A   1      39.864  21.405  27.227  1.00  0.00    -0.458 OA
BRANCH  25  26
ATOM     26  C   UNL A   1      41.206  21.592  27.354  1.00  0.00     0.338 C 
ATOM     27  O   UNL A   1      42.034  20.689  27.362  1.00  0.00    -0.246 OA
BRANCH  26  28
ATOM     28  C   UNL A   1      41.609  23.029  27.406  1.00  0.00     0.060 A 
ATOM     29  C   UNL A   1      41.492  23.838  28.545  1.00  0.00     0.016 A 
ATOM     30  C   UNL A   1      42.066  23.600  26.213  1.00  0.00     0.016 A 
ATOM     31  C   UNL A   1      41.818  25.205  28.476  1.00  0.00     0.010 A 
ATOM     32  C   UNL A   1      42.401  24.953  26.148  1.00  0.00     0.010 A 
ATOM     33  C   UNL A   1      42.283  25.770  27.279  1.00  0.00    -0.014 A 
BRANCH  33  34
ATOM     34  C   UNL A   1      42.897  27.124  27.308  1.00  0.00     0.031 A 
ATOM     35  C   UNL A   1      41.835  28.180  27.303  1.00  0.00     0.074 A 
ATOM     36  C   UNL A   1      44.048  27.464  27.933  1.00  0.00     0.049 A 
ATOM     37  N   UNL A   1      41.120  28.415  28.366  1.00  0.00    -0.248 NA
ATOM     38  C   UNL A   1      41.301  28.780  26.084  1.00  0.00     0.031 C 
ATOM     39  C   UNL A   1      44.650  26.700  29.030  1.00  0.00     0.029 A 
ATOM     40  N   UNL A   1      44.769  28.645  27.909  1.00  0.00    -0.354 N 
ATOM     41  C   UNL A   1      40.004  29.113  27.963  1.00  0.00     0.074 A 
ATOM     42  C   UNL A   1      40.170  29.344  26.543  1.00  0.00     0.031 C 
ATOM     43  C   UNL A   1      45.512  27.500  29.692  1.00  0.00     0.029 A 
ATOM     44  C   UNL A   1      45.651  28.773  28.986  1.00  0.00     0.049 A 
ATOM     45  H   UNL A   1      44.671  29.327  27.204  1.00  0.00     0.167 HD
ATOM     46  C   UNL A   1      38.995  29.427  28.815  1.00  0.00     0.037 A 
ATOM     47  C   UNL A   1      45.999  29.946  29.595  1.00  0.00     0.037 A 
ATOM     48  C   UNL A   1      39.172  29.012  30.177  1.00  0.00     0.049 A 
ATOM     49  C   UNL A   1      44.718  30.306  30.300  1.00  0.00     0.074 A 
ATOM     50  C   UNL A   1      38.818  27.939  30.966  1.00  0.00     0.029 A 
ATOM     51  N   UNL A   1      39.944  29.803  30.996  1.00  0.00    -0.354 N 
ATOM     52  N   UNL A   1      44.286  29.813  31.430  1.00  0.00    -0.248 NA
ATOM     53  C   UNL A   1      43.707  31.022  29.518  1.00  0.00     0.031 C 
ATOM     54  C   UNL A   1      39.765  27.921  32.040  1.00  0.00     0.029 A 
ATOM     55  C   UNL A   1      40.665  28.958  31.803  1.00  0.00     0.049 A 
ATOM     56  H   UNL A   1      39.974  30.787  31.002  1.00  0.00     0.167 HD
ATOM     57  C   UNL A   1      42.895  29.918  31.368  1.00  0.00     0.074 A 
ATOM     58  C   UNL A   1      42.609  30.705  30.187  1.00  0.00     0.031 C 
ATOM     59  C   UNL A   1      42.046  29.202  32.160  1.00  0.00     0.037 A 
BRANCH  46  60
ATOM     60  C   UNL A   1      37.852  30.283  28.460  1.00  0.00     0.058 A 
ATOM     61  C   UNL A   1      37.921  31.640  28.805  1.00  0.00     0.135 A 
ATOM     62  C   UNL A   1      36.640  29.774  27.985  1.00  0.00     0.135 A 
ATOM     63  F   UNL A   1      39.071  32.156  29.269  1.00  0.00    -0.206 F 
ATOM     64  C   UNL A   1      36.807  32.461  28.738  1.00  0.00     0.059 A 
ATOM     65  C   UNL A   1      35.508  30.581  27.902  1.00  0.00     0.059 A 
ATOM     66  F   UNL A   1      36.533  28.479  27.646  1.00  0.00    -0.206 F 
ATOM     67  C   UNL A   1      35.599  31.916  28.305  1.00  0.00     0.060 A 
BRANCH  67  68
ATOM     68  S   UNL A   1      34.142  32.980  28.333  1.00  0.00     0.124 S 
ATOM     69  O   UNL A   1      34.600  34.134  27.566  1.00  0.00    -0.237 OA
ATOM     70  O   UNL A   1      33.144  32.139  27.680  1.00  0.00    -0.237 OA
ATOM     71  O   UNL A   1      33.922  33.219  29.756  1.00  0.00    -0.744 OA
ENDBRANCH  67  68
ENDBRANCH  46  60
BRANCH  47  72
ATOM     72  C   UNL A   1      46.783  30.941  28.787  1.00  0.00     0.058 A 
ATOM     73  C   UNL A   1      48.005  31.420  29.306  1.00  0.00     0.135 A 
ATOM     74  C   UNL A   1      46.399  31.474  27.544  1.00  0.00     0.135 A 
ATOM     75  F   UNL A   1      48.385  31.092  30.552  1.00  0.00    -0.206 F 
ATOM     76  C   UNL A   1      48.865  32.230  28.568  1.00  0.00     0.059 A 
ATOM     77  C   UNL A   1      47.255  32.261  26.771  1.00  0.00     0.059 A 
ATOM     78  F   UNL A   1      45.186  31.230  27.030  1.00  0.00    -0.206 F 
ATOM     79  C   UNL A   1      48.503  32.603  27.278  1.00  0.00     0.060 A 
BRANCH  79  80
ATOM     80  S   UNL A   1      49.716  33.464  26.256  1.00  0.00     0.124 S 
ATOM     81  O   UNL A   1      48.871  34.100  25.252  1.00  0.00    -0.237 OA
ATOM     82  O   UNL A   1      50.339  34.361  27.225  1.00  0.00    -0.237 OA
ATOM     83  O   UNL A   1      50.573  32.388  25.768  1.00  0.00    -0.744 OA
ENDBRANCH  79  80
ENDBRANCH  47  72
BRANCH  59  84
ATOM     84  C   UNL A   1      42.669  28.460  33.294  1.00  0.00     0.058 A 
ATOM     85  C   UNL A   1      42.687  29.026  34.576  1.00  0.00     0.135 A 
ATOM     86  C   UNL A   1      43.179  27.160  33.143  1.00  0.00     0.135 A 
ATOM     87  F   UNL A   1      42.207  30.265  34.777  1.00  0.00    -0.206 F 
ATOM     88  C   UNL A   1      43.149  28.314  35.678  1.00  0.00     0.059 A 
ATOM     89  C   UNL A   1      43.627  26.422  34.236  1.00  0.00     0.059 A 
ATOM     90  F   UNL A   1      43.214  26.573  31.935  1.00  0.00    -0.206 F 
ATOM     91  C   UNL A   1      43.597  27.003  35.502  1.00  0.00     0.060 A 
BRANCH  91  92
ATOM     92  S   UNL A   1      44.058  26.047  36.963  1.00  0.00     0.124 S 
ATOM     93  O   UNL A   1      45.370  26.594  37.287  1.00  0.00    -0.237 OA
ATOM     94  O   UNL A   1      42.986  26.375  37.898  1.00  0.00    -0.237 OA
ATOM     95  O   UNL A   1      44.056  24.667  36.484  1.00  0.00    -0.744 OA
ENDBRANCH  91  92
ENDBRANCH  59  84
ENDBRANCH  33  34
ENDBRANCH  26  28
ENDBRANCH  25  26
ENDBRANCH   1  25
TORSDOF 16
ENDMDL
MODEL 3
REMARK VINA RESULT:     -10.9      1.789      2.675
REMARK SMILES CCc1nc(N2CCC[C@@H](C(=O)OCCOC(=O)c3ccc(-c4c5nc(c(-c6c(F)cc(S(=O)(=O)[O-])cc6F)c6ccc([nH]6)c(-c6c(F)cc(S(=O)(=O)[O-])cc6F)c6nc(c(-c7c(F)cc(S(=O)(=O)[O-])cc7F)c7ccc4[nH]7)C=C6)C=C5)cc3)C2)c2c(C)c(C)oc2n1
REMARK SMILES IDX 15 1 14 2 13 3 11 4 12 5 10 6 6 7 7 8 85 9 8 10 9 11 5 12
REMARK SMILES IDX 3 13 4 14 93 15 92 16 86 17 91 18 87 19 89 20 88 21 90 22
REMARK SMILES IDX 2 23 1 24 16 25 17 26 18 27 19 28 20 29 84 30 21 31 83 32
REMARK SMILES IDX 22 33 23 34 24 35 77 36 25 37 82 38 76 39 78 40 26 41 81 42
REMARK SMILES IDX 75 43 74 44 27 46 61 47 40 48 60 49 41 50 44 51 59 52 79 53
REMARK SMILES IDX 42 54 43 55 58 57 80 58 45 59 28 60 29 61 38 62 30 63 31 64
REMARK SMILES IDX 37 65 39 66 32 67 33 68 34 69 35 70 36 71 62 72 63 73 72 74
REMARK SMILES IDX 64 75 65 76 71 77 73 78 66 79 67 80 68 81 69 82 70 83 46 84
REMARK SMILES IDX 47 85 56 86 48 87 49 88 55 89 57 90 50 91 51 92 52 93 53 94
REMARK SMILES IDX 54 95
REMARK H PARENT 78 45 44 56
REMARK Flexibility Score: inf
ROOT
ATOM      1  C   UNL A   1      37.507  22.003  25.305  1.00  0.00     0.275 C 
ENDROOT
BRANCH   1   2
ATOM      2  C   UNL A   1      36.917  22.575  24.015  1.00  0.00     0.274 C 
BRANCH   2   3
ATOM      3  O   UNL A   1      35.540  22.192  23.899  1.00  0.00    -0.462 OA
BRANCH   3   4
ATOM      4  C   UNL A   1      34.721  23.215  23.519  1.00  0.00     0.310 C 
ATOM      5  O   UNL A   1      34.396  23.453  22.369  1.00  0.00    -0.252 OA
BRANCH   4   6
ATOM      6  C   UNL A   1      34.271  24.011  24.722  1.00  0.00     0.118 C 
ATOM      7  N   UNL A   1      32.720  25.651  25.426  1.00  0.00    -0.355 N 
ATOM      8  C   UNL A   1      31.885  24.869  26.314  1.00  0.00     0.118 C 
ATOM      9  C   UNL A   1      33.203  24.987  24.242  1.00  0.00     0.133 C 
ATOM     10  C   UNL A   1      32.662  23.641  26.791  1.00  0.00     0.022 C 
ATOM     11  C   UNL A   1      33.766  23.104  25.861  1.00  0.00     0.019 C 
BRANCH   7  12
ATOM     12  C   UNL A   1      32.694  27.019  25.449  1.00  0.00     0.143 A 
ATOM     13  C   UNL A   1      33.528  29.041  26.282  1.00  0.00     0.134 A 
ATOM     14  N   UNL A   1      33.567  27.693  26.231  1.00  0.00    -0.215 NA
ATOM     15  N   UNL A   1      32.666  29.834  25.621  1.00  0.00    -0.197 NA
ATOM     16  C   UNL A   1      31.782  29.128  24.903  1.00  0.00     0.231 A 
ATOM     17  C   UNL A   1      31.702  27.752  24.790  1.00  0.00     0.086 A 
ATOM     18  O   UNL A   1      30.779  29.705  24.178  1.00  0.00    -0.443 OA
ATOM     19  C   UNL A   1      30.508  27.469  24.054  1.00  0.00     0.004 A 
ATOM     20  C   UNL A   1      30.029  28.698  23.649  1.00  0.00     0.107 A 
ATOM     21  C   UNL A   1      29.878  26.155  23.788  1.00  0.00     0.049 C 
ATOM     22  C   UNL A   1      28.878  29.091  22.813  1.00  0.00     0.088 C 
BRANCH  13  23
ATOM     23  C   UNL A   1      34.485  29.737  27.221  1.00  0.00     0.074 C 
ATOM     24  C   UNL A   1      34.096  31.159  27.607  1.00  0.00     0.012 C 
ENDBRANCH  13  23
ENDBRANCH   7  12
ENDBRANCH   4   6
ENDBRANCH   3   4
ENDBRANCH   2   3
ENDBRANCH   1   2
BRANCH   1  25
ATOM     25  O   UNL A   1      38.054  23.038  26.154  1.00  0.00    -0.458 OA
BRANCH  25  26
ATOM     26  C   UNL A   1      39.271  22.734  26.682  1.00  0.00     0.338 C 
ATOM     27  O   UNL A   1      39.692  21.595  26.844  1.00  0.00    -0.246 OA
BRANCH  26  28
ATOM     28  C   UNL A   1      40.109  23.933  26.984  1.00  0.00     0.060 A 
ATOM     29  C   UNL A   1      41.504  23.975  26.839  1.00  0.00     0.016 A 
ATOM     30  C   UNL A   1      39.448  25.051  27.505  1.00  0.00     0.016 A 
ATOM     31  C   UNL A   1      42.219  25.121  27.230  1.00  0.00     0.010 A 
ATOM     32  C   UNL A   1      40.157  26.193  27.880  1.00  0.00     0.010 A 
ATOM     33  C   UNL A   1      41.550  26.241  27.745  1.00  0.00    -0.014 A 
BRANCH  33  34
ATOM     34  C   UNL A   1      42.282  27.530  27.867  1.00  0.00     0.031 A 
ATOM     35  C   UNL A   1      41.347  28.627  28.273  1.00  0.00     0.074 A 
ATOM     36  C   UNL A   1      43.564  27.683  28.274  1.00  0.00     0.049 A 
ATOM     37  N   UNL A   1      40.891  28.701  29.490  1.00  0.00    -0.248 NA
ATOM     38  C   UNL A   1      40.634  29.472  27.319  1.00  0.00     0.031 C 
ATOM     39  C   UNL A   1      44.303  26.695  29.067  1.00  0.00     0.029 A 
ATOM     40  N   UNL A   1      44.374  28.805  28.292  1.00  0.00    -0.354 N 
ATOM     41  C   UNL A   1      39.787  29.523  29.464  1.00  0.00     0.074 A 
ATOM     42  C   UNL A   1      39.680  30.003  28.103  1.00  0.00     0.031 C 
ATOM     43  C   UNL A   1      45.355  27.309  29.650  1.00  0.00     0.029 A 
ATOM     44  C   UNL A   1      45.466  28.681  29.156  1.00  0.00     0.049 A 
ATOM     45  H   UNL A   1      44.199  29.610  27.752  1.00  0.00     0.167 HD
ATOM     46  C   UNL A   1      39.009  29.730  30.558  1.00  0.00     0.037 A 
ATOM     47  C   UNL A   1      46.041  29.699  29.863  1.00  0.00     0.037 A 
ATOM     48  C   UNL A   1      39.421  29.061  31.757  1.00  0.00     0.049 A 
ATOM     49  C   UNL A   1      44.971  29.995  30.882  1.00  0.00     0.074 A 
ATOM     50  C   UNL A   1      39.136  27.882  32.413  1.00  0.00     0.029 A 
ATOM     51  N   UNL A   1      40.416  29.641  32.509  1.00  0.00    -0.354 N 
ATOM     52  N   UNL A   1      44.736  29.325  31.978  1.00  0.00    -0.248 NA
ATOM     53  C   UNL A   1      43.895  30.899  30.472  1.00  0.00     0.031 C 
ATOM     54  C   UNL A   1      40.277  27.612  33.234  1.00  0.00     0.029 A 
ATOM     55  C   UNL A   1      41.204  28.622  32.985  1.00  0.00     0.049 A 
ATOM     56  H   UNL A   1      40.540  30.604  32.675  1.00  0.00     0.167 HD
ATOM     57  C   UNL A   1      43.378  29.518  32.241  1.00  0.00     0.074 A 
ATOM     58  C   UNL A   1      42.932  30.526  31.301  1.00  0.00     0.031 C 
ATOM     59  C   UNL A   1      42.645  28.717  33.067  1.00  0.00     0.037 A 
BRANCH  46  60
ATOM     60  C   UNL A   1      37.904  30.700  30.611  1.00  0.00     0.058 A 
ATOM     61  C   UNL A   1      38.220  32.034  30.905  1.00  0.00     0.135 A 
ATOM     62  C   UNL A   1      36.558  30.322  30.582  1.00  0.00     0.135 A 
ATOM     63  F   UNL A   1      39.505  32.426  30.945  1.00  0.00    -0.206 F 
ATOM     64  C   UNL A   1      37.237  32.958  31.219  1.00  0.00     0.059 A 
ATOM     65  C   UNL A   1      35.552  31.235  30.887  1.00  0.00     0.059 A 
ATOM     66  F   UNL A   1      36.215  29.053  30.306  1.00  0.00    -0.206 F 
ATOM     67  C   UNL A   1      35.906  32.543  31.228  1.00  0.00     0.060 A 
BRANCH  67  68
ATOM     68  S   UNL A   1      34.658  33.739  31.748  1.00  0.00     0.124 S 
ATOM     69  O   UNL A   1      33.965  34.011  30.492  1.00  0.00    -0.237 OA
ATOM     70  O   UNL A   1      33.905  32.976  32.737  1.00  0.00    -0.237 OA
ATOM     71  O   UNL A   1      35.448  34.844  32.281  1.00  0.00    -0.744 OA
ENDBRANCH  67  68
ENDBRANCH  46  60
BRANCH  47  72
ATOM     72  C   UNL A   1      46.733  30.781  29.083  1.00  0.00     0.058 A 
ATOM     73  C   UNL A   1      47.182  30.490  27.777  1.00  0.00     0.135 A 
ATOM     74  C   UNL A   1      47.007  32.080  29.546  1.00  0.00     0.135 A 
ATOM     75  F   UNL A   1      47.108  29.237  27.300  1.00  0.00    -0.206 F 
ATOM     76  C   UNL A   1      47.704  31.465  26.931  1.00  0.00     0.059 A 
ATOM     77  C   UNL A   1      47.499  33.083  28.709  1.00  0.00     0.059 A 
ATOM     78  F   UNL A   1      46.785  32.422  30.822  1.00  0.00    -0.206 F 
ATOM     79  C   UNL A   1      47.809  32.774  27.390  1.00  0.00     0.060 A 
BRANCH  79  80
ATOM     80  S   UNL A   1      48.277  34.065  26.219  1.00  0.00     0.124 S 
ATOM     81  O   UNL A   1      49.432  33.470  25.556  1.00  0.00    -0.237 OA
ATOM     82  O   UNL A   1      47.068  34.185  25.409  1.00  0.00    -0.237 OA
ATOM     83  O   UNL A   1      48.564  35.212  27.076  1.00  0.00    -0.744 OA
ENDBRANCH  79  80
ENDBRANCH  47  72
BRANCH  59  84
ATOM     84  C   UNL A   1      43.414  27.744  33.896  1.00  0.00     0.058 A 
ATOM     85  C   UNL A   1      43.728  28.051  35.227  1.00  0.00     0.135 A 
ATOM     86  C   UNL A   1      43.777  26.477  33.411  1.00  0.00     0.135 A 
ATOM     87  F   UNL A   1      43.400  29.247  35.742  1.00  0.00    -0.206 F 
ATOM     88  C   UNL A   1      44.336  27.120  36.063  1.00  0.00     0.059 A 
ATOM     89  C   UNL A   1      44.367  25.522  34.237  1.00  0.00     0.059 A 
ATOM     90  F   UNL A   1      43.528  26.132  32.136  1.00  0.00    -0.206 F 
ATOM     91  C   UNL A   1      44.632  25.850  35.565  1.00  0.00     0.060 A 
BRANCH  91  92
ATOM     92  S   UNL A   1      45.288  24.611  36.702  1.00  0.00     0.124 S 
ATOM     93  O   UNL A   1      45.102  23.374  35.951  1.00  0.00    -0.237 OA
ATOM     94  O   UNL A   1      46.671  25.048  36.872  1.00  0.00    -0.237 OA
ATOM     95  O   UNL A   1      44.448  24.755  37.889  1.00  0.00    -0.744 OA
ENDBRANCH  91  92
ENDBRANCH  59  84
ENDBRANCH  33  34
ENDBRANCH  26  28
ENDBRANCH  25  26
ENDBRANCH   1  25
TORSDOF 16
ENDMDL
