MODEL 1
REMARK VINA RESULT:     -12.0      0.000      0.000
REMARK SMILES O=C(OCCOC(=O)c1cccn(Cc2ccc3c(c2)OC(F)(F)O3)c1=O)c1ccc(-c2c3nc(c(-c4c(F)cc(S(=O)(=O)[O-])cc4F)c4ccc([nH]4)c(-c4c(F)cc(S(=O)(=O)[O-])cc4F)c4nc(c(-c5c(F)cc(S(=O)(=O)[O-])cc5F)c5ccc2[nH]5)C=C4)C=C3)cc1
REMARK SMILES IDX 4 1 3 2 2 3 1 4 28 5 29 6 93 7 30 8 92 9 31 10 32 11 33 12
REMARK SMILES IDX 86 13 34 14 91 15 85 16 87 17 35 18 90 19 84 20 83 21 36 23
REMARK SMILES IDX 70 24 49 25 69 26 50 27 53 28 68 29 88 30 51 31 52 32 67 34
REMARK SMILES IDX 89 35 54 36 37 37 38 38 47 39 39 40 40 41 46 42 48 43 41 44
REMARK SMILES IDX 42 45 43 46 44 47 45 48 71 49 72 50 81 51 73 52 74 53 80 54
REMARK SMILES IDX 82 55 75 56 76 57 77 58 78 59 79 60 55 61 56 62 65 63 57 64
REMARK SMILES IDX 58 65 64 66 66 67 59 68 60 69 61 70 62 71 63 72 5 73 6 74
REMARK SMILES IDX 7 75 8 76 9 77 10 78 26 79 11 80 13 81 27 82 12 83 14 84
REMARK SMILES IDX 15 85 16 86 20 87 17 88 19 89 18 90 21 91 25 92 22 93 23 94
REMARK SMILES IDX 24 95
REMARK H PARENT 87 22 53 33
REMARK Flexibility Score: inf
ROOT
ATOM      1  C   UNL A   1      43.329  23.256  26.044  1.00  0.00     0.275 C 
ENDROOT
BRANCH   1   2
ATOM      2  O   UNL A   1      42.289  24.224  25.811  1.00  0.00    -0.458 OA
BRANCH   2   3
ATOM      3  C   UNL A   1      42.326  25.575  25.908  1.00  0.00     0.338 C 
ATOM      4  O   UNL A   1      42.863  26.212  25.003  1.00  0.00    -0.246 OA
BRANCH   3   5
ATOM      5  C   UNL A   1      41.906  26.328  27.132  1.00  0.00     0.060 A 
ATOM      6  C   UNL A   1      42.612  27.513  27.388  1.00  0.00     0.016 A 
ATOM      7  C   UNL A   1      40.889  25.976  28.022  1.00  0.00     0.016 A 
ATOM      8  C   UNL A   1      42.393  28.246  28.558  1.00  0.00     0.010 A 
ATOM      9  C   UNL A   1      40.644  26.731  29.183  1.00  0.00     0.010 A 
ATOM     10  C   UNL A   1      41.409  27.859  29.480  1.00  0.00    -0.014 A 
BRANCH  10  11
ATOM     11  C   UNL A   1      41.119  28.734  30.646  1.00  0.00     0.031 A 
ATOM     12  C   UNL A   1      41.895  28.670  31.932  1.00  0.00     0.074 A 
ATOM     13  C   UNL A   1      40.135  29.647  30.515  1.00  0.00     0.049 A 
ATOM     14  N   UNL A   1      41.971  29.578  32.876  1.00  0.00    -0.248 NA
ATOM     15  C   UNL A   1      42.708  27.474  32.196  1.00  0.00     0.031 C 
ATOM     16  C   UNL A   1      39.249  29.760  29.354  1.00  0.00     0.029 A 
ATOM     17  N   UNL A   1      39.716  30.648  31.352  1.00  0.00    -0.354 N 
ATOM     18  C   UNL A   1      42.915  29.113  33.783  1.00  0.00     0.074 A 
ATOM     19  C   UNL A   1      43.314  27.798  33.335  1.00  0.00     0.031 C 
ATOM     20  C   UNL A   1      38.402  30.780  29.544  1.00  0.00     0.029 A 
ATOM     21  C   UNL A   1      38.660  31.371  30.852  1.00  0.00     0.049 A 
ATOM     22  H   UNL A   1      40.131  30.830  32.226  1.00  0.00     0.167 HD
ATOM     23  C   UNL A   1      43.438  29.760  34.852  1.00  0.00     0.037 A 
ATOM     24  C   UNL A   1      37.959  32.386  31.392  1.00  0.00     0.037 A 
ATOM     25  C   UNL A   1      42.925  31.003  35.362  1.00  0.00     0.049 A 
ATOM     26  C   UNL A   1      38.382  32.937  32.718  1.00  0.00     0.074 A 
ATOM     27  C   UNL A   1      43.400  31.771  36.411  1.00  0.00     0.029 A 
ATOM     28  N   UNL A   1      41.765  31.613  34.913  1.00  0.00    -0.354 N 
ATOM     29  N   UNL A   1      39.440  32.628  33.429  1.00  0.00    -0.248 NA
ATOM     30  C   UNL A   1      37.526  33.963  33.323  1.00  0.00     0.031 C 
ATOM     31  C   UNL A   1      42.473  32.793  36.652  1.00  0.00     0.029 A 
ATOM     32  C   UNL A   1      41.447  32.686  35.726  1.00  0.00     0.049 A 
ATOM     33  H   UNL A   1      41.243  31.325  34.129  1.00  0.00     0.167 HD
ATOM     34  C   UNL A   1      39.380  33.420  34.567  1.00  0.00     0.074 A 
ATOM     35  C   UNL A   1      38.187  34.236  34.441  1.00  0.00     0.031 C 
ATOM     36  C   UNL A   1      40.239  33.467  35.615  1.00  0.00     0.037 A 
BRANCH  23  37
ATOM     37  C   UNL A   1      44.649  29.171  35.518  1.00  0.00     0.058 A 
ATOM     38  C   UNL A   1      44.490  28.234  36.551  1.00  0.00     0.135 A 
ATOM     39  C   UNL A   1      45.951  29.443  35.080  1.00  0.00     0.135 A 
ATOM     40  F   UNL A   1      43.259  27.905  36.964  1.00  0.00    -0.206 F 
ATOM     41  C   UNL A   1      45.578  27.608  37.152  1.00  0.00     0.059 A 
ATOM     42  C   UNL A   1      47.057  28.818  35.654  1.00  0.00     0.059 A 
ATOM     43  F   UNL A   1      46.156  30.315  34.081  1.00  0.00    -0.206 F 
ATOM     44  C   UNL A   1      46.861  27.910  36.697  1.00  0.00     0.060 A 
BRANCH  44  45
ATOM     45  S   UNL A   1      48.266  27.079  37.471  1.00  0.00     0.124 S 
ATOM     46  O   UNL A   1      49.366  27.968  37.111  1.00  0.00    -0.237 OA
ATOM     47  O   UNL A   1      47.888  27.072  38.880  1.00  0.00    -0.237 OA
ATOM     48  O   UNL A   1      48.284  25.770  36.825  1.00  0.00    -0.744 OA
ENDBRANCH  44  45
ENDBRANCH  23  37
BRANCH  24  49
ATOM     49  C   UNL A   1      36.776  32.896  30.654  1.00  0.00     0.058 A 
ATOM     50  C   UNL A   1      35.478  32.490  30.982  1.00  0.00     0.135 A 
ATOM     51  C   UNL A   1      36.926  33.910  29.691  1.00  0.00     0.135 A 
ATOM     52  F   UNL A   1      35.286  31.521  31.891  1.00  0.00    -0.206 F 
ATOM     53  C   UNL A   1      34.364  33.093  30.406  1.00  0.00     0.059 A 
ATOM     54  C   UNL A   1      35.829  34.544  29.120  1.00  0.00     0.059 A 
ATOM     55  F   UNL A   1      38.151  34.342  29.355  1.00  0.00    -0.206 F 
ATOM     56  C   UNL A   1      34.550  34.133  29.491  1.00  0.00     0.060 A 
BRANCH  56  57
ATOM     57  S   UNL A   1      33.099  35.000  28.854  1.00  0.00     0.124 S 
ATOM     58  O   UNL A   1      32.313  35.187  30.068  1.00  0.00    -0.237 OA
ATOM     59  O   UNL A   1      33.692  36.206  28.284  1.00  0.00    -0.237 OA
ATOM     60  O   UNL A   1      32.546  34.062  27.882  1.00  0.00    -0.744 OA
ENDBRANCH  56  57
ENDBRANCH  24  49
BRANCH  36  61
ATOM     61  C   UNL A   1      39.903  34.392  36.748  1.00  0.00     0.058 A 
ATOM     62  C   UNL A   1      39.207  33.927  37.872  1.00  0.00     0.135 A 
ATOM     63  C   UNL A   1      40.356  35.720  36.755  1.00  0.00     0.135 A 
ATOM     64  F   UNL A   1      38.741  32.668  37.907  1.00  0.00    -0.206 F 
ATOM     65  C   UNL A   1      38.970  34.748  38.969  1.00  0.00     0.059 A 
ATOM     66  C   UNL A   1      40.154  36.552  37.851  1.00  0.00     0.059 A 
ATOM     67  F   UNL A   1      41.032  36.210  35.702  1.00  0.00    -0.206 F 
ATOM     68  C   UNL A   1      39.458  36.056  38.953  1.00  0.00     0.060 A 
BRANCH  68  69
ATOM     69  S   UNL A   1      39.206  37.085  40.415  1.00  0.00     0.124 S 
ATOM     70  O   UNL A   1      40.563  37.545  40.688  1.00  0.00    -0.237 OA
ATOM     71  O   UNL A   1      38.279  38.100  39.923  1.00  0.00    -0.237 OA
ATOM     72  O   UNL A   1      38.650  36.155  41.393  1.00  0.00    -0.744 OA
ENDBRANCH  68  69
ENDBRANCH  36  61
ENDBRANCH  10  11
ENDBRANCH   3   5
ENDBRANCH   2   3
ENDBRANCH   1   2
BRANCH   1  73
ATOM     73  C   UNL A   1      42.831  21.831  26.277  1.00  0.00     0.275 C 
BRANCH  73  74
ATOM     74  O   UNL A   1      41.547  21.600  25.688  1.00  0.00    -0.458 OA
BRANCH  74  75
ATOM     75  C   UNL A   1      40.561  21.243  26.558  1.00  0.00     0.343 C 
ATOM     76  O   UNL A   1      40.700  20.535  27.538  1.00  0.00    -0.246 OA
BRANCH  75  77
ATOM     77  C   UNL A   1      39.324  21.985  26.256  1.00  0.00     0.125 A 
ATOM     78  C   UNL A   1      39.273  23.268  26.656  1.00  0.00     0.023 A 
ATOM     79  C   UNL A   1      38.184  21.395  25.505  1.00  0.00     0.265 A 
ATOM     80  C   UNL A   1      38.151  24.104  26.316  1.00  0.00     0.019 A 
ATOM     81  N   UNL A   1      37.104  22.256  25.270  1.00  0.00    -0.310 N 
ATOM     82  O   UNL A   1      38.212  20.215  25.157  1.00  0.00    -0.268 OA
ATOM     83  C   UNL A   1      37.117  23.587  25.646  1.00  0.00     0.089 A 
BRANCH  81  84
ATOM     84  C   UNL A   1      35.881  21.715  24.681  1.00  0.00     0.161 C 
BRANCH  84  85
ATOM     85  C   UNL A   1      34.656  22.185  25.426  1.00  0.00    -0.024 A 
ATOM     86  C   UNL A   1      34.445  21.814  26.773  1.00  0.00     0.010 A 
ATOM     87  C   UNL A   1      33.756  23.052  24.785  1.00  0.00     0.056 A 
ATOM     88  C   UNL A   1      33.361  22.324  27.492  1.00  0.00     0.051 A 
ATOM     89  C   UNL A   1      32.714  23.555  25.524  1.00  0.00     0.173 A 
ATOM     90  C   UNL A   1      32.525  23.206  26.842  1.00  0.00     0.172 A 
ATOM     91  O   UNL A   1      31.797  24.456  25.083  1.00  0.00    -0.395 OA
ATOM     92  O   UNL A   1      31.463  23.853  27.396  1.00  0.00    -0.395 OA
ATOM     93  C   UNL A   1      31.163  24.766  26.329  1.00  0.00     0.586 C 
ATOM     94  F   UNL A   1      31.528  26.012  26.710  1.00  0.00    -0.125 F 
ATOM     95  F   UNL A   1      29.819  24.772  26.138  1.00  0.00    -0.125 F 
ENDBRANCH  84  85
ENDBRANCH  81  84
ENDBRANCH  75  77
ENDBRANCH  74  75
ENDBRANCH  73  74
ENDBRANCH   1  73
TORSDOF 16
ENDMDL
MODEL 2
REMARK VINA RESULT:     -11.9      2.047      3.160
REMARK SMILES O=C(OCCOC(=O)c1cccn(Cc2ccc3c(c2)OC(F)(F)O3)c1=O)c1ccc(-c2c3nc(c(-c4c(F)cc(S(=O)(=O)[O-])cc4F)c4ccc([nH]4)c(-c4c(F)cc(S(=O)(=O)[O-])cc4F)c4nc(c(-c5c(F)cc(S(=O)(=O)[O-])cc5F)c5ccc2[nH]5)C=C4)C=C3)cc1
REMARK SMILES IDX 4 1 3 2 2 3 1 4 28 5 29 6 93 7 30 8 92 9 31 10 32 11 33 12
REMARK SMILES IDX 86 13 34 14 91 15 85 16 87 17 35 18 90 19 84 20 83 21 36 23
REMARK SMILES IDX 70 24 49 25 69 26 50 27 53 28 68 29 88 30 51 31 52 32 67 34
REMARK SMILES IDX 89 35 54 36 37 37 38 38 47 39 39 40 40 41 46 42 48 43 41 44
REMARK SMILES IDX 42 45 43 46 44 47 45 48 71 49 72 50 81 51 73 52 74 53 80 54
REMARK SMILES IDX 82 55 75 56 76 57 77 58 78 59 79 60 55 61 56 62 65 63 57 64
REMARK SMILES IDX 58 65 64 66 66 67 59 68 60 69 61 70 62 71 63 72 5 73 6 74
REMARK SMILES IDX 7 75 8 76 9 77 10 78 26 79 11 80 13 81 27 82 12 83 14 84
REMARK SMILES IDX 15 85 16 86 20 87 17 88 19 89 18 90 21 91 25 92 22 93 23 94
REMARK SMILES IDX 24 95
REMARK H PARENT 87 22 53 33
REMARK Flexibility Score: inf
ROOT
ATOM      1  C   UNL A   1      45.469  26.019  25.047  1.00  0.00     0.275 C 
ENDROOT
BRANCH   1   2
ATOM      2  O   UNL A   1      44.043  25.907  25.206  1.00  0.00    -0.458 OA
BRANCH   2   3
ATOM      3  C   UNL A   1      43.108  26.878  25.339  1.00  0.00     0.338 C 
ATOM      4  O   UNL A   1      42.784  27.520  24.342  1.00  0.00    -0.246 OA
BRANCH   3   5
ATOM      5  C   UNL A   1      42.570  27.333  26.662  1.00  0.00     0.060 A 
ATOM      6  C   UNL A   1      43.020  28.587  27.101  1.00  0.00     0.016 A 
ATOM      7  C   UNL A   1      41.671  26.645  27.480  1.00  0.00     0.016 A 
ATOM      8  C   UNL A   1      42.682  29.073  28.367  1.00  0.00     0.010 A 
ATOM      9  C   UNL A   1      41.303  27.148  28.741  1.00  0.00     0.010 A 
ATOM     10  C   UNL A   1      41.824  28.354  29.212  1.00  0.00    -0.014 A 
BRANCH  10  11
ATOM     11  C   UNL A   1      41.386  28.962  30.496  1.00  0.00     0.031 A 
ATOM     12  C   UNL A   1      42.061  28.677  31.810  1.00  0.00     0.074 A 
ATOM     13  C   UNL A   1      40.360  29.836  30.458  1.00  0.00     0.049 A 
ATOM     14  N   UNL A   1      42.004  29.379  32.916  1.00  0.00    -0.248 NA
ATOM     15  C   UNL A   1      42.925  27.492  31.906  1.00  0.00     0.031 C 
ATOM     16  C   UNL A   1      39.563  30.138  29.266  1.00  0.00     0.029 A 
ATOM     17  N   UNL A   1      39.813  30.627  31.433  1.00  0.00    -0.354 N 
ATOM     18  C   UNL A   1      42.901  28.786  33.796  1.00  0.00     0.074 A 
ATOM     19  C   UNL A   1      43.417  27.608  33.137  1.00  0.00     0.031 C 
ATOM     20  C   UNL A   1      38.641  31.058  29.575  1.00  0.00     0.029 A 
ATOM     21  C   UNL A   1      38.756  31.385  30.992  1.00  0.00     0.049 A 
ATOM     22  H   UNL A   1      40.145  30.649  32.360  1.00  0.00     0.167 HD
ATOM     23  C   UNL A   1      43.295  29.230  35.013  1.00  0.00     0.037 A 
ATOM     24  C   UNL A   1      37.952  32.238  31.655  1.00  0.00     0.037 A 
ATOM     25  C   UNL A   1      42.665  30.319  35.708  1.00  0.00     0.049 A 
ATOM     26  C   UNL A   1      38.232  32.531  33.096  1.00  0.00     0.074 A 
ATOM     27  C   UNL A   1      43.005  30.882  36.927  1.00  0.00     0.029 A 
ATOM     28  N   UNL A   1      41.507  30.952  35.285  1.00  0.00    -0.354 N 
ATOM     29  N   UNL A   1      39.248  32.134  33.825  1.00  0.00    -0.248 NA
ATOM     30  C   UNL A   1      37.266  33.373  33.810  1.00  0.00     0.031 C 
ATOM     31  C   UNL A   1      41.998  31.791  37.279  1.00  0.00     0.029 A 
ATOM     32  C   UNL A   1      41.058  31.824  36.260  1.00  0.00     0.049 A 
ATOM     33  H   UNL A   1      41.068  30.803  34.416  1.00  0.00     0.167 HD
ATOM     34  C   UNL A   1      39.046  32.678  35.086  1.00  0.00     0.074 A 
ATOM     35  C   UNL A   1      37.817  33.446  35.016  1.00  0.00     0.031 C 
ATOM     36  C   UNL A   1      39.815  32.554  36.196  1.00  0.00     0.037 A 
BRANCH  23  37
ATOM     37  C   UNL A   1      44.484  28.575  35.657  1.00  0.00     0.058 A 
ATOM     38  C   UNL A   1      45.776  29.050  35.380  1.00  0.00     0.135 A 
ATOM     39  C   UNL A   1      44.354  27.562  36.614  1.00  0.00     0.135 A 
ATOM     40  F   UNL A   1      45.941  30.055  34.510  1.00  0.00    -0.206 F 
ATOM     41  C   UNL A   1      46.904  28.525  36.003  1.00  0.00     0.059 A 
ATOM     42  C   UNL A   1      45.465  27.028  37.264  1.00  0.00     0.059 A 
ATOM     43  F   UNL A   1      43.139  27.088  36.931  1.00  0.00    -0.206 F 
ATOM     44  C   UNL A   1      46.738  27.509  36.944  1.00  0.00     0.060 A 
BRANCH  44  45
ATOM     45  S   UNL A   1      48.206  26.844  37.761  1.00  0.00     0.124 S 
ATOM     46  O   UNL A   1      49.093  28.003  37.756  1.00  0.00    -0.237 OA
ATOM     47  O   UNL A   1      47.685  26.446  39.064  1.00  0.00    -0.237 OA
ATOM     48  O   UNL A   1      48.612  25.745  36.890  1.00  0.00    -0.744 OA
ENDBRANCH  44  45
ENDBRANCH  23  37
BRANCH  24  49
ATOM     49  C   UNL A   1      36.800  32.830  30.927  1.00  0.00     0.058 A 
ATOM     50  C   UNL A   1      35.492  32.376  31.132  1.00  0.00     0.135 A 
ATOM     51  C   UNL A   1      36.985  33.960  30.110  1.00  0.00     0.135 A 
ATOM     52  F   UNL A   1      35.268  31.297  31.899  1.00  0.00    -0.206 F 
ATOM     53  C   UNL A   1      34.401  33.040  30.581  1.00  0.00     0.059 A 
ATOM     54  C   UNL A   1      35.910  34.654  29.568  1.00  0.00     0.059 A 
ATOM     55  F   UNL A   1      38.220  34.440  29.896  1.00  0.00    -0.206 F 
ATOM     56  C   UNL A   1      34.620  34.190  29.817  1.00  0.00     0.060 A 
BRANCH  56  57
ATOM     57  S   UNL A   1      33.191  35.121  29.221  1.00  0.00     0.124 S 
ATOM     58  O   UNL A   1      32.651  34.217  28.213  1.00  0.00    -0.237 OA
ATOM     59  O   UNL A   1      32.397  35.270  30.437  1.00  0.00    -0.237 OA
ATOM     60  O   UNL A   1      33.782  36.355  28.712  1.00  0.00    -0.744 OA
ENDBRANCH  56  57
ENDBRANCH  24  49
BRANCH  36  61
ATOM     61  C   UNL A   1      39.332  33.215  37.453  1.00  0.00     0.058 A 
ATOM     62  C   UNL A   1      38.395  32.584  38.284  1.00  0.00     0.135 A 
ATOM     63  C   UNL A   1      39.872  34.439  37.879  1.00  0.00     0.135 A 
ATOM     64  F   UNL A   1      37.841  31.418  37.913  1.00  0.00    -0.206 F 
ATOM     65  C   UNL A   1      38.009  33.141  39.497  1.00  0.00     0.059 A 
ATOM     66  C   UNL A   1      39.520  35.004  39.100  1.00  0.00     0.059 A 
ATOM     67  F   UNL A   1      40.776  35.080  37.120  1.00  0.00    -0.206 F 
ATOM     68  C   UNL A   1      38.586  34.347  39.901  1.00  0.00     0.060 A 
BRANCH  68  69
ATOM     69  S   UNL A   1      38.128  35.021  41.512  1.00  0.00     0.124 S 
ATOM     70  O   UNL A   1      39.080  34.352  42.392  1.00  0.00    -0.237 OA
ATOM     71  O   UNL A   1      38.338  36.453  41.320  1.00  0.00    -0.237 OA
ATOM     72  O   UNL A   1      36.735  34.612  41.668  1.00  0.00    -0.744 OA
ENDBRANCH  68  69
ENDBRANCH  36  61
ENDBRANCH  10  11
ENDBRANCH   3   5
ENDBRANCH   2   3
ENDBRANCH   1   2
BRANCH   1  73
ATOM     73  C   UNL A   1      46.206  24.684  24.957  1.00  0.00     0.275 C 
BRANCH  73  74
ATOM     74  O   UNL A   1      45.322  23.592  24.678  1.00  0.00    -0.458 OA
BRANCH  74  75
ATOM     75  C   UNL A   1      45.425  22.529  25.523  1.00  0.00     0.343 C 
ATOM     76  O   UNL A   1      46.325  21.711  25.532  1.00  0.00    -0.246 OA
BRANCH  75  77
ATOM     77  C   UNL A   1      44.380  22.603  26.561  1.00  0.00     0.125 A 
ATOM     78  C   UNL A   1      44.625  23.403  27.613  1.00  0.00     0.023 A 
ATOM     79  C   UNL A   1      43.082  21.882  26.463  1.00  0.00     0.265 A 
ATOM     80  C   UNL A   1      43.625  23.622  28.625  1.00  0.00     0.019 A 
ATOM     81  N   UNL A   1      42.189  22.098  27.519  1.00  0.00    -0.310 N 
ATOM     82  O   UNL A   1      42.860  21.128  25.516  1.00  0.00    -0.268 OA
ATOM     83  C   UNL A   1      42.457  22.977  28.553  1.00  0.00     0.089 A 
BRANCH  81  84
ATOM     84  C   UNL A   1      40.961  21.309  27.582  1.00  0.00     0.161 C 
BRANCH  84  85
ATOM     85  C   UNL A   1      39.808  22.033  26.933  1.00  0.00    -0.024 A 
ATOM     86  C   UNL A   1      39.596  23.410  27.166  1.00  0.00     0.010 A 
ATOM     87  C   UNL A   1      38.980  21.335  26.038  1.00  0.00     0.056 A 
ATOM     88  C   UNL A   1      38.587  24.101  26.492  1.00  0.00     0.051 A 
ATOM     89  C   UNL A   1      38.011  22.046  25.373  1.00  0.00     0.173 A 
ATOM     90  C   UNL A   1      37.824  23.393  25.589  1.00  0.00     0.172 A 
ATOM     91  O   UNL A   1      37.175  21.545  24.426  1.00  0.00    -0.395 OA
ATOM     92  O   UNL A   1      36.845  23.908  24.796  1.00  0.00    -0.395 OA
ATOM     93  C   UNL A   1      36.607  22.771  23.950  1.00  0.00     0.586 C 
ATOM     94  F   UNL A   1      37.102  23.036  22.719  1.00  0.00    -0.125 F 
ATOM     95  F   UNL A   1      35.265  22.604  23.827  1.00  0.00    -0.125 F 
ENDBRANCH  84  85
ENDBRANCH  81  84
ENDBRANCH  75  77
ENDBRANCH  74  75
ENDBRANCH  73  74
ENDBRANCH   1  73
TORSDOF 16
ENDMDL
MODEL 3
REMARK VINA RESULT:     -11.9      5.837      8.394
REMARK SMILES O=C(OCCOC(=O)c1cccn(Cc2ccc3c(c2)OC(F)(F)O3)c1=O)c1ccc(-c2c3nc(c(-c4c(F)cc(S(=O)(=O)[O-])cc4F)c4ccc([nH]4)c(-c4c(F)cc(S(=O)(=O)[O-])cc4F)c4nc(c(-c5c(F)cc(S(=O)(=O)[O-])cc5F)c5ccc2[nH]5)C=C4)C=C3)cc1
REMARK SMILES IDX 4 1 3 2 2 3 1 4 28 5 29 6 93 7 30 8 92 9 31 10 32 11 33 12
REMARK SMILES IDX 86 13 34 14 91 15 85 16 87 17 35 18 90 19 84 20 83 21 36 23
REMARK SMILES IDX 70 24 49 25 69 26 50 27 53 28 68 29 88 30 51 31 52 32 67 34
REMARK SMILES IDX 89 35 54 36 37 37 38 38 47 39 39 40 40 41 46 42 48 43 41 44
REMARK SMILES IDX 42 45 43 46 44 47 45 48 71 49 72 50 81 51 73 52 74 53 80 54
REMARK SMILES IDX 82 55 75 56 76 57 77 58 78 59 79 60 55 61 56 62 65 63 57 64
REMARK SMILES IDX 58 65 64 66 66 67 59 68 60 69 61 70 62 71 63 72 5 73 6 74
REMARK SMILES IDX 7 75 8 76 9 77 10 78 26 79 11 80 13 81 27 82 12 83 14 84
REMARK SMILES IDX 15 85 16 86 20 87 17 88 19 89 18 90 21 91 25 92 22 93 23 94
REMARK SMILES IDX 24 95
REMARK H PARENT 87 22 53 33
REMARK Flexibility Score: inf
ROOT
ATOM      1  C   UNL A   1      39.055  19.934  25.370  1.00  0.00     0.275 C 
ENDROOT
BRANCH   1   2
ATOM      2  O   UNL A   1      40.125  19.310  26.102  1.00  0.00    -0.458 OA
BRANCH   2   3
ATOM      3  C   UNL A   1      41.458  19.553  26.063  1.00  0.00     0.338 C 
ATOM      4  O   UNL A   1      42.224  18.599  25.944  1.00  0.00    -0.246 OA
BRANCH   3   5
ATOM      5  C   UNL A   1      42.060  20.899  26.328  1.00  0.00     0.060 A 
ATOM      6  C   UNL A   1      42.160  21.263  27.679  1.00  0.00     0.016 A 
ATOM      7  C   UNL A   1      42.535  21.804  25.377  1.00  0.00     0.016 A 
ATOM      8  C   UNL A   1      42.599  22.536  28.054  1.00  0.00     0.010 A 
ATOM      9  C   UNL A   1      43.009  23.074  25.754  1.00  0.00     0.010 A 
ATOM     10  C   UNL A   1      43.022  23.466  27.093  1.00  0.00    -0.014 A 
BRANCH  10  11
ATOM     11  C   UNL A   1      43.602  24.761  27.537  1.00  0.00     0.031 A 
ATOM     12  C   UNL A   1      45.078  25.047  27.518  1.00  0.00     0.074 A 
ATOM     13  C   UNL A   1      42.749  25.726  27.936  1.00  0.00     0.049 A 
ATOM     14  N   UNL A   1      45.675  26.214  27.552  1.00  0.00    -0.248 NA
ATOM     15  C   UNL A   1      46.006  23.912  27.423  1.00  0.00     0.031 C 
ATOM     16  C   UNL A   1      41.301  25.553  28.083  1.00  0.00     0.029 A 
ATOM     17  N   UNL A   1      42.965  27.032  28.288  1.00  0.00    -0.354 N 
ATOM     18  C   UNL A   1      47.029  25.960  27.373  1.00  0.00     0.074 A 
ATOM     19  C   UNL A   1      47.184  24.524  27.332  1.00  0.00     0.031 C 
ATOM     20  C   UNL A   1      40.758  26.711  28.479  1.00  0.00     0.029 A 
ATOM     21  C   UNL A   1      41.819  27.698  28.648  1.00  0.00     0.049 A 
ATOM     22  H   UNL A   1      43.856  27.452  28.283  1.00  0.00     0.167 HD
ATOM     23  C   UNL A   1      48.032  26.854  27.198  1.00  0.00     0.037 A 
ATOM     24  C   UNL A   1      41.638  28.958  29.086  1.00  0.00     0.037 A 
ATOM     25  C   UNL A   1      47.880  28.271  27.387  1.00  0.00     0.049 A 
ATOM     26  C   UNL A   1      42.813  29.884  29.145  1.00  0.00     0.074 A 
ATOM     27  C   UNL A   1      48.814  29.276  27.197  1.00  0.00     0.029 A 
ATOM     28  N   UNL A   1      46.741  28.875  27.896  1.00  0.00    -0.354 N 
ATOM     29  N   UNL A   1      44.038  29.672  28.727  1.00  0.00    -0.248 NA
ATOM     30  C   UNL A   1      42.595  31.209  29.735  1.00  0.00     0.031 C 
ATOM     31  C   UNL A   1      48.267  30.472  27.680  1.00  0.00     0.029 A 
ATOM     32  C   UNL A   1      46.979  30.218  28.127  1.00  0.00     0.049 A 
ATOM     33  H   UNL A   1      45.888  28.415  28.068  1.00  0.00     0.167 HD
ATOM     34  C   UNL A   1      44.741  30.837  29.002  1.00  0.00     0.074 A 
ATOM     35  C   UNL A   1      43.798  31.756  29.610  1.00  0.00     0.031 C 
ATOM     36  C   UNL A   1      46.047  31.115  28.767  1.00  0.00     0.037 A 
BRANCH  23  37
ATOM     37  C   UNL A   1      49.368  26.343  26.739  1.00  0.00     0.058 A 
ATOM     38  C   UNL A   1      49.675  26.327  25.369  1.00  0.00     0.135 A 
ATOM     39  C   UNL A   1      50.374  25.967  27.637  1.00  0.00     0.135 A 
ATOM     40  F   UNL A   1      48.759  26.729  24.479  1.00  0.00    -0.206 F 
ATOM     41  C   UNL A   1      50.923  25.928  24.898  1.00  0.00     0.059 A 
ATOM     42  C   UNL A   1      51.637  25.579  27.193  1.00  0.00     0.059 A 
ATOM     43  F   UNL A   1      50.139  25.986  28.958  1.00  0.00    -0.206 F 
ATOM     44  C   UNL A   1      51.899  25.552  25.820  1.00  0.00     0.060 A 
BRANCH  44  45
ATOM     45  S   UNL A   1      53.521  25.053  25.201  1.00  0.00     0.124 S 
ATOM     46  O   UNL A   1      53.511  25.626  23.859  1.00  0.00    -0.237 OA
ATOM     47  O   UNL A   1      54.427  25.682  26.156  1.00  0.00    -0.237 OA
ATOM     48  O   UNL A   1      53.472  23.595  25.256  1.00  0.00    -0.744 OA
ENDBRANCH  44  45
ENDBRANCH  23  37
BRANCH  24  49
ATOM     49  C   UNL A   1      40.276  29.365  29.520  1.00  0.00     0.058 A 
ATOM     50  C   UNL A   1      39.948  29.496  30.874  1.00  0.00     0.135 A 
ATOM     51  C   UNL A   1      39.320  29.760  28.568  1.00  0.00     0.135 A 
ATOM     52  F   UNL A   1      40.827  29.125  31.817  1.00  0.00    -0.206 F 
ATOM     53  C   UNL A   1      38.730  30.038  31.273  1.00  0.00     0.059 A 
ATOM     54  C   UNL A   1      38.107  30.326  28.942  1.00  0.00     0.059 A 
ATOM     55  F   UNL A   1      39.596  29.666  27.258  1.00  0.00    -0.206 F 
ATOM     56  C   UNL A   1      37.825  30.468  30.299  1.00  0.00     0.060 A 
BRANCH  56  57
ATOM     57  S   UNL A   1      36.307  31.294  30.828  1.00  0.00     0.124 S 
ATOM     58  O   UNL A   1      36.798  32.629  31.149  1.00  0.00    -0.237 OA
ATOM     59  O   UNL A   1      35.473  31.189  29.635  1.00  0.00    -0.237 OA
ATOM     60  O   UNL A   1      35.866  30.492  31.966  1.00  0.00    -0.744 OA
ENDBRANCH  56  57
ENDBRANCH  24  49
BRANCH  36  61
ATOM     61  C   UNL A   1      46.564  32.451  29.214  1.00  0.00     0.058 A 
ATOM     62  C   UNL A   1      47.204  32.596  30.453  1.00  0.00     0.135 A 
ATOM     63  C   UNL A   1      46.505  33.569  28.367  1.00  0.00     0.135 A 
ATOM     64  F   UNL A   1      47.274  31.559  31.303  1.00  0.00    -0.206 F 
ATOM     65  C   UNL A   1      47.770  33.805  30.840  1.00  0.00     0.059 A 
ATOM     66  C   UNL A   1      47.086  34.781  28.721  1.00  0.00     0.059 A 
ATOM     67  F   UNL A   1      45.906  33.478  27.168  1.00  0.00    -0.206 F 
ATOM     68  C   UNL A   1      47.715  34.889  29.961  1.00  0.00     0.060 A 
BRANCH  68  69
ATOM     69  S   UNL A   1      48.518  36.431  30.449  1.00  0.00     0.124 S 
ATOM     70  O   UNL A   1      49.252  36.016  31.640  1.00  0.00    -0.237 OA
ATOM     71  O   UNL A   1      49.333  36.740  29.277  1.00  0.00    -0.237 OA
ATOM     72  O   UNL A   1      47.399  37.337  30.686  1.00  0.00    -0.744 OA
ENDBRANCH  68  69
ENDBRANCH  36  61
ENDBRANCH  10  11
ENDBRANCH   3   5
ENDBRANCH   2   3
ENDBRANCH   1   2
BRANCH   1  73
ATOM     73  C   UNL A   1      38.822  21.405  25.712  1.00  0.00     0.275 C 
BRANCH  73  74
ATOM     74  O   UNL A   1      37.922  22.040  24.798  1.00  0.00    -0.458 OA
BRANCH  74  75
ATOM     75  C   UNL A   1      37.044  22.918  25.359  1.00  0.00     0.343 C 
ATOM     76  O   UNL A   1      37.320  23.772  26.181  1.00  0.00    -0.246 OA
BRANCH  75  77
ATOM     77  C   UNL A   1      35.731  22.816  24.697  1.00  0.00     0.125 A 
ATOM     78  C   UNL A   1      35.537  23.585  23.611  1.00  0.00     0.023 A 
ATOM     79  C   UNL A   1      34.662  21.884  25.147  1.00  0.00     0.265 A 
ATOM     80  C   UNL A   1      34.328  23.479  22.837  1.00  0.00     0.019 A 
ATOM     81  N   UNL A   1      33.493  21.888  24.377  1.00  0.00    -0.310 N 
ATOM     82  O   UNL A   1      34.821  21.195  26.155  1.00  0.00    -0.268 OA
ATOM     83  C   UNL A   1      33.358  22.651  23.231  1.00  0.00     0.089 A 
BRANCH  81  84
ATOM     84  C   UNL A   1      32.337  21.122  24.839  1.00  0.00     0.161 C 
BRANCH  84  85
ATOM     85  C   UNL A   1      32.491  19.653  24.531  1.00  0.00    -0.024 A 
ATOM     86  C   UNL A   1      32.507  19.194  23.194  1.00  0.00     0.010 A 
ATOM     87  C   UNL A   1      32.683  18.750  25.589  1.00  0.00     0.056 A 
ATOM     88  C   UNL A   1      32.744  17.848  22.906  1.00  0.00     0.051 A 
ATOM     89  C   UNL A   1      32.937  17.437  25.273  1.00  0.00     0.173 A 
ATOM     90  C   UNL A   1      32.972  17.000  23.968  1.00  0.00     0.172 A 
ATOM     91  O   UNL A   1      33.214  16.451  26.165  1.00  0.00    -0.395 OA
ATOM     92  O   UNL A   1      33.284  15.678  23.879  1.00  0.00    -0.395 OA
ATOM     93  C   UNL A   1      33.621  15.425  25.252  1.00  0.00     0.586 C 
ATOM     94  F   UNL A   1      34.960  15.258  25.346  1.00  0.00    -0.125 F 
ATOM     95  F   UNL A   1      33.034  14.259  25.627  1.00  0.00    -0.125 F 
ENDBRANCH  84  85
ENDBRANCH  81  84
ENDBRANCH  75  77
ENDBRANCH  74  75
ENDBRANCH  73  74
ENDBRANCH   1  73
TORSDOF 16
ENDMDL
