MODEL 1
REMARK VINA RESULT:      -9.6      0.000      0.000
REMARK SMILES CC(C)Cc1cc2c(cc1Cl)C=C(C(=O)OCCOC(=O)c1ccc(-c3c4nc(c(-c5c(F)cc(S(=O)(=O)[O-])cc5F)c5ccc([nH]5)c(-c5c(F)cc(S(=O)(=O)[O-])cc5F)c5nc(c(-c6c(F)cc(S(=O)(=O)[O-])cc6F)c6ccc3[nH]6)C=C5)C=C4)cc1)[C@@H](C(F)(F)F)O2
REMARK SMILES IDX 18 1 17 2 16 3 14 4 15 5 13 6 5 7 6 8 10 9 7 10 9 11 11 12
REMARK SMILES IDX 8 13 93 14 12 15 88 16 4 17 2 18 1 19 3 20 89 21 90 22 91 23
REMARK SMILES IDX 92 24 19 25 20 26 21 27 22 28 23 29 87 30 24 31 86 32 25 33
REMARK SMILES IDX 26 34 27 35 80 36 28 37 85 38 79 39 81 40 29 41 84 42 78 43
REMARK SMILES IDX 77 44 30 46 64 47 43 48 63 49 44 50 47 51 62 52 82 53 45 54
REMARK SMILES IDX 46 55 61 57 83 58 48 59 31 60 32 61 41 62 33 63 34 64 40 65
REMARK SMILES IDX 42 66 35 67 36 68 37 69 38 70 39 71 65 72 66 73 75 74 67 75
REMARK SMILES IDX 68 76 74 77 76 78 69 79 70 80 71 81 72 82 73 83 49 84 50 85
REMARK SMILES IDX 59 86 51 87 52 88 58 89 60 90 53 91 54 92 55 93 56 94 57 95
REMARK H PARENT 81 45 47 56
REMARK Flexibility Score: inf
ROOT
ATOM      1  C   UNL A   1      33.189  33.401  27.966  1.00  0.00     0.275 C 
ENDROOT
BRANCH   1   2
ATOM      2  C   UNL A   1      33.606  34.378  29.067  1.00  0.00     0.275 C 
BRANCH   2   3
ATOM      3  O   UNL A   1      34.300  33.701  30.137  1.00  0.00    -0.459 OA
BRANCH   3   4
ATOM      4  C   UNL A   1      34.387  34.379  31.305  1.00  0.00     0.338 C 
ATOM      5  O   UNL A   1      33.454  34.799  31.972  1.00  0.00    -0.246 OA
BRANCH   4   6
ATOM      6  C   UNL A   1      35.798  34.513  31.717  1.00  0.00     0.087 C 
ATOM      7  C   UNL A   1      40.817  34.382  31.949  1.00  0.00    -0.025 A 
ATOM      8  C   UNL A   1      39.792  34.591  32.891  1.00  0.00     0.052 A 
ATOM      9  C   UNL A   1      40.469  34.380  30.586  1.00  0.00     0.045 A 
ATOM     10  C   UNL A   1      38.454  34.637  32.506  1.00  0.00     0.128 A 
ATOM     11  C   UNL A   1      39.135  34.462  30.195  1.00  0.00     0.032 A 
ATOM     12  Cl  UNL A   1      41.655  34.255  29.333  1.00  0.00    -0.084 Cl
ATOM     13  C   UNL A   1      38.129  34.540  31.161  1.00  0.00     0.019 A 
ATOM     14  O   UNL A   1      37.527  34.772  33.502  1.00  0.00    -0.475 OA
ATOM     15  C   UNL A   1      36.740  34.489  30.769  1.00  0.00     0.027 C 
ATOM     16  C   UNL A   1      36.126  34.529  33.182  1.00  0.00     0.316 C 
BRANCH   7  17
ATOM     17  C   UNL A   1      42.258  34.154  32.363  1.00  0.00     0.040 C 
BRANCH  17  18
ATOM     18  C   UNL A   1      42.701  32.708  32.668  1.00  0.00    -0.013 C 
ATOM     19  C   UNL A   1      42.790  31.840  31.406  1.00  0.00     0.008 C 
ATOM     20  C   UNL A   1      44.070  32.727  33.355  1.00  0.00     0.008 C 
ENDBRANCH  17  18
ENDBRANCH   7  17
BRANCH  16  21
ATOM     21  C   UNL A   1      35.681  33.213  33.841  1.00  0.00     0.430 C 
ATOM     22  F   UNL A   1      35.656  32.195  32.949  1.00  0.00    -0.167 F 
ATOM     23  F   UNL A   1      36.532  32.838  34.827  1.00  0.00    -0.167 F 
ATOM     24  F   UNL A   1      34.446  33.303  34.387  1.00  0.00    -0.167 F 
ENDBRANCH  16  21
ENDBRANCH   4   6
ENDBRANCH   3   4
ENDBRANCH   2   3
ENDBRANCH   1   2
BRANCH   1  25
ATOM     25  O   UNL A   1      34.338  32.758  27.385  1.00  0.00    -0.458 OA
BRANCH  25  26
ATOM     26  C   UNL A   1      34.358  31.411  27.504  1.00  0.00     0.338 C 
ATOM     27  O   UNL A   1      33.501  30.624  27.141  1.00  0.00    -0.246 OA
BRANCH  26  28
ATOM     28  C   UNL A   1      35.665  30.981  28.016  1.00  0.00     0.060 A 
ATOM     29  C   UNL A   1      36.738  31.851  28.140  1.00  0.00     0.016 A 
ATOM     30  C   UNL A   1      35.749  29.700  28.541  1.00  0.00     0.016 A 
ATOM     31  C   UNL A   1      37.898  31.403  28.789  1.00  0.00     0.010 A 
ATOM     32  C   UNL A   1      36.817  29.326  29.345  1.00  0.00     0.010 A 
ATOM     33  C   UNL A   1      37.939  30.149  29.440  1.00  0.00    -0.014 A 
BRANCH  33  34
ATOM     34  C   UNL A   1      39.144  29.692  30.196  1.00  0.00     0.031 A 
ATOM     35  C   UNL A   1      39.380  30.122  31.631  1.00  0.00     0.074 A 
ATOM     36  C   UNL A   1      40.048  28.899  29.583  1.00  0.00     0.049 A 
ATOM     37  N   UNL A   1      40.345  29.774  32.446  1.00  0.00    -0.248 NA
ATOM     38  C   UNL A   1      38.446  31.099  32.215  1.00  0.00     0.031 C 
ATOM     39  C   UNL A   1      40.007  28.504  28.172  1.00  0.00     0.029 A 
ATOM     40  N   UNL A   1      41.161  28.258  30.068  1.00  0.00    -0.354 N 
ATOM     41  C   UNL A   1      40.135  30.497  33.618  1.00  0.00     0.074 A 
ATOM     42  C   UNL A   1      39.017  31.375  33.377  1.00  0.00     0.031 C 
ATOM     43  C   UNL A   1      40.981  27.613  27.933  1.00  0.00     0.029 A 
ATOM     44  C   UNL A   1      41.751  27.413  29.156  1.00  0.00     0.049 A 
ATOM     45  H   UNL A   1      41.505  28.390  30.981  1.00  0.00     0.167 HD
ATOM     46  C   UNL A   1      40.775  30.401  34.809  1.00  0.00     0.037 A 
ATOM     47  C   UNL A   1      42.781  26.553  29.291  1.00  0.00     0.037 A 
ATOM     48  C   UNL A   1      41.853  29.484  35.062  1.00  0.00     0.049 A 
ATOM     49  C   UNL A   1      43.454  26.430  30.629  1.00  0.00     0.074 A 
ATOM     50  C   UNL A   1      42.521  29.249  36.250  1.00  0.00     0.029 A 
ATOM     51  N   UNL A   1      42.414  28.643  34.112  1.00  0.00    -0.354 N 
ATOM     52  N   UNL A   1      43.181  27.058  31.748  1.00  0.00    -0.248 NA
ATOM     53  C   UNL A   1      44.572  25.482  30.726  1.00  0.00     0.031 C 
ATOM     54  C   UNL A   1      43.519  28.299  36.007  1.00  0.00     0.029 A 
ATOM     55  C   UNL A   1      43.436  27.903  34.681  1.00  0.00     0.049 A 
ATOM     56  H   UNL A   1      42.129  28.583  33.171  1.00  0.00     0.167 HD
ATOM     57  C   UNL A   1      44.085  26.573  32.687  1.00  0.00     0.074 A 
ATOM     58  C   UNL A   1      44.897  25.582  32.009  1.00  0.00     0.031 C 
ATOM     59  C   UNL A   1      44.233  26.920  33.989  1.00  0.00     0.037 A 
BRANCH  46  60
ATOM     60  C   UNL A   1      40.295  31.276  35.940  1.00  0.00     0.058 A 
ATOM     61  C   UNL A   1      41.068  32.349  36.418  1.00  0.00     0.135 A 
ATOM     62  C   UNL A   1      39.034  31.072  36.525  1.00  0.00     0.135 A 
ATOM     63  F   UNL A   1      42.286  32.586  35.907  1.00  0.00    -0.206 F 
ATOM     64  C   UNL A   1      40.626  33.162  37.457  1.00  0.00     0.059 A 
ATOM     65  C   UNL A   1      38.557  31.896  37.543  1.00  0.00     0.059 A 
ATOM     66  F   UNL A   1      38.249  30.067  36.108  1.00  0.00    -0.206 F 
ATOM     67  C   UNL A   1      39.367  32.930  38.011  1.00  0.00     0.060 A 
BRANCH  67  68
ATOM     68  S   UNL A   1      38.808  34.007  39.348  1.00  0.00     0.124 S 
ATOM     69  O   UNL A   1      38.848  35.317  38.705  1.00  0.00    -0.237 OA
ATOM     70  O   UNL A   1      37.476  33.483  39.631  1.00  0.00    -0.237 OA
ATOM     71  O   UNL A   1      39.800  33.794  40.397  1.00  0.00    -0.744 OA
ENDBRANCH  67  68
ENDBRANCH  46  60
BRANCH  47  72
ATOM     72  C   UNL A   1      43.182  25.699  28.139  1.00  0.00     0.058 A 
ATOM     73  C   UNL A   1      44.155  26.133  27.227  1.00  0.00     0.135 A 
ATOM     74  C   UNL A   1      42.651  24.411  27.963  1.00  0.00     0.135 A 
ATOM     75  F   UNL A   1      44.690  27.357  27.347  1.00  0.00    -0.206 F 
ATOM     76  C   UNL A   1      44.589  25.323  26.181  1.00  0.00     0.059 A 
ATOM     77  C   UNL A   1      43.089  23.573  26.941  1.00  0.00     0.059 A 
ATOM     78  F   UNL A   1      41.730  23.941  28.819  1.00  0.00    -0.206 F 
ATOM     79  C   UNL A   1      44.057  24.039  26.053  1.00  0.00     0.060 A 
BRANCH  79  80
ATOM     80  S   UNL A   1      44.687  22.971  24.740  1.00  0.00     0.124 S 
ATOM     81  O   UNL A   1      45.208  21.842  25.501  1.00  0.00    -0.237 OA
ATOM     82  O   UNL A   1      43.483  22.711  23.956  1.00  0.00    -0.237 OA
ATOM     83  O   UNL A   1      45.688  23.803  24.079  1.00  0.00    -0.744 OA
ENDBRANCH  79  80
ENDBRANCH  47  72
BRANCH  59  84
ATOM     84  C   UNL A   1      45.305  26.223  34.779  1.00  0.00     0.058 A 
ATOM     85  C   UNL A   1      45.050  25.022  35.457  1.00  0.00     0.135 A 
ATOM     86  C   UNL A   1      46.620  26.717  34.786  1.00  0.00     0.135 A 
ATOM     87  F   UNL A   1      43.809  24.510  35.483  1.00  0.00    -0.206 F 
ATOM     88  C   UNL A   1      46.058  24.341  36.129  1.00  0.00     0.059 A 
ATOM     89  C   UNL A   1      47.650  26.036  35.426  1.00  0.00     0.059 A 
ATOM     90  F   UNL A   1      46.919  27.856  34.140  1.00  0.00    -0.206 F 
ATOM     91  C   UNL A   1      47.357  24.853  36.101  1.00  0.00     0.060 A 
BRANCH  91  92
ATOM     92  S   UNL A   1      48.662  23.932  36.943  1.00  0.00     0.124 S 
ATOM     93  O   UNL A   1      49.787  24.117  36.032  1.00  0.00    -0.237 OA
ATOM     94  O   UNL A   1      48.758  24.630  38.221  1.00  0.00    -0.237 OA
ATOM     95  O   UNL A   1      48.129  22.574  37.013  1.00  0.00    -0.744 OA
ENDBRANCH  91  92
ENDBRANCH  59  84
ENDBRANCH  33  34
ENDBRANCH  26  28
ENDBRANCH  25  26
ENDBRANCH   1  25
TORSDOF 17
ENDMDL
MODEL 2
REMARK VINA RESULT:      -9.5      4.480     11.306
REMARK SMILES CC(C)Cc1cc2c(cc1Cl)C=C(C(=O)OCCOC(=O)c1ccc(-c3c4nc(c(-c5c(F)cc(S(=O)(=O)[O-])cc5F)c5ccc([nH]5)c(-c5c(F)cc(S(=O)(=O)[O-])cc5F)c5nc(c(-c6c(F)cc(S(=O)(=O)[O-])cc6F)c6ccc3[nH]6)C=C5)C=C4)cc1)[C@@H](C(F)(F)F)O2
REMARK SMILES IDX 18 1 17 2 16 3 14 4 15 5 13 6 5 7 6 8 10 9 7 10 9 11 11 12
REMARK SMILES IDX 8 13 93 14 12 15 88 16 4 17 2 18 1 19 3 20 89 21 90 22 91 23
REMARK SMILES IDX 92 24 19 25 20 26 21 27 22 28 23 29 87 30 24 31 86 32 25 33
REMARK SMILES IDX 26 34 27 35 80 36 28 37 85 38 79 39 81 40 29 41 84 42 78 43
REMARK SMILES IDX 77 44 30 46 64 47 43 48 63 49 44 50 47 51 62 52 82 53 45 54
REMARK SMILES IDX 46 55 61 57 83 58 48 59 31 60 32 61 41 62 33 63 34 64 40 65
REMARK SMILES IDX 42 66 35 67 36 68 37 69 38 70 39 71 65 72 66 73 75 74 67 75
REMARK SMILES IDX 68 76 74 77 76 78 69 79 70 80 71 81 72 82 73 83 49 84 50 85
REMARK SMILES IDX 59 86 51 87 52 88 58 89 60 90 53 91 54 92 55 93 56 94 57 95
REMARK H PARENT 81 45 47 56
REMARK Flexibility Score: inf
ROOT
ATOM      1  C   UNL A   1      39.187  23.207  26.131  1.00  0.00     0.275 C 
ENDROOT
BRANCH   1   2
ATOM      2  C   UNL A   1      37.810  22.625  25.802  1.00  0.00     0.275 C 
BRANCH   2   3
ATOM      3  O   UNL A   1      36.966  23.602  25.157  1.00  0.00    -0.459 OA
BRANCH   3   4
ATOM      4  C   UNL A   1      35.676  23.628  25.565  1.00  0.00     0.338 C 
ATOM      5  O   UNL A   1      35.194  22.994  26.491  1.00  0.00    -0.246 OA
BRANCH   4   6
ATOM      6  C   UNL A   1      34.901  24.588  24.754  1.00  0.00     0.087 C 
ATOM      7  C   UNL A   1      31.824  28.241  23.190  1.00  0.00    -0.025 A 
ATOM      8  C   UNL A   1      32.462  27.155  22.562  1.00  0.00     0.052 A 
ATOM      9  C   UNL A   1      32.212  28.566  24.503  1.00  0.00     0.045 A 
ATOM     10  C   UNL A   1      33.336  26.326  23.263  1.00  0.00     0.128 A 
ATOM     11  C   UNL A   1      33.113  27.760  25.195  1.00  0.00     0.032 A 
ATOM     12  Cl  UNL A   1      31.588  29.949  25.331  1.00  0.00    -0.084 Cl
ATOM     13  C   UNL A   1      33.633  26.615  24.588  1.00  0.00     0.019 A 
ATOM     14  O   UNL A   1      33.851  25.256  22.588  1.00  0.00    -0.475 OA
ATOM     15  C   UNL A   1      34.458  25.703  25.344  1.00  0.00     0.027 C 
ATOM     16  C   UNL A   1      34.521  24.211  23.352  1.00  0.00     0.316 C 
BRANCH   7  17
ATOM     17  C   UNL A   1      30.741  29.047  22.499  1.00  0.00     0.040 C 
BRANCH  17  18
ATOM     18  C   UNL A   1      29.313  28.987  23.081  1.00  0.00    -0.013 C 
ATOM     19  C   UNL A   1      28.269  29.611  22.146  1.00  0.00     0.008 C 
ATOM     20  C   UNL A   1      28.931  27.528  23.348  1.00  0.00     0.008 C 
ENDBRANCH  17  18
ENDBRANCH   7  17
BRANCH  16  21
ATOM     21  C   UNL A   1      33.641  22.950  23.359  1.00  0.00     0.430 C 
ATOM     22  F   UNL A   1      32.634  23.054  24.258  1.00  0.00    -0.167 F 
ATOM     23  F   UNL A   1      33.058  22.744  22.153  1.00  0.00    -0.167 F 
ATOM     24  F   UNL A   1      34.343  21.835  23.664  1.00  0.00    -0.167 F 
ENDBRANCH  16  21
ENDBRANCH   4   6
ENDBRANCH   3   4
ENDBRANCH   2   3
ENDBRANCH   1   2
BRANCH   1  25
ATOM     25  O   UNL A   1      39.086  24.592  26.504  1.00  0.00    -0.458 OA
BRANCH  25  26
ATOM     26  C   UNL A   1      40.252  25.276  26.484  1.00  0.00     0.338 C 
ATOM     27  O   UNL A   1      41.056  25.340  25.569  1.00  0.00    -0.246 OA
BRANCH  26  28
ATOM     28  C   UNL A   1      40.370  26.087  27.702  1.00  0.00     0.060 A 
ATOM     29  C   UNL A   1      41.179  27.211  27.771  1.00  0.00     0.016 A 
ATOM     30  C   UNL A   1      39.504  25.793  28.745  1.00  0.00     0.016 A 
ATOM     31  C   UNL A   1      41.110  28.022  28.913  1.00  0.00     0.010 A 
ATOM     32  C   UNL A   1      39.301  26.695  29.780  1.00  0.00     0.010 A 
ATOM     33  C   UNL A   1      40.139  27.802  29.915  1.00  0.00    -0.014 A 
BRANCH  33  34
ATOM     34  C   UNL A   1      40.009  28.702  31.100  1.00  0.00     0.031 A 
ATOM     35  C   UNL A   1      40.921  28.552  32.303  1.00  0.00     0.074 A 
ATOM     36  C   UNL A   1      39.051  29.652  31.108  1.00  0.00     0.049 A 
ATOM     37  N   UNL A   1      40.977  29.281  33.389  1.00  0.00    -0.248 NA
ATOM     38  C   UNL A   1      41.857  27.415  32.315  1.00  0.00     0.031 C 
ATOM     39  C   UNL A   1      38.031  29.832  30.070  1.00  0.00     0.029 A 
ATOM     40  N   UNL A   1      38.789  30.662  32.000  1.00  0.00    -0.354 N 
ATOM     41  C   UNL A   1      41.935  28.684  34.204  1.00  0.00     0.074 A 
ATOM     42  C   UNL A   1      42.363  27.480  33.536  1.00  0.00     0.031 C 
ATOM     43  C   UNL A   1      37.326  30.943  30.330  1.00  0.00     0.029 A 
ATOM     44  C   UNL A   1      37.803  31.526  31.580  1.00  0.00     0.049 A 
ATOM     45  H   UNL A   1      39.262  30.760  32.858  1.00  0.00     0.167 HD
ATOM     46  C   UNL A   1      42.459  29.124  35.373  1.00  0.00     0.037 A 
ATOM     47  C   UNL A   1      37.348  32.672  32.124  1.00  0.00     0.037 A 
ATOM     48  C   UNL A   1      42.070  30.355  36.007  1.00  0.00     0.049 A 
ATOM     49  C   UNL A   1      37.966  33.166  33.401  1.00  0.00     0.074 A 
ATOM     50  C   UNL A   1      42.588  30.934  37.152  1.00  0.00     0.029 A 
ATOM     51  N   UNL A   1      41.072  31.200  35.545  1.00  0.00    -0.354 N 
ATOM     52  N   UNL A   1      38.934  32.632  34.107  1.00  0.00    -0.248 NA
ATOM     53  C   UNL A   1      37.436  34.418  33.956  1.00  0.00     0.031 C 
ATOM     54  C   UNL A   1      41.871  32.107  37.408  1.00  0.00     0.029 A 
ATOM     55  C   UNL A   1      40.944  32.286  36.393  1.00  0.00     0.049 A 
ATOM     56  H   UNL A   1      40.535  31.049  34.734  1.00  0.00     0.167 HD
ATOM     57  C   UNL A   1      39.138  33.489  35.184  1.00  0.00     0.074 A 
ATOM     58  C   UNL A   1      38.208  34.588  35.022  1.00  0.00     0.031 C 
ATOM     59  C   UNL A   1      40.011  33.372  36.215  1.00  0.00     0.037 A 
BRANCH  46  60
ATOM     60  C   UNL A   1      43.541  28.294  36.018  1.00  0.00     0.058 A 
ATOM     61  C   UNL A   1      43.234  27.199  36.844  1.00  0.00     0.135 A 
ATOM     62  C   UNL A   1      44.899  28.565  35.777  1.00  0.00     0.135 A 
ATOM     63  F   UNL A   1      41.955  26.898  37.122  1.00  0.00    -0.206 F 
ATOM     64  C   UNL A   1      44.229  26.427  37.435  1.00  0.00     0.059 A 
ATOM     65  C   UNL A   1      45.911  27.783  36.331  1.00  0.00     0.059 A 
ATOM     66  F   UNL A   1      45.255  29.594  34.993  1.00  0.00    -0.206 F 
ATOM     67  C   UNL A   1      45.566  26.725  37.169  1.00  0.00     0.060 A 
BRANCH  67  68
ATOM     68  S   UNL A   1      46.840  25.701  37.936  1.00  0.00     0.124 S 
ATOM     69  O   UNL A   1      48.014  26.560  37.823  1.00  0.00    -0.237 OA
ATOM     70  O   UNL A   1      46.319  25.519  39.287  1.00  0.00    -0.237 OA
ATOM     71  O   UNL A   1      46.860  24.500  37.107  1.00  0.00    -0.744 OA
ENDBRANCH  67  68
ENDBRANCH  46  60
BRANCH  47  72
ATOM     72  C   UNL A   1      36.297  33.455  31.417  1.00  0.00     0.058 A 
ATOM     73  C   UNL A   1      36.587  34.133  30.223  1.00  0.00     0.135 A 
ATOM     74  C   UNL A   1      34.973  33.491  31.881  1.00  0.00     0.135 A 
ATOM     75  F   UNL A   1      37.839  34.134  29.738  1.00  0.00    -0.206 F 
ATOM     76  C   UNL A   1      35.604  34.818  29.514  1.00  0.00     0.059 A 
ATOM     77  C   UNL A   1      33.968  34.146  31.176  1.00  0.00     0.059 A 
ATOM     78  F   UNL A   1      34.638  32.844  33.009  1.00  0.00    -0.206 F 
ATOM     79  C   UNL A   1      34.293  34.810  29.994  1.00  0.00     0.060 A 
BRANCH  79  80
ATOM     80  S   UNL A   1      33.014  35.635  29.022  1.00  0.00     0.124 S 
ATOM     81  O   UNL A   1      33.792  36.628  28.291  1.00  0.00    -0.237 OA
ATOM     82  O   UNL A   1      32.479  34.533  28.228  1.00  0.00    -0.237 OA
ATOM     83  O   UNL A   1      32.108  36.164  30.037  1.00  0.00    -0.744 OA
ENDBRANCH  79  80
ENDBRANCH  47  72
BRANCH  59  84
ATOM     84  C   UNL A   1      40.016  34.461  37.250  1.00  0.00     0.058 A 
ATOM     85  C   UNL A   1      40.803  35.613  37.096  1.00  0.00     0.135 A 
ATOM     86  C   UNL A   1      39.162  34.391  38.362  1.00  0.00     0.135 A 
ATOM     87  F   UNL A   1      41.638  35.727  36.052  1.00  0.00    -0.206 F 
ATOM     88  C   UNL A   1      40.755  36.651  38.018  1.00  0.00     0.059 A 
ATOM     89  C   UNL A   1      39.075  35.431  39.281  1.00  0.00     0.059 A 
ATOM     90  F   UNL A   1      38.379  33.316  38.547  1.00  0.00    -0.206 F 
ATOM     91  C   UNL A   1      39.882  36.554  39.105  1.00  0.00     0.060 A 
BRANCH  91  92
ATOM     92  S   UNL A   1      39.800  37.932  40.268  1.00  0.00     0.124 S 
ATOM     93  O   UNL A   1      38.860  38.826  39.601  1.00  0.00    -0.237 OA
ATOM     94  O   UNL A   1      39.310  37.284  41.480  1.00  0.00    -0.237 OA
ATOM     95  O   UNL A   1      41.180  38.406  40.331  1.00  0.00    -0.744 OA
ENDBRANCH  91  92
ENDBRANCH  59  84
ENDBRANCH  33  34
ENDBRANCH  26  28
ENDBRANCH  25  26
ENDBRANCH   1  25
TORSDOF 17
ENDMDL
MODEL 3
REMARK VINA RESULT:      -9.4      6.028     11.409
REMARK SMILES CC(C)Cc1cc2c(cc1Cl)C=C(C(=O)OCCOC(=O)c1ccc(-c3c4nc(c(-c5c(F)cc(S(=O)(=O)[O-])cc5F)c5ccc([nH]5)c(-c5c(F)cc(S(=O)(=O)[O-])cc5F)c5nc(c(-c6c(F)cc(S(=O)(=O)[O-])cc6F)c6ccc3[nH]6)C=C5)C=C4)cc1)[C@@H](C(F)(F)F)O2
REMARK SMILES IDX 18 1 17 2 16 3 14 4 15 5 13 6 5 7 6 8 10 9 7 10 9 11 11 12
REMARK SMILES IDX 8 13 93 14 12 15 88 16 4 17 2 18 1 19 3 20 89 21 90 22 91 23
REMARK SMILES IDX 92 24 19 25 20 26 21 27 22 28 23 29 87 30 24 31 86 32 25 33
REMARK SMILES IDX 26 34 27 35 80 36 28 37 85 38 79 39 81 40 29 41 84 42 78 43
REMARK SMILES IDX 77 44 30 46 64 47 43 48 63 49 44 50 47 51 62 52 82 53 45 54
REMARK SMILES IDX 46 55 61 57 83 58 48 59 31 60 32 61 41 62 33 63 34 64 40 65
REMARK SMILES IDX 42 66 35 67 36 68 37 69 38 70 39 71 65 72 66 73 75 74 67 75
REMARK SMILES IDX 68 76 74 77 76 78 69 79 70 80 71 81 72 82 73 83 49 84 50 85
REMARK SMILES IDX 59 86 51 87 52 88 58 89 60 90 53 91 54 92 55 93 56 94 57 95
REMARK H PARENT 81 45 47 56
REMARK Flexibility Score: inf
ROOT
ATOM      1  C   UNL A   1      33.018  28.948  26.758  1.00  0.00     0.275 C 
ENDROOT
BRANCH   1   2
ATOM      2  C   UNL A   1      32.439  27.534  26.683  1.00  0.00     0.275 C 
BRANCH   2   3
ATOM      3  O   UNL A   1      32.018  27.208  25.341  1.00  0.00    -0.459 OA
BRANCH   3   4
ATOM      4  C   UNL A   1      32.957  26.636  24.551  1.00  0.00     0.338 C 
ATOM      5  O   UNL A   1      33.744  27.217  23.820  1.00  0.00    -0.246 OA
BRANCH   4   6
ATOM      6  C   UNL A   1      32.946  25.169  24.723  1.00  0.00     0.087 C 
ATOM      7  C   UNL A   1      34.138  20.287  24.805  1.00  0.00    -0.025 A 
ATOM      8  C   UNL A   1      32.933  21.009  24.905  1.00  0.00     0.052 A 
ATOM      9  C   UNL A   1      35.345  21.005  24.876  1.00  0.00     0.045 A 
ATOM     10  C   UNL A   1      32.924  22.403  24.915  1.00  0.00     0.128 A 
ATOM     11  C   UNL A   1      35.340  22.397  24.923  1.00  0.00     0.032 A 
ATOM     12  Cl  UNL A   1      36.884  20.218  24.886  1.00  0.00    -0.084 Cl
ATOM     13  C   UNL A   1      34.128  23.091  24.892  1.00  0.00     0.019 A 
ATOM     14  O   UNL A   1      31.702  23.014  24.944  1.00  0.00    -0.475 OA
ATOM     15  C   UNL A   1      34.119  24.532  24.803  1.00  0.00     0.027 C 
ATOM     16  C   UNL A   1      31.635  24.442  24.658  1.00  0.00     0.316 C 
BRANCH   7  17
ATOM     17  C   UNL A   1      34.161  18.782  24.616  1.00  0.00     0.040 C 
BRANCH  17  18
ATOM     18  C   UNL A   1      32.830  18.076  24.285  1.00  0.00    -0.013 C 
ATOM     19  C   UNL A   1      32.703  17.726  22.797  1.00  0.00     0.008 C 
ATOM     20  C   UNL A   1      32.714  16.790  25.109  1.00  0.00     0.008 C 
ENDBRANCH  17  18
ENDBRANCH   7  17
BRANCH  16  21
ATOM     21  C   UNL A   1      30.978  24.649  23.283  1.00  0.00     0.430 C 
ATOM     22  F   UNL A   1      31.901  24.682  22.293  1.00  0.00    -0.167 F 
ATOM     23  F   UNL A   1      30.126  23.639  22.982  1.00  0.00    -0.167 F 
ATOM     24  F   UNL A   1      30.275  25.803  23.219  1.00  0.00    -0.167 F 
ENDBRANCH  16  21
ENDBRANCH   4   6
ENDBRANCH   3   4
ENDBRANCH   2   3
ENDBRANCH   1   2
BRANCH   1  25
ATOM     25  O   UNL A   1      34.363  28.928  27.267  1.00  0.00    -0.458 OA
BRANCH  25  26
ATOM     26  C   UNL A   1      34.736  30.041  27.939  1.00  0.00     0.338 C 
ATOM     27  O   UNL A   1      34.023  30.963  28.297  1.00  0.00    -0.246 OA
BRANCH  26  28
ATOM     28  C   UNL A   1      36.147  29.931  28.331  1.00  0.00     0.060 A 
ATOM     29  C   UNL A   1      36.540  29.420  29.558  1.00  0.00     0.016 A 
ATOM     30  C   UNL A   1      37.097  30.198  27.356  1.00  0.00     0.016 A 
ATOM     31  C   UNL A   1      37.905  29.196  29.789  1.00  0.00     0.010 A 
ATOM     32  C   UNL A   1      38.417  29.799  27.517  1.00  0.00     0.010 A 
ATOM     33  C   UNL A   1      38.860  29.341  28.758  1.00  0.00    -0.014 A 
BRANCH  33  34
ATOM     34  C   UNL A   1      40.306  29.036  28.973  1.00  0.00     0.031 A 
ATOM     35  C   UNL A   1      40.886  27.684  28.607  1.00  0.00     0.074 A 
ATOM     36  C   UNL A   1      41.107  29.975  29.521  1.00  0.00     0.049 A 
ATOM     37  N   UNL A   1      42.128  27.273  28.679  1.00  0.00    -0.248 NA
ATOM     38  C   UNL A   1      39.954  26.641  28.145  1.00  0.00     0.031 C 
ATOM     39  C   UNL A   1      40.659  31.276  30.027  1.00  0.00     0.029 A 
ATOM     40  N   UNL A   1      42.465  29.998  29.721  1.00  0.00    -0.354 N 
ATOM     41  C   UNL A   1      42.115  25.937  28.288  1.00  0.00     0.074 A 
ATOM     42  C   UNL A   1      40.735  25.575  28.076  1.00  0.00     0.031 C 
ATOM     43  C   UNL A   1      41.727  32.005  30.380  1.00  0.00     0.029 A 
ATOM     44  C   UNL A   1      42.933  31.208  30.180  1.00  0.00     0.049 A 
ATOM     45  H   UNL A   1      43.048  29.223  29.551  1.00  0.00     0.167 HD
ATOM     46  C   UNL A   1      43.156  25.099  28.065  1.00  0.00     0.037 A 
ATOM     47  C   UNL A   1      44.191  31.640  30.394  1.00  0.00     0.037 A 
ATOM     48  C   UNL A   1      44.533  25.482  28.223  1.00  0.00     0.049 A 
ATOM     49  C   UNL A   1      45.338  30.711  30.106  1.00  0.00     0.074 A 
ATOM     50  C   UNL A   1      45.669  24.739  27.953  1.00  0.00     0.029 A 
ATOM     51  N   UNL A   1      44.962  26.717  28.685  1.00  0.00    -0.354 N 
ATOM     52  N   UNL A   1      45.305  29.481  29.651  1.00  0.00    -0.248 NA
ATOM     53  C   UNL A   1      46.690  31.226  30.356  1.00  0.00     0.031 C 
ATOM     54  C   UNL A   1      46.784  25.510  28.296  1.00  0.00     0.029 A 
ATOM     55  C   UNL A   1      46.345  26.751  28.728  1.00  0.00     0.049 A 
ATOM     56  H   UNL A   1      44.369  27.460  28.945  1.00  0.00     0.167 HD
ATOM     57  C   UNL A   1      46.632  29.078  29.548  1.00  0.00     0.074 A 
ATOM     58  C   UNL A   1      47.442  30.204  29.967  1.00  0.00     0.031 C 
ATOM     59  C   UNL A   1      47.134  27.883  29.149  1.00  0.00     0.037 A 
BRANCH  46  60
ATOM     60  C   UNL A   1      42.848  23.703  27.584  1.00  0.00     0.058 A 
ATOM     61  C   UNL A   1      42.855  23.380  26.215  1.00  0.00     0.135 A 
ATOM     62  C   UNL A   1      42.588  22.666  28.495  1.00  0.00     0.135 A 
ATOM     63  F   UNL A   1      43.086  24.331  25.296  1.00  0.00    -0.206 F 
ATOM     64  C   UNL A   1      42.579  22.092  25.767  1.00  0.00     0.059 A 
ATOM     65  C   UNL A   1      42.342  21.362  28.070  1.00  0.00     0.059 A 
ATOM     66  F   UNL A   1      42.572  22.912  29.814  1.00  0.00    -0.206 F 
ATOM     67  C   UNL A   1      42.327  21.088  26.703  1.00  0.00     0.060 A 
BRANCH  67  68
ATOM     68  S   UNL A   1      41.985  19.422  26.098  1.00  0.00     0.124 S 
ATOM     69  O   UNL A   1      42.416  18.606  27.230  1.00  0.00    -0.237 OA
ATOM     70  O   UNL A   1      40.545  19.467  25.865  1.00  0.00    -0.237 OA
ATOM     71  O   UNL A   1      42.810  19.316  24.899  1.00  0.00    -0.744 OA
ENDBRANCH  67  68
ENDBRANCH  46  60
BRANCH  47  72
ATOM     72  C   UNL A   1      44.422  33.041  30.843  1.00  0.00     0.058 A 
ATOM     73  C   UNL A   1      44.540  34.083  29.911  1.00  0.00     0.135 A 
ATOM     74  C   UNL A   1      44.466  33.377  32.205  1.00  0.00     0.135 A 
ATOM     75  F   UNL A   1      44.510  33.816  28.597  1.00  0.00    -0.206 F 
ATOM     76  C   UNL A   1      44.693  35.408  30.312  1.00  0.00     0.059 A 
ATOM     77  C   UNL A   1      44.590  34.696  32.630  1.00  0.00     0.059 A 
ATOM     78  F   UNL A   1      44.340  32.419  33.137  1.00  0.00    -0.206 F 
ATOM     79  C   UNL A   1      44.706  35.706  31.676  1.00  0.00     0.060 A 
BRANCH  79  80
ATOM     80  S   UNL A   1      44.824  37.436  32.180  1.00  0.00     0.124 S 
ATOM     81  O   UNL A   1      46.124  37.463  32.841  1.00  0.00    -0.237 OA
ATOM     82  O   UNL A   1      44.746  38.131  30.899  1.00  0.00    -0.237 OA
ATOM     83  O   UNL A   1      43.668  37.612  33.052  1.00  0.00    -0.744 OA
ENDBRANCH  79  80
ENDBRANCH  47  72
BRANCH  59  84
ATOM     84  C   UNL A   1      48.628  27.725  29.134  1.00  0.00     0.058 A 
ATOM     85  C   UNL A   1      49.317  27.184  30.229  1.00  0.00     0.135 A 
ATOM     86  C   UNL A   1      49.366  28.039  27.981  1.00  0.00     0.135 A 
ATOM     87  F   UNL A   1      48.657  26.870  31.356  1.00  0.00    -0.206 F 
ATOM     88  C   UNL A   1      50.690  26.973  30.189  1.00  0.00     0.059 A 
ATOM     89  C   UNL A   1      50.736  27.808  27.908  1.00  0.00     0.059 A 
ATOM     90  F   UNL A   1      48.751  28.548  26.901  1.00  0.00    -0.206 F 
ATOM     91  C   UNL A   1      51.390  27.282  29.020  1.00  0.00     0.060 A 
BRANCH  91  92
ATOM     92  S   UNL A   1      53.166  26.960  28.971  1.00  0.00     0.124 S 
ATOM     93  O   UNL A   1      53.268  26.048  27.837  1.00  0.00    -0.237 OA
ATOM     94  O   UNL A   1      53.716  28.296  28.763  1.00  0.00    -0.237 OA
ATOM     95  O   UNL A   1      53.441  26.371  30.278  1.00  0.00    -0.744 OA
ENDBRANCH  91  92
ENDBRANCH  59  84
ENDBRANCH  33  34
ENDBRANCH  26  28
ENDBRANCH  25  26
ENDBRANCH   1  25
TORSDOF 17
ENDMDL
