MODEL 1
REMARK VINA RESULT:     -11.7      0.000      0.000
REMARK SMILES O=C(OCCOC(=O)c1cc(-c2ccoc2)nc2c(F)cccc12)c1ccc(-c2c3nc(c(-c4c(F)cc(S(=O)(=O)[O-])cc4F)c4ccc([nH]4)c(-c4c(F)cc(S(=O)(=O)[O-])cc4F)c4nc(c(-c5c(F)cc(S(=O)(=O)[O-])cc5F)c5ccc2[nH]5)C=C4)C=C3)cc1
REMARK SMILES IDX 4 1 3 2 2 3 1 4 25 5 26 6 90 7 27 8 89 9 28 10 29 11 30 12
REMARK SMILES IDX 83 13 31 14 88 15 82 16 84 17 32 18 87 19 81 20 80 21 33 23
REMARK SMILES IDX 67 24 46 25 66 26 47 27 50 28 65 29 85 30 48 31 49 32 64 34
REMARK SMILES IDX 86 35 51 36 34 37 35 38 44 39 36 40 37 41 43 42 45 43 38 44
REMARK SMILES IDX 39 45 40 46 41 47 42 48 68 49 69 50 78 51 70 52 71 53 77 54
REMARK SMILES IDX 79 55 72 56 73 57 74 58 75 59 76 60 52 61 53 62 62 63 54 64
REMARK SMILES IDX 55 65 61 66 63 67 56 68 57 69 58 70 59 71 60 72 5 73 6 74
REMARK SMILES IDX 7 75 8 76 9 77 10 78 24 79 11 80 18 81 23 82 17 83 19 84
REMARK SMILES IDX 22 85 20 86 21 87 12 88 13 89 16 90 14 91 15 92
REMARK H PARENT 84 22 50 33
REMARK Flexibility Score: inf
ROOT
ATOM      1  C   UNL A   1      39.166  19.643  25.326  1.00  0.00     0.275 C 
ENDROOT
BRANCH   1   2
ATOM      2  O   UNL A   1      40.312  19.238  26.092  1.00  0.00    -0.458 OA
BRANCH   2   3
ATOM      3  C   UNL A   1      41.612  19.595  25.972  1.00  0.00     0.338 C 
ATOM      4  O   UNL A   1      42.412  18.740  25.592  1.00  0.00    -0.246 OA
BRANCH   3   5
ATOM      5  C   UNL A   1      42.171  20.918  26.415  1.00  0.00     0.060 A 
ATOM      6  C   UNL A   1      42.335  21.364  27.728  1.00  0.00     0.016 A 
ATOM      7  C   UNL A   1      42.598  21.776  25.385  1.00  0.00     0.016 A 
ATOM      8  C   UNL A   1      42.977  22.575  28.011  1.00  0.00     0.010 A 
ATOM      9  C   UNL A   1      43.262  22.975  25.657  1.00  0.00     0.010 A 
ATOM     10  C   UNL A   1      43.457  23.382  26.981  1.00  0.00    -0.014 A 
BRANCH  10  11
ATOM     11  C   UNL A   1      44.016  24.721  27.269  1.00  0.00     0.031 A 
ATOM     12  C   UNL A   1      43.065  25.850  27.520  1.00  0.00     0.074 A 
ATOM     13  C   UNL A   1      45.343  24.934  27.360  1.00  0.00     0.049 A 
ATOM     14  N   UNL A   1      43.333  27.102  27.760  1.00  0.00    -0.248 NA
ATOM     15  C   UNL A   1      41.631  25.513  27.580  1.00  0.00     0.031 C 
ATOM     16  C   UNL A   1      46.372  23.899  27.348  1.00  0.00     0.029 A 
ATOM     17  N   UNL A   1      46.059  26.103  27.451  1.00  0.00    -0.354 N 
ATOM     18  C   UNL A   1      42.116  27.691  28.061  1.00  0.00     0.074 A 
ATOM     19  C   UNL A   1      41.095  26.682  27.902  1.00  0.00     0.031 C 
ATOM     20  C   UNL A   1      47.582  24.484  27.312  1.00  0.00     0.029 A 
ATOM     21  C   UNL A   1      47.409  25.924  27.250  1.00  0.00     0.049 A 
ATOM     22  H   UNL A   1      45.649  26.979  27.640  1.00  0.00     0.167 HD
ATOM     23  C   UNL A   1      41.890  28.954  28.482  1.00  0.00     0.037 A 
ATOM     24  C   UNL A   1      48.382  26.816  26.987  1.00  0.00     0.037 A 
ATOM     25  C   UNL A   1      42.920  29.947  28.614  1.00  0.00     0.049 A 
ATOM     26  C   UNL A   1      48.060  28.268  27.144  1.00  0.00     0.074 A 
ATOM     27  C   UNL A   1      42.808  31.246  29.074  1.00  0.00     0.029 A 
ATOM     28  N   UNL A   1      44.245  29.762  28.248  1.00  0.00    -0.354 N 
ATOM     29  N   UNL A   1      46.919  28.809  27.493  1.00  0.00    -0.248 NA
ATOM     30  C   UNL A   1      49.157  29.223  26.953  1.00  0.00     0.031 C 
ATOM     31  C   UNL A   1      44.049  31.870  28.911  1.00  0.00     0.029 A 
ATOM     32  C   UNL A   1      44.948  30.944  28.404  1.00  0.00     0.049 A 
ATOM     33  H   UNL A   1      44.629  28.915  27.925  1.00  0.00     0.167 HD
ATOM     34  C   UNL A   1      47.176  30.162  27.641  1.00  0.00     0.074 A 
ATOM     35  C   UNL A   1      48.574  30.361  27.307  1.00  0.00     0.031 C 
ATOM     36  C   UNL A   1      46.335  31.134  28.063  1.00  0.00     0.037 A 
BRANCH  23  37
ATOM     37  C   UNL A   1      40.477  29.329  28.807  1.00  0.00     0.058 A 
ATOM     38  C   UNL A   1      39.526  29.557  27.801  1.00  0.00     0.135 A 
ATOM     39  C   UNL A   1      40.067  29.431  30.143  1.00  0.00     0.135 A 
ATOM     40  F   UNL A   1      39.879  29.501  26.506  1.00  0.00    -0.206 F 
ATOM     41  C   UNL A   1      38.209  29.877  28.111  1.00  0.00     0.059 A 
ATOM     42  C   UNL A   1      38.751  29.731  30.477  1.00  0.00     0.059 A 
ATOM     43  F   UNL A   1      40.948  29.242  31.137  1.00  0.00    -0.206 F 
ATOM     44  C   UNL A   1      37.830  29.956  29.454  1.00  0.00     0.060 A 
BRANCH  44  45
ATOM     45  S   UNL A   1      36.110  30.338  29.840  1.00  0.00     0.124 S 
ATOM     46  O   UNL A   1      35.969  29.746  31.166  1.00  0.00    -0.237 OA
ATOM     47  O   UNL A   1      36.098  31.797  29.792  1.00  0.00    -0.237 OA
ATOM     48  O   UNL A   1      35.366  29.672  28.774  1.00  0.00    -0.744 OA
ENDBRANCH  44  45
ENDBRANCH  23  37
BRANCH  24  49
ATOM     49  C   UNL A   1      49.718  26.386  26.499  1.00  0.00     0.058 A 
ATOM     50  C   UNL A   1      50.725  25.941  27.363  1.00  0.00     0.135 A 
ATOM     51  C   UNL A   1      50.028  26.486  25.132  1.00  0.00     0.135 A 
ATOM     52  F   UNL A   1      50.487  25.851  28.679  1.00  0.00    -0.206 F 
ATOM     53  C   UNL A   1      51.996  25.616  26.892  1.00  0.00     0.059 A 
ATOM     54  C   UNL A   1      51.285  26.150  24.634  1.00  0.00     0.059 A 
ATOM     55  F   UNL A   1      49.102  26.926  24.268  1.00  0.00    -0.206 F 
ATOM     56  C   UNL A   1      52.267  25.727  25.526  1.00  0.00     0.060 A 
BRANCH  56  57
ATOM     57  S   UNL A   1      53.912  25.278  24.924  1.00  0.00     0.124 S 
ATOM     58  O   UNL A   1      53.827  23.822  24.892  1.00  0.00    -0.237 OA
ATOM     59  O   UNL A   1      53.953  25.944  23.625  1.00  0.00    -0.237 OA
ATOM     60  O   UNL A   1      54.803  25.840  25.933  1.00  0.00    -0.744 OA
ENDBRANCH  56  57
ENDBRANCH  24  49
BRANCH  36  61
ATOM     61  C   UNL A   1      46.911  32.507  28.227  1.00  0.00     0.058 A 
ATOM     62  C   UNL A   1      46.793  33.476  27.223  1.00  0.00     0.135 A 
ATOM     63  C   UNL A   1      47.529  32.870  29.434  1.00  0.00     0.135 A 
ATOM     64  F   UNL A   1      46.230  33.166  26.045  1.00  0.00    -0.206 F 
ATOM     65  C   UNL A   1      47.271  34.767  27.410  1.00  0.00     0.059 A 
ATOM     66  C   UNL A   1      47.986  34.162  29.654  1.00  0.00     0.059 A 
ATOM     67  F   UNL A   1      47.666  31.971  30.423  1.00  0.00    -0.206 F 
ATOM     68  C   UNL A   1      47.855  35.102  28.633  1.00  0.00     0.060 A 
BRANCH  68  69
ATOM     69  S   UNL A   1      48.397  36.803  28.890  1.00  0.00     0.124 S 
ATOM     70  O   UNL A   1      49.839  36.683  28.705  1.00  0.00    -0.237 OA
ATOM     71  O   UNL A   1      47.679  37.519  27.839  1.00  0.00    -0.237 OA
ATOM     72  O   UNL A   1      47.960  37.097  30.251  1.00  0.00    -0.744 OA
ENDBRANCH  68  69
ENDBRANCH  36  61
ENDBRANCH  10  11
ENDBRANCH   3   5
ENDBRANCH   2   3
ENDBRANCH   1   2
BRANCH   1  73
ATOM     73  C   UNL A   1      38.758  21.107  25.513  1.00  0.00     0.275 C 
BRANCH  73  74
ATOM     74  O   UNL A   1      37.634  21.490  24.705  1.00  0.00    -0.458 OA
BRANCH  74  75
ATOM     75  C   UNL A   1      36.586  22.020  25.381  1.00  0.00     0.339 C 
ATOM     76  O   UNL A   1      36.636  22.904  26.228  1.00  0.00    -0.246 OA
BRANCH  75  77
ATOM     77  C   UNL A   1      35.316  21.481  24.861  1.00  0.00     0.071 A 
ATOM     78  C   UNL A   1      35.100  20.113  25.068  1.00  0.00     0.045 A 
ATOM     79  C   UNL A   1      34.404  22.265  24.116  1.00  0.00     0.018 A 
ATOM     80  C   UNL A   1      33.939  19.568  24.569  1.00  0.00     0.075 A 
ATOM     81  C   UNL A   1      33.262  21.593  23.637  1.00  0.00     0.107 A 
ATOM     82  C   UNL A   1      34.584  23.634  23.783  1.00  0.00     0.011 A 
ATOM     83  N   UNL A   1      33.038  20.289  23.878  1.00  0.00    -0.245 NA
ATOM     84  C   UNL A   1      32.363  22.295  22.842  1.00  0.00     0.149 A 
ATOM     85  C   UNL A   1      33.677  24.302  22.960  1.00  0.00     0.004 A 
ATOM     86  F   UNL A   1      31.262  21.679  22.381  1.00  0.00    -0.205 F 
ATOM     87  C   UNL A   1      32.572  23.620  22.473  1.00  0.00     0.041 A 
BRANCH  80  88
ATOM     88  C   UNL A   1      33.629  18.158  24.646  1.00  0.00     0.038 A 
ATOM     89  C   UNL A   1      32.771  17.502  25.571  1.00  0.00     0.052 A 
ATOM     90  C   UNL A   1      34.194  17.158  23.886  1.00  0.00     0.205 A 
ATOM     91  C   UNL A   1      32.850  16.160  25.291  1.00  0.00     0.195 A 
ATOM     92  O   UNL A   1      33.711  15.942  24.264  1.00  0.00    -0.472 OA
ENDBRANCH  80  88
ENDBRANCH  75  77
ENDBRANCH  74  75
ENDBRANCH  73  74
ENDBRANCH   1  73
TORSDOF 15
ENDMDL
MODEL 2
REMARK VINA RESULT:     -11.6      5.398     10.268
REMARK SMILES O=C(OCCOC(=O)c1cc(-c2ccoc2)nc2c(F)cccc12)c1ccc(-c2c3nc(c(-c4c(F)cc(S(=O)(=O)[O-])cc4F)c4ccc([nH]4)c(-c4c(F)cc(S(=O)(=O)[O-])cc4F)c4nc(c(-c5c(F)cc(S(=O)(=O)[O-])cc5F)c5ccc2[nH]5)C=C4)C=C3)cc1
REMARK SMILES IDX 4 1 3 2 2 3 1 4 25 5 26 6 90 7 27 8 89 9 28 10 29 11 30 12
REMARK SMILES IDX 83 13 31 14 88 15 82 16 84 17 32 18 87 19 81 20 80 21 33 23
REMARK SMILES IDX 67 24 46 25 66 26 47 27 50 28 65 29 85 30 48 31 49 32 64 34
REMARK SMILES IDX 86 35 51 36 34 37 35 38 44 39 36 40 37 41 43 42 45 43 38 44
REMARK SMILES IDX 39 45 40 46 41 47 42 48 68 49 69 50 78 51 70 52 71 53 77 54
REMARK SMILES IDX 79 55 72 56 73 57 74 58 75 59 76 60 52 61 53 62 62 63 54 64
REMARK SMILES IDX 55 65 61 66 63 67 56 68 57 69 58 70 59 71 60 72 5 73 6 74
REMARK SMILES IDX 7 75 8 76 9 77 10 78 24 79 11 80 18 81 23 82 17 83 19 84
REMARK SMILES IDX 22 85 20 86 21 87 12 88 13 89 16 90 14 91 15 92
REMARK H PARENT 84 22 50 33
REMARK Flexibility Score: inf
ROOT
ATOM      1  C   UNL A   1      34.026  27.737  25.950  1.00  0.00     0.275 C 
ENDROOT
BRANCH   1   2
ATOM      2  O   UNL A   1      33.736  29.118  26.220  1.00  0.00    -0.458 OA
BRANCH   2   3
ATOM      3  C   UNL A   1      34.298  29.970  27.110  1.00  0.00     0.338 C 
ATOM      4  O   UNL A   1      33.707  31.022  27.352  1.00  0.00    -0.246 OA
BRANCH   3   5
ATOM      5  C   UNL A   1      35.664  29.789  27.709  1.00  0.00     0.060 A 
ATOM      6  C   UNL A   1      36.892  29.996  27.077  1.00  0.00     0.016 A 
ATOM      7  C   UNL A   1      35.692  29.398  29.059  1.00  0.00     0.016 A 
ATOM      8  C   UNL A   1      38.098  29.904  27.782  1.00  0.00     0.010 A 
ATOM      9  C   UNL A   1      36.889  29.328  29.778  1.00  0.00     0.010 A 
ATOM     10  C   UNL A   1      38.106  29.584  29.138  1.00  0.00    -0.014 A 
BRANCH  10  11
ATOM     11  C   UNL A   1      39.380  29.357  29.853  1.00  0.00     0.031 A 
ATOM     12  C   UNL A   1      40.208  28.169  29.471  1.00  0.00     0.074 A 
ATOM     13  C   UNL A   1      39.833  30.210  30.791  1.00  0.00     0.049 A 
ATOM     14  N   UNL A   1      41.336  27.764  29.982  1.00  0.00    -0.248 NA
ATOM     15  C   UNL A   1      39.744  27.375  28.318  1.00  0.00     0.031 C 
ATOM     16  C   UNL A   1      39.244  31.505  31.115  1.00  0.00     0.029 A 
ATOM     17  N   UNL A   1      40.882  30.101  31.672  1.00  0.00    -0.354 N 
ATOM     18  C   UNL A   1      41.751  26.712  29.181  1.00  0.00     0.074 A 
ATOM     19  C   UNL A   1      40.720  26.488  28.193  1.00  0.00     0.031 C 
ATOM     20  C   UNL A   1      39.867  32.013  32.193  1.00  0.00     0.029 A 
ATOM     21  C   UNL A   1      40.858  31.061  32.658  1.00  0.00     0.049 A 
ATOM     22  H   UNL A   1      41.579  29.407  31.605  1.00  0.00     0.167 HD
ATOM     23  C   UNL A   1      42.916  26.034  29.244  1.00  0.00     0.037 A 
ATOM     24  C   UNL A   1      41.519  31.131  33.829  1.00  0.00     0.037 A 
ATOM     25  C   UNL A   1      43.918  26.262  30.249  1.00  0.00     0.049 A 
ATOM     26  C   UNL A   1      42.635  30.163  34.061  1.00  0.00     0.074 A 
ATOM     27  C   UNL A   1      45.156  25.661  30.380  1.00  0.00     0.029 A 
ATOM     28  N   UNL A   1      43.778  27.135  31.317  1.00  0.00    -0.354 N 
ATOM     29  N   UNL A   1      43.059  29.212  33.265  1.00  0.00    -0.248 NA
ATOM     30  C   UNL A   1      43.411  30.316  35.297  1.00  0.00     0.031 C 
ATOM     31  C   UNL A   1      45.731  26.113  31.572  1.00  0.00     0.029 A 
ATOM     32  C   UNL A   1      44.878  27.037  32.154  1.00  0.00     0.049 A 
ATOM     33  H   UNL A   1      43.012  27.735  31.460  1.00  0.00     0.167 HD
ATOM     34  C   UNL A   1      44.199  28.704  33.863  1.00  0.00     0.074 A 
ATOM     35  C   UNL A   1      44.377  29.427  35.108  1.00  0.00     0.031 C 
ATOM     36  C   UNL A   1      45.042  27.756  33.392  1.00  0.00     0.037 A 
BRANCH  23  37
ATOM     37  C   UNL A   1      43.153  24.975  28.212  1.00  0.00     0.058 A 
ATOM     38  C   UNL A   1      43.662  25.285  26.942  1.00  0.00     0.135 A 
ATOM     39  C   UNL A   1      42.894  23.631  28.512  1.00  0.00     0.135 A 
ATOM     40  F   UNL A   1      43.896  26.562  26.597  1.00  0.00    -0.206 F 
ATOM     41  C   UNL A   1      43.905  24.293  25.999  1.00  0.00     0.059 A 
ATOM     42  C   UNL A   1      43.148  22.620  27.592  1.00  0.00     0.059 A 
ATOM     43  F   UNL A   1      42.387  23.291  29.707  1.00  0.00    -0.206 F 
ATOM     44  C   UNL A   1      43.650  22.962  26.337  1.00  0.00     0.060 A 
BRANCH  44  45
ATOM     45  S   UNL A   1      44.004  21.683  25.115  1.00  0.00     0.124 S 
ATOM     46  O   UNL A   1      43.845  22.419  23.865  1.00  0.00    -0.237 OA
ATOM     47  O   UNL A   1      45.371  21.299  25.455  1.00  0.00    -0.237 OA
ATOM     48  O   UNL A   1      42.987  20.669  25.378  1.00  0.00    -0.744 OA
ENDBRANCH  44  45
ENDBRANCH  23  37
BRANCH  24  49
ATOM     49  C   UNL A   1      41.121  32.094  34.888  1.00  0.00     0.058 A 
ATOM     50  C   UNL A   1      40.156  31.790  35.855  1.00  0.00     0.135 A 
ATOM     51  C   UNL A   1      41.670  33.387  34.898  1.00  0.00     0.135 A 
ATOM     52  F   UNL A   1      39.585  30.577  35.873  1.00  0.00    -0.206 F 
ATOM     53  C   UNL A   1      39.742  32.736  36.792  1.00  0.00     0.059 A 
ATOM     54  C   UNL A   1      41.286  34.344  35.834  1.00  0.00     0.059 A 
ATOM     55  F   UNL A   1      42.583  33.733  33.979  1.00  0.00    -0.206 F 
ATOM     56  C   UNL A   1      40.311  34.012  36.771  1.00  0.00     0.060 A 
BRANCH  56  57
ATOM     57  S   UNL A   1      39.785  35.221  38.008  1.00  0.00     0.124 S 
ATOM     58  O   UNL A   1      40.903  35.192  38.944  1.00  0.00    -0.237 OA
ATOM     59  O   UNL A   1      39.652  36.436  37.209  1.00  0.00    -0.237 OA
ATOM     60  O   UNL A   1      38.528  34.668  38.503  1.00  0.00    -0.744 OA
ENDBRANCH  56  57
ENDBRANCH  24  49
BRANCH  36  61
ATOM     61  C   UNL A   1      46.264  27.466  34.207  1.00  0.00     0.058 A 
ATOM     62  C   UNL A   1      46.286  26.435  35.155  1.00  0.00     0.135 A 
ATOM     63  C   UNL A   1      47.446  28.191  33.985  1.00  0.00     0.135 A 
ATOM     64  F   UNL A   1      45.173  25.732  35.416  1.00  0.00    -0.206 F 
ATOM     65  C   UNL A   1      47.444  26.131  35.860  1.00  0.00     0.059 A 
ATOM     66  C   UNL A   1      48.621  27.884  34.655  1.00  0.00     0.059 A 
ATOM     67  F   UNL A   1      47.469  29.191  33.087  1.00  0.00    -0.206 F 
ATOM     68  C   UNL A   1      48.608  26.852  35.593  1.00  0.00     0.060 A 
BRANCH  68  69
ATOM     69  S   UNL A   1      50.123  26.391  36.457  1.00  0.00     0.124 S 
ATOM     70  O   UNL A   1      49.860  26.894  37.801  1.00  0.00    -0.237 OA
ATOM     71  O   UNL A   1      50.132  24.939  36.312  1.00  0.00    -0.237 OA
ATOM     72  O   UNL A   1      51.164  27.095  35.715  1.00  0.00    -0.744 OA
ENDBRANCH  68  69
ENDBRANCH  36  61
ENDBRANCH  10  11
ENDBRANCH   3   5
ENDBRANCH   2   3
ENDBRANCH   1   2
BRANCH   1  73
ATOM     73  C   UNL A   1      33.407  27.197  24.657  1.00  0.00     0.275 C 
BRANCH  73  74
ATOM     74  O   UNL A   1      33.212  25.775  24.673  1.00  0.00    -0.458 OA
BRANCH  74  75
ATOM     75  C   UNL A   1      33.854  25.088  23.697  1.00  0.00     0.339 C 
ATOM     76  O   UNL A   1      34.030  25.457  22.541  1.00  0.00    -0.246 OA
BRANCH  75  77
ATOM     77  C   UNL A   1      34.454  23.858  24.245  1.00  0.00     0.071 A 
ATOM     78  C   UNL A   1      35.725  23.998  24.814  1.00  0.00     0.045 A 
ATOM     79  C   UNL A   1      33.837  22.591  24.127  1.00  0.00     0.018 A 
ATOM     80  C   UNL A   1      36.332  22.865  25.308  1.00  0.00     0.075 A 
ATOM     81  C   UNL A   1      34.561  21.501  24.649  1.00  0.00     0.107 A 
ATOM     82  C   UNL A   1      32.592  22.344  23.488  1.00  0.00     0.011 A 
ATOM     83  N   UNL A   1      35.762  21.649  25.236  1.00  0.00    -0.245 NA
ATOM     84  C   UNL A   1      34.035  20.222  24.503  1.00  0.00     0.149 A 
ATOM     85  C   UNL A   1      32.106  21.046  23.333  1.00  0.00     0.004 A 
ATOM     86  F   UNL A   1      34.702  19.169  25.000  1.00  0.00    -0.205 F 
ATOM     87  C   UNL A   1      32.843  19.980  23.827  1.00  0.00     0.041 A 
BRANCH  80  88
ATOM     88  C   UNL A   1      37.671  22.856  25.851  1.00  0.00     0.038 A 
ATOM     89  C   UNL A   1      38.357  23.918  26.501  1.00  0.00     0.052 A 
ATOM     90  C   UNL A   1      38.583  21.828  25.752  1.00  0.00     0.205 A 
ATOM     91  C   UNL A   1      39.620  23.456  26.776  1.00  0.00     0.195 A 
ATOM     92  O   UNL A   1      39.765  22.182  26.326  1.00  0.00    -0.472 OA
ENDBRANCH  80  88
ENDBRANCH  75  77
ENDBRANCH  74  75
ENDBRANCH  73  74
ENDBRANCH   1  73
TORSDOF 15
ENDMDL
MODEL 3
REMARK VINA RESULT:     -11.5      6.485     10.941
REMARK SMILES O=C(OCCOC(=O)c1cc(-c2ccoc2)nc2c(F)cccc12)c1ccc(-c2c3nc(c(-c4c(F)cc(S(=O)(=O)[O-])cc4F)c4ccc([nH]4)c(-c4c(F)cc(S(=O)(=O)[O-])cc4F)c4nc(c(-c5c(F)cc(S(=O)(=O)[O-])cc5F)c5ccc2[nH]5)C=C4)C=C3)cc1
REMARK SMILES IDX 4 1 3 2 2 3 1 4 25 5 26 6 90 7 27 8 89 9 28 10 29 11 30 12
REMARK SMILES IDX 83 13 31 14 88 15 82 16 84 17 32 18 87 19 81 20 80 21 33 23
REMARK SMILES IDX 67 24 46 25 66 26 47 27 50 28 65 29 85 30 48 31 49 32 64 34
REMARK SMILES IDX 86 35 51 36 34 37 35 38 44 39 36 40 37 41 43 42 45 43 38 44
REMARK SMILES IDX 39 45 40 46 41 47 42 48 68 49 69 50 78 51 70 52 71 53 77 54
REMARK SMILES IDX 79 55 72 56 73 57 74 58 75 59 76 60 52 61 53 62 62 63 54 64
REMARK SMILES IDX 55 65 61 66 63 67 56 68 57 69 58 70 59 71 60 72 5 73 6 74
REMARK SMILES IDX 7 75 8 76 9 77 10 78 24 79 11 80 18 81 23 82 17 83 19 84
REMARK SMILES IDX 22 85 20 86 21 87 12 88 13 89 16 90 14 91 15 92
REMARK H PARENT 84 22 50 33
REMARK Flexibility Score: inf
ROOT
ATOM      1  C   UNL A   1      40.077  22.214  26.004  1.00  0.00     0.275 C 
ENDROOT
BRANCH   1   2
ATOM      2  O   UNL A   1      40.111  23.270  26.978  1.00  0.00    -0.458 OA
BRANCH   2   3
ATOM      3  C   UNL A   1      40.702  24.487  26.925  1.00  0.00     0.338 C 
ATOM      4  O   UNL A   1      41.521  24.691  26.029  1.00  0.00    -0.246 OA
BRANCH   3   5
ATOM      5  C   UNL A   1      40.540  25.552  27.972  1.00  0.00     0.060 A 
ATOM      6  C   UNL A   1      39.404  25.806  28.743  1.00  0.00     0.016 A 
ATOM      7  C   UNL A   1      41.672  26.351  28.211  1.00  0.00     0.016 A 
ATOM      8  C   UNL A   1      39.418  26.757  29.771  1.00  0.00     0.010 A 
ATOM      9  C   UNL A   1      41.706  27.285  29.251  1.00  0.00     0.010 A 
ATOM     10  C   UNL A   1      40.571  27.493  30.041  1.00  0.00    -0.014 A 
BRANCH  10  11
ATOM     11  C   UNL A   1      40.551  28.587  31.035  1.00  0.00     0.031 A 
ATOM     12  C   UNL A   1      41.343  28.419  32.295  1.00  0.00     0.074 A 
ATOM     13  C   UNL A   1      39.886  29.738  30.815  1.00  0.00     0.049 A 
ATOM     14  N   UNL A   1      41.443  29.231  33.308  1.00  0.00    -0.248 NA
ATOM     15  C   UNL A   1      42.187  27.214  32.395  1.00  0.00     0.031 C 
ATOM     16  C   UNL A   1      39.251  30.124  29.559  1.00  0.00     0.029 A 
ATOM     17  N   UNL A   1      39.608  30.788  31.656  1.00  0.00    -0.354 N 
ATOM     18  C   UNL A   1      42.404  28.674  34.137  1.00  0.00     0.074 A 
ATOM     19  C   UNL A   1      42.805  27.417  33.550  1.00  0.00     0.031 C 
ATOM     20  C   UNL A   1      38.564  31.264  29.748  1.00  0.00     0.029 A 
ATOM     21  C   UNL A   1      38.672  31.657  31.140  1.00  0.00     0.049 A 
ATOM     22  H   UNL A   1      40.033  30.907  32.537  1.00  0.00     0.167 HD
ATOM     23  C   UNL A   1      42.933  29.202  35.261  1.00  0.00     0.037 A 
ATOM     24  C   UNL A   1      37.945  32.618  31.739  1.00  0.00     0.037 A 
ATOM     25  C   UNL A   1      42.504  30.447  35.837  1.00  0.00     0.049 A 
ATOM     26  C   UNL A   1      38.319  33.011  33.133  1.00  0.00     0.074 A 
ATOM     27  C   UNL A   1      43.002  31.096  36.951  1.00  0.00     0.029 A 
ATOM     28  N   UNL A   1      41.446  31.210  35.364  1.00  0.00    -0.354 N 
ATOM     29  N   UNL A   1      39.274  32.518  33.883  1.00  0.00    -0.248 NA
ATOM     30  C   UNL A   1      37.584  34.129  33.735  1.00  0.00     0.031 C 
ATOM     31  C   UNL A   1      42.195  32.211  37.197  1.00  0.00     0.029 A 
ATOM     32  C   UNL A   1      41.230  32.288  36.206  1.00  0.00     0.049 A 
ATOM     33  H   UNL A   1      40.927  31.015  34.552  1.00  0.00     0.167 HD
ATOM     34  C   UNL A   1      39.310  33.315  35.015  1.00  0.00     0.074 A 
ATOM     35  C   UNL A   1      38.254  34.299  34.867  1.00  0.00     0.031 C 
ATOM     36  C   UNL A   1      40.173  33.257  36.055  1.00  0.00     0.037 A 
BRANCH  23  37
ATOM     37  C   UNL A   1      44.014  28.423  35.944  1.00  0.00     0.058 A 
ATOM     38  C   UNL A   1      45.373  28.692  35.716  1.00  0.00     0.135 A 
ATOM     39  C   UNL A   1      43.683  27.415  36.860  1.00  0.00     0.135 A 
ATOM     40  F   UNL A   1      45.740  29.627  34.824  1.00  0.00    -0.206 F 
ATOM     41  C   UNL A   1      46.370  27.983  36.375  1.00  0.00     0.059 A 
ATOM     42  C   UNL A   1      44.664  26.707  37.545  1.00  0.00     0.059 A 
ATOM     43  F   UNL A   1      42.397  27.110  37.093  1.00  0.00    -0.206 F 
ATOM     44  C   UNL A   1      46.004  26.995  37.293  1.00  0.00     0.060 A 
BRANCH  44  45
ATOM     45  S   UNL A   1      47.310  26.109  38.167  1.00  0.00     0.124 S 
ATOM     46  O   UNL A   1      48.422  26.227  37.229  1.00  0.00    -0.237 OA
ATOM     47  O   UNL A   1      47.436  26.879  39.400  1.00  0.00    -0.237 OA
ATOM     48  O   UNL A   1      46.763  24.764  38.324  1.00  0.00    -0.744 OA
ENDBRANCH  44  45
ENDBRANCH  23  37
BRANCH  24  49
ATOM     49  C   UNL A   1      36.771  33.233  31.069  1.00  0.00     0.058 A 
ATOM     50  C   UNL A   1      35.455  32.879  31.387  1.00  0.00     0.135 A 
ATOM     51  C   UNL A   1      36.964  34.157  30.028  1.00  0.00     0.135 A 
ATOM     52  F   UNL A   1      35.218  31.984  32.357  1.00  0.00    -0.206 F 
ATOM     53  C   UNL A   1      34.370  33.412  30.693  1.00  0.00     0.059 A 
ATOM     54  C   UNL A   1      35.896  34.717  29.331  1.00  0.00     0.059 A 
ATOM     55  F   UNL A   1      38.207  34.513  29.673  1.00  0.00    -0.206 F 
ATOM     56  C   UNL A   1      34.601  34.328  29.664  1.00  0.00     0.060 A 
BRANCH  56  57
ATOM     57  S   UNL A   1      33.185  35.032  28.788  1.00  0.00     0.124 S 
ATOM     58  O   UNL A   1      33.802  36.142  28.072  1.00  0.00    -0.237 OA
ATOM     59  O   UNL A   1      32.745  33.908  27.967  1.00  0.00    -0.237 OA
ATOM     60  O   UNL A   1      32.274  35.401  29.867  1.00  0.00    -0.744 OA
ENDBRANCH  56  57
ENDBRANCH  24  49
BRANCH  36  61
ATOM     61  C   UNL A   1      40.044  34.314  37.107  1.00  0.00     0.058 A 
ATOM     62  C   UNL A   1      40.652  35.568  36.967  1.00  0.00     0.135 A 
ATOM     63  C   UNL A   1      39.243  34.086  38.237  1.00  0.00     0.135 A 
ATOM     64  F   UNL A   1      41.445  35.821  35.913  1.00  0.00    -0.206 F 
ATOM     65  C   UNL A   1      40.473  36.565  37.916  1.00  0.00     0.059 A 
ATOM     66  C   UNL A   1      39.024  35.079  39.182  1.00  0.00     0.059 A 
ATOM     67  F   UNL A   1      38.642  32.897  38.414  1.00  0.00    -0.206 F 
ATOM     68  C   UNL A   1      39.647  36.315  39.013  1.00  0.00     0.060 A 
BRANCH  68  69
ATOM     69  S   UNL A   1      39.358  37.646  40.194  1.00  0.00     0.124 S 
ATOM     70  O   UNL A   1      40.654  38.315  40.207  1.00  0.00    -0.237 OA
ATOM     71  O   UNL A   1      38.267  38.386  39.566  1.00  0.00    -0.237 OA
ATOM     72  O   UNL A   1      39.002  36.941  41.421  1.00  0.00    -0.744 OA
ENDBRANCH  68  69
ENDBRANCH  36  61
ENDBRANCH  10  11
ENDBRANCH   3   5
ENDBRANCH   2   3
ENDBRANCH   1   2
BRANCH   1  73
ATOM     73  C   UNL A   1      38.809  21.356  26.039  1.00  0.00     0.275 C 
BRANCH  73  74
ATOM     74  O   UNL A   1      37.818  21.770  25.085  1.00  0.00    -0.458 OA
BRANCH  74  75
ATOM     75  C   UNL A   1      36.762  22.446  25.598  1.00  0.00     0.339 C 
ATOM     76  O   UNL A   1      36.811  23.416  26.346  1.00  0.00    -0.246 OA
BRANCH  75  77
ATOM     77  C   UNL A   1      35.502  21.942  25.024  1.00  0.00     0.071 A 
ATOM     78  C   UNL A   1      35.242  20.580  25.219  1.00  0.00     0.045 A 
ATOM     79  C   UNL A   1      34.644  22.750  24.242  1.00  0.00     0.018 A 
ATOM     80  C   UNL A   1      34.089  20.065  24.669  1.00  0.00     0.075 A 
ATOM     81  C   UNL A   1      33.505  22.109  23.714  1.00  0.00     0.107 A 
ATOM     82  C   UNL A   1      34.873  24.114  23.921  1.00  0.00     0.011 A 
ATOM     83  N   UNL A   1      33.238  20.811  23.943  1.00  0.00    -0.245 NA
ATOM     84  C   UNL A   1      32.660  22.836  22.883  1.00  0.00     0.149 A 
ATOM     85  C   UNL A   1      34.020  24.807  23.061  1.00  0.00     0.004 A 
ATOM     86  F   UNL A   1      31.564  22.249  22.374  1.00  0.00    -0.205 F 
ATOM     87  C   UNL A   1      32.920  24.155  22.526  1.00  0.00     0.041 A 
BRANCH  80  88
ATOM     88  C   UNL A   1      33.739  18.665  24.730  1.00  0.00     0.038 A 
ATOM     89  C   UNL A   1      34.113  17.631  23.827  1.00  0.00     0.052 A 
ATOM     90  C   UNL A   1      32.882  18.078  25.635  1.00  0.00     0.205 A 
ATOM     91  C   UNL A   1      33.485  16.490  24.261  1.00  0.00     0.195 A 
ATOM     92  O   UNL A   1      32.737  16.752  25.363  1.00  0.00    -0.472 OA
ENDBRANCH  80  88
ENDBRANCH  75  77
ENDBRANCH  74  75
ENDBRANCH  73  74
ENDBRANCH   1  73
TORSDOF 15
ENDMDL
