MODEL 1
REMARK VINA RESULT:     -11.5      0.000      0.000
REMARK SMILES O=C(CSc1ccc2ccccc2n1)NCc1ccc(C(=O)OCCOC(=O)c2ccc(-c3c4nc(c(-c5c(F)cc(S(=O)(=O)[O-])cc5F)c5ccc([nH]5)c(-c5c(F)cc(S(=O)(=O)[O-])cc5F)c5nc(c(-c6c(F)cc(S(=O)(=O)[O-])cc6F)c6ccc3[nH]6)C=C5)C=C4)cc2)cc1
REMARK SMILES IDX 24 1 23 2 21 3 22 4 20 5 17 6 18 7 96 8 19 9 95 10 16 11
REMARK SMILES IDX 15 12 1 13 2 14 3 16 4 17 5 18 6 19 14 20 7 21 13 22 8 23
REMARK SMILES IDX 12 24 9 25 11 26 10 27 25 28 26 29 27 30 28 31 29 32 30 33
REMARK SMILES IDX 94 34 31 35 93 36 32 37 33 38 34 39 87 40 35 41 92 42 86 43
REMARK SMILES IDX 88 44 36 45 91 46 85 47 84 48 37 50 71 51 50 52 70 53 51 54
REMARK SMILES IDX 54 55 69 56 89 57 52 58 53 59 68 61 90 62 55 63 38 64 39 65
REMARK SMILES IDX 48 66 40 67 41 68 47 69 49 70 42 71 43 72 44 73 45 74 46 75
REMARK SMILES IDX 72 76 73 77 82 78 74 79 75 80 81 81 83 82 76 83 77 84 78 85
REMARK SMILES IDX 79 86 80 87 56 88 57 89 66 90 58 91 59 92 65 93 67 94 60 95
REMARK SMILES IDX 61 96 62 97 63 98 64 99
REMARK H PARENT 15 15 88 49 54 60
REMARK Flexibility Score: inf
ROOT
ATOM      1  C   UNL A   1      33.386  30.355  26.291  1.00  0.00     0.275 C 
ENDROOT
BRANCH   1   2
ATOM      2  O   UNL A   1      32.105  29.694  26.231  1.00  0.00    -0.458 OA
BRANCH   2   3
ATOM      3  C   UNL A   1      31.891  28.945  25.122  1.00  0.00     0.338 C 
ATOM      4  O   UNL A   1      31.994  29.320  23.963  1.00  0.00    -0.246 OA
BRANCH   3   5
ATOM      5  C   UNL A   1      31.575  27.542  25.474  1.00  0.00     0.060 A 
ATOM      6  C   UNL A   1      30.814  24.921  26.168  1.00  0.00    -0.029 A 
ATOM      7  C   UNL A   1      30.009  25.699  25.327  1.00  0.00     0.006 A 
ATOM      8  C   UNL A   1      32.026  25.463  26.628  1.00  0.00     0.006 A 
ATOM      9  C   UNL A   1      30.365  27.008  25.022  1.00  0.00     0.016 A 
ATOM     10  C   UNL A   1      32.413  26.763  26.275  1.00  0.00     0.016 A 
BRANCH   6  11
ATOM     11  C   UNL A   1      30.407  23.511  26.527  1.00  0.00     0.151 C 
BRANCH  11  12
ATOM     12  N   UNL A   1      30.967  22.540  25.608  1.00  0.00    -0.351 N 
ATOM     13  O   UNL A   1      32.733  21.951  26.940  1.00  0.00    -0.274 OA
ATOM     14  C   UNL A   1      32.114  21.825  25.888  1.00  0.00     0.230 C 
ATOM     15  H   UNL A   1      30.512  22.385  24.749  1.00  0.00     0.163 HD
BRANCH  14  16
ATOM     16  C   UNL A   1      32.607  20.940  24.750  1.00  0.00     0.176 C 
BRANCH  16  17
ATOM     17  S   UNL A   1      33.339  21.931  23.403  1.00  0.00    -0.096 SA
BRANCH  17  18
ATOM     18  C   UNL A   1      34.764  22.552  24.270  1.00  0.00     0.097 A 
ATOM     19  C   UNL A   1      34.767  23.862  24.720  1.00  0.00     0.036 A 
ATOM     20  N   UNL A   1      35.794  21.703  24.457  1.00  0.00    -0.241 NA
ATOM     21  C   UNL A   1      35.899  24.331  25.379  1.00  0.00     0.013 A 
ATOM     22  C   UNL A   1      36.889  22.154  25.094  1.00  0.00     0.072 A 
ATOM     23  C   UNL A   1      36.987  23.475  25.578  1.00  0.00     0.000 A 
ATOM     24  C   UNL A   1      37.967  21.303  25.293  1.00  0.00     0.029 A 
ATOM     25  C   UNL A   1      38.151  23.905  26.241  1.00  0.00     0.010 A 
ATOM     26  C   UNL A   1      39.125  21.724  25.955  1.00  0.00     0.002 A 
ATOM     27  C   UNL A   1      39.217  23.028  26.429  1.00  0.00     0.001 A 
ENDBRANCH  17  18
ENDBRANCH  16  17
ENDBRANCH  14  16
ENDBRANCH  11  12
ENDBRANCH   6  11
ENDBRANCH   3   5
ENDBRANCH   2   3
ENDBRANCH   1   2
BRANCH   1  28
ATOM     28  C   UNL A   1      34.035  30.205  27.667  1.00  0.00     0.275 C 
BRANCH  28  29
ATOM     29  O   UNL A   1      35.352  30.783  27.671  1.00  0.00    -0.458 OA
BRANCH  29  30
ATOM     30  C   UNL A   1      35.984  30.778  28.867  1.00  0.00     0.338 C 
ATOM     31  O   UNL A   1      35.582  31.240  29.921  1.00  0.00    -0.246 OA
BRANCH  30  32
ATOM     32  C   UNL A   1      37.283  30.098  28.741  1.00  0.00     0.060 A 
ATOM     33  C   UNL A   1      38.006  29.799  29.892  1.00  0.00     0.016 A 
ATOM     34  C   UNL A   1      37.850  29.891  27.486  1.00  0.00     0.016 A 
ATOM     35  C   UNL A   1      39.337  29.396  29.801  1.00  0.00     0.010 A 
ATOM     36  C   UNL A   1      39.149  29.381  27.395  1.00  0.00     0.010 A 
ATOM     37  C   UNL A   1      39.925  29.163  28.550  1.00  0.00    -0.014 A 
BRANCH  37  38
ATOM     38  C   UNL A   1      41.347  28.723  28.431  1.00  0.00     0.031 A 
ATOM     39  C   UNL A   1      42.460  29.733  28.563  1.00  0.00     0.074 A 
ATOM     40  C   UNL A   1      41.653  27.433  28.184  1.00  0.00     0.049 A 
ATOM     41  N   UNL A   1      43.722  29.626  28.233  1.00  0.00    -0.248 NA
ATOM     42  C   UNL A   1      42.099  31.046  29.124  1.00  0.00     0.031 C 
ATOM     43  C   UNL A   1      40.692  26.333  28.087  1.00  0.00     0.029 A 
ATOM     44  N   UNL A   1      42.866  26.827  27.956  1.00  0.00    -0.354 N 
ATOM     45  C   UNL A   1      44.288  30.873  28.478  1.00  0.00     0.074 A 
ATOM     46  C   UNL A   1      43.234  31.719  28.994  1.00  0.00     0.031 C 
ATOM     47  C   UNL A   1      41.349  25.189  27.845  1.00  0.00     0.029 A 
ATOM     48  C   UNL A   1      42.766  25.485  27.669  1.00  0.00     0.049 A 
ATOM     49  H   UNL A   1      43.725  27.307  27.996  1.00  0.00     0.167 HD
ATOM     50  C   UNL A   1      45.568  31.273  28.281  1.00  0.00     0.037 A 
ATOM     51  C   UNL A   1      43.692  24.600  27.250  1.00  0.00     0.037 A 
ATOM     52  C   UNL A   1      46.623  30.403  27.829  1.00  0.00     0.049 A 
ATOM     53  C   UNL A   1      45.101  25.066  27.020  1.00  0.00     0.074 A 
ATOM     54  C   UNL A   1      47.954  30.708  27.604  1.00  0.00     0.029 A 
ATOM     55  N   UNL A   1      46.472  29.052  27.555  1.00  0.00    -0.354 N 
ATOM     56  N   UNL A   1      45.605  26.266  27.177  1.00  0.00    -0.248 NA
ATOM     57  C   UNL A   1      46.063  24.068  26.533  1.00  0.00     0.031 C 
ATOM     58  C   UNL A   1      48.602  29.547  27.168  1.00  0.00     0.029 A 
ATOM     59  C   UNL A   1      47.683  28.510  27.161  1.00  0.00     0.049 A 
ATOM     60  H   UNL A   1      45.627  28.551  27.630  1.00  0.00     0.167 HD
ATOM     61  C   UNL A   1      46.947  26.163  26.830  1.00  0.00     0.074 A 
ATOM     62  C   UNL A   1      47.178  24.783  26.458  1.00  0.00     0.031 C 
ATOM     63  C   UNL A   1      47.900  27.126  26.818  1.00  0.00     0.037 A 
BRANCH  50  64
ATOM     64  C   UNL A   1      45.896  32.723  28.516  1.00  0.00     0.058 A 
ATOM     65  C   UNL A   1      45.790  33.688  27.504  1.00  0.00     0.135 A 
ATOM     66  C   UNL A   1      46.286  33.158  29.795  1.00  0.00     0.135 A 
ATOM     67  F   UNL A   1      45.435  33.326  26.260  1.00  0.00    -0.206 F 
ATOM     68  C   UNL A   1      46.085  35.028  27.742  1.00  0.00     0.059 A 
ATOM     69  C   UNL A   1      46.561  34.496  30.062  1.00  0.00     0.059 A 
ATOM     70  F   UNL A   1      46.402  32.277  30.802  1.00  0.00    -0.206 F 
ATOM     71  C   UNL A   1      46.472  35.422  29.024  1.00  0.00     0.060 A 
BRANCH  71  72
ATOM     72  S   UNL A   1      46.851  37.162  29.323  1.00  0.00     0.124 S 
ATOM     73  O   UNL A   1      46.615  37.742  28.005  1.00  0.00    -0.237 OA
ATOM     74  O   UNL A   1      45.884  37.522  30.355  1.00  0.00    -0.237 OA
ATOM     75  O   UNL A   1      48.244  37.138  29.758  1.00  0.00    -0.744 OA
ENDBRANCH  71  72
ENDBRANCH  50  64
BRANCH  51  76
ATOM     76  C   UNL A   1      43.294  23.193  26.975  1.00  0.00     0.058 A 
ATOM     77  C   UNL A   1      43.210  22.709  25.662  1.00  0.00     0.135 A 
ATOM     78  C   UNL A   1      43.027  22.295  28.021  1.00  0.00     0.135 A 
ATOM     79  F   UNL A   1      43.445  23.531  24.628  1.00  0.00    -0.206 F 
ATOM     80  C   UNL A   1      42.875  21.385  25.393  1.00  0.00     0.059 A 
ATOM     81  C   UNL A   1      42.717  20.960  27.779  1.00  0.00     0.059 A 
ATOM     82  F   UNL A   1      43.106  22.705  29.296  1.00  0.00    -0.206 F 
ATOM     83  C   UNL A   1      42.636  20.517  26.461  1.00  0.00     0.060 A 
BRANCH  83  84
ATOM     84  S   UNL A   1      42.272  18.783  26.109  1.00  0.00     0.124 S 
ATOM     85  O   UNL A   1      40.870  18.852  25.713  1.00  0.00    -0.237 OA
ATOM     86  O   UNL A   1      43.222  18.477  25.043  1.00  0.00    -0.237 OA
ATOM     87  O   UNL A   1      42.538  18.120  27.382  1.00  0.00    -0.744 OA
ENDBRANCH  83  84
ENDBRANCH  51  76
BRANCH  63  88
ATOM     88  C   UNL A   1      49.295  26.718  26.444  1.00  0.00     0.058 A 
ATOM     89  C   UNL A   1      50.144  26.072  27.354  1.00  0.00     0.135 A 
ATOM     90  C   UNL A   1      49.758  26.910  25.132  1.00  0.00     0.135 A 
ATOM     91  F   UNL A   1      49.750  25.873  28.622  1.00  0.00    -0.206 F 
ATOM     92  C   UNL A   1      51.409  25.634  26.977  1.00  0.00     0.059 A 
ATOM     93  C   UNL A   1      51.011  26.463  24.728  1.00  0.00     0.059 A 
ATOM     94  F   UNL A   1      48.978  27.519  24.224  1.00  0.00    -0.206 F 
ATOM     95  C   UNL A   1      51.832  25.829  25.661  1.00  0.00     0.060 A 
BRANCH  95  96
ATOM     96  S   UNL A   1      53.452  25.203  25.167  1.00  0.00     0.124 S 
ATOM     97  O   UNL A   1      54.335  25.923  26.076  1.00  0.00    -0.237 OA
ATOM     98  O   UNL A   1      53.322  23.770  25.410  1.00  0.00    -0.237 OA
ATOM     99  O   UNL A   1      53.549  25.586  23.761  1.00  0.00    -0.744 OA
ENDBRANCH  95  96
ENDBRANCH  63  88
ENDBRANCH  37  38
ENDBRANCH  30  32
ENDBRANCH  29  30
ENDBRANCH  28  29
ENDBRANCH   1  28
TORSDOF 19
ENDMDL
MODEL 2
REMARK VINA RESULT:     -11.5      1.724      2.843
REMARK SMILES O=C(CSc1ccc2ccccc2n1)NCc1ccc(C(=O)OCCOC(=O)c2ccc(-c3c4nc(c(-c5c(F)cc(S(=O)(=O)[O-])cc5F)c5ccc([nH]5)c(-c5c(F)cc(S(=O)(=O)[O-])cc5F)c5nc(c(-c6c(F)cc(S(=O)(=O)[O-])cc6F)c6ccc3[nH]6)C=C5)C=C4)cc2)cc1
REMARK SMILES IDX 24 1 23 2 21 3 22 4 20 5 17 6 18 7 96 8 19 9 95 10 16 11
REMARK SMILES IDX 15 12 1 13 2 14 3 16 4 17 5 18 6 19 14 20 7 21 13 22 8 23
REMARK SMILES IDX 12 24 9 25 11 26 10 27 25 28 26 29 27 30 28 31 29 32 30 33
REMARK SMILES IDX 94 34 31 35 93 36 32 37 33 38 34 39 87 40 35 41 92 42 86 43
REMARK SMILES IDX 88 44 36 45 91 46 85 47 84 48 37 50 71 51 50 52 70 53 51 54
REMARK SMILES IDX 54 55 69 56 89 57 52 58 53 59 68 61 90 62 55 63 38 64 39 65
REMARK SMILES IDX 48 66 40 67 41 68 47 69 49 70 42 71 43 72 44 73 45 74 46 75
REMARK SMILES IDX 72 76 73 77 82 78 74 79 75 80 81 81 83 82 76 83 77 84 78 85
REMARK SMILES IDX 79 86 80 87 56 88 57 89 66 90 58 91 59 92 65 93 67 94 60 95
REMARK SMILES IDX 61 96 62 97 63 98 64 99
REMARK H PARENT 15 15 88 49 54 60
REMARK Flexibility Score: inf
ROOT
ATOM      1  C   UNL A   1      32.240  30.773  26.741  1.00  0.00     0.275 C 
ENDROOT
BRANCH   1   2
ATOM      2  O   UNL A   1      32.480  30.402  25.367  1.00  0.00    -0.458 OA
BRANCH   2   3
ATOM      3  C   UNL A   1      31.392  29.960  24.690  1.00  0.00     0.338 C 
ATOM      4  O   UNL A   1      30.286  30.479  24.675  1.00  0.00    -0.246 OA
BRANCH   3   5
ATOM      5  C   UNL A   1      31.716  28.767  23.874  1.00  0.00     0.060 A 
ATOM      6  C   UNL A   1      32.415  26.602  22.214  1.00  0.00    -0.029 A 
ATOM      7  C   UNL A   1      33.344  27.608  22.503  1.00  0.00     0.006 A 
ATOM      8  C   UNL A   1      31.139  26.677  22.799  1.00  0.00     0.006 A 
ATOM      9  C   UNL A   1      32.983  28.698  23.287  1.00  0.00     0.016 A 
ATOM     10  C   UNL A   1      30.792  27.748  23.634  1.00  0.00     0.016 A 
BRANCH   6  11
ATOM     11  C   UNL A   1      32.799  25.436  21.333  1.00  0.00     0.151 C 
BRANCH  11  12
ATOM     12  N   UNL A   1      32.253  24.188  21.828  1.00  0.00    -0.351 N 
ATOM     13  O   UNL A   1      34.274  23.162  22.153  1.00  0.00    -0.274 OA
ATOM     14  C   UNL A   1      33.048  23.123  22.201  1.00  0.00     0.230 C 
ATOM     15  H   UNL A   1      31.275  24.096  21.900  1.00  0.00     0.163 HD
BRANCH  14  16
ATOM     16  C   UNL A   1      32.285  21.861  22.584  1.00  0.00     0.176 C 
BRANCH  16  17
ATOM     17  S   UNL A   1      32.633  21.367  24.306  1.00  0.00    -0.096 SA
BRANCH  17  18
ATOM     18  C   UNL A   1      32.221  22.900  25.114  1.00  0.00     0.097 A 
ATOM     19  C   UNL A   1      30.951  23.070  25.639  1.00  0.00     0.036 A 
ATOM     20  N   UNL A   1      33.183  23.841  25.184  1.00  0.00    -0.241 NA
ATOM     21  C   UNL A   1      30.646  24.281  26.249  1.00  0.00     0.013 A 
ATOM     22  C   UNL A   1      32.890  25.013  25.774  1.00  0.00     0.072 A 
ATOM     23  C   UNL A   1      31.621  25.281  26.327  1.00  0.00     0.000 A 
ATOM     24  C   UNL A   1      33.861  26.003  25.852  1.00  0.00     0.029 A 
ATOM     25  C   UNL A   1      31.358  26.521  26.937  1.00  0.00     0.010 A 
ATOM     26  C   UNL A   1      33.605  27.236  26.461  1.00  0.00     0.002 A 
ATOM     27  C   UNL A   1      32.352  27.495  27.004  1.00  0.00     0.001 A 
ENDBRANCH  17  18
ENDBRANCH  16  17
ENDBRANCH  14  16
ENDBRANCH  11  12
ENDBRANCH   6  11
ENDBRANCH   3   5
ENDBRANCH   2   3
ENDBRANCH   1   2
BRANCH   1  28
ATOM     28  C   UNL A   1      33.461  31.452  27.363  1.00  0.00     0.275 C 
BRANCH  28  29
ATOM     29  O   UNL A   1      34.342  30.474  27.943  1.00  0.00    -0.458 OA
BRANCH  29  30
ATOM     30  C   UNL A   1      35.102  30.915  28.972  1.00  0.00     0.338 C 
ATOM     31  O   UNL A   1      34.784  31.706  29.843  1.00  0.00    -0.246 OA
BRANCH  30  32
ATOM     32  C   UNL A   1      36.428  30.278  28.920  1.00  0.00     0.060 A 
ATOM     33  C   UNL A   1      37.025  29.861  30.106  1.00  0.00     0.016 A 
ATOM     34  C   UNL A   1      37.138  30.229  27.724  1.00  0.00     0.016 A 
ATOM     35  C   UNL A   1      38.370  29.497  30.124  1.00  0.00     0.010 A 
ATOM     36  C   UNL A   1      38.455  29.757  27.726  1.00  0.00     0.010 A 
ATOM     37  C   UNL A   1      39.102  29.422  28.931  1.00  0.00    -0.014 A 
BRANCH  37  38
ATOM     38  C   UNL A   1      40.542  29.025  28.928  1.00  0.00     0.031 A 
ATOM     39  C   UNL A   1      41.605  30.050  29.236  1.00  0.00     0.074 A 
ATOM     40  C   UNL A   1      40.910  27.761  28.632  1.00  0.00     0.049 A 
ATOM     41  N   UNL A   1      42.896  29.996  29.027  1.00  0.00    -0.248 NA
ATOM     42  C   UNL A   1      41.150  31.314  29.839  1.00  0.00     0.031 C 
ATOM     43  C   UNL A   1      39.998  26.647  28.370  1.00  0.00     0.029 A 
ATOM     44  N   UNL A   1      42.158  27.201  28.490  1.00  0.00    -0.354 N 
ATOM     45  C   UNL A   1      43.397  31.237  29.407  1.00  0.00     0.074 A 
ATOM     46  C   UNL A   1      42.271  32.022  29.867  1.00  0.00     0.031 C 
ATOM     47  C   UNL A   1      40.711  25.538  28.123  1.00  0.00     0.029 A 
ATOM     48  C   UNL A   1      42.127  25.880  28.109  1.00  0.00     0.049 A 
ATOM     49  H   UNL A   1      42.994  27.699  28.646  1.00  0.00     0.167 HD
ATOM     50  C   UNL A   1      44.676  31.680  29.366  1.00  0.00     0.037 A 
ATOM     51  C   UNL A   1      43.118  25.046  27.730  1.00  0.00     0.037 A 
ATOM     52  C   UNL A   1      45.798  30.868  28.968  1.00  0.00     0.049 A 
ATOM     53  C   UNL A   1      44.528  25.561  27.673  1.00  0.00     0.074 A 
ATOM     54  C   UNL A   1      47.135  31.219  28.897  1.00  0.00     0.029 A 
ATOM     55  N   UNL A   1      45.716  29.534  28.595  1.00  0.00    -0.354 N 
ATOM     56  N   UNL A   1      44.976  26.760  27.956  1.00  0.00    -0.248 NA
ATOM     57  C   UNL A   1      45.563  24.620  27.223  1.00  0.00     0.031 C 
ATOM     58  C   UNL A   1      47.858  30.105  28.456  1.00  0.00     0.029 A 
ATOM     59  C   UNL A   1      46.976  29.049  28.291  1.00  0.00     0.049 A 
ATOM     60  H   UNL A   1      44.884  29.009  28.553  1.00  0.00     0.167 HD
ATOM     61  C   UNL A   1      46.349  26.712  27.739  1.00  0.00     0.074 A 
ATOM     62  C   UNL A   1      46.658  25.365  27.306  1.00  0.00     0.031 C 
ATOM     63  C   UNL A   1      47.268  27.697  27.885  1.00  0.00     0.037 A 
BRANCH  50  64
ATOM     64  C   UNL A   1      44.936  33.119  29.723  1.00  0.00     0.058 A 
ATOM     65  C   UNL A   1      45.310  33.514  31.016  1.00  0.00     0.135 A 
ATOM     66  C   UNL A   1      44.845  34.116  28.736  1.00  0.00     0.135 A 
ATOM     67  F   UNL A   1      45.398  32.605  32.001  1.00  0.00    -0.206 F 
ATOM     68  C   UNL A   1      45.559  34.849  31.326  1.00  0.00     0.059 A 
ATOM     69  C   UNL A   1      45.114  35.452  29.017  1.00  0.00     0.059 A 
ATOM     70  F   UNL A   1      44.493  33.794  27.481  1.00  0.00    -0.206 F 
ATOM     71  C   UNL A   1      45.456  35.811  30.320  1.00  0.00     0.060 A 
BRANCH  71  72
ATOM     72  S   UNL A   1      45.782  37.539  30.732  1.00  0.00     0.124 S 
ATOM     73  O   UNL A   1      45.672  37.517  32.186  1.00  0.00    -0.237 OA
ATOM     74  O   UNL A   1      47.128  37.740  30.202  1.00  0.00    -0.237 OA
ATOM     75  O   UNL A   1      44.725  38.261  30.032  1.00  0.00    -0.744 OA
ENDBRANCH  71  72
ENDBRANCH  50  64
BRANCH  51  76
ATOM     76  C   UNL A   1      42.792  23.651  27.329  1.00  0.00     0.058 A 
ATOM     77  C   UNL A   1      42.746  23.280  25.977  1.00  0.00     0.135 A 
ATOM     78  C   UNL A   1      42.558  22.653  28.289  1.00  0.00     0.135 A 
ATOM     79  F   UNL A   1      42.951  24.201  25.022  1.00  0.00    -0.206 F 
ATOM     80  C   UNL A   1      42.478  21.971  25.590  1.00  0.00     0.059 A 
ATOM     81  C   UNL A   1      42.316  21.332  27.927  1.00  0.00     0.059 A 
ATOM     82  F   UNL A   1      42.603  22.954  29.596  1.00  0.00    -0.206 F 
ATOM     83  C   UNL A   1      42.271  21.002  26.574  1.00  0.00     0.060 A 
BRANCH  83  84
ATOM     84  S   UNL A   1      41.996  19.290  26.067  1.00  0.00     0.124 S 
ATOM     85  O   UNL A   1      42.404  18.562  27.263  1.00  0.00    -0.237 OA
ATOM     86  O   UNL A   1      40.567  19.281  25.770  1.00  0.00    -0.237 OA
ATOM     87  O   UNL A   1      42.870  19.141  24.907  1.00  0.00    -0.744 OA
ENDBRANCH  83  84
ENDBRANCH  51  76
BRANCH  63  88
ATOM     88  C   UNL A   1      48.705  27.348  27.627  1.00  0.00     0.058 A 
ATOM     89  C   UNL A   1      49.532  26.834  28.637  1.00  0.00     0.135 A 
ATOM     90  C   UNL A   1      49.236  27.460  26.332  1.00  0.00     0.135 A 
ATOM     91  F   UNL A   1      49.072  26.717  29.893  1.00  0.00    -0.206 F 
ATOM     92  C   UNL A   1      50.842  26.447  28.372  1.00  0.00     0.059 A 
ATOM     93  C   UNL A   1      50.536  27.061  26.041  1.00  0.00     0.059 A 
ATOM     94  F   UNL A   1      48.481  27.941  25.332  1.00  0.00    -0.206 F 
ATOM     95  C   UNL A   1      51.333  26.560  27.070  1.00  0.00     0.060 A 
BRANCH  95  96
ATOM     96  S   UNL A   1      53.014  25.998  26.725  1.00  0.00     0.124 S 
ATOM     97  O   UNL A   1      53.616  26.038  28.053  1.00  0.00    -0.237 OA
ATOM     98  O   UNL A   1      52.793  24.668  26.168  1.00  0.00    -0.237 OA
ATOM     99  O   UNL A   1      53.516  26.991  25.779  1.00  0.00    -0.744 OA
ENDBRANCH  95  96
ENDBRANCH  63  88
ENDBRANCH  37  38
ENDBRANCH  30  32
ENDBRANCH  29  30
ENDBRANCH  28  29
ENDBRANCH   1  28
TORSDOF 19
ENDMDL
MODEL 3
REMARK VINA RESULT:     -11.4      1.565      3.030
REMARK SMILES O=C(CSc1ccc2ccccc2n1)NCc1ccc(C(=O)OCCOC(=O)c2ccc(-c3c4nc(c(-c5c(F)cc(S(=O)(=O)[O-])cc5F)c5ccc([nH]5)c(-c5c(F)cc(S(=O)(=O)[O-])cc5F)c5nc(c(-c6c(F)cc(S(=O)(=O)[O-])cc6F)c6ccc3[nH]6)C=C5)C=C4)cc2)cc1
REMARK SMILES IDX 24 1 23 2 21 3 22 4 20 5 17 6 18 7 96 8 19 9 95 10 16 11
REMARK SMILES IDX 15 12 1 13 2 14 3 16 4 17 5 18 6 19 14 20 7 21 13 22 8 23
REMARK SMILES IDX 12 24 9 25 11 26 10 27 25 28 26 29 27 30 28 31 29 32 30 33
REMARK SMILES IDX 94 34 31 35 93 36 32 37 33 38 34 39 87 40 35 41 92 42 86 43
REMARK SMILES IDX 88 44 36 45 91 46 85 47 84 48 37 50 71 51 50 52 70 53 51 54
REMARK SMILES IDX 54 55 69 56 89 57 52 58 53 59 68 61 90 62 55 63 38 64 39 65
REMARK SMILES IDX 48 66 40 67 41 68 47 69 49 70 42 71 43 72 44 73 45 74 46 75
REMARK SMILES IDX 72 76 73 77 82 78 74 79 75 80 81 81 83 82 76 83 77 84 78 85
REMARK SMILES IDX 79 86 80 87 56 88 57 89 66 90 58 91 59 92 65 93 67 94 60 95
REMARK SMILES IDX 61 96 62 97 63 98 64 99
REMARK H PARENT 15 15 88 49 54 60
REMARK Flexibility Score: inf
ROOT
ATOM      1  C   UNL A   1      33.943  31.790  27.635  1.00  0.00     0.275 C 
ENDROOT
BRANCH   1   2
ATOM      2  O   UNL A   1      33.909  30.501  26.987  1.00  0.00    -0.458 OA
BRANCH   2   3
ATOM      3  C   UNL A   1      32.704  30.138  26.484  1.00  0.00     0.338 C 
ATOM      4  O   UNL A   1      31.868  30.883  25.995  1.00  0.00    -0.246 OA
BRANCH   3   5
ATOM      5  C   UNL A   1      32.526  28.669  26.524  1.00  0.00     0.060 A 
ATOM      6  C   UNL A   1      32.273  25.865  26.454  1.00  0.00    -0.029 A 
ATOM      7  C   UNL A   1      33.482  26.480  26.107  1.00  0.00     0.006 A 
ATOM      8  C   UNL A   1      31.202  26.673  26.872  1.00  0.00     0.006 A 
ATOM      9  C   UNL A   1      33.590  27.867  26.100  1.00  0.00     0.016 A 
ATOM     10  C   UNL A   1      31.329  28.068  26.918  1.00  0.00     0.016 A 
BRANCH   6  11
ATOM     11  C   UNL A   1      32.147  24.359  26.426  1.00  0.00     0.151 C 
BRANCH  11  12
ATOM     12  N   UNL A   1      31.825  23.872  25.100  1.00  0.00    -0.351 N 
ATOM     13  O   UNL A   1      33.440  22.250  25.049  1.00  0.00    -0.274 OA
ATOM     14  C   UNL A   1      32.514  22.839  24.498  1.00  0.00     0.230 C 
ATOM     15  H   UNL A   1      31.086  24.296  24.608  1.00  0.00     0.163 HD
BRANCH  14  16
ATOM     16  C   UNL A   1      32.103  22.550  23.060  1.00  0.00     0.176 C 
BRANCH  16  17
ATOM     17  S   UNL A   1      33.195  23.399  21.870  1.00  0.00    -0.096 SA
BRANCH  17  18
ATOM     18  C   UNL A   1      32.718  25.079  22.220  1.00  0.00     0.097 A 
ATOM     19  C   UNL A   1      33.656  26.090  22.098  1.00  0.00     0.036 A 
ATOM     20  N   UNL A   1      31.440  25.296  22.589  1.00  0.00    -0.241 NA
ATOM     21  C   UNL A   1      33.266  27.392  22.393  1.00  0.00     0.013 A 
ATOM     22  C   UNL A   1      31.061  26.554  22.874  1.00  0.00     0.072 A 
ATOM     23  C   UNL A   1      31.949  27.646  22.789  1.00  0.00     0.000 A 
ATOM     24  C   UNL A   1      29.752  26.804  23.265  1.00  0.00     0.029 A 
ATOM     25  C   UNL A   1      31.509  28.946  23.095  1.00  0.00     0.010 A 
ATOM     26  C   UNL A   1      29.309  28.096  23.567  1.00  0.00     0.002 A 
ATOM     27  C   UNL A   1      30.189  29.168  23.482  1.00  0.00     0.001 A 
ENDBRANCH  17  18
ENDBRANCH  16  17
ENDBRANCH  14  16
ENDBRANCH  11  12
ENDBRANCH   6  11
ENDBRANCH   3   5
ENDBRANCH   2   3
ENDBRANCH   1   2
BRANCH   1  28
ATOM     28  C   UNL A   1      34.762  31.752  28.925  1.00  0.00     0.275 C 
BRANCH  28  29
ATOM     29  O   UNL A   1      35.629  30.605  28.941  1.00  0.00    -0.458 OA
BRANCH  29  30
ATOM     30  C   UNL A   1      36.298  30.398  30.098  1.00  0.00     0.338 C 
ATOM     31  O   UNL A   1      35.835  30.360  31.225  1.00  0.00    -0.246 OA
BRANCH  30  32
ATOM     32  C   UNL A   1      37.729  30.199  29.818  1.00  0.00     0.060 A 
ATOM     33  C   UNL A   1      38.161  30.166  28.496  1.00  0.00     0.016 A 
ATOM     34  C   UNL A   1      38.612  29.900  30.851  1.00  0.00     0.016 A 
ATOM     35  C   UNL A   1      39.448  29.726  28.189  1.00  0.00     0.010 A 
ATOM     36  C   UNL A   1      39.937  29.567  30.546  1.00  0.00     0.010 A 
ATOM     37  C   UNL A   1      40.362  29.437  29.210  1.00  0.00    -0.014 A 
BRANCH  37  38
ATOM     38  C   UNL A   1      41.748  28.974  28.902  1.00  0.00     0.031 A 
ATOM     39  C   UNL A   1      42.894  29.956  28.937  1.00  0.00     0.074 A 
ATOM     40  C   UNL A   1      41.990  27.689  28.570  1.00  0.00     0.049 A 
ATOM     41  N   UNL A   1      44.104  29.837  28.451  1.00  0.00    -0.248 NA
ATOM     42  C   UNL A   1      42.636  31.251  29.588  1.00  0.00     0.031 C 
ATOM     43  C   UNL A   1      40.998  26.613  28.549  1.00  0.00     0.029 A 
ATOM     44  N   UNL A   1      43.152  27.069  28.174  1.00  0.00    -0.354 N 
ATOM     45  C   UNL A   1      44.726  31.061  28.674  1.00  0.00     0.074 A 
ATOM     46  C   UNL A   1      43.763  31.906  29.347  1.00  0.00     0.031 C 
ATOM     47  C   UNL A   1      41.592  25.467  28.185  1.00  0.00     0.029 A 
ATOM     48  C   UNL A   1      42.984  25.743  27.849  1.00  0.00     0.049 A 
ATOM     49  H   UNL A   1      44.021  27.531  28.127  1.00  0.00     0.167 HD
ATOM     50  C   UNL A   1      45.982  31.443  28.339  1.00  0.00     0.037 A 
ATOM     51  C   UNL A   1      43.831  24.857  27.287  1.00  0.00     0.037 A 
ATOM     52  C   UNL A   1      46.953  30.572  27.728  1.00  0.00     0.049 A 
ATOM     53  C   UNL A   1      45.213  25.304  26.905  1.00  0.00     0.074 A 
ATOM     54  C   UNL A   1      48.254  30.859  27.354  1.00  0.00     0.029 A 
ATOM     55  N   UNL A   1      46.736  29.236  27.422  1.00  0.00    -0.354 N 
ATOM     56  N   UNL A   1      45.762  26.487  27.046  1.00  0.00    -0.248 NA
ATOM     57  C   UNL A   1      46.084  24.308  26.266  1.00  0.00     0.031 C 
ATOM     58  C   UNL A   1      48.816  29.704  26.798  1.00  0.00     0.029 A 
ATOM     59  C   UNL A   1      47.878  28.687  26.863  1.00  0.00     0.049 A 
ATOM     60  H   UNL A   1      45.895  28.750  27.580  1.00  0.00     0.167 HD
ATOM     61  C   UNL A   1      47.049  26.371  26.534  1.00  0.00     0.074 A 
ATOM     62  C   UNL A   1      47.199  25.003  26.084  1.00  0.00     0.031 C 
ATOM     63  C   UNL A   1      48.017  27.315  26.444  1.00  0.00     0.037 A 
BRANCH  50  64
ATOM     64  C   UNL A   1      46.372  32.876  28.587  1.00  0.00     0.058 A 
ATOM     65  C   UNL A   1      46.170  33.883  27.633  1.00  0.00     0.135 A 
ATOM     66  C   UNL A   1      46.923  33.250  29.825  1.00  0.00     0.135 A 
ATOM     67  F   UNL A   1      45.660  33.580  26.428  1.00  0.00    -0.206 F 
ATOM     68  C   UNL A   1      46.525  35.207  27.884  1.00  0.00     0.059 A 
ATOM     69  C   UNL A   1      47.261  34.570  30.108  1.00  0.00     0.059 A 
ATOM     70  F   UNL A   1      47.136  32.326  30.777  1.00  0.00    -0.206 F 
ATOM     71  C   UNL A   1      47.072  35.539  29.124  1.00  0.00     0.060 A 
BRANCH  71  72
ATOM     72  S   UNL A   1      47.527  37.258  29.442  1.00  0.00     0.124 S 
ATOM     73  O   UNL A   1      46.582  37.971  28.590  1.00  0.00    -0.237 OA
ATOM     74  O   UNL A   1      47.303  37.383  30.879  1.00  0.00    -0.237 OA
ATOM     75  O   UNL A   1      48.923  37.323  29.023  1.00  0.00    -0.744 OA
ENDBRANCH  71  72
ENDBRANCH  50  64
BRANCH  51  76
ATOM     76  C   UNL A   1      43.368  23.471  27.009  1.00  0.00     0.058 A 
ATOM     77  C   UNL A   1      43.044  23.065  25.706  1.00  0.00     0.135 A 
ATOM     78  C   UNL A   1      43.277  22.515  28.033  1.00  0.00     0.135 A 
ATOM     79  F   UNL A   1      43.104  23.945  24.695  1.00  0.00    -0.206 F 
ATOM     80  C   UNL A   1      42.645  21.761  25.428  1.00  0.00     0.059 A 
ATOM     81  C   UNL A   1      42.907  21.199  27.775  1.00  0.00     0.059 A 
ATOM     82  F   UNL A   1      43.588  22.850  29.295  1.00  0.00    -0.206 F 
ATOM     83  C   UNL A   1      42.586  20.833  26.470  1.00  0.00     0.060 A 
BRANCH  83  84
ATOM     84  S   UNL A   1      42.137  19.125  26.091  1.00  0.00     0.124 S 
ATOM     85  O   UNL A   1      42.516  18.442  27.323  1.00  0.00    -0.237 OA
ATOM     86  O   UNL A   1      40.703  19.230  25.835  1.00  0.00    -0.237 OA
ATOM     87  O   UNL A   1      42.953  18.817  24.921  1.00  0.00    -0.744 OA
ENDBRANCH  83  84
ENDBRANCH  51  76
BRANCH  63  88
ATOM     88  C   UNL A   1      49.346  26.894  25.887  1.00  0.00     0.058 A 
ATOM     89  C   UNL A   1      49.676  27.090  24.538  1.00  0.00     0.135 A 
ATOM     90  C   UNL A   1      50.327  26.356  26.735  1.00  0.00     0.135 A 
ATOM     91  F   UNL A   1      48.768  27.593  23.686  1.00  0.00    -0.206 F 
ATOM     92  C   UNL A   1      50.936  26.762  24.047  1.00  0.00     0.059 A 
ATOM     93  C   UNL A   1      51.599  26.040  26.269  1.00  0.00     0.059 A 
ATOM     94  F   UNL A   1      50.059  26.156  28.035  1.00  0.00    -0.206 F 
ATOM     95  C   UNL A   1      51.892  26.242  24.921  1.00  0.00     0.060 A 
BRANCH  95  96
ATOM     96  S   UNL A   1      53.542  25.876  24.286  1.00  0.00     0.124 S 
ATOM     97  O   UNL A   1      54.337  26.927  24.910  1.00  0.00    -0.237 OA
ATOM     98  O   UNL A   1      53.776  24.523  24.782  1.00  0.00    -0.237 OA
ATOM     99  O   UNL A   1      53.379  25.986  22.839  1.00  0.00    -0.744 OA
ENDBRANCH  95  96
ENDBRANCH  63  88
ENDBRANCH  37  38
ENDBRANCH  30  32
ENDBRANCH  29  30
ENDBRANCH  28  29
ENDBRANCH   1  28
TORSDOF 19
ENDMDL
