MODEL 1
REMARK VINA RESULT:      -9.8      0.000      0.000
REMARK SMILES O=C(OCCOC(=O)c1cc(Cl)nc(I)c1C(F)(F)F)c1ccc(-c2c3nc(c(-c4c(F)cc(S(=O)(=O)[O-])cc4F)c4ccc([nH]4)c(-c4c(F)cc(S(=O)(=O)[O-])cc4F)c4nc(c(-c5c(F)cc(S(=O)(=O)[O-])cc5F)c5ccc2[nH]5)C=C4)C=C3)cc1
REMARK SMILES IDX 4 1 3 2 2 3 1 4 21 5 22 6 86 7 23 8 85 9 24 10 25 11 26 12
REMARK SMILES IDX 79 13 27 14 84 15 78 16 80 17 28 18 83 19 77 20 76 21 29 23
REMARK SMILES IDX 63 24 42 25 62 26 43 27 46 28 61 29 81 30 44 31 45 32 60 34
REMARK SMILES IDX 82 35 47 36 30 37 31 38 40 39 32 40 33 41 39 42 41 43 34 44
REMARK SMILES IDX 35 45 36 46 37 47 38 48 64 49 65 50 74 51 66 52 67 53 73 54
REMARK SMILES IDX 75 55 68 56 69 57 70 58 71 59 72 60 48 61 49 62 58 63 50 64
REMARK SMILES IDX 51 65 57 66 59 67 52 68 53 69 54 70 55 71 56 72 5 73 6 74
REMARK SMILES IDX 7 75 8 76 9 77 10 78 16 79 11 80 14 81 12 82 13 83 15 84
REMARK SMILES IDX 17 85 18 86 19 87 20 88
REMARK H PARENT 80 22 46 33
REMARK Flexibility Score: inf
ROOT
ATOM      1  C   UNL A   1      34.841  33.262  28.353  1.00  0.00     0.275 C 
ENDROOT
BRANCH   1   2
ATOM      2  O   UNL A   1      34.008  32.205  27.842  1.00  0.00    -0.458 OA
BRANCH   2   3
ATOM      3  C   UNL A   1      34.294  30.885  27.736  1.00  0.00     0.338 C 
ATOM      4  O   UNL A   1      33.379  30.103  27.485  1.00  0.00    -0.246 OA
BRANCH   3   5
ATOM      5  C   UNL A   1      35.623  30.303  28.118  1.00  0.00     0.060 A 
ATOM      6  C   UNL A   1      35.918  29.652  29.317  1.00  0.00     0.016 A 
ATOM      7  C   UNL A   1      36.657  30.424  27.166  1.00  0.00     0.016 A 
ATOM      8  C   UNL A   1      37.170  29.080  29.539  1.00  0.00     0.010 A 
ATOM      9  C   UNL A   1      37.926  29.881  27.393  1.00  0.00     0.010 A 
ATOM     10  C   UNL A   1      38.186  29.219  28.594  1.00  0.00    -0.014 A 
BRANCH  10  11
ATOM     11  C   UNL A   1      39.562  28.896  29.018  1.00  0.00     0.031 A 
ATOM     12  C   UNL A   1      40.247  29.881  29.915  1.00  0.00     0.074 A 
ATOM     13  C   UNL A   1      40.126  27.710  28.734  1.00  0.00     0.049 A 
ATOM     14  N   UNL A   1      41.379  29.764  30.549  1.00  0.00    -0.248 NA
ATOM     15  C   UNL A   1      39.532  31.144  30.172  1.00  0.00     0.031 C 
ATOM     16  C   UNL A   1      39.488  26.649  27.964  1.00  0.00     0.029 A 
ATOM     17  N   UNL A   1      41.344  27.187  29.078  1.00  0.00    -0.354 N 
ATOM     18  C   UNL A   1      41.484  30.908  31.326  1.00  0.00     0.074 A 
ATOM     19  C   UNL A   1      40.326  31.728  31.054  1.00  0.00     0.031 C 
ATOM     20  C   UNL A   1      40.325  25.601  27.884  1.00  0.00     0.029 A 
ATOM     21  C   UNL A   1      41.566  25.927  28.573  1.00  0.00     0.049 A 
ATOM     22  H   UNL A   1      42.000  27.668  29.634  1.00  0.00     0.167 HD
ATOM     23  C   UNL A   1      42.461  31.236  32.200  1.00  0.00     0.037 A 
ATOM     24  C   UNL A   1      42.652  25.133  28.651  1.00  0.00     0.037 A 
ATOM     25  C   UNL A   1      43.650  30.455  32.384  1.00  0.00     0.049 A 
ATOM     26  C   UNL A   1      43.819  25.620  29.466  1.00  0.00     0.074 A 
ATOM     27  C   UNL A   1      44.753  30.737  33.168  1.00  0.00     0.029 A 
ATOM     28  N   UNL A   1      43.905  29.249  31.744  1.00  0.00    -0.354 N 
ATOM     29  N   UNL A   1      43.911  26.706  30.197  1.00  0.00    -0.248 NA
ATOM     30  C   UNL A   1      45.025  24.782  29.472  1.00  0.00     0.031 C 
ATOM     31  C   UNL A   1      45.699  29.727  32.957  1.00  0.00     0.029 A 
ATOM     32  C   UNL A   1      45.164  28.791  32.083  1.00  0.00     0.049 A 
ATOM     33  H   UNL A   1      43.281  28.790  31.137  1.00  0.00     0.167 HD
ATOM     34  C   UNL A   1      45.178  26.676  30.765  1.00  0.00     0.074 A 
ATOM     35  C   UNL A   1      45.810  25.454  30.305  1.00  0.00     0.031 C 
ATOM     36  C   UNL A   1      45.767  27.576  31.592  1.00  0.00     0.037 A 
BRANCH  23  37
ATOM     37  C   UNL A   1      42.279  32.512  32.961  1.00  0.00     0.058 A 
ATOM     38  C   UNL A   1      41.655  32.527  34.219  1.00  0.00     0.135 A 
ATOM     39  C   UNL A   1      42.693  33.736  32.415  1.00  0.00     0.135 A 
ATOM     40  F   UNL A   1      41.203  31.387  34.765  1.00  0.00    -0.206 F 
ATOM     41  C   UNL A   1      41.435  33.717  34.904  1.00  0.00     0.059 A 
ATOM     42  C   UNL A   1      42.498  34.936  33.090  1.00  0.00     0.059 A 
ATOM     43  F   UNL A   1      43.267  33.774  31.202  1.00  0.00    -0.206 F 
ATOM     44  C   UNL A   1      41.859  34.916  34.330  1.00  0.00     0.060 A 
BRANCH  44  45
ATOM     45  S   UNL A   1      41.555  36.452  35.228  1.00  0.00     0.124 S 
ATOM     46  O   UNL A   1      40.097  36.489  35.258  1.00  0.00    -0.237 OA
ATOM     47  O   UNL A   1      42.209  36.195  36.508  1.00  0.00    -0.237 OA
ATOM     48  O   UNL A   1      42.191  37.467  34.394  1.00  0.00    -0.744 OA
ENDBRANCH  44  45
ENDBRANCH  23  37
BRANCH  24  49
ATOM     49  C   UNL A   1      42.693  23.829  27.931  1.00  0.00     0.058 A 
ATOM     50  C   UNL A   1      42.517  22.613  28.604  1.00  0.00     0.135 A 
ATOM     51  C   UNL A   1      42.918  23.775  26.543  1.00  0.00     0.135 A 
ATOM     52  F   UNL A   1      42.309  22.604  29.929  1.00  0.00    -0.206 F 
ATOM     53  C   UNL A   1      42.572  21.392  27.936  1.00  0.00     0.059 A 
ATOM     54  C   UNL A   1      42.953  22.569  25.849  1.00  0.00     0.059 A 
ATOM     55  F   UNL A   1      43.090  24.909  25.846  1.00  0.00    -0.206 F 
ATOM     56  C   UNL A   1      42.789  21.380  26.557  1.00  0.00     0.060 A 
BRANCH  56  57
ATOM     57  S   UNL A   1      42.827  19.789  25.699  1.00  0.00     0.124 S 
ATOM     58  O   UNL A   1      43.767  20.060  24.617  1.00  0.00    -0.237 OA
ATOM     59  O   UNL A   1      43.302  18.891  26.747  1.00  0.00    -0.237 OA
ATOM     60  O   UNL A   1      41.439  19.590  25.293  1.00  0.00    -0.744 OA
ENDBRANCH  56  57
ENDBRANCH  24  49
BRANCH  36  61
ATOM     61  C   UNL A   1      47.164  27.270  32.046  1.00  0.00     0.058 A 
ATOM     62  C   UNL A   1      47.406  26.472  33.174  1.00  0.00     0.135 A 
ATOM     63  C   UNL A   1      48.267  27.726  31.307  1.00  0.00     0.135 A 
ATOM     64  F   UNL A   1      46.383  26.020  33.915  1.00  0.00    -0.206 F 
ATOM     65  C   UNL A   1      48.700  26.151  33.566  1.00  0.00     0.059 A 
ATOM     66  C   UNL A   1      49.568  27.393  31.665  1.00  0.00     0.059 A 
ATOM     67  F   UNL A   1      48.083  28.482  30.214  1.00  0.00    -0.206 F 
ATOM     68  C   UNL A   1      49.774  26.613  32.803  1.00  0.00     0.060 A 
BRANCH  68  69
ATOM     69  S   UNL A   1      51.446  26.154  33.302  1.00  0.00     0.124 S 
ATOM     70  O   UNL A   1      51.290  24.729  33.576  1.00  0.00    -0.237 OA
ATOM     71  O   UNL A   1      52.227  26.490  32.116  1.00  0.00    -0.237 OA
ATOM     72  O   UNL A   1      51.694  26.995  34.468  1.00  0.00    -0.744 OA
ENDBRANCH  68  69
ENDBRANCH  36  61
ENDBRANCH  10  11
ENDBRANCH   3   5
ENDBRANCH   2   3
ENDBRANCH   1   2
BRANCH   1  73
ATOM     73  C   UNL A   1      34.641  33.529  29.848  1.00  0.00     0.275 C 
BRANCH  73  74
ATOM     74  O   UNL A   1      35.558  32.792  30.677  1.00  0.00    -0.458 OA
BRANCH  74  75
ATOM     75  C   UNL A   1      35.109  32.532  31.925  1.00  0.00     0.339 C 
ATOM     76  O   UNL A   1      33.968  32.625  32.338  1.00  0.00    -0.246 OA
BRANCH  75  77
ATOM     77  C   UNL A   1      36.190  31.979  32.760  1.00  0.00     0.078 A 
ATOM     78  C   UNL A   1      36.605  30.696  32.400  1.00  0.00     0.057 A 
ATOM     79  C   UNL A   1      36.690  32.628  33.907  1.00  0.00     0.102 A 
ATOM     80  C   UNL A   1      37.549  30.099  33.191  1.00  0.00     0.131 A 
ATOM     81  C   UNL A   1      37.560  31.870  34.688  1.00  0.00     0.116 A 
ATOM     82  Cl  UNL A   1      38.219  28.578  32.786  1.00  0.00    -0.062 Cl
ATOM     83  N   UNL A   1      38.006  30.639  34.327  1.00  0.00    -0.229 NA
ATOM     84  I   UNL A   1      38.223  32.430  36.610  1.00  0.00    -0.021 I 
BRANCH  79  85
ATOM     85  C   UNL A   1      36.369  34.069  34.166  1.00  0.00     0.419 C 
ATOM     86  F   UNL A   1      36.091  34.820  33.072  1.00  0.00    -0.166 F 
ATOM     87  F   UNL A   1      35.292  34.192  34.991  1.00  0.00    -0.166 F 
ATOM     88  F   UNL A   1      37.378  34.749  34.782  1.00  0.00    -0.166 F 
ENDBRANCH  79  85
ENDBRANCH  75  77
ENDBRANCH  74  75
ENDBRANCH  73  74
ENDBRANCH   1  73
TORSDOF 15
ENDMDL
MODEL 2
REMARK VINA RESULT:      -9.8      3.456     11.139
REMARK SMILES O=C(OCCOC(=O)c1cc(Cl)nc(I)c1C(F)(F)F)c1ccc(-c2c3nc(c(-c4c(F)cc(S(=O)(=O)[O-])cc4F)c4ccc([nH]4)c(-c4c(F)cc(S(=O)(=O)[O-])cc4F)c4nc(c(-c5c(F)cc(S(=O)(=O)[O-])cc5F)c5ccc2[nH]5)C=C4)C=C3)cc1
REMARK SMILES IDX 4 1 3 2 2 3 1 4 21 5 22 6 86 7 23 8 85 9 24 10 25 11 26 12
REMARK SMILES IDX 79 13 27 14 84 15 78 16 80 17 28 18 83 19 77 20 76 21 29 23
REMARK SMILES IDX 63 24 42 25 62 26 43 27 46 28 61 29 81 30 44 31 45 32 60 34
REMARK SMILES IDX 82 35 47 36 30 37 31 38 40 39 32 40 33 41 39 42 41 43 34 44
REMARK SMILES IDX 35 45 36 46 37 47 38 48 64 49 65 50 74 51 66 52 67 53 73 54
REMARK SMILES IDX 75 55 68 56 69 57 70 58 71 59 72 60 48 61 49 62 58 63 50 64
REMARK SMILES IDX 51 65 57 66 59 67 52 68 53 69 54 70 55 71 56 72 5 73 6 74
REMARK SMILES IDX 7 75 8 76 9 77 10 78 16 79 11 80 14 81 12 82 13 83 15 84
REMARK SMILES IDX 17 85 18 86 19 87 20 88
REMARK H PARENT 80 22 46 33
REMARK Flexibility Score: inf
ROOT
ATOM      1  C   UNL A   1      40.994  21.358  26.906  1.00  0.00     0.275 C 
ENDROOT
BRANCH   1   2
ATOM      2  O   UNL A   1      39.893  21.702  26.047  1.00  0.00    -0.458 OA
BRANCH   2   3
ATOM      3  C   UNL A   1      38.980  22.692  26.204  1.00  0.00     0.338 C 
ATOM      4  O   UNL A   1      37.877  22.563  25.675  1.00  0.00    -0.246 OA
BRANCH   3   5
ATOM      5  C   UNL A   1      39.315  24.025  26.803  1.00  0.00     0.060 A 
ATOM      6  C   UNL A   1      39.895  25.103  26.132  1.00  0.00     0.016 A 
ATOM      7  C   UNL A   1      39.002  24.194  28.169  1.00  0.00     0.016 A 
ATOM      8  C   UNL A   1      40.094  26.327  26.770  1.00  0.00     0.010 A 
ATOM      9  C   UNL A   1      39.228  25.408  28.825  1.00  0.00     0.010 A 
ATOM     10  C   UNL A   1      39.792  26.475  28.123  1.00  0.00    -0.014 A 
BRANCH  10  11
ATOM     11  C   UNL A   1      40.328  27.661  28.818  1.00  0.00     0.031 A 
ATOM     12  C   UNL A   1      41.791  27.656  29.142  1.00  0.00     0.074 A 
ATOM     13  C   UNL A   1      39.577  28.757  29.021  1.00  0.00     0.049 A 
ATOM     14  N   UNL A   1      42.533  28.625  29.600  1.00  0.00    -0.248 NA
ATOM     15  C   UNL A   1      42.522  26.407  28.865  1.00  0.00     0.031 C 
ATOM     16  C   UNL A   1      38.178  28.889  28.635  1.00  0.00     0.029 A 
ATOM     17  N   UNL A   1      39.887  29.970  29.577  1.00  0.00    -0.354 N 
ATOM     18  C   UNL A   1      43.826  28.124  29.607  1.00  0.00     0.074 A 
ATOM     19  C   UNL A   1      43.766  26.754  29.152  1.00  0.00     0.031 C 
ATOM     20  C   UNL A   1      37.743  30.115  28.974  1.00  0.00     0.029 A 
ATOM     21  C   UNL A   1      38.825  30.842  29.625  1.00  0.00     0.049 A 
ATOM     22  H   UNL A   1      40.785  30.196  29.912  1.00  0.00     0.167 HD
ATOM     23  C   UNL A   1      44.965  28.762  29.954  1.00  0.00     0.037 A 
ATOM     24  C   UNL A   1      38.735  32.082  30.145  1.00  0.00     0.037 A 
ATOM     25  C   UNL A   1      44.993  30.090  30.495  1.00  0.00     0.049 A 
ATOM     26  C   UNL A   1      39.983  32.693  30.721  1.00  0.00     0.074 A 
ATOM     27  C   UNL A   1      46.076  30.803  30.973  1.00  0.00     0.029 A 
ATOM     28  N   UNL A   1      43.873  30.894  30.663  1.00  0.00    -0.354 N 
ATOM     29  N   UNL A   1      41.204  32.210  30.725  1.00  0.00    -0.248 NA
ATOM     30  C   UNL A   1      39.850  34.009  31.358  1.00  0.00     0.031 C 
ATOM     31  C   UNL A   1      45.600  32.017  31.482  1.00  0.00     0.029 A 
ATOM     32  C   UNL A   1      44.230  32.082  31.273  1.00  0.00     0.049 A 
ATOM     33  H   UNL A   1      42.959  30.652  30.387  1.00  0.00     0.167 HD
ATOM     34  C   UNL A   1      41.990  33.170  31.350  1.00  0.00     0.074 A 
ATOM     35  C   UNL A   1      41.107  34.268  31.694  1.00  0.00     0.031 C 
ATOM     36  C   UNL A   1      43.320  33.147  31.614  1.00  0.00     0.037 A 
BRANCH  23  37
ATOM     37  C   UNL A   1      46.239  27.992  29.796  1.00  0.00     0.058 A 
ATOM     38  C   UNL A   1      46.968  28.028  28.595  1.00  0.00     0.135 A 
ATOM     39  C   UNL A   1      46.717  27.179  30.834  1.00  0.00     0.135 A 
ATOM     40  F   UNL A   1      46.528  28.757  27.557  1.00  0.00    -0.206 F 
ATOM     41  C   UNL A   1      48.122  27.271  28.426  1.00  0.00     0.059 A 
ATOM     42  C   UNL A   1      47.879  26.427  30.692  1.00  0.00     0.059 A 
ATOM     43  F   UNL A   1      46.039  27.090  31.989  1.00  0.00    -0.206 F 
ATOM     44  C   UNL A   1      48.568  26.473  29.481  1.00  0.00     0.060 A 
BRANCH  44  45
ATOM     45  S   UNL A   1      50.061  25.489  29.238  1.00  0.00     0.124 S 
ATOM     46  O   UNL A   1      51.031  26.515  28.870  1.00  0.00    -0.237 OA
ATOM     47  O   UNL A   1      50.249  24.883  30.553  1.00  0.00    -0.237 OA
ATOM     48  O   UNL A   1      49.691  24.564  28.171  1.00  0.00    -0.744 OA
ENDBRANCH  44  45
ENDBRANCH  23  37
BRANCH  24  49
ATOM     49  C   UNL A   1      37.432  32.805  30.165  1.00  0.00     0.058 A 
ATOM     50  C   UNL A   1      36.544  32.689  31.243  1.00  0.00     0.135 A 
ATOM     51  C   UNL A   1      37.044  33.628  29.092  1.00  0.00     0.135 A 
ATOM     52  F   UNL A   1      36.858  31.909  32.288  1.00  0.00    -0.206 F 
ATOM     53  C   UNL A   1      35.318  33.350  31.256  1.00  0.00     0.059 A 
ATOM     54  C   UNL A   1      35.836  34.318  29.093  1.00  0.00     0.059 A 
ATOM     55  F   UNL A   1      37.856  33.780  28.034  1.00  0.00    -0.206 F 
ATOM     56  C   UNL A   1      34.973  34.165  30.176  1.00  0.00     0.060 A 
BRANCH  56  57
ATOM     57  S   UNL A   1      33.393  35.042  30.222  1.00  0.00     0.124 S 
ATOM     58  O   UNL A   1      32.972  34.821  31.601  1.00  0.00    -0.237 OA
ATOM     59  O   UNL A   1      33.793  36.405  29.887  1.00  0.00    -0.237 OA
ATOM     60  O   UNL A   1      32.598  34.360  29.205  1.00  0.00    -0.744 OA
ENDBRANCH  56  57
ENDBRANCH  24  49
BRANCH  36  61
ATOM     61  C   UNL A   1      43.895  34.344  32.313  1.00  0.00     0.058 A 
ATOM     62  C   UNL A   1      44.259  35.497  31.603  1.00  0.00     0.135 A 
ATOM     63  C   UNL A   1      44.021  34.358  33.711  1.00  0.00     0.135 A 
ATOM     64  F   UNL A   1      44.163  35.528  30.265  1.00  0.00    -0.206 F 
ATOM     65  C   UNL A   1      44.748  36.623  32.256  1.00  0.00     0.059 A 
ATOM     66  C   UNL A   1      44.481  35.482  34.387  1.00  0.00     0.059 A 
ATOM     67  F   UNL A   1      43.674  33.281  34.433  1.00  0.00    -0.206 F 
ATOM     68  C   UNL A   1      44.851  36.606  33.649  1.00  0.00     0.060 A 
BRANCH  68  69
ATOM     69  S   UNL A   1      45.450  38.088  34.485  1.00  0.00     0.124 S 
ATOM     70  O   UNL A   1      46.527  37.547  35.307  1.00  0.00    -0.237 OA
ATOM     71  O   UNL A   1      45.865  38.930  33.367  1.00  0.00    -0.237 OA
ATOM     72  O   UNL A   1      44.279  38.561  35.217  1.00  0.00    -0.744 OA
ENDBRANCH  68  69
ENDBRANCH  36  61
ENDBRANCH  10  11
ENDBRANCH   3   5
ENDBRANCH   2   3
ENDBRANCH   1   2
BRANCH   1  73
ATOM     73  C   UNL A   1      42.366  21.595  26.265  1.00  0.00     0.275 C 
BRANCH  73  74
ATOM     74  O   UNL A   1      42.706  22.990  26.167  1.00  0.00    -0.458 OA
BRANCH  74  75
ATOM     75  C   UNL A   1      43.370  23.331  25.041  1.00  0.00     0.339 C 
ATOM     76  O   UNL A   1      43.424  22.714  23.993  1.00  0.00    -0.246 OA
BRANCH  75  77
ATOM     77  C   UNL A   1      43.970  24.671  25.180  1.00  0.00     0.078 A 
ATOM     78  C   UNL A   1      43.048  25.717  25.248  1.00  0.00     0.057 A 
ATOM     79  C   UNL A   1      45.358  24.906  25.126  1.00  0.00     0.102 A 
ATOM     80  C   UNL A   1      43.548  26.990  25.294  1.00  0.00     0.131 A 
ATOM     81  C   UNL A   1      45.733  26.247  25.067  1.00  0.00     0.116 A 
ATOM     82  Cl  UNL A   1      42.523  28.344  25.494  1.00  0.00    -0.062 Cl
ATOM     83  N   UNL A   1      44.851  27.273  25.177  1.00  0.00    -0.229 NA
ATOM     84  I   UNL A   1      47.693  26.914  24.664  1.00  0.00    -0.021 I 
BRANCH  79  85
ATOM     85  C   UNL A   1      46.327  23.768  25.241  1.00  0.00     0.419 C 
ATOM     86  F   UNL A   1      46.658  23.153  24.078  1.00  0.00    -0.166 F 
ATOM     87  F   UNL A   1      47.501  24.176  25.798  1.00  0.00    -0.166 F 
ATOM     88  F   UNL A   1      45.882  22.751  26.033  1.00  0.00    -0.166 F 
ENDBRANCH  79  85
ENDBRANCH  75  77
ENDBRANCH  74  75
ENDBRANCH  73  74
ENDBRANCH   1  73
TORSDOF 15
ENDMDL
MODEL 3
REMARK VINA RESULT:      -9.3      3.985     10.031
REMARK SMILES O=C(OCCOC(=O)c1cc(Cl)nc(I)c1C(F)(F)F)c1ccc(-c2c3nc(c(-c4c(F)cc(S(=O)(=O)[O-])cc4F)c4ccc([nH]4)c(-c4c(F)cc(S(=O)(=O)[O-])cc4F)c4nc(c(-c5c(F)cc(S(=O)(=O)[O-])cc5F)c5ccc2[nH]5)C=C4)C=C3)cc1
REMARK SMILES IDX 4 1 3 2 2 3 1 4 21 5 22 6 86 7 23 8 85 9 24 10 25 11 26 12
REMARK SMILES IDX 79 13 27 14 84 15 78 16 80 17 28 18 83 19 77 20 76 21 29 23
REMARK SMILES IDX 63 24 42 25 62 26 43 27 46 28 61 29 81 30 44 31 45 32 60 34
REMARK SMILES IDX 82 35 47 36 30 37 31 38 40 39 32 40 33 41 39 42 41 43 34 44
REMARK SMILES IDX 35 45 36 46 37 47 38 48 64 49 65 50 74 51 66 52 67 53 73 54
REMARK SMILES IDX 75 55 68 56 69 57 70 58 71 59 72 60 48 61 49 62 58 63 50 64
REMARK SMILES IDX 51 65 57 66 59 67 52 68 53 69 54 70 55 71 56 72 5 73 6 74
REMARK SMILES IDX 7 75 8 76 9 77 10 78 16 79 11 80 14 81 12 82 13 83 15 84
REMARK SMILES IDX 17 85 18 86 19 87 20 88
REMARK H PARENT 80 22 46 33
REMARK Flexibility Score: inf
ROOT
ATOM      1  C   UNL A   1      33.145  29.879  25.875  1.00  0.00     0.275 C 
ENDROOT
BRANCH   1   2
ATOM      2  O   UNL A   1      33.550  29.668  27.238  1.00  0.00    -0.458 OA
BRANCH   2   3
ATOM      3  C   UNL A   1      34.360  30.439  28.005  1.00  0.00     0.338 C 
ATOM      4  O   UNL A   1      34.023  31.599  28.235  1.00  0.00    -0.246 OA
BRANCH   3   5
ATOM      5  C   UNL A   1      35.744  30.022  28.408  1.00  0.00     0.060 A 
ATOM      6  C   UNL A   1      36.164  29.721  29.705  1.00  0.00     0.016 A 
ATOM      7  C   UNL A   1      36.694  29.919  27.370  1.00  0.00     0.016 A 
ATOM      8  C   UNL A   1      37.459  29.269  29.957  1.00  0.00     0.010 A 
ATOM      9  C   UNL A   1      38.004  29.496  27.618  1.00  0.00     0.010 A 
ATOM     10  C   UNL A   1      38.391  29.185  28.922  1.00  0.00    -0.014 A 
BRANCH  10  11
ATOM     11  C   UNL A   1      39.810  29.030  29.293  1.00  0.00     0.031 A 
ATOM     12  C   UNL A   1      40.441  27.697  29.029  1.00  0.00     0.074 A 
ATOM     13  C   UNL A   1      40.546  30.073  29.713  1.00  0.00     0.049 A 
ATOM     14  N   UNL A   1      41.694  27.351  29.114  1.00  0.00    -0.248 NA
ATOM     15  C   UNL A   1      39.544  26.627  28.557  1.00  0.00     0.031 C 
ATOM     16  C   UNL A   1      40.042  31.429  29.888  1.00  0.00     0.029 A 
ATOM     17  N   UNL A   1      41.873  30.164  30.041  1.00  0.00    -0.354 N 
ATOM     18  C   UNL A   1      41.746  26.045  28.649  1.00  0.00     0.074 A 
ATOM     19  C   UNL A   1      40.397  25.643  28.324  1.00  0.00     0.031 C 
ATOM     20  C   UNL A   1      41.045  32.220  30.304  1.00  0.00     0.029 A 
ATOM     21  C   UNL A   1      42.255  31.421  30.449  1.00  0.00     0.049 A 
ATOM     22  H   UNL A   1      42.494  29.402  29.992  1.00  0.00     0.167 HD
ATOM     23  C   UNL A   1      42.833  25.258  28.495  1.00  0.00     0.037 A 
ATOM     24  C   UNL A   1      43.443  31.871  30.897  1.00  0.00     0.037 A 
ATOM     25  C   UNL A   1      44.151  25.640  28.913  1.00  0.00     0.049 A 
ATOM     26  C   UNL A   1      44.597  30.906  30.915  1.00  0.00     0.074 A 
ATOM     27  C   UNL A   1      45.311  24.890  28.899  1.00  0.00     0.029 A 
ATOM     28  N   UNL A   1      44.474  26.877  29.457  1.00  0.00    -0.354 N 
ATOM     29  N   UNL A   1      44.637  29.670  30.474  1.00  0.00    -0.248 NA
ATOM     30  C   UNL A   1      45.862  31.387  31.484  1.00  0.00     0.031 C 
ATOM     31  C   UNL A   1      46.325  25.655  29.487  1.00  0.00     0.029 A 
ATOM     32  C   UNL A   1      45.808  26.900  29.819  1.00  0.00     0.049 A 
ATOM     33  H   UNL A   1      43.845  27.626  29.568  1.00  0.00     0.167 HD
ATOM     34  C   UNL A   1      45.935  29.229  30.696  1.00  0.00     0.074 A 
ATOM     35  C   UNL A   1      46.652  30.338  31.295  1.00  0.00     0.031 C 
ATOM     36  C   UNL A   1      46.485  28.018  30.428  1.00  0.00     0.037 A 
BRANCH  23  37
ATOM     37  C   UNL A   1      42.602  23.904  27.899  1.00  0.00     0.058 A 
ATOM     38  C   UNL A   1      42.519  22.757  28.706  1.00  0.00     0.135 A 
ATOM     39  C   UNL A   1      42.503  23.742  26.510  1.00  0.00     0.135 A 
ATOM     40  F   UNL A   1      42.652  22.855  30.038  1.00  0.00    -0.206 F 
ATOM     41  C   UNL A   1      42.360  21.492  28.152  1.00  0.00     0.059 A 
ATOM     42  C   UNL A   1      42.326  22.488  25.935  1.00  0.00     0.059 A 
ATOM     43  F   UNL A   1      42.605  24.805  25.696  1.00  0.00    -0.206 F 
ATOM     44  C   UNL A   1      42.266  21.369  26.765  1.00  0.00     0.060 A 
BRANCH  44  45
ATOM     45  S   UNL A   1      42.070  19.717  26.063  1.00  0.00     0.124 S 
ATOM     46  O   UNL A   1      43.039  19.747  24.972  1.00  0.00    -0.237 OA
ATOM     47  O   UNL A   1      42.414  18.859  27.192  1.00  0.00    -0.237 OA
ATOM     48  O   UNL A   1      40.669  19.683  25.656  1.00  0.00    -0.744 OA
ENDBRANCH  44  45
ENDBRANCH  23  37
BRANCH  24  49
ATOM     49  C   UNL A   1      43.592  33.273  31.379  1.00  0.00     0.058 A 
ATOM     50  C   UNL A   1      43.303  33.628  32.704  1.00  0.00     0.135 A 
ATOM     51  C   UNL A   1      44.024  34.294  30.514  1.00  0.00     0.135 A 
ATOM     52  F   UNL A   1      42.877  32.697  33.570  1.00  0.00    -0.206 F 
ATOM     53  C   UNL A   1      43.425  34.941  33.153  1.00  0.00     0.059 A 
ATOM     54  C   UNL A   1      44.178  35.609  30.945  1.00  0.00     0.059 A 
ATOM     55  F   UNL A   1      44.320  34.011  29.236  1.00  0.00    -0.206 F 
ATOM     56  C   UNL A   1      43.866  35.926  32.265  1.00  0.00     0.060 A 
BRANCH  56  57
ATOM     57  S   UNL A   1      44.049  37.619  32.870  1.00  0.00     0.124 S 
ATOM     58  O   UNL A   1      42.981  37.696  33.861  1.00  0.00    -0.237 OA
ATOM     59  O   UNL A   1      45.409  37.606  33.399  1.00  0.00    -0.237 OA
ATOM     60  O   UNL A   1      43.856  38.429  31.672  1.00  0.00    -0.744 OA
ENDBRANCH  56  57
ENDBRANCH  24  49
BRANCH  36  61
ATOM     61  C   UNL A   1      47.930  27.834  30.788  1.00  0.00     0.058 A 
ATOM     62  C   UNL A   1      48.310  27.293  32.025  1.00  0.00     0.135 A 
ATOM     63  C   UNL A   1      48.938  28.141  29.862  1.00  0.00     0.135 A 
ATOM     64  F   UNL A   1      47.381  26.990  32.946  1.00  0.00    -0.206 F 
ATOM     65  C   UNL A   1      49.647  27.078  32.340  1.00  0.00     0.059 A 
ATOM     66  C   UNL A   1      50.279  27.909  30.144  1.00  0.00     0.059 A 
ATOM     67  F   UNL A   1      48.622  28.650  28.661  1.00  0.00    -0.206 F 
ATOM     68  C   UNL A   1      50.623  27.386  31.391  1.00  0.00     0.060 A 
BRANCH  68  69
ATOM     69  S   UNL A   1      52.351  27.066  31.798  1.00  0.00     0.124 S 
ATOM     70  O   UNL A   1      52.364  25.610  31.900  1.00  0.00    -0.237 OA
ATOM     71  O   UNL A   1      53.052  27.627  30.647  1.00  0.00    -0.237 OA
ATOM     72  O   UNL A   1      52.543  27.786  33.053  1.00  0.00    -0.744 OA
ENDBRANCH  68  69
ENDBRANCH  36  61
ENDBRANCH  10  11
ENDBRANCH   3   5
ENDBRANCH   2   3
ENDBRANCH   1   2
BRANCH   1  73
ATOM     73  C   UNL A   1      31.793  29.245  25.534  1.00  0.00     0.275 C 
BRANCH  73  74
ATOM     74  O   UNL A   1      31.815  28.508  24.298  1.00  0.00    -0.458 OA
BRANCH  74  75
ATOM     75  C   UNL A   1      31.491  27.201  24.414  1.00  0.00     0.339 C 
ATOM     76  O   UNL A   1      30.560  26.717  25.030  1.00  0.00    -0.246 OA
BRANCH  75  77
ATOM     77  C   UNL A   1      32.372  26.372  23.570  1.00  0.00     0.078 A 
ATOM     78  C   UNL A   1      32.031  26.354  22.217  1.00  0.00     0.057 A 
ATOM     79  C   UNL A   1      33.401  25.562  24.089  1.00  0.00     0.102 A 
ATOM     80  C   UNL A   1      32.762  25.536  21.399  1.00  0.00     0.131 A 
ATOM     81  C   UNL A   1      33.993  24.694  23.174  1.00  0.00     0.116 A 
ATOM     82  Cl  UNL A   1      32.515  25.515  19.707  1.00  0.00    -0.062 Cl
ATOM     83  N   UNL A   1      33.703  24.696  21.848  1.00  0.00    -0.229 NA
ATOM     84  I   UNL A   1      35.328  23.147  23.699  1.00  0.00    -0.021 I 
BRANCH  79  85
ATOM     85  C   UNL A   1      33.868  25.737  25.502  1.00  0.00     0.419 C 
ATOM     86  F   UNL A   1      32.967  25.421  26.466  1.00  0.00    -0.166 F 
ATOM     87  F   UNL A   1      34.970  24.978  25.754  1.00  0.00    -0.166 F 
ATOM     88  F   UNL A   1      34.231  27.017  25.802  1.00  0.00    -0.166 F 
ENDBRANCH  79  85
ENDBRANCH  75  77
ENDBRANCH  74  75
ENDBRANCH  73  74
ENDBRANCH   1  73
TORSDOF 15
ENDMDL
