MODEL 1
REMARK VINA RESULT:     -12.1      0.000      0.000
REMARK SMILES CCOC(=O)c1cccc(Nc2c(-c3ccc(C(=O)OCCOC(=O)c4ccc(-c5c6nc(c(-c7c(F)cc(S(=O)(=O)[O-])cc7F)c7ccc([nH]7)c(-c7c(F)cc(S(=O)(=O)[O-])cc7F)c7nc(c(-c8c(F)cc(S(=O)(=O)[O-])cc8F)c8ccc5[nH]8)C=C7)C=C6)cc4)cc3)nc3cnccn23)c1
REMARK SMILES IDX 20 1 18 2 19 3 17 4 14 5 15 6 93 7 16 8 92 9 13 10 12 11
REMARK SMILES IDX 100 12 94 13 95 14 99 15 96 16 98 17 97 18 11 19 10 21 6 22
REMARK SMILES IDX 7 23 101 24 8 25 9 26 4 27 5 28 3 29 2 30 1 31 21 32 22 33
REMARK SMILES IDX 23 34 24 35 25 36 26 37 27 38 91 39 28 40 90 41 29 42 30 43
REMARK SMILES IDX 31 44 84 45 32 46 89 47 83 48 85 49 33 50 88 51 82 52 81 53
REMARK SMILES IDX 34 55 68 56 47 57 67 58 48 59 51 60 66 61 86 62 49 63 50 64
REMARK SMILES IDX 65 66 87 67 52 68 35 69 36 70 45 71 37 72 38 73 44 74 46 75
REMARK SMILES IDX 39 76 40 77 41 78 42 79 43 80 69 81 70 82 79 83 71 84 72 85
REMARK SMILES IDX 78 86 80 87 73 88 74 89 75 90 76 91 77 92 53 93 54 94 63 95
REMARK SMILES IDX 55 96 56 97 62 98 64 99 57 100 58 101 59 102 60 103 61 104
REMARK H PARENT 11 20 85 54 51 65
REMARK Flexibility Score: inf
ROOT
ATOM      1  O   UNL A   1      38.665  22.543  25.990  1.00  0.00    -0.458 OA
ENDROOT
BRANCH   1   2
ATOM      2  C   UNL A   1      37.794  21.941  25.142  1.00  0.00     0.338 C 
ATOM      3  O   UNL A   1      37.844  20.784  24.756  1.00  0.00    -0.246 OA
BRANCH   2   4
ATOM      4  C   UNL A   1      36.668  22.844  24.801  1.00  0.00     0.060 A 
ATOM      5  C   UNL A   1      34.554  24.616  24.289  1.00  0.00     0.004 A 
ATOM      6  C   UNL A   1      35.230  24.662  25.511  1.00  0.00     0.011 A 
ATOM      7  C   UNL A   1      34.919  23.660  23.332  1.00  0.00     0.011 A 
ATOM      8  C   UNL A   1      36.253  23.758  25.776  1.00  0.00     0.016 A 
ATOM      9  C   UNL A   1      35.993  22.789  23.577  1.00  0.00     0.016 A 
BRANCH   5  10
ATOM     10  C   UNL A   1      33.456  25.533  24.067  1.00  0.00     0.114 A 
ATOM     11  C   UNL A   1      32.121  25.253  24.347  1.00  0.00     0.143 A 
ATOM     12  N   UNL A   1      31.436  26.345  23.855  1.00  0.00    -0.283 N 
ATOM     13  N   UNL A   1      33.607  26.737  23.420  1.00  0.00    -0.225 NA
ATOM     14  C   UNL A   1      32.375  27.172  23.285  1.00  0.00     0.157 A 
ATOM     15  C   UNL A   1      30.104  26.727  23.857  1.00  0.00     0.115 A 
ATOM     16  C   UNL A   1      31.928  28.378  22.647  1.00  0.00     0.158 A 
ATOM     17  C   UNL A   1      29.766  27.880  23.254  1.00  0.00     0.129 A 
ATOM     18  N   UNL A   1      30.669  28.727  22.628  1.00  0.00    -0.259 NA
BRANCH  11  19
ATOM     19  N   UNL A   1      31.562  24.215  25.025  1.00  0.00    -0.339 N 
ATOM     20  H   UNL A   1      30.587  24.267  25.160  1.00  0.00     0.168 HD
BRANCH  19  21
ATOM     21  C   UNL A   1      32.195  23.071  25.564  1.00  0.00     0.040 A 
ATOM     22  C   UNL A   1      32.946  20.781  25.200  1.00  0.00     0.062 A 
ATOM     23  C   UNL A   1      33.387  20.700  26.522  1.00  0.00     0.016 A 
ATOM     24  C   UNL A   1      32.369  21.962  24.721  1.00  0.00     0.041 A 
ATOM     25  C   UNL A   1      33.266  21.809  27.356  1.00  0.00     0.003 A 
ATOM     26  C   UNL A   1      32.671  22.985  26.879  1.00  0.00     0.026 A 
BRANCH  22  27
ATOM     27  C   UNL A   1      33.002  19.569  24.359  1.00  0.00     0.338 C 
ATOM     28  O   UNL A   1      32.344  19.443  23.345  1.00  0.00    -0.246 OA
BRANCH  27  29
ATOM     29  O   UNL A   1      33.873  18.664  24.873  1.00  0.00    -0.462 OA
BRANCH  29  30
ATOM     30  C   UNL A   1      34.299  17.654  23.941  1.00  0.00     0.230 C 
ATOM     31  C   UNL A   1      33.581  16.337  24.178  1.00  0.00     0.049 C 
ENDBRANCH  29  30
ENDBRANCH  27  29
ENDBRANCH  22  27
ENDBRANCH  19  21
ENDBRANCH  11  19
ENDBRANCH   5  10
ENDBRANCH   2   4
ENDBRANCH   1   2
BRANCH   1  32
ATOM     32  C   UNL A   1      39.720  21.696  26.490  1.00  0.00     0.275 C 
BRANCH  32  33
ATOM     33  C   UNL A   1      41.103  22.239  26.124  1.00  0.00     0.275 C 
BRANCH  33  34
ATOM     34  O   UNL A   1      41.510  23.261  27.052  1.00  0.00    -0.458 OA
BRANCH  34  35
ATOM     35  C   UNL A   1      41.837  24.455  26.505  1.00  0.00     0.338 C 
ATOM     36  O   UNL A   1      42.317  24.657  25.402  1.00  0.00    -0.246 OA
BRANCH  35  37
ATOM     37  C   UNL A   1      41.493  25.546  27.430  1.00  0.00     0.060 A 
ATOM     38  C   UNL A   1      42.362  26.626  27.538  1.00  0.00     0.016 A 
ATOM     39  C   UNL A   1      40.412  25.436  28.302  1.00  0.00     0.016 A 
ATOM     40  C   UNL A   1      42.217  27.546  28.576  1.00  0.00     0.010 A 
ATOM     41  C   UNL A   1      40.203  26.426  29.275  1.00  0.00     0.010 A 
ATOM     42  C   UNL A   1      41.123  27.476  29.453  1.00  0.00    -0.014 A 
BRANCH  42  43
ATOM     43  C   UNL A   1      40.961  28.481  30.552  1.00  0.00     0.031 A 
ATOM     44  C   UNL A   1      41.860  28.454  31.769  1.00  0.00     0.074 A 
ATOM     45  C   UNL A   1      40.013  29.440  30.469  1.00  0.00     0.049 A 
ATOM     46  N   UNL A   1      41.770  29.146  32.879  1.00  0.00    -0.248 NA
ATOM     47  C   UNL A   1      42.997  27.521  31.740  1.00  0.00     0.031 C 
ATOM     48  C   UNL A   1      39.073  29.613  29.359  1.00  0.00     0.029 A 
ATOM     49  N   UNL A   1      39.683  30.457  31.336  1.00  0.00    -0.354 N 
ATOM     50  C   UNL A   1      42.813  28.707  33.689  1.00  0.00     0.074 A 
ATOM     51  C   UNL A   1      43.507  27.673  32.956  1.00  0.00     0.031 C 
ATOM     52  C   UNL A   1      38.305  30.689  29.591  1.00  0.00     0.029 A 
ATOM     53  C   UNL A   1      38.630  31.233  30.904  1.00  0.00     0.049 A 
ATOM     54  H   UNL A   1      40.156  30.615  32.185  1.00  0.00     0.167 HD
ATOM     55  C   UNL A   1      43.178  29.133  34.922  1.00  0.00     0.037 A 
ATOM     56  C   UNL A   1      37.964  32.238  31.506  1.00  0.00     0.037 A 
ATOM     57  C   UNL A   1      42.539  30.201  35.640  1.00  0.00     0.049 A 
ATOM     58  C   UNL A   1      38.358  32.665  32.892  1.00  0.00     0.074 A 
ATOM     59  C   UNL A   1      42.851  30.699  36.894  1.00  0.00     0.029 A 
ATOM     60  N   UNL A   1      41.475  30.945  35.165  1.00  0.00    -0.354 N 
ATOM     61  N   UNL A   1      39.329  32.212  33.647  1.00  0.00    -0.248 NA
ATOM     62  C   UNL A   1      37.556  33.727  33.515  1.00  0.00     0.031 C 
ATOM     63  C   UNL A   1      41.958  31.735  37.185  1.00  0.00     0.029 A 
ATOM     64  C   UNL A   1      41.108  31.895  36.102  1.00  0.00     0.049 A 
ATOM     65  H   UNL A   1      41.042  30.819  34.289  1.00  0.00     0.167 HD
ATOM     66  C   UNL A   1      39.261  32.940  34.829  1.00  0.00     0.074 A 
ATOM     67  C   UNL A   1      38.167  33.878  34.683  1.00  0.00     0.031 C 
ATOM     68  C   UNL A   1      40.031  32.836  35.939  1.00  0.00     0.037 A 
BRANCH  55  69
ATOM     69  C   UNL A   1      44.325  28.437  35.593  1.00  0.00     0.058 A 
ATOM     70  C   UNL A   1      44.124  27.320  36.416  1.00  0.00     0.135 A 
ATOM     71  C   UNL A   1      45.645  28.853  35.358  1.00  0.00     0.135 A 
ATOM     72  F   UNL A   1      42.884  26.858  36.642  1.00  0.00    -0.206 F 
ATOM     73  C   UNL A   1      45.193  26.661  37.016  1.00  0.00     0.059 A 
ATOM     74  C   UNL A   1      46.729  28.203  35.941  1.00  0.00     0.059 A 
ATOM     75  F   UNL A   1      45.890  29.900  34.555  1.00  0.00    -0.206 F 
ATOM     76  C   UNL A   1      46.491  27.121  36.788  1.00  0.00     0.060 A 
BRANCH  76  77
ATOM     77  S   UNL A   1      47.876  26.293  37.598  1.00  0.00     0.124 S 
ATOM     78  O   UNL A   1      47.721  26.752  38.976  1.00  0.00    -0.237 OA
ATOM     79  O   UNL A   1      47.591  24.879  37.371  1.00  0.00    -0.237 OA
ATOM     80  O   UNL A   1      49.039  26.814  36.888  1.00  0.00    -0.744 OA
ENDBRANCH  76  77
ENDBRANCH  55  69
BRANCH  56  81
ATOM     81  C   UNL A   1      36.813  32.880  30.814  1.00  0.00     0.058 A 
ATOM     82  C   UNL A   1      35.491  32.535  31.129  1.00  0.00     0.135 A 
ATOM     83  C   UNL A   1      37.016  33.864  29.833  1.00  0.00     0.135 A 
ATOM     84  F   UNL A   1      35.245  31.589  32.049  1.00  0.00    -0.206 F 
ATOM     85  C   UNL A   1      34.410  33.137  30.491  1.00  0.00     0.059 A 
ATOM     86  C   UNL A   1      35.952  34.502  29.204  1.00  0.00     0.059 A 
ATOM     87  F   UNL A   1      38.262  34.239  29.503  1.00  0.00    -0.206 F 
ATOM     88  C   UNL A   1      34.651  34.123  29.533  1.00  0.00     0.060 A 
BRANCH  88  89
ATOM     89  S   UNL A   1      33.245  34.941  28.750  1.00  0.00     0.124 S 
ATOM     90  O   UNL A   1      32.407  35.249  29.904  1.00  0.00    -0.237 OA
ATOM     91  O   UNL A   1      33.876  36.083  28.096  1.00  0.00    -0.237 OA
ATOM     92  O   UNL A   1      32.725  33.920  27.845  1.00  0.00    -0.744 OA
ENDBRANCH  88  89
ENDBRANCH  56  81
BRANCH  68  93
ATOM     93  C   UNL A   1      39.746  33.774  37.073  1.00  0.00     0.058 A 
ATOM     94  C   UNL A   1      38.906  33.405  38.135  1.00  0.00     0.135 A 
ATOM     95  C   UNL A   1      40.366  35.032  37.130  1.00  0.00     0.135 A 
ATOM     96  F   UNL A   1      38.286  32.214  38.124  1.00  0.00    -0.206 F 
ATOM     97  C   UNL A   1      38.677  34.260  39.208  1.00  0.00     0.059 A 
ATOM     98  C   UNL A   1      40.168  35.894  38.204  1.00  0.00     0.059 A 
ATOM     99  F   UNL A   1      41.186  35.427  36.142  1.00  0.00    -0.206 F 
ATOM    100  C   UNL A   1      39.314  35.502  39.234  1.00  0.00     0.060 A 
BRANCH 100 101
ATOM    101  S   UNL A   1      39.039  36.588  40.649  1.00  0.00     0.124 S 
ATOM    102  O   UNL A   1      40.372  36.642  41.241  1.00  0.00    -0.237 OA
ATOM    103  O   UNL A   1      38.576  37.819  40.016  1.00  0.00    -0.237 OA
ATOM    104  O   UNL A   1      38.033  35.876  41.432  1.00  0.00    -0.744 OA
ENDBRANCH 100 101
ENDBRANCH  68  93
ENDBRANCH  42  43
ENDBRANCH  35  37
ENDBRANCH  34  35
ENDBRANCH  33  34
ENDBRANCH  32  33
ENDBRANCH   1  32
TORSDOF 20
ENDMDL
MODEL 2
REMARK VINA RESULT:     -12.0      6.229     11.779
REMARK SMILES CCOC(=O)c1cccc(Nc2c(-c3ccc(C(=O)OCCOC(=O)c4ccc(-c5c6nc(c(-c7c(F)cc(S(=O)(=O)[O-])cc7F)c7ccc([nH]7)c(-c7c(F)cc(S(=O)(=O)[O-])cc7F)c7nc(c(-c8c(F)cc(S(=O)(=O)[O-])cc8F)c8ccc5[nH]8)C=C7)C=C6)cc4)cc3)nc3cnccn23)c1
REMARK SMILES IDX 20 1 18 2 19 3 17 4 14 5 15 6 93 7 16 8 92 9 13 10 12 11
REMARK SMILES IDX 100 12 94 13 95 14 99 15 96 16 98 17 97 18 11 19 10 21 6 22
REMARK SMILES IDX 7 23 101 24 8 25 9 26 4 27 5 28 3 29 2 30 1 31 21 32 22 33
REMARK SMILES IDX 23 34 24 35 25 36 26 37 27 38 91 39 28 40 90 41 29 42 30 43
REMARK SMILES IDX 31 44 84 45 32 46 89 47 83 48 85 49 33 50 88 51 82 52 81 53
REMARK SMILES IDX 34 55 68 56 47 57 67 58 48 59 51 60 66 61 86 62 49 63 50 64
REMARK SMILES IDX 65 66 87 67 52 68 35 69 36 70 45 71 37 72 38 73 44 74 46 75
REMARK SMILES IDX 39 76 40 77 41 78 42 79 43 80 69 81 70 82 79 83 71 84 72 85
REMARK SMILES IDX 78 86 80 87 73 88 74 89 75 90 76 91 77 92 53 93 54 94 63 95
REMARK SMILES IDX 55 96 56 97 62 98 64 99 57 100 58 101 59 102 60 103 61 104
REMARK H PARENT 11 20 85 54 51 65
REMARK Flexibility Score: inf
ROOT
ATOM      1  O   UNL A   1      34.514  31.187  28.000  1.00  0.00    -0.458 OA
ENDROOT
BRANCH   1   2
ATOM      2  C   UNL A   1      33.285  30.971  27.469  1.00  0.00     0.338 C 
ATOM      3  O   UNL A   1      32.420  31.811  27.285  1.00  0.00    -0.246 OA
BRANCH   2   4
ATOM      4  C   UNL A   1      33.136  29.565  27.020  1.00  0.00     0.060 A 
ATOM      5  C   UNL A   1      32.990  26.913  26.117  1.00  0.00     0.004 A 
ATOM      6  C   UNL A   1      34.145  27.669  25.896  1.00  0.00     0.011 A 
ATOM      7  C   UNL A   1      31.895  27.496  26.767  1.00  0.00     0.011 A 
ATOM      8  C   UNL A   1      34.199  28.994  26.312  1.00  0.00     0.016 A 
ATOM      9  C   UNL A   1      31.975  28.816  27.242  1.00  0.00     0.016 A 
BRANCH   5  10
ATOM     10  C   UNL A   1      32.944  25.554  25.620  1.00  0.00     0.114 A 
ATOM     11  C   UNL A   1      32.305  25.161  24.448  1.00  0.00     0.143 A 
ATOM     12  N   UNL A   1      32.405  23.785  24.453  1.00  0.00    -0.283 N 
ATOM     13  N   UNL A   1      33.414  24.479  26.338  1.00  0.00    -0.225 NA
ATOM     14  C   UNL A   1      33.043  23.443  25.623  1.00  0.00     0.157 A 
ATOM     15  C   UNL A   1      32.033  22.788  23.564  1.00  0.00     0.115 A 
ATOM     16  C   UNL A   1      33.241  22.051  25.913  1.00  0.00     0.158 A 
ATOM     17  C   UNL A   1      32.268  21.508  23.901  1.00  0.00     0.129 A 
ATOM     18  N   UNL A   1      32.869  21.110  25.085  1.00  0.00    -0.259 NA
BRANCH  11  19
ATOM     19  N   UNL A   1      31.771  25.905  23.443  1.00  0.00    -0.339 N 
ATOM     20  H   UNL A   1      32.328  25.998  22.635  1.00  0.00     0.168 HD
BRANCH  19  21
ATOM     21  C   UNL A   1      30.521  26.566  23.404  1.00  0.00     0.040 A 
ATOM     22  C   UNL A   1      29.276  28.563  22.766  1.00  0.00     0.062 A 
ATOM     23  C   UNL A   1      28.108  28.025  23.310  1.00  0.00     0.016 A 
ATOM     24  C   UNL A   1      30.469  27.832  22.799  1.00  0.00     0.041 A 
ATOM     25  C   UNL A   1      28.134  26.750  23.870  1.00  0.00     0.003 A 
ATOM     26  C   UNL A   1      29.334  26.028  23.918  1.00  0.00     0.026 A 
BRANCH  22  27
ATOM     27  C   UNL A   1      29.249  29.948  22.258  1.00  0.00     0.338 C 
ATOM     28  O   UNL A   1      29.107  30.211  21.079  1.00  0.00    -0.246 OA
BRANCH  27  29
ATOM     29  O   UNL A   1      29.392  30.838  23.272  1.00  0.00    -0.462 OA
BRANCH  29  30
ATOM     30  C   UNL A   1      28.339  31.814  23.359  1.00  0.00     0.230 C 
ATOM     31  C   UNL A   1      28.832  33.201  22.988  1.00  0.00     0.049 C 
ENDBRANCH  29  30
ENDBRANCH  27  29
ENDBRANCH  22  27
ENDBRANCH  19  21
ENDBRANCH  11  19
ENDBRANCH   5  10
ENDBRANCH   2   4
ENDBRANCH   1   2
BRANCH   1  32
ATOM     32  C   UNL A   1      34.569  32.195  29.031  1.00  0.00     0.275 C 
BRANCH  32  33
ATOM     33  C   UNL A   1      36.010  32.591  29.359  1.00  0.00     0.275 C 
BRANCH  33  34
ATOM     34  O   UNL A   1      36.370  32.151  30.681  1.00  0.00    -0.458 OA
BRANCH  34  35
ATOM     35  C   UNL A   1      36.727  30.851  30.792  1.00  0.00     0.338 C 
ATOM     36  O   UNL A   1      36.046  29.929  31.207  1.00  0.00    -0.246 OA
BRANCH  35  37
ATOM     37  C   UNL A   1      38.098  30.659  30.290  1.00  0.00     0.060 A 
ATOM     38  C   UNL A   1      38.278  30.355  28.946  1.00  0.00     0.016 A 
ATOM     39  C   UNL A   1      39.184  30.621  31.162  1.00  0.00     0.016 A 
ATOM     40  C   UNL A   1      39.517  29.912  28.484  1.00  0.00     0.010 A 
ATOM     41  C   UNL A   1      40.454  30.285  30.670  1.00  0.00     0.010 A 
ATOM     42  C   UNL A   1      40.636  29.888  29.333  1.00  0.00    -0.014 A 
BRANCH  42  43
ATOM     43  C   UNL A   1      41.970  29.433  28.824  1.00  0.00     0.031 A 
ATOM     44  C   UNL A   1      42.185  28.005  28.376  1.00  0.00     0.074 A 
ATOM     45  C   UNL A   1      43.004  30.299  28.745  1.00  0.00     0.049 A 
ATOM     46  N   UNL A   1      43.302  27.400  28.050  1.00  0.00    -0.248 NA
ATOM     47  C   UNL A   1      40.996  27.143  28.296  1.00  0.00     0.031 C 
ATOM     48  C   UNL A   1      42.961  31.713  29.126  1.00  0.00     0.029 A 
ATOM     49  N   UNL A   1      44.299  30.118  28.316  1.00  0.00    -0.354 N 
ATOM     50  C   UNL A   1      42.953  26.083  27.763  1.00  0.00     0.074 A 
ATOM     51  C   UNL A   1      41.528  25.970  27.977  1.00  0.00     0.031 C 
ATOM     52  C   UNL A   1      44.153  32.276  28.876  1.00  0.00     0.029 A 
ATOM     53  C   UNL A   1      45.075  31.252  28.403  1.00  0.00     0.049 A 
ATOM     54  H   UNL A   1      44.638  29.258  27.976  1.00  0.00     0.167 HD
ATOM     55  C   UNL A   1      43.738  25.062  27.341  1.00  0.00     0.037 A 
ATOM     56  C   UNL A   1      46.390  31.446  28.178  1.00  0.00     0.037 A 
ATOM     57  C   UNL A   1      45.143  25.171  27.063  1.00  0.00     0.049 A 
ATOM     58  C   UNL A   1      47.249  30.289  27.752  1.00  0.00     0.074 A 
ATOM     59  C   UNL A   1      46.010  24.184  26.627  1.00  0.00     0.029 A 
ATOM     60  N   UNL A   1      45.881  26.335  27.178  1.00  0.00    -0.354 N 
ATOM     61  N   UNL A   1      46.900  29.047  27.518  1.00  0.00    -0.248 NA
ATOM     62  C   UNL A   1      48.684  30.554  27.578  1.00  0.00     0.031 C 
ATOM     63  C   UNL A   1      47.283  24.750  26.497  1.00  0.00     0.029 A 
ATOM     64  C   UNL A   1      47.198  26.093  26.829  1.00  0.00     0.049 A 
ATOM     65  H   UNL A   1      45.523  27.207  27.464  1.00  0.00     0.167 HD
ATOM     66  C   UNL A   1      48.069  28.387  27.159  1.00  0.00     0.074 A 
ATOM     67  C   UNL A   1      49.133  29.369  27.186  1.00  0.00     0.031 C 
ATOM     68  C   UNL A   1      48.245  27.081  26.842  1.00  0.00     0.037 A 
BRANCH  55  69
ATOM     69  C   UNL A   1      43.099  23.717  27.158  1.00  0.00     0.058 A 
ATOM     70  C   UNL A   1      42.894  22.849  28.239  1.00  0.00     0.135 A 
ATOM     71  C   UNL A   1      42.628  23.320  25.897  1.00  0.00     0.135 A 
ATOM     72  F   UNL A   1      43.291  23.199  29.474  1.00  0.00    -0.206 F 
ATOM     73  C   UNL A   1      42.277  21.613  28.070  1.00  0.00     0.059 A 
ATOM     74  C   UNL A   1      42.000  22.092  25.707  1.00  0.00     0.059 A 
ATOM     75  F   UNL A   1      42.775  24.128  24.836  1.00  0.00    -0.206 F 
ATOM     76  C   UNL A   1      41.851  21.234  26.796  1.00  0.00     0.060 A 
BRANCH  76  77
ATOM     77  S   UNL A   1      41.087  19.614  26.567  1.00  0.00     0.124 S 
ATOM     78  O   UNL A   1      40.975  19.150  27.947  1.00  0.00    -0.237 OA
ATOM     79  O   UNL A   1      39.825  19.936  25.907  1.00  0.00    -0.237 OA
ATOM     80  O   UNL A   1      42.056  18.902  25.741  1.00  0.00    -0.744 OA
ENDBRANCH  76  77
ENDBRANCH  55  69
BRANCH  56  81
ATOM     81  C   UNL A   1      46.986  32.792  28.401  1.00  0.00     0.058 A 
ATOM     82  C   UNL A   1      47.524  33.151  29.645  1.00  0.00     0.135 A 
ATOM     83  C   UNL A   1      47.044  33.739  27.366  1.00  0.00     0.135 A 
ATOM     84  F   UNL A   1      47.480  32.286  30.670  1.00  0.00    -0.206 F 
ATOM     85  C   UNL A   1      48.090  34.405  29.859  1.00  0.00     0.059 A 
ATOM     86  C   UNL A   1      47.632  34.986  27.545  1.00  0.00     0.059 A 
ATOM     87  F   UNL A   1      46.554  33.440  26.152  1.00  0.00    -0.206 F 
ATOM     88  C   UNL A   1      48.144  35.314  28.801  1.00  0.00     0.060 A 
BRANCH  88  89
ATOM     89  S   UNL A   1      48.931  36.917  29.067  1.00  0.00     0.124 S 
ATOM     90  O   UNL A   1      49.053  36.944  30.520  1.00  0.00    -0.237 OA
ATOM     91  O   UNL A   1      50.179  36.775  28.324  1.00  0.00    -0.237 OA
ATOM     92  O   UNL A   1      47.974  37.859  28.495  1.00  0.00    -0.744 OA
ENDBRANCH  88  89
ENDBRANCH  56  81
BRANCH  68  93
ATOM     93  C   UNL A   1      49.629  26.638  26.468  1.00  0.00     0.058 A 
ATOM     94  C   UNL A   1      50.469  26.004  27.396  1.00  0.00     0.135 A 
ATOM     95  C   UNL A   1      50.095  26.793  25.154  1.00  0.00     0.135 A 
ATOM     96  F   UNL A   1      50.069  25.836  28.666  1.00  0.00    -0.206 F 
ATOM     97  C   UNL A   1      51.735  25.554  27.036  1.00  0.00     0.059 A 
ATOM     98  C   UNL A   1      51.349  26.332  24.767  1.00  0.00     0.059 A 
ATOM     99  F   UNL A   1      49.324  27.385  24.228  1.00  0.00    -0.206 F 
ATOM    100  C   UNL A   1      52.166  25.722  25.719  1.00  0.00     0.060 A 
BRANCH 100 101
ATOM    101  S   UNL A   1      53.796  25.101  25.254  1.00  0.00     0.124 S 
ATOM    102  O   UNL A   1      53.594  23.657  25.337  1.00  0.00    -0.237 OA
ATOM    103  O   UNL A   1      53.967  25.641  23.909  1.00  0.00    -0.237 OA
ATOM    104  O   UNL A   1      54.678  25.670  26.269  1.00  0.00    -0.744 OA
ENDBRANCH 100 101
ENDBRANCH  68  93
ENDBRANCH  42  43
ENDBRANCH  35  37
ENDBRANCH  34  35
ENDBRANCH  33  34
ENDBRANCH  32  33
ENDBRANCH   1  32
TORSDOF 20
ENDMDL
MODEL 3
REMARK VINA RESULT:     -12.0      0.834      7.945
REMARK SMILES CCOC(=O)c1cccc(Nc2c(-c3ccc(C(=O)OCCOC(=O)c4ccc(-c5c6nc(c(-c7c(F)cc(S(=O)(=O)[O-])cc7F)c7ccc([nH]7)c(-c7c(F)cc(S(=O)(=O)[O-])cc7F)c7nc(c(-c8c(F)cc(S(=O)(=O)[O-])cc8F)c8ccc5[nH]8)C=C7)C=C6)cc4)cc3)nc3cnccn23)c1
REMARK SMILES IDX 20 1 18 2 19 3 17 4 14 5 15 6 93 7 16 8 92 9 13 10 12 11
REMARK SMILES IDX 100 12 94 13 95 14 99 15 96 16 98 17 97 18 11 19 10 21 6 22
REMARK SMILES IDX 7 23 101 24 8 25 9 26 4 27 5 28 3 29 2 30 1 31 21 32 22 33
REMARK SMILES IDX 23 34 24 35 25 36 26 37 27 38 91 39 28 40 90 41 29 42 30 43
REMARK SMILES IDX 31 44 84 45 32 46 89 47 83 48 85 49 33 50 88 51 82 52 81 53
REMARK SMILES IDX 34 55 68 56 47 57 67 58 48 59 51 60 66 61 86 62 49 63 50 64
REMARK SMILES IDX 65 66 87 67 52 68 35 69 36 70 45 71 37 72 38 73 44 74 46 75
REMARK SMILES IDX 39 76 40 77 41 78 42 79 43 80 69 81 70 82 79 83 71 84 72 85
REMARK SMILES IDX 78 86 80 87 73 88 74 89 75 90 76 91 77 92 53 93 54 94 63 95
REMARK SMILES IDX 55 96 56 97 62 98 64 99 57 100 58 101 59 102 60 103 61 104
REMARK H PARENT 11 20 85 54 51 65
REMARK Flexibility Score: inf
ROOT
ATOM      1  O   UNL A   1      39.351  22.301  26.282  1.00  0.00    -0.458 OA
ENDROOT
BRANCH   1   2
ATOM      2  C   UNL A   1      38.492  21.583  25.516  1.00  0.00     0.338 C 
ATOM      3  O   UNL A   1      38.581  20.396  25.247  1.00  0.00    -0.246 OA
BRANCH   2   4
ATOM      4  C   UNL A   1      37.326  22.405  25.106  1.00  0.00     0.060 A 
ATOM      5  C   UNL A   1      35.127  24.024  24.465  1.00  0.00     0.004 A 
ATOM      6  C   UNL A   1      35.727  24.118  25.724  1.00  0.00     0.011 A 
ATOM      7  C   UNL A   1      35.613  23.095  23.535  1.00  0.00     0.011 A 
ATOM      8  C   UNL A   1      36.793  23.288  26.051  1.00  0.00     0.016 A 
ATOM      9  C   UNL A   1      36.729  22.301  23.846  1.00  0.00     0.016 A 
BRANCH   5  10
ATOM     10  C   UNL A   1      33.982  24.861  24.176  1.00  0.00     0.114 A 
ATOM     11  C   UNL A   1      32.660  24.427  24.192  1.00  0.00     0.143 A 
ATOM     12  N   UNL A   1      31.942  25.512  23.730  1.00  0.00    -0.283 N 
ATOM     13  N   UNL A   1      34.097  26.152  23.715  1.00  0.00    -0.225 NA
ATOM     14  C   UNL A   1      32.861  26.490  23.429  1.00  0.00     0.157 A 
ATOM     15  C   UNL A   1      30.592  25.770  23.555  1.00  0.00     0.115 A 
ATOM     16  C   UNL A   1      32.388  27.728  22.877  1.00  0.00     0.158 A 
ATOM     17  C   UNL A   1      30.226  26.961  23.049  1.00  0.00     0.129 A 
ATOM     18  N   UNL A   1      31.116  27.963  22.691  1.00  0.00    -0.259 NA
BRANCH  11  19
ATOM     19  N   UNL A   1      32.120  23.261  24.635  1.00  0.00    -0.339 N 
ATOM     20  H   UNL A   1      31.650  23.307  25.500  1.00  0.00     0.168 HD
BRANCH  19  21
ATOM     21  C   UNL A   1      32.145  21.988  24.018  1.00  0.00     0.040 A 
ATOM     22  C   UNL A   1      32.410  19.581  24.295  1.00  0.00     0.062 A 
ATOM     23  C   UNL A   1      32.277  19.393  22.918  1.00  0.00     0.016 A 
ATOM     24  C   UNL A   1      32.328  20.866  24.842  1.00  0.00     0.041 A 
ATOM     25  C   UNL A   1      32.046  20.493  22.095  1.00  0.00     0.003 A 
ATOM     26  C   UNL A   1      31.983  21.780  22.642  1.00  0.00     0.026 A 
BRANCH  22  27
ATOM     27  C   UNL A   1      32.742  18.417  25.139  1.00  0.00     0.338 C 
ATOM     28  O   UNL A   1      32.563  18.406  26.342  1.00  0.00    -0.246 OA
BRANCH  27  29
ATOM     29  O   UNL A   1      33.249  17.405  24.390  1.00  0.00    -0.462 OA
BRANCH  29  30
ATOM     30  C   UNL A   1      33.780  16.308  25.155  1.00  0.00     0.230 C 
ATOM     31  C   UNL A   1      32.778  15.175  25.278  1.00  0.00     0.049 C 
ENDBRANCH  29  30
ENDBRANCH  27  29
ENDBRANCH  22  27
ENDBRANCH  19  21
ENDBRANCH  11  19
ENDBRANCH   5  10
ENDBRANCH   2   4
ENDBRANCH   1   2
BRANCH   1  32
ATOM     32  C   UNL A   1      40.719  21.841  26.264  1.00  0.00     0.275 C 
BRANCH  32  33
ATOM     33  C   UNL A   1      41.705  23.007  26.173  1.00  0.00     0.275 C 
BRANCH  33  34
ATOM     34  O   UNL A   1      41.006  24.265  26.153  1.00  0.00    -0.458 OA
BRANCH  34  35
ATOM     35  C   UNL A   1      41.783  25.368  26.062  1.00  0.00     0.338 C 
ATOM     36  O   UNL A   1      42.413  25.752  25.091  1.00  0.00    -0.246 OA
BRANCH  35  37
ATOM     37  C   UNL A   1      41.751  26.115  27.330  1.00  0.00     0.060 A 
ATOM     38  C   UNL A   1      40.820  25.749  28.295  1.00  0.00     0.016 A 
ATOM     39  C   UNL A   1      42.519  27.264  27.507  1.00  0.00     0.016 A 
ATOM     40  C   UNL A   1      40.576  26.578  29.389  1.00  0.00     0.010 A 
ATOM     41  C   UNL A   1      42.351  28.037  28.667  1.00  0.00     0.010 A 
ATOM     42  C   UNL A   1      41.350  27.729  29.608  1.00  0.00    -0.014 A 
BRANCH  42  43
ATOM     43  C   UNL A   1      41.099  28.603  30.798  1.00  0.00     0.031 A 
ATOM     44  C   UNL A   1      39.993  29.635  30.785  1.00  0.00     0.074 A 
ATOM     45  C   UNL A   1      41.851  28.475  31.913  1.00  0.00     0.049 A 
ATOM     46  N   UNL A   1      39.728  30.574  31.661  1.00  0.00    -0.248 NA
ATOM     47  C   UNL A   1      39.077  29.618  29.634  1.00  0.00     0.031 C 
ATOM     48  C   UNL A   1      42.949  27.522  32.095  1.00  0.00     0.029 A 
ATOM     49  N   UNL A   1      41.807  29.151  33.111  1.00  0.00    -0.354 N 
ATOM     50  C   UNL A   1      38.640  31.277  31.149  1.00  0.00     0.074 A 
ATOM     51  C   UNL A   1      38.312  30.675  29.877  1.00  0.00     0.031 C 
ATOM     52  C   UNL A   1      43.443  27.645  33.336  1.00  0.00     0.029 A 
ATOM     53  C   UNL A   1      42.764  28.743  34.013  1.00  0.00     0.049 A 
ATOM     54  H   UNL A   1      41.151  29.859  33.306  1.00  0.00     0.167 HD
ATOM     55  C   UNL A   1      37.961  32.317  31.691  1.00  0.00     0.037 A 
ATOM     56  C   UNL A   1      43.098  29.220  35.229  1.00  0.00     0.037 A 
ATOM     57  C   UNL A   1      38.233  32.888  32.981  1.00  0.00     0.049 A 
ATOM     58  C   UNL A   1      42.359  30.401  35.792  1.00  0.00     0.074 A 
ATOM     59  C   UNL A   1      37.588  33.941  33.606  1.00  0.00     0.029 A 
ATOM     60  N   UNL A   1      39.217  32.446  33.847  1.00  0.00    -0.354 N 
ATOM     61  N   UNL A   1      41.356  31.067  35.274  1.00  0.00    -0.248 NA
ATOM     62  C   UNL A   1      42.809  30.909  37.095  1.00  0.00     0.031 C 
ATOM     63  C   UNL A   1      38.198  34.149  34.848  1.00  0.00     0.029 A 
ATOM     64  C   UNL A   1      39.205  33.210  35.001  1.00  0.00     0.049 A 
ATOM     65  H   UNL A   1      39.834  31.699  33.670  1.00  0.00     0.167 HD
ATOM     66  C   UNL A   1      41.048  32.063  36.192  1.00  0.00     0.074 A 
ATOM     67  C   UNL A   1      41.957  31.903  37.307  1.00  0.00     0.031 C 
ATOM     68  C   UNL A   1      40.101  33.030  36.113  1.00  0.00     0.037 A 
BRANCH  55  69
ATOM     69  C   UNL A   1      36.850  32.923  30.887  1.00  0.00     0.058 A 
ATOM     70  C   UNL A   1      37.105  33.844  29.861  1.00  0.00     0.135 A 
ATOM     71  C   UNL A   1      35.520  32.529  31.101  1.00  0.00     0.135 A 
ATOM     72  F   UNL A   1      38.364  34.224  29.589  1.00  0.00    -0.206 F 
ATOM     73  C   UNL A   1      36.074  34.385  29.099  1.00  0.00     0.059 A 
ATOM     74  C   UNL A   1      34.474  33.051  30.345  1.00  0.00     0.059 A 
ATOM     75  F   UNL A   1      35.228  31.628  32.053  1.00  0.00    -0.206 F 
ATOM     76  C   UNL A   1      34.759  33.997  29.361  1.00  0.00     0.060 A 
BRANCH  76  77
ATOM     77  S   UNL A   1      33.416  34.728  28.401  1.00  0.00     0.124 S 
ATOM     78  O   UNL A   1      32.600  35.325  29.455  1.00  0.00    -0.237 OA
ATOM     79  O   UNL A   1      34.110  35.673  27.531  1.00  0.00    -0.237 OA
ATOM     80  O   UNL A   1      32.825  33.578  27.724  1.00  0.00    -0.744 OA
ENDBRANCH  76  77
ENDBRANCH  55  69
BRANCH  56  81
ATOM     81  C   UNL A   1      44.228  28.605  35.979  1.00  0.00     0.058 A 
ATOM     82  C   UNL A   1      44.012  27.557  36.886  1.00  0.00     0.135 A 
ATOM     83  C   UNL A   1      45.547  29.044  35.789  1.00  0.00     0.135 A 
ATOM     84  F   UNL A   1      42.767  27.111  37.112  1.00  0.00    -0.206 F 
ATOM     85  C   UNL A   1      45.064  26.972  37.585  1.00  0.00     0.059 A 
ATOM     86  C   UNL A   1      46.618  28.455  36.452  1.00  0.00     0.059 A 
ATOM     87  F   UNL A   1      45.809  30.036  34.923  1.00  0.00    -0.206 F 
ATOM     88  C   UNL A   1      46.365  27.425  37.358  1.00  0.00     0.060 A 
BRANCH  88  89
ATOM     89  S   UNL A   1      47.731  26.624  38.224  1.00  0.00     0.124 S 
ATOM     90  O   UNL A   1      47.338  25.221  38.156  1.00  0.00    -0.237 OA
ATOM     91  O   UNL A   1      48.880  27.004  37.408  1.00  0.00    -0.237 OA
ATOM     92  O   UNL A   1      47.687  27.230  39.551  1.00  0.00    -0.744 OA
ENDBRANCH  88  89
ENDBRANCH  56  81
BRANCH  68  93
ATOM     93  C   UNL A   1      39.973  33.972  37.273  1.00  0.00     0.058 A 
ATOM     94  C   UNL A   1      40.606  35.225  37.271  1.00  0.00     0.135 A 
ATOM     95  C   UNL A   1      39.161  33.645  38.370  1.00  0.00     0.135 A 
ATOM     96  F   UNL A   1      41.396  35.582  36.247  1.00  0.00    -0.206 F 
ATOM     97  C   UNL A   1      40.450  36.115  38.328  1.00  0.00     0.059 A 
ATOM     98  C   UNL A   1      38.975  34.529  39.427  1.00  0.00     0.059 A 
ATOM     99  F   UNL A   1      38.527  32.462  38.413  1.00  0.00    -0.206 F 
ATOM    100  C   UNL A   1      39.632  35.759  39.401  1.00  0.00     0.060 A 
BRANCH 100 101
ATOM    101  S   UNL A   1      39.408  36.938  40.750  1.00  0.00     0.124 S 
ATOM    102  O   UNL A   1      40.786  37.162  41.176  1.00  0.00    -0.237 OA
ATOM    103  O   UNL A   1      38.760  38.063  40.080  1.00  0.00    -0.237 OA
ATOM    104  O   UNL A   1      38.567  36.213  41.698  1.00  0.00    -0.744 OA
ENDBRANCH 100 101
ENDBRANCH  68  93
ENDBRANCH  42  43
ENDBRANCH  35  37
ENDBRANCH  34  35
ENDBRANCH  33  34
ENDBRANCH  32  33
ENDBRANCH   1  32
TORSDOF 20
ENDMDL
