MODEL 1
REMARK VINA RESULT:     -13.5      0.000      0.000
REMARK SMILES Cc1ccc2nc(NC(=O)[C@H]3CC=CC[C@@H]3C(=O)OCCOC(=O)c3ccc(-c4c5nc(c(-c6c(F)cc(S(=O)(=O)[O-])cc6F)c6ccc([nH]6)c(-c6c(F)cc(S(=O)(=O)[O-])cc6F)c6nc(c(-c7c(F)cc(S(=O)(=O)[O-])cc7F)c7ccc4[nH]7)C=C6)C=C5)cc3)sc2c1
REMARK SMILES IDX 21 1 20 2 19 3 17 4 18 5 16 6 11 7 12 8 13 9 15 10 14 11
REMARK SMILES IDX 9 12 8 13 10 15 7 16 1 17 2 18 3 19 93 20 4 21 92 22 5 23
REMARK SMILES IDX 91 24 6 25 22 26 23 27 24 28 25 29 26 30 90 31 27 32 89 33
REMARK SMILES IDX 28 34 29 35 30 36 83 37 31 38 88 39 82 40 84 41 32 42 87 43
REMARK SMILES IDX 81 44 80 45 33 47 67 48 46 49 66 50 47 51 50 52 65 53 85 54
REMARK SMILES IDX 48 55 49 56 64 58 86 59 51 60 34 61 35 62 44 63 36 64 37 65
REMARK SMILES IDX 43 66 45 67 38 68 39 69 40 70 41 71 42 72 68 73 69 74 78 75
REMARK SMILES IDX 70 76 71 77 77 78 79 79 72 80 73 81 74 82 75 83 76 84 52 85
REMARK SMILES IDX 53 86 62 87 54 88 55 89 61 90 63 91 56 92 57 93 58 94 59 95
REMARK SMILES IDX 60 96
REMARK H PARENT 8 14 84 46 50 57
REMARK Flexibility Score: inf
ROOT
ATOM      1  C   UNL A   1      33.445  27.869  25.729  1.00  0.00     0.275 C 
ENDROOT
BRANCH   1   2
ATOM      2  C   UNL A   1      33.566  25.809  24.982  1.00  0.00     0.274 C 
BRANCH   2   3
ATOM      3  O   UNL A   1      34.817  25.120  24.103  1.00  0.00    -0.462 OA
BRANCH   3   4
ATOM      4  C   UNL A   1      34.692  24.037  23.249  1.00  0.00     0.310 C 
ATOM      5  O   UNL A   1      34.100  24.068  22.180  1.00  0.00    -0.252 OA
BRANCH   4   6
ATOM      6  C   UNL A   1      35.485  22.816  23.785  1.00  0.00     0.116 C 
ATOM      7  C   UNL A   1      34.883  22.218  25.098  1.00  0.00     0.097 C 
ATOM      8  C   UNL A   1      35.628  22.452  26.427  1.00  0.00     0.041 C 
ATOM      9  C   UNL A   1      36.808  23.358  26.355  1.00  0.00    -0.030 C 
ATOM     10  C   UNL A   1      36.978  23.132  23.888  1.00  0.00     0.043 C 
ATOM     11  C   UNL A   1      37.422  23.667  25.210  1.00  0.00    -0.030 C 
BRANCH   7  12
ATOM     12  C   UNL A   1      34.550  20.716  24.857  1.00  0.00     0.230 C 
ATOM     13  N   UNL A   1      33.314  20.345  24.368  1.00  0.00    -0.302 N 
ATOM     14  H   UNL A   1      33.197  19.433  24.016  1.00  0.00     0.172 HD
ATOM     15  O   UNL A   1      35.419  19.843  24.941  1.00  0.00    -0.274 OA
BRANCH  13  16
ATOM     16  C   UNL A   1      32.249  21.197  24.352  1.00  0.00     0.190 A 
ATOM     17  C   UNL A   1      29.288  27.276  23.762  1.00  0.00     0.044 C 
ATOM     18  C   UNL A   1      29.871  25.988  24.261  1.00  0.00    -0.050 A 
ATOM     19  C   UNL A   1      29.999  25.661  25.997  1.00  0.00     0.006 A 
ATOM     20  C   UNL A   1      30.361  24.758  23.063  1.00  0.00     0.024 A 
ATOM     21  C   UNL A   1      30.737  24.108  26.541  1.00  0.00     0.030 A 
ATOM     22  C   UNL A   1      31.085  23.212  23.584  1.00  0.00     0.057 A 
ATOM     23  C   UNL A   1      31.189  22.837  25.295  1.00  0.00     0.084 A 
ATOM     24  S   UNL A   1      31.794  21.829  22.822  1.00  0.00    -0.097 S 
ATOM     25  N   UNL A   1      31.696  21.607  25.460  1.00  0.00    -0.220 NA
ENDBRANCH  13  16
ENDBRANCH   7  12
ENDBRANCH   4   6
ENDBRANCH   3   4
ENDBRANCH   2   3
ENDBRANCH   1   2
BRANCH   1  26
ATOM     26  O   UNL A   1      33.820  28.361  27.293  1.00  0.00    -0.458 OA
BRANCH  26  27
ATOM     27  C   UNL A   1      34.157  29.639  27.618  1.00  0.00     0.338 C 
ATOM     28  O   UNL A   1      33.374  30.571  27.715  1.00  0.00    -0.246 OA
BRANCH  27  29
ATOM     29  C   UNL A   1      35.591  29.719  28.070  1.00  0.00     0.060 A 
ATOM     30  C   UNL A   1      36.592  30.041  27.142  1.00  0.00     0.016 A 
ATOM     31  C   UNL A   1      36.000  29.308  29.334  1.00  0.00     0.016 A 
ATOM     32  C   UNL A   1      37.956  29.888  27.407  1.00  0.00     0.010 A 
ATOM     33  C   UNL A   1      37.383  29.196  29.626  1.00  0.00     0.010 A 
ATOM     34  C   UNL A   1      38.377  29.436  28.650  1.00  0.00    -0.014 A 
BRANCH  34  35
ATOM     35  C   UNL A   1      39.806  29.037  28.860  1.00  0.00     0.031 A 
ATOM     36  C   UNL A   1      40.767  30.071  29.396  1.00  0.00     0.074 A 
ATOM     37  C   UNL A   1      40.266  27.780  28.673  1.00  0.00     0.049 A 
ATOM     38  N   UNL A   1      42.074  30.061  29.431  1.00  0.00    -0.248 NA
ATOM     39  C   UNL A   1      40.160  31.281  29.974  1.00  0.00     0.031 C 
ATOM     40  C   UNL A   1      39.457  26.612  28.326  1.00  0.00     0.029 A 
ATOM     41  N   UNL A   1      41.550  27.280  28.742  1.00  0.00    -0.354 N 
ATOM     42  C   UNL A   1      42.449  31.286  29.974  1.00  0.00     0.074 A 
ATOM     43  C   UNL A   1      41.229  32.011  30.255  1.00  0.00     0.031 C 
ATOM     44  C   UNL A   1      40.262  25.544  28.189  1.00  0.00     0.029 A 
ATOM     45  C   UNL A   1      41.653  25.961  28.358  1.00  0.00     0.049 A 
ATOM     46  H   UNL A   1      42.321  27.816  29.037  1.00  0.00     0.167 HD
ATOM     47  C   UNL A   1      43.694  31.766  30.209  1.00  0.00     0.037 A 
ATOM     48  C   UNL A   1      42.736  25.193  28.107  1.00  0.00     0.037 A 
ATOM     49  C   UNL A   1      44.907  31.027  29.971  1.00  0.00     0.049 A 
ATOM     50  C   UNL A   1      44.120  25.780  28.256  1.00  0.00     0.074 A 
ATOM     51  C   UNL A   1      46.215  31.442  30.149  1.00  0.00     0.029 A 
ATOM     52  N   UNL A   1      44.963  29.718  29.519  1.00  0.00    -0.354 N 
ATOM     53  N   UNL A   1      44.472  26.977  28.663  1.00  0.00    -0.248 NA
ATOM     54  C   UNL A   1      45.257  24.918  27.894  1.00  0.00     0.031 C 
ATOM     55  C   UNL A   1      47.064  30.403  29.754  1.00  0.00     0.029 A 
ATOM     56  C   UNL A   1      46.284  29.316  29.391  1.00  0.00     0.049 A 
ATOM     57  H   UNL A   1      44.180  29.155  29.318  1.00  0.00     0.167 HD
ATOM     58  C   UNL A   1      45.865  26.998  28.632  1.00  0.00     0.074 A 
ATOM     59  C   UNL A   1      46.294  25.694  28.177  1.00  0.00     0.031 C 
ATOM     60  C   UNL A   1      46.710  28.010  28.954  1.00  0.00     0.037 A 
BRANCH  47  61
ATOM     61  C   UNL A   1      43.810  33.188  30.688  1.00  0.00     0.058 A 
ATOM     62  C   UNL A   1      43.920  34.274  29.807  1.00  0.00     0.135 A 
ATOM     63  C   UNL A   1      43.792  33.464  32.067  1.00  0.00     0.135 A 
ATOM     64  F   UNL A   1      43.963  34.067  28.481  1.00  0.00    -0.206 F 
ATOM     65  C   UNL A   1      44.043  35.579  30.275  1.00  0.00     0.059 A 
ATOM     66  C   UNL A   1      43.879  34.763  32.555  1.00  0.00     0.059 A 
ATOM     67  F   UNL A   1      43.688  32.463  32.955  1.00  0.00    -0.206 F 
ATOM     68  C   UNL A   1      44.023  35.813  31.651  1.00  0.00     0.060 A 
BRANCH  68  69
ATOM     69  S   UNL A   1      44.188  37.511  32.243  1.00  0.00     0.124 S 
ATOM     70  O   UNL A   1      45.608  37.565  32.577  1.00  0.00    -0.237 OA
ATOM     71  O   UNL A   1      43.780  38.289  31.078  1.00  0.00    -0.237 OA
ATOM     72  O   UNL A   1      43.275  37.566  33.381  1.00  0.00    -0.744 OA
ENDBRANCH  68  69
ENDBRANCH  47  61
BRANCH  48  73
ATOM     73  C   UNL A   1      42.568  23.796  27.605  1.00  0.00     0.058 A 
ATOM     74  C   UNL A   1      42.416  23.520  26.238  1.00  0.00     0.135 A 
ATOM     75  C   UNL A   1      42.525  22.708  28.494  1.00  0.00     0.135 A 
ATOM     76  F   UNL A   1      42.420  24.523  25.347  1.00  0.00    -0.206 F 
ATOM     77  C   UNL A   1      42.218  22.223  25.770  1.00  0.00     0.059 A 
ATOM     78  C   UNL A   1      42.362  21.400  28.048  1.00  0.00     0.059 A 
ATOM     79  F   UNL A   1      42.656  22.911  29.814  1.00  0.00    -0.206 F 
ATOM     80  C   UNL A   1      42.200  21.167  26.684  1.00  0.00     0.060 A 
BRANCH  80  81
ATOM     81  S   UNL A   1      41.995  19.483  26.064  1.00  0.00     0.124 S 
ATOM     82  O   UNL A   1      42.869  19.488  24.897  1.00  0.00    -0.237 OA
ATOM     83  O   UNL A   1      42.450  18.682  27.197  1.00  0.00    -0.237 OA
ATOM     84  O   UNL A   1      40.566  19.399  25.781  1.00  0.00    -0.744 OA
ENDBRANCH  80  81
ENDBRANCH  48  73
BRANCH  60  85
ATOM     85  C   UNL A   1      48.192  27.744  28.882  1.00  0.00     0.058 A 
ATOM     86  C   UNL A   1      48.890  27.135  29.937  1.00  0.00     0.135 A 
ATOM     87  C   UNL A   1      48.910  28.042  27.711  1.00  0.00     0.135 A 
ATOM     88  F   UNL A   1      48.258  26.832  31.081  1.00  0.00    -0.206 F 
ATOM     89  C   UNL A   1      50.252  26.852  29.841  1.00  0.00     0.059 A 
ATOM     90  C   UNL A   1      50.263  27.741  27.583  1.00  0.00     0.059 A 
ATOM     91  F   UNL A   1      48.291  28.613  26.666  1.00  0.00    -0.206 F 
ATOM     92  C   UNL A   1      50.929  27.155  28.659  1.00  0.00     0.060 A 
BRANCH  92  93
ATOM     93  S   UNL A   1      52.684  26.747  28.535  1.00  0.00     0.124 S 
ATOM     94  O   UNL A   1      52.679  25.742  27.477  1.00  0.00    -0.237 OA
ATOM     95  O   UNL A   1      53.280  28.034  28.184  1.00  0.00    -0.237 OA
ATOM     96  O   UNL A   1      53.015  26.253  29.868  1.00  0.00    -0.744 OA
ENDBRANCH  92  93
ENDBRANCH  60  85
ENDBRANCH  34  35
ENDBRANCH  27  29
ENDBRANCH  26  27
ENDBRANCH   1  26
TORSDOF 16
ENDMDL
MODEL 2
REMARK VINA RESULT:     -13.3      4.119      9.675
REMARK SMILES Cc1ccc2nc(NC(=O)[C@H]3CC=CC[C@@H]3C(=O)OCCOC(=O)c3ccc(-c4c5nc(c(-c6c(F)cc(S(=O)(=O)[O-])cc6F)c6ccc([nH]6)c(-c6c(F)cc(S(=O)(=O)[O-])cc6F)c6nc(c(-c7c(F)cc(S(=O)(=O)[O-])cc7F)c7ccc4[nH]7)C=C6)C=C5)cc3)sc2c1
REMARK SMILES IDX 21 1 20 2 19 3 17 4 18 5 16 6 11 7 12 8 13 9 15 10 14 11
REMARK SMILES IDX 9 12 8 13 10 15 7 16 1 17 2 18 3 19 93 20 4 21 92 22 5 23
REMARK SMILES IDX 91 24 6 25 22 26 23 27 24 28 25 29 26 30 90 31 27 32 89 33
REMARK SMILES IDX 28 34 29 35 30 36 83 37 31 38 88 39 82 40 84 41 32 42 87 43
REMARK SMILES IDX 81 44 80 45 33 47 67 48 46 49 66 50 47 51 50 52 65 53 85 54
REMARK SMILES IDX 48 55 49 56 64 58 86 59 51 60 34 61 35 62 44 63 36 64 37 65
REMARK SMILES IDX 43 66 45 67 38 68 39 69 40 70 41 71 42 72 68 73 69 74 78 75
REMARK SMILES IDX 70 76 71 77 77 78 79 79 72 80 73 81 74 82 75 83 76 84 52 85
REMARK SMILES IDX 53 86 62 87 54 88 55 89 61 90 63 91 56 92 57 93 58 94 59 95
REMARK SMILES IDX 60 96
REMARK H PARENT 8 14 84 46 50 57
REMARK Flexibility Score: inf
ROOT
ATOM      1  C   UNL A   1      38.538  21.931  25.748  1.00  0.00     0.275 C 
ENDROOT
BRANCH   1   2
ATOM      2  C   UNL A   1      37.171  23.647  25.689  1.00  0.00     0.274 C 
BRANCH   2   3
ATOM      3  O   UNL A   1      35.891  23.889  24.633  1.00  0.00    -0.462 OA
BRANCH   3   4
ATOM      4  C   UNL A   1      35.618  23.117  23.516  1.00  0.00     0.310 C 
ATOM      5  O   UNL A   1      36.360  23.020  22.549  1.00  0.00    -0.252 OA
BRANCH   4   6
ATOM      6  C   UNL A   1      34.299  22.324  23.702  1.00  0.00     0.116 C 
ATOM      7  C   UNL A   1      33.115  23.208  24.212  1.00  0.00     0.097 C 
ATOM      8  C   UNL A   1      32.646  23.046  25.672  1.00  0.00     0.041 C 
ATOM      9  C   UNL A   1      33.470  22.138  26.518  1.00  0.00    -0.030 C 
ATOM     10  C   UNL A   1      34.527  21.067  24.543  1.00  0.00     0.043 C 
ATOM     11  C   UNL A   1      34.321  21.241  26.012  1.00  0.00    -0.030 C 
BRANCH   7  12
ATOM     12  C   UNL A   1      31.940  23.107  23.195  1.00  0.00     0.230 C 
ATOM     13  N   UNL A   1      31.353  24.250  22.692  1.00  0.00    -0.302 N 
ATOM     14  H   UNL A   1      30.775  24.176  21.898  1.00  0.00     0.172 HD
ATOM     15  O   UNL A   1      31.613  22.026  22.694  1.00  0.00    -0.274 OA
BRANCH  13  16
ATOM     16  C   UNL A   1      31.545  25.478  23.254  1.00  0.00     0.190 A 
ATOM     17  C   UNL A   1      34.698  29.929  27.293  1.00  0.00     0.044 C 
ATOM     18  C   UNL A   1      33.739  28.956  26.675  1.00  0.00    -0.050 A 
ATOM     19  C   UNL A   1      32.296  28.421  27.552  1.00  0.00     0.006 A 
ATOM     20  C   UNL A   1      34.044  28.411  25.002  1.00  0.00     0.024 A 
ATOM     21  C   UNL A   1      31.194  27.226  26.771  1.00  0.00     0.030 A 
ATOM     22  C   UNL A   1      32.958  27.236  24.211  1.00  0.00     0.057 A 
ATOM     23  C   UNL A   1      31.497  26.716  25.033  1.00  0.00     0.084 A 
ATOM     24  S   UNL A   1      32.916  26.361  22.718  1.00  0.00    -0.097 S 
ATOM     25  N   UNL A   1      30.798  25.893  24.238  1.00  0.00    -0.220 NA
ENDBRANCH  13  16
ENDBRANCH   7  12
ENDBRANCH   4   6
ENDBRANCH   3   4
ENDBRANCH   2   3
ENDBRANCH   1   2
BRANCH   1  26
ATOM     26  O   UNL A   1      40.008  21.885  26.564  1.00  0.00    -0.458 OA
BRANCH  26  27
ATOM     27  C   UNL A   1      41.027  22.756  26.327  1.00  0.00     0.338 C 
ATOM     28  O   UNL A   1      41.957  22.559  25.561  1.00  0.00    -0.246 OA
BRANCH  27  29
ATOM     29  C   UNL A   1      40.747  24.095  26.956  1.00  0.00     0.060 A 
ATOM     30  C   UNL A   1      41.592  25.180  26.679  1.00  0.00     0.016 A 
ATOM     31  C   UNL A   1      39.790  24.268  27.950  1.00  0.00     0.016 A 
ATOM     32  C   UNL A   1      41.564  26.373  27.406  1.00  0.00     0.010 A 
ATOM     33  C   UNL A   1      39.724  25.493  28.660  1.00  0.00     0.010 A 
ATOM     34  C   UNL A   1      40.643  26.542  28.431  1.00  0.00    -0.014 A 
BRANCH  34  35
ATOM     35  C   UNL A   1      40.767  27.706  29.368  1.00  0.00     0.031 A 
ATOM     36  C   UNL A   1      41.919  27.720  30.344  1.00  0.00     0.074 A 
ATOM     37  C   UNL A   1      39.950  28.781  29.335  1.00  0.00     0.049 A 
ATOM     38  N   UNL A   1      42.109  28.462  31.404  1.00  0.00    -0.248 NA
ATOM     39  C   UNL A   1      43.004  26.762  30.079  1.00  0.00     0.031 C 
ATOM     40  C   UNL A   1      38.893  29.027  28.354  1.00  0.00     0.029 A 
ATOM     41  N   UNL A   1      39.883  29.877  30.170  1.00  0.00    -0.354 N 
ATOM     42  C   UNL A   1      43.302  28.020  31.968  1.00  0.00     0.074 A 
ATOM     43  C   UNL A   1      43.790  26.946  31.130  1.00  0.00     0.031 C 
ATOM     44  C   UNL A   1      38.270  30.179  28.658  1.00  0.00     0.029 A 
ATOM     45  C   UNL A   1      38.825  30.718  29.898  1.00  0.00     0.049 A 
ATOM     46  H   UNL A   1      40.529  30.043  30.894  1.00  0.00     0.167 HD
ATOM     47  C   UNL A   1      43.928  28.460  33.086  1.00  0.00     0.037 A 
ATOM     48  C   UNL A   1      38.319  31.759  30.595  1.00  0.00     0.037 A 
ATOM     49  C   UNL A   1      43.466  29.558  33.895  1.00  0.00     0.049 A 
ATOM     50  C   UNL A   1      38.956  32.164  31.904  1.00  0.00     0.074 A 
ATOM     51  C   UNL A   1      44.017  30.056  35.063  1.00  0.00     0.029 A 
ATOM     52  N   UNL A   1      42.354  30.338  33.617  1.00  0.00    -0.354 N 
ATOM     53  N   UNL A   1      40.019  31.670  32.494  1.00  0.00    -0.248 NA
ATOM     54  C   UNL A   1      38.313  33.255  32.654  1.00  0.00     0.031 C 
ATOM     55  C   UNL A   1      43.209  31.102  35.519  1.00  0.00     0.029 A 
ATOM     56  C   UNL A   1      42.189  31.298  34.602  1.00  0.00     0.049 A 
ATOM     57  H   UNL A   1      41.767  30.225  32.834  1.00  0.00     0.167 HD
ATOM     58  C   UNL A   1      40.187  32.410  33.663  1.00  0.00     0.074 A 
ATOM     59  C   UNL A   1      39.122  33.389  33.695  1.00  0.00     0.031 C 
ATOM     60  C   UNL A   1      41.138  32.285  34.623  1.00  0.00     0.037 A 
BRANCH  47  61
ATOM     61  C   UNL A   1      45.149  27.707  33.539  1.00  0.00     0.058 A 
ATOM     62  C   UNL A   1      46.449  28.090  33.177  1.00  0.00     0.135 A 
ATOM     63  C   UNL A   1      45.008  26.583  34.372  1.00  0.00     0.135 A 
ATOM     64  F   UNL A   1      46.643  29.143  32.366  1.00  0.00    -0.206 F 
ATOM     65  C   UNL A   1      47.563  27.368  33.595  1.00  0.00     0.059 A 
ATOM     66  C   UNL A   1      46.108  25.866  34.829  1.00  0.00     0.059 A 
ATOM     67  F   UNL A   1      43.787  26.172  34.750  1.00  0.00    -0.206 F 
ATOM     68  C   UNL A   1      47.382  26.256  34.420  1.00  0.00     0.060 A 
BRANCH  68  69
ATOM     69  S   UNL A   1      48.835  25.325  34.950  1.00  0.00     0.124 S 
ATOM     70  O   UNL A   1      48.273  24.481  36.000  1.00  0.00    -0.237 OA
ATOM     71  O   UNL A   1      49.228  24.636  33.726  1.00  0.00    -0.237 OA
ATOM     72  O   UNL A   1      49.757  26.361  35.406  1.00  0.00    -0.744 OA
ENDBRANCH  68  69
ENDBRANCH  47  61
BRANCH  48  73
ATOM     73  C   UNL A   1      37.088  32.457  30.118  1.00  0.00     0.058 A 
ATOM     74  C   UNL A   1      37.155  33.528  29.215  1.00  0.00     0.135 A 
ATOM     75  C   UNL A   1      35.816  32.082  30.584  1.00  0.00     0.135 A 
ATOM     76  F   UNL A   1      38.345  33.948  28.759  1.00  0.00    -0.206 F 
ATOM     77  C   UNL A   1      36.012  34.209  28.799  1.00  0.00     0.059 A 
ATOM     78  C   UNL A   1      34.658  32.724  30.158  1.00  0.00     0.059 A 
ATOM     79  F   UNL A   1      35.690  31.070  31.455  1.00  0.00    -0.206 F 
ATOM     80  C   UNL A   1      34.766  33.794  29.272  1.00  0.00     0.060 A 
BRANCH  80  81
ATOM     81  S   UNL A   1      33.285  34.647  28.686  1.00  0.00     0.124 S 
ATOM     82  O   UNL A   1      33.854  35.838  28.068  1.00  0.00    -0.237 OA
ATOM     83  O   UNL A   1      32.708  33.667  27.771  1.00  0.00    -0.237 OA
ATOM     84  O   UNL A   1      32.522  34.874  29.910  1.00  0.00    -0.744 OA
ENDBRANCH  80  81
ENDBRANCH  48  73
BRANCH  60  85
ATOM     85  C   UNL A   1      41.117  33.262  35.771  1.00  0.00     0.058 A 
ATOM     86  C   UNL A   1      41.823  34.475  35.729  1.00  0.00     0.135 A 
ATOM     87  C   UNL A   1      40.323  33.010  36.903  1.00  0.00     0.135 A 
ATOM     88  F   UNL A   1      42.601  34.769  34.675  1.00  0.00    -0.206 F 
ATOM     89  C   UNL A   1      41.759  35.391  36.776  1.00  0.00     0.059 A 
ATOM     90  C   UNL A   1      40.221  33.924  37.947  1.00  0.00     0.059 A 
ATOM     91  F   UNL A   1      39.616  31.872  36.992  1.00  0.00    -0.206 F 
ATOM     92  C   UNL A   1      40.953  35.109  37.881  1.00  0.00     0.060 A 
BRANCH  92  93
ATOM     93  S   UNL A   1      40.850  36.323  39.213  1.00  0.00     0.124 S 
ATOM     94  O   UNL A   1      40.174  35.559  40.258  1.00  0.00    -0.237 OA
ATOM     95  O   UNL A   1      42.255  36.634  39.462  1.00  0.00    -0.237 OA
ATOM     96  O   UNL A   1      40.069  37.409  38.627  1.00  0.00    -0.744 OA
ENDBRANCH  92  93
ENDBRANCH  60  85
ENDBRANCH  34  35
ENDBRANCH  27  29
ENDBRANCH  26  27
ENDBRANCH   1  26
TORSDOF 16
ENDMDL
MODEL 3
REMARK VINA RESULT:     -13.2      3.769      9.647
REMARK SMILES Cc1ccc2nc(NC(=O)[C@H]3CC=CC[C@@H]3C(=O)OCCOC(=O)c3ccc(-c4c5nc(c(-c6c(F)cc(S(=O)(=O)[O-])cc6F)c6ccc([nH]6)c(-c6c(F)cc(S(=O)(=O)[O-])cc6F)c6nc(c(-c7c(F)cc(S(=O)(=O)[O-])cc7F)c7ccc4[nH]7)C=C6)C=C5)cc3)sc2c1
REMARK SMILES IDX 21 1 20 2 19 3 17 4 18 5 16 6 11 7 12 8 13 9 15 10 14 11
REMARK SMILES IDX 9 12 8 13 10 15 7 16 1 17 2 18 3 19 93 20 4 21 92 22 5 23
REMARK SMILES IDX 91 24 6 25 22 26 23 27 24 28 25 29 26 30 90 31 27 32 89 33
REMARK SMILES IDX 28 34 29 35 30 36 83 37 31 38 88 39 82 40 84 41 32 42 87 43
REMARK SMILES IDX 81 44 80 45 33 47 67 48 46 49 66 50 47 51 50 52 65 53 85 54
REMARK SMILES IDX 48 55 49 56 64 58 86 59 51 60 34 61 35 62 44 63 36 64 37 65
REMARK SMILES IDX 43 66 45 67 38 68 39 69 40 70 41 71 42 72 68 73 69 74 78 75
REMARK SMILES IDX 70 76 71 77 77 78 79 79 72 80 73 81 74 82 75 83 76 84 52 85
REMARK SMILES IDX 53 86 62 87 54 88 55 89 61 90 63 91 56 92 57 93 58 94 59 95
REMARK SMILES IDX 60 96
REMARK H PARENT 8 14 84 46 50 57
REMARK Flexibility Score: inf
ROOT
ATOM      1  C   UNL A   1      35.451  23.379  25.913  1.00  0.00     0.275 C 
ENDROOT
BRANCH   1   2
ATOM      2  C   UNL A   1      33.575  24.468  25.580  1.00  0.00     0.274 C 
BRANCH   2   3
ATOM      3  O   UNL A   1      33.167  25.987  26.160  1.00  0.00    -0.462 OA
BRANCH   3   4
ATOM      4  C   UNL A   1      31.888  26.398  26.498  1.00  0.00     0.310 C 
ATOM      5  O   UNL A   1      30.993  25.643  26.850  1.00  0.00    -0.252 OA
BRANCH   4   6
ATOM      6  C   UNL A   1      31.777  27.944  26.462  1.00  0.00     0.116 C 
ATOM      7  C   UNL A   1      32.182  28.560  25.084  1.00  0.00     0.097 C 
ATOM      8  C   UNL A   1      33.523  29.312  24.975  1.00  0.00     0.041 C 
ATOM      9  C   UNL A   1      34.389  29.267  26.187  1.00  0.00    -0.030 C 
ATOM     10  C   UNL A   1      32.505  28.575  27.650  1.00  0.00     0.043 C 
ATOM     11  C   UNL A   1      33.932  28.936  27.398  1.00  0.00    -0.030 C 
BRANCH   7  12
ATOM     12  C   UNL A   1      30.986  29.393  24.536  1.00  0.00     0.230 C 
ATOM     13  N   UNL A   1      30.012  28.791  23.766  1.00  0.00    -0.302 N 
ATOM     14  H   UNL A   1      29.163  29.268  23.618  1.00  0.00     0.172 HD
ATOM     15  O   UNL A   1      30.791  30.556  24.901  1.00  0.00    -0.274 OA
BRANCH  13  16
ATOM     16  C   UNL A   1      30.180  27.559  23.206  1.00  0.00     0.190 A 
ATOM     17  C   UNL A   1      32.365  21.133  23.107  1.00  0.00     0.044 C 
ATOM     18  C   UNL A   1      32.176  22.606  22.894  1.00  0.00    -0.050 A 
ATOM     19  C   UNL A   1      33.353  23.548  21.965  1.00  0.00     0.006 A 
ATOM     20  C   UNL A   1      30.694  23.371  23.531  1.00  0.00     0.024 A 
ATOM     21  C   UNL A   1      33.090  25.321  21.767  1.00  0.00     0.030 A 
ATOM     22  C   UNL A   1      30.413  25.123  23.335  1.00  0.00     0.057 A 
ATOM     23  C   UNL A   1      31.537  26.080  22.386  1.00  0.00     0.084 A 
ATOM     24  S   UNL A   1      29.241  26.281  23.864  1.00  0.00    -0.097 S 
ATOM     25  N   UNL A   1      31.103  27.346  22.310  1.00  0.00    -0.220 NA
ENDBRANCH  13  16
ENDBRANCH   7  12
ENDBRANCH   4   6
ENDBRANCH   3   4
ENDBRANCH   2   3
ENDBRANCH   1   2
BRANCH   1  26
ATOM     26  O   UNL A   1      36.962  23.847  25.344  1.00  0.00    -0.458 OA
BRANCH  26  27
ATOM     27  C   UNL A   1      38.128  23.272  25.748  1.00  0.00     0.338 C 
ATOM     28  O   UNL A   1      38.563  22.204  25.347  1.00  0.00    -0.246 OA
BRANCH  27  29
ATOM     29  C   UNL A   1      38.936  24.226  26.588  1.00  0.00     0.060 A 
ATOM     30  C   UNL A   1      38.756  24.248  27.978  1.00  0.00     0.016 A 
ATOM     31  C   UNL A   1      39.728  25.224  26.031  1.00  0.00     0.016 A 
ATOM     32  C   UNL A   1      39.263  25.260  28.798  1.00  0.00     0.010 A 
ATOM     33  C   UNL A   1      40.286  26.228  26.861  1.00  0.00     0.010 A 
ATOM     34  C   UNL A   1      40.018  26.287  28.248  1.00  0.00    -0.014 A 
BRANCH  34  35
ATOM     35  C   UNL A   1      40.354  27.496  29.069  1.00  0.00     0.031 A 
ATOM     36  C   UNL A   1      41.647  27.495  29.849  1.00  0.00     0.074 A 
ATOM     37  C   UNL A   1      39.602  28.618  29.087  1.00  0.00     0.049 A 
ATOM     38  N   UNL A   1      42.045  28.287  30.811  1.00  0.00    -0.248 NA
ATOM     39  C   UNL A   1      42.622  26.454  29.486  1.00  0.00     0.031 C 
ATOM     40  C   UNL A   1      38.416  28.871  28.270  1.00  0.00     0.029 A 
ATOM     41  N   UNL A   1      39.729  29.765  29.843  1.00  0.00    -0.354 N 
ATOM     42  C   UNL A   1      43.286  27.803  31.211  1.00  0.00     0.074 A 
ATOM     43  C   UNL A   1      43.574  26.651  30.385  1.00  0.00     0.031 C 
ATOM     44  C   UNL A   1      37.914  30.078  28.585  1.00  0.00     0.029 A 
ATOM     45  C   UNL A   1      38.690  30.655  29.681  1.00  0.00     0.049 A 
ATOM     46  H   UNL A   1      40.492  29.933  30.443  1.00  0.00     0.167 HD
ATOM     47  C   UNL A   1      44.107  28.270  32.182  1.00  0.00     0.037 A 
ATOM     48  C   UNL A   1      38.360  31.768  30.372  1.00  0.00     0.037 A 
ATOM     49  C   UNL A   1      43.842  29.444  32.974  1.00  0.00     0.049 A 
ATOM     50  C   UNL A   1      39.220  32.210  31.533  1.00  0.00     0.074 A 
ATOM     51  C   UNL A   1      44.600  29.976  34.003  1.00  0.00     0.029 A 
ATOM     52  N   UNL A   1      42.744  30.275  32.818  1.00  0.00    -0.354 N 
ATOM     53  N   UNL A   1      40.336  31.686  31.983  1.00  0.00    -0.248 NA
ATOM     54  C   UNL A   1      38.766  33.385  32.295  1.00  0.00     0.031 C 
ATOM     55  C   UNL A   1      43.934  31.099  34.504  1.00  0.00     0.029 A 
ATOM     56  C   UNL A   1      42.792  31.304  33.746  1.00  0.00     0.049 A 
ATOM     57  H   UNL A   1      42.033  30.153  32.147  1.00  0.00     0.167 HD
ATOM     58  C   UNL A   1      40.728  32.483  33.056  1.00  0.00     0.074 A 
ATOM     59  C   UNL A   1      39.738  33.530  33.184  1.00  0.00     0.031 C 
ATOM     60  C   UNL A   1      41.813  32.356  33.862  1.00  0.00     0.037 A 
BRANCH  47  61
ATOM     61  C   UNL A   1      45.343  27.468  32.491  1.00  0.00     0.058 A 
ATOM     62  C   UNL A   1      45.360  26.452  33.458  1.00  0.00     0.135 A 
ATOM     63  C   UNL A   1      46.533  27.719  31.785  1.00  0.00     0.135 A 
ATOM     64  F   UNL A   1      44.257  26.184  34.176  1.00  0.00    -0.206 F 
ATOM     65  C   UNL A   1      46.519  25.735  33.737  1.00  0.00     0.059 A 
ATOM     66  C   UNL A   1      47.694  26.991  32.025  1.00  0.00     0.059 A 
ATOM     67  F   UNL A   1      46.574  28.680  30.849  1.00  0.00    -0.206 F 
ATOM     68  C   UNL A   1      47.682  26.013  33.016  1.00  0.00     0.060 A 
BRANCH  68  69
ATOM     69  S   UNL A   1      49.180  25.078  33.394  1.00  0.00     0.124 S 
ATOM     70  O   UNL A   1      49.818  25.011  32.083  1.00  0.00    -0.237 OA
ATOM     71  O   UNL A   1      49.839  25.930  34.378  1.00  0.00    -0.237 OA
ATOM     72  O   UNL A   1      48.671  23.811  33.908  1.00  0.00    -0.744 OA
ENDBRANCH  68  69
ENDBRANCH  47  61
BRANCH  48  73
ATOM     73  C   UNL A   1      37.108  32.514  30.045  1.00  0.00     0.058 A 
ATOM     74  C   UNL A   1      37.088  33.524  29.072  1.00  0.00     0.135 A 
ATOM     75  C   UNL A   1      35.908  32.250  30.728  1.00  0.00     0.135 A 
ATOM     76  F   UNL A   1      38.212  33.838  28.409  1.00  0.00    -0.206 F 
ATOM     77  C   UNL A   1      35.932  34.250  28.793  1.00  0.00     0.059 A 
ATOM     78  C   UNL A   1      34.733  32.939  30.444  1.00  0.00     0.059 A 
ATOM     79  F   UNL A   1      35.868  31.301  31.676  1.00  0.00    -0.206 F 
ATOM     80  C   UNL A   1      34.756  33.944  29.481  1.00  0.00     0.060 A 
BRANCH  80  81
ATOM     81  S   UNL A   1      33.249  34.855  29.075  1.00  0.00     0.124 S 
ATOM     82  O   UNL A   1      32.637  33.986  28.078  1.00  0.00    -0.237 OA
ATOM     83  O   UNL A   1      32.573  34.918  30.368  1.00  0.00    -0.237 OA
ATOM     84  O   UNL A   1      33.751  36.131  28.577  1.00  0.00    -0.744 OA
ENDBRANCH  80  81
ENDBRANCH  48  73
BRANCH  60  85
ATOM     85  C   UNL A   1      42.030  33.402  34.926  1.00  0.00     0.058 A 
ATOM     86  C   UNL A   1      42.761  34.575  34.679  1.00  0.00     0.135 A 
ATOM     87  C   UNL A   1      41.439  33.257  36.193  1.00  0.00     0.135 A 
ATOM     88  F   UNL A   1      43.352  34.766  33.489  1.00  0.00    -0.206 F 
ATOM     89  C   UNL A   1      42.917  35.555  35.657  1.00  0.00     0.059 A 
ATOM     90  C   UNL A   1      41.557  34.237  37.174  1.00  0.00     0.059 A 
ATOM     91  F   UNL A   1      40.719  32.161  36.481  1.00  0.00    -0.206 F 
ATOM     92  C   UNL A   1      42.308  35.379  36.901  1.00  0.00     0.060 A 
BRANCH  92  93
ATOM     93  S   UNL A   1      42.485  36.676  38.145  1.00  0.00     0.124 S 
ATOM     94  O   UNL A   1      43.147  35.958  39.229  1.00  0.00    -0.237 OA
ATOM     95  O   UNL A   1      43.301  37.667  37.449  1.00  0.00    -0.237 OA
ATOM     96  O   UNL A   1      41.108  37.084  38.412  1.00  0.00    -0.744 OA
ENDBRANCH  92  93
ENDBRANCH  60  85
ENDBRANCH  34  35
ENDBRANCH  27  29
ENDBRANCH  26  27
ENDBRANCH   1  26
TORSDOF 16
ENDMDL
