MODEL 1
REMARK VINA RESULT:     -12.7      0.000      0.000
REMARK SMILES Cc1ccc(Nc2c(F)cccc2Cl)c(CC(=O)OCCOC(=O)c2ccc(-c3c4nc(c(-c5c(F)cc(S(=O)(=O)[O-])cc5F)c5ccc([nH]5)c(-c5c(F)cc(S(=O)(=O)[O-])cc5F)c5nc(c(-c6c(F)cc(S(=O)(=O)[O-])cc6F)c6ccc3[nH]6)C=C5)C=C4)cc2)c1
REMARK SMILES IDX 20 1 19 2 17 3 18 4 16 5 15 6 1 7 2 8 3 9 91 10 4 11 5 12
REMARK SMILES IDX 6 13 7 15 8 16 13 17 9 18 10 19 12 20 14 21 11 22 21 23
REMARK SMILES IDX 22 24 23 25 24 26 25 27 26 28 90 29 27 30 89 31 28 32 29 33
REMARK SMILES IDX 30 34 83 35 31 36 88 37 82 38 84 39 32 40 87 41 81 42 80 43
REMARK SMILES IDX 33 45 67 46 46 47 66 48 47 49 50 50 65 51 85 52 48 53 49 54
REMARK SMILES IDX 64 56 86 57 51 58 34 59 35 60 44 61 36 62 37 63 43 64 45 65
REMARK SMILES IDX 38 66 39 67 40 68 41 69 42 70 68 71 69 72 78 73 70 74 71 75
REMARK SMILES IDX 77 76 79 77 72 78 73 79 74 80 75 81 76 82 52 83 53 84 62 85
REMARK SMILES IDX 54 86 55 87 61 88 63 89 56 90 57 91 58 92 59 93 60 94
REMARK H PARENT 6 14 84 44 50 55
REMARK Flexibility Score: inf
ROOT
ATOM      1  C   UNL A   1      33.066  30.518  27.209  1.00  0.00     0.274 C 
ENDROOT
BRANCH   1   2
ATOM      2  O   UNL A   1      32.148  30.210  26.161  1.00  0.00    -0.462 OA
BRANCH   2   3
ATOM      3  C   UNL A   1      31.807  28.896  26.064  1.00  0.00     0.310 C 
ATOM      4  O   UNL A   1      31.438  28.217  26.984  1.00  0.00    -0.252 OA
BRANCH   3   5
ATOM      5  C   UNL A   1      31.976  28.475  24.609  1.00  0.00     0.160 C 
BRANCH   5   6
ATOM      6  C   UNL A   1      30.650  28.070  24.019  1.00  0.00    -0.013 A 
ATOM      7  C   UNL A   1      27.723  30.049  22.666  1.00  0.00     0.044 C 
ATOM      8  C   UNL A   1      28.553  28.891  23.120  1.00  0.00    -0.051 A 
ATOM      9  C   UNL A   1      27.991  27.634  23.356  1.00  0.00     0.005 A 
ATOM     10  C   UNL A   1      29.887  29.098  23.447  1.00  0.00     0.009 A 
ATOM     11  C   UNL A   1      28.766  26.587  23.872  1.00  0.00     0.026 A 
ATOM     12  C   UNL A   1      30.115  26.769  24.184  1.00  0.00     0.042 A 
BRANCH  12  13
ATOM     13  N   UNL A   1      30.858  25.754  24.814  1.00  0.00    -0.352 N 
ATOM     14  H   UNL A   1      31.253  26.020  25.676  1.00  0.00     0.167 HD
BRANCH  13  15
ATOM     15  C   UNL A   1      31.142  24.417  24.434  1.00  0.00     0.094 A 
ATOM     16  C   UNL A   1      31.772  24.137  23.214  1.00  0.00     0.148 A 
ATOM     17  C   UNL A   1      31.079  23.371  25.375  1.00  0.00     0.067 A 
ATOM     18  F   UNL A   1      31.877  25.088  22.273  1.00  0.00    -0.205 F 
ATOM     19  C   UNL A   1      32.316  22.879  22.936  1.00  0.00     0.041 A 
ATOM     20  C   UNL A   1      31.669  22.125  25.125  1.00  0.00     0.023 A 
ATOM     21  Cl  UNL A   1      30.166  23.530  26.834  1.00  0.00    -0.082 Cl
ATOM     22  C   UNL A   1      32.289  21.879  23.904  1.00  0.00     0.005 A 
ENDBRANCH  13  15
ENDBRANCH  12  13
ENDBRANCH   5   6
ENDBRANCH   3   5
ENDBRANCH   2   3
ENDBRANCH   1   2
BRANCH   1  23
ATOM     23  C   UNL A   1      34.426  29.818  26.992  1.00  0.00     0.275 C 
BRANCH  23  24
ATOM     24  O   UNL A   1      35.243  29.557  28.183  1.00  0.00    -0.458 OA
BRANCH  24  25
ATOM     25  C   UNL A   1      36.183  30.287  28.864  1.00  0.00     0.338 C 
ATOM     26  O   UNL A   1      35.822  31.270  29.509  1.00  0.00    -0.246 OA
BRANCH  25  27
ATOM     27  C   UNL A   1      37.497  29.680  29.176  1.00  0.00     0.060 A 
ATOM     28  C   UNL A   1      37.657  28.760  30.231  1.00  0.00     0.016 A 
ATOM     29  C   UNL A   1      38.490  29.792  28.242  1.00  0.00     0.016 A 
ATOM     30  C   UNL A   1      38.747  27.876  30.217  1.00  0.00     0.010 A 
ATOM     31  C   UNL A   1      39.265  28.696  28.011  1.00  0.00     0.010 A 
ATOM     32  C   UNL A   1      39.524  27.823  29.057  1.00  0.00    -0.014 A 
BRANCH  32  33
ATOM     33  C   UNL A   1      40.820  27.179  28.882  1.00  0.00     0.031 A 
ATOM     34  C   UNL A   1      40.976  25.800  28.414  1.00  0.00     0.074 A 
ATOM     35  C   UNL A   1      41.893  27.973  29.132  1.00  0.00     0.049 A 
ATOM     36  N   UNL A   1      41.678  24.911  29.029  1.00  0.00    -0.248 NA
ATOM     37  C   UNL A   1      40.401  25.333  27.152  1.00  0.00     0.031 C 
ATOM     38  C   UNL A   1      43.308  27.700  28.990  1.00  0.00     0.029 A 
ATOM     39  N   UNL A   1      41.906  29.272  29.638  1.00  0.00    -0.354 N 
ATOM     40  C   UNL A   1      41.926  23.918  28.104  1.00  0.00     0.074 A 
ATOM     41  C   UNL A   1      40.984  24.132  27.024  1.00  0.00     0.031 C 
ATOM     42  C   UNL A   1      43.987  28.618  29.714  1.00  0.00     0.029 A 
ATOM     43  C   UNL A   1      43.029  29.474  30.405  1.00  0.00     0.049 A 
ATOM     44  H   UNL A   1      41.211  29.949  29.468  1.00  0.00     0.167 HD
ATOM     45  C   UNL A   1      43.079  23.191  28.154  1.00  0.00     0.037 A 
ATOM     46  C   UNL A   1      42.883  29.668  31.751  1.00  0.00     0.037 A 
ATOM     47  C   UNL A   1      44.018  23.787  29.107  1.00  0.00     0.049 A 
ATOM     48  C   UNL A   1      43.325  28.439  32.510  1.00  0.00     0.074 A 
ATOM     49  C   UNL A   1      45.083  24.652  28.899  1.00  0.00     0.029 A 
ATOM     50  N   UNL A   1      43.714  23.872  30.464  1.00  0.00    -0.354 N 
ATOM     51  N   UNL A   1      43.545  27.288  31.938  1.00  0.00    -0.248 NA
ATOM     52  C   UNL A   1      43.584  28.400  33.944  1.00  0.00     0.031 C 
ATOM     53  C   UNL A   1      45.367  25.315  30.114  1.00  0.00     0.029 A 
ATOM     54  C   UNL A   1      44.488  24.847  31.074  1.00  0.00     0.049 A 
ATOM     55  H   UNL A   1      43.043  23.317  30.925  1.00  0.00     0.167 HD
ATOM     56  C   UNL A   1      44.009  26.389  32.854  1.00  0.00     0.074 A 
ATOM     57  C   UNL A   1      44.017  27.134  34.101  1.00  0.00     0.031 C 
ATOM     58  C   UNL A   1      44.375  25.123  32.499  1.00  0.00     0.037 A 
BRANCH  45  59
ATOM     59  C   UNL A   1      43.460  22.220  27.058  1.00  0.00     0.058 A 
ATOM     60  C   UNL A   1      42.869  20.945  26.933  1.00  0.00     0.135 A 
ATOM     61  C   UNL A   1      44.427  22.529  26.077  1.00  0.00     0.135 A 
ATOM     62  F   UNL A   1      41.906  20.530  27.763  1.00  0.00    -0.206 F 
ATOM     63  C   UNL A   1      43.254  20.022  25.960  1.00  0.00     0.059 A 
ATOM     64  C   UNL A   1      44.844  21.613  25.101  1.00  0.00     0.059 A 
ATOM     65  F   UNL A   1      45.004  23.743  26.049  1.00  0.00    -0.206 F 
ATOM     66  C   UNL A   1      44.252  20.356  25.055  1.00  0.00     0.060 A 
BRANCH  66  67
ATOM     67  S   UNL A   1      44.760  19.115  23.846  1.00  0.00     0.124 S 
ATOM     68  O   UNL A   1      44.483  19.787  22.580  1.00  0.00    -0.237 OA
ATOM     69  O   UNL A   1      46.171  18.936  24.172  1.00  0.00    -0.237 OA
ATOM     70  O   UNL A   1      43.896  17.976  24.144  1.00  0.00    -0.744 OA
ENDBRANCH  66  67
ENDBRANCH  45  59
BRANCH  46  71
ATOM     71  C   UNL A   1      41.777  30.614  32.123  1.00  0.00     0.058 A 
ATOM     72  C   UNL A   1      41.978  31.976  31.817  1.00  0.00     0.135 A 
ATOM     73  C   UNL A   1      40.453  30.215  32.376  1.00  0.00     0.135 A 
ATOM     74  F   UNL A   1      43.220  32.431  31.582  1.00  0.00    -0.206 F 
ATOM     75  C   UNL A   1      40.922  32.862  31.617  1.00  0.00     0.059 A 
ATOM     76  C   UNL A   1      39.372  31.094  32.192  1.00  0.00     0.059 A 
ATOM     77  F   UNL A   1      40.179  28.939  32.681  1.00  0.00    -0.206 F 
ATOM     78  C   UNL A   1      39.618  32.394  31.747  1.00  0.00     0.060 A 
BRANCH  78  79
ATOM     79  S   UNL A   1      38.290  33.448  31.104  1.00  0.00     0.124 S 
ATOM     80  O   UNL A   1      37.116  32.927  31.793  1.00  0.00    -0.237 OA
ATOM     81  O   UNL A   1      38.748  34.770  31.529  1.00  0.00    -0.237 OA
ATOM     82  O   UNL A   1      38.344  33.214  29.668  1.00  0.00    -0.744 OA
ENDBRANCH  78  79
ENDBRANCH  46  71
BRANCH  58  83
ATOM     83  C   UNL A   1      44.809  24.050  33.452  1.00  0.00     0.058 A 
ATOM     84  C   UNL A   1      43.976  23.010  33.886  1.00  0.00     0.135 A 
ATOM     85  C   UNL A   1      46.165  23.976  33.855  1.00  0.00     0.135 A 
ATOM     86  F   UNL A   1      42.697  22.930  33.487  1.00  0.00    -0.206 F 
ATOM     87  C   UNL A   1      44.440  21.992  34.716  1.00  0.00     0.059 A 
ATOM     88  C   UNL A   1      46.661  22.938  34.629  1.00  0.00     0.059 A 
ATOM     89  F   UNL A   1      47.057  24.912  33.500  1.00  0.00    -0.206 F 
ATOM     90  C   UNL A   1      45.784  21.963  35.078  1.00  0.00     0.060 A 
BRANCH  90  91
ATOM     91  S   UNL A   1      46.419  20.626  36.100  1.00  0.00     0.124 S 
ATOM     92  O   UNL A   1      45.802  20.930  37.387  1.00  0.00    -0.237 OA
ATOM     93  O   UNL A   1      45.915  19.433  35.425  1.00  0.00    -0.237 OA
ATOM     94  O   UNL A   1      47.864  20.815  36.027  1.00  0.00    -0.744 OA
ENDBRANCH  90  91
ENDBRANCH  58  83
ENDBRANCH  32  33
ENDBRANCH  25  27
ENDBRANCH  24  25
ENDBRANCH  23  24
ENDBRANCH   1  23
TORSDOF 17
ENDMDL
MODEL 2
REMARK VINA RESULT:     -12.3      1.658      2.501
REMARK SMILES Cc1ccc(Nc2c(F)cccc2Cl)c(CC(=O)OCCOC(=O)c2ccc(-c3c4nc(c(-c5c(F)cc(S(=O)(=O)[O-])cc5F)c5ccc([nH]5)c(-c5c(F)cc(S(=O)(=O)[O-])cc5F)c5nc(c(-c6c(F)cc(S(=O)(=O)[O-])cc6F)c6ccc3[nH]6)C=C5)C=C4)cc2)c1
REMARK SMILES IDX 20 1 19 2 17 3 18 4 16 5 15 6 1 7 2 8 3 9 91 10 4 11 5 12
REMARK SMILES IDX 6 13 7 15 8 16 13 17 9 18 10 19 12 20 14 21 11 22 21 23
REMARK SMILES IDX 22 24 23 25 24 26 25 27 26 28 90 29 27 30 89 31 28 32 29 33
REMARK SMILES IDX 30 34 83 35 31 36 88 37 82 38 84 39 32 40 87 41 81 42 80 43
REMARK SMILES IDX 33 45 67 46 46 47 66 48 47 49 50 50 65 51 85 52 48 53 49 54
REMARK SMILES IDX 64 56 86 57 51 58 34 59 35 60 44 61 36 62 37 63 43 64 45 65
REMARK SMILES IDX 38 66 39 67 40 68 41 69 42 70 68 71 69 72 78 73 70 74 71 75
REMARK SMILES IDX 77 76 79 77 72 78 73 79 74 80 75 81 76 82 52 83 53 84 62 85
REMARK SMILES IDX 54 86 55 87 61 88 63 89 56 90 57 91 58 92 59 93 60 94
REMARK H PARENT 6 14 84 44 50 55
REMARK Flexibility Score: inf
ROOT
ATOM      1  C   UNL A   1      33.741  28.562  25.966  1.00  0.00     0.274 C 
ENDROOT
BRANCH   1   2
ATOM      2  O   UNL A   1      32.363  28.375  25.646  1.00  0.00    -0.462 OA
BRANCH   2   3
ATOM      3  C   UNL A   1      31.783  27.285  26.218  1.00  0.00     0.310 C 
ATOM      4  O   UNL A   1      31.484  27.202  27.379  1.00  0.00    -0.252 OA
BRANCH   3   5
ATOM      5  C   UNL A   1      31.594  26.232  25.134  1.00  0.00     0.160 C 
BRANCH   5   6
ATOM      6  C   UNL A   1      31.625  24.848  25.730  1.00  0.00    -0.013 A 
ATOM      7  C   UNL A   1      29.032  22.766  27.534  1.00  0.00     0.044 C 
ATOM      8  C   UNL A   1      30.343  23.196  26.958  1.00  0.00    -0.051 A 
ATOM      9  C   UNL A   1      31.540  22.569  27.310  1.00  0.00     0.005 A 
ATOM     10  C   UNL A   1      30.395  24.332  26.160  1.00  0.00     0.009 A 
ATOM     11  C   UNL A   1      32.768  23.046  26.833  1.00  0.00     0.026 A 
ATOM     12  C   UNL A   1      32.838  24.173  26.011  1.00  0.00     0.042 A 
BRANCH  12  13
ATOM     13  N   UNL A   1      34.077  24.721  25.634  1.00  0.00    -0.352 N 
ATOM     14  H   UNL A   1      34.231  25.635  25.968  1.00  0.00     0.167 HD
BRANCH  13  15
ATOM     15  C   UNL A   1      35.145  24.199  24.860  1.00  0.00     0.094 A 
ATOM     16  C   UNL A   1      36.322  23.747  25.472  1.00  0.00     0.148 A 
ATOM     17  C   UNL A   1      34.951  23.845  23.511  1.00  0.00     0.067 A 
ATOM     18  F   UNL A   1      36.570  24.038  26.759  1.00  0.00    -0.205 F 
ATOM     19  C   UNL A   1      37.263  22.978  24.783  1.00  0.00     0.041 A 
ATOM     20  C   UNL A   1      35.864  23.030  22.829  1.00  0.00     0.023 A 
ATOM     21  Cl  UNL A   1      33.641  24.497  22.590  1.00  0.00    -0.082 Cl
ATOM     22  C   UNL A   1      37.022  22.594  23.466  1.00  0.00     0.005 A 
ENDBRANCH  13  15
ENDBRANCH  12  13
ENDBRANCH   5   6
ENDBRANCH   3   5
ENDBRANCH   2   3
ENDBRANCH   1   2
BRANCH   1  23
ATOM     23  C   UNL A   1      33.920  29.568  27.124  1.00  0.00     0.275 C 
BRANCH  23  24
ATOM     24  O   UNL A   1      35.034  29.332  28.051  1.00  0.00    -0.458 OA
BRANCH  24  25
ATOM     25  C   UNL A   1      35.977  30.147  28.622  1.00  0.00     0.338 C 
ATOM     26  O   UNL A   1      35.611  31.168  29.200  1.00  0.00    -0.246 OA
BRANCH  25  27
ATOM     27  C   UNL A   1      37.325  29.610  28.921  1.00  0.00     0.060 A 
ATOM     28  C   UNL A   1      37.564  28.783  30.036  1.00  0.00     0.016 A 
ATOM     29  C   UNL A   1      38.272  29.679  27.936  1.00  0.00     0.016 A 
ATOM     30  C   UNL A   1      38.683  27.937  30.041  1.00  0.00     0.010 A 
ATOM     31  C   UNL A   1      39.075  28.594  27.756  1.00  0.00     0.010 A 
ATOM     32  C   UNL A   1      39.411  27.817  28.855  1.00  0.00    -0.014 A 
BRANCH  32  33
ATOM     33  C   UNL A   1      40.720  27.204  28.672  1.00  0.00     0.031 A 
ATOM     34  C   UNL A   1      40.906  25.815  28.245  1.00  0.00     0.074 A 
ATOM     35  C   UNL A   1      41.775  28.036  28.870  1.00  0.00     0.049 A 
ATOM     36  N   UNL A   1      41.646  24.967  28.873  1.00  0.00    -0.248 NA
ATOM     37  C   UNL A   1      40.317  25.290  27.013  1.00  0.00     0.031 C 
ATOM     38  C   UNL A   1      43.194  27.798  28.704  1.00  0.00     0.029 A 
ATOM     39  N   UNL A   1      41.763  29.351  29.332  1.00  0.00    -0.354 N 
ATOM     40  C   UNL A   1      41.903  23.951  27.976  1.00  0.00     0.074 A 
ATOM     41  C   UNL A   1      40.931  24.103  26.911  1.00  0.00     0.031 C 
ATOM     42  C   UNL A   1      43.863  28.758  29.382  1.00  0.00     0.029 A 
ATOM     43  C   UNL A   1      42.896  29.610  30.067  1.00  0.00     0.049 A 
ATOM     44  H   UNL A   1      41.045  30.001  29.157  1.00  0.00     0.167 HD
ATOM     45  C   UNL A   1      43.077  23.258  28.023  1.00  0.00     0.037 A 
ATOM     46  C   UNL A   1      42.774  29.845  31.408  1.00  0.00     0.037 A 
ATOM     47  C   UNL A   1      44.019  23.913  28.934  1.00  0.00     0.049 A 
ATOM     48  C   UNL A   1      43.268  28.655  32.198  1.00  0.00     0.074 A 
ATOM     49  C   UNL A   1      45.054  24.799  28.673  1.00  0.00     0.029 A 
ATOM     50  N   UNL A   1      43.742  24.034  30.294  1.00  0.00    -0.354 N 
ATOM     51  N   UNL A   1      43.508  27.492  31.659  1.00  0.00    -0.248 NA
ATOM     52  C   UNL A   1      43.559  28.671  33.626  1.00  0.00     0.031 C 
ATOM     53  C   UNL A   1      45.345  25.510  29.859  1.00  0.00     0.029 A 
ATOM     54  C   UNL A   1      44.502  25.051  30.854  1.00  0.00     0.049 A 
ATOM     55  H   UNL A   1      43.098  23.477  30.789  1.00  0.00     0.167 HD
ATOM     56  C   UNL A   1      44.017  26.638  32.593  1.00  0.00     0.074 A 
ATOM     57  C   UNL A   1      44.032  27.424  33.814  1.00  0.00     0.031 C 
ATOM     58  C   UNL A   1      44.412  25.371  32.272  1.00  0.00     0.037 A 
BRANCH  45  59
ATOM     59  C   UNL A   1      43.462  22.262  26.951  1.00  0.00     0.058 A 
ATOM     60  C   UNL A   1      42.876  20.982  26.858  1.00  0.00     0.135 A 
ATOM     61  C   UNL A   1      44.426  22.551  25.962  1.00  0.00     0.135 A 
ATOM     62  F   UNL A   1      41.915  20.584  27.699  1.00  0.00    -0.206 F 
ATOM     63  C   UNL A   1      43.265  20.037  25.908  1.00  0.00     0.059 A 
ATOM     64  C   UNL A   1      44.847  21.613  25.009  1.00  0.00     0.059 A 
ATOM     65  F   UNL A   1      44.998  23.766  25.904  1.00  0.00    -0.206 F 
ATOM     66  C   UNL A   1      44.260  20.353  24.995  1.00  0.00     0.060 A 
BRANCH  66  67
ATOM     67  S   UNL A   1      44.773  19.085  23.816  1.00  0.00     0.124 S 
ATOM     68  O   UNL A   1      43.920  17.959  24.183  1.00  0.00    -0.237 OA
ATOM     69  O   UNL A   1      44.471  19.719  22.538  1.00  0.00    -0.237 OA
ATOM     70  O   UNL A   1      46.193  18.906  24.108  1.00  0.00    -0.744 OA
ENDBRANCH  66  67
ENDBRANCH  45  59
BRANCH  46  71
ATOM     71  C   UNL A   1      41.650  30.771  31.774  1.00  0.00     0.058 A 
ATOM     72  C   UNL A   1      41.799  32.125  31.406  1.00  0.00     0.135 A 
ATOM     73  C   UNL A   1      40.347  30.343  32.084  1.00  0.00     0.135 A 
ATOM     74  F   UNL A   1      43.018  32.607  31.115  1.00  0.00    -0.206 F 
ATOM     75  C   UNL A   1      40.710  32.969  31.203  1.00  0.00     0.059 A 
ATOM     76  C   UNL A   1      39.234  31.180  31.897  1.00  0.00     0.059 A 
ATOM     77  F   UNL A   1      40.122  29.073  32.449  1.00  0.00    -0.206 F 
ATOM     78  C   UNL A   1      39.425  32.467  31.391  1.00  0.00     0.060 A 
BRANCH  78  79
ATOM     79  S   UNL A   1      38.046  33.451  30.746  1.00  0.00     0.124 S 
ATOM     80  O   UNL A   1      38.421  34.806  31.133  1.00  0.00    -0.237 OA
ATOM     81  O   UNL A   1      38.126  33.148  29.318  1.00  0.00    -0.237 OA
ATOM     82  O   UNL A   1      36.888  32.890  31.427  1.00  0.00    -0.744 OA
ENDBRANCH  78  79
ENDBRANCH  46  71
BRANCH  58  83
ATOM     83  C   UNL A   1      44.898  24.343  33.249  1.00  0.00     0.058 A 
ATOM     84  C   UNL A   1      44.185  23.181  33.576  1.00  0.00     0.135 A 
ATOM     85  C   UNL A   1      46.201  24.452  33.793  1.00  0.00     0.135 A 
ATOM     86  F   UNL A   1      42.981  22.930  33.040  1.00  0.00    -0.206 F 
ATOM     87  C   UNL A   1      44.706  22.216  34.435  1.00  0.00     0.059 A 
ATOM     88  C   UNL A   1      46.761  23.474  34.600  1.00  0.00     0.059 A 
ATOM     89  F   UNL A   1      46.978  25.518  33.550  1.00  0.00    -0.206 F 
ATOM     90  C   UNL A   1      45.994  22.370  34.938  1.00  0.00     0.060 A 
BRANCH  90  91
ATOM     91  S   UNL A   1      46.709  21.108  36.001  1.00  0.00     0.124 S 
ATOM     92  O   UNL A   1      45.763  21.097  37.112  1.00  0.00    -0.237 OA
ATOM     93  O   UNL A   1      46.696  19.920  35.152  1.00  0.00    -0.237 OA
ATOM     94  O   UNL A   1      48.034  21.641  36.300  1.00  0.00    -0.744 OA
ENDBRANCH  90  91
ENDBRANCH  58  83
ENDBRANCH  32  33
ENDBRANCH  25  27
ENDBRANCH  24  25
ENDBRANCH  23  24
ENDBRANCH   1  23
TORSDOF 17
ENDMDL
MODEL 3
REMARK VINA RESULT:     -12.2      4.478     11.444
REMARK SMILES Cc1ccc(Nc2c(F)cccc2Cl)c(CC(=O)OCCOC(=O)c2ccc(-c3c4nc(c(-c5c(F)cc(S(=O)(=O)[O-])cc5F)c5ccc([nH]5)c(-c5c(F)cc(S(=O)(=O)[O-])cc5F)c5nc(c(-c6c(F)cc(S(=O)(=O)[O-])cc6F)c6ccc3[nH]6)C=C5)C=C4)cc2)c1
REMARK SMILES IDX 20 1 19 2 17 3 18 4 16 5 15 6 1 7 2 8 3 9 91 10 4 11 5 12
REMARK SMILES IDX 6 13 7 15 8 16 13 17 9 18 10 19 12 20 14 21 11 22 21 23
REMARK SMILES IDX 22 24 23 25 24 26 25 27 26 28 90 29 27 30 89 31 28 32 29 33
REMARK SMILES IDX 30 34 83 35 31 36 88 37 82 38 84 39 32 40 87 41 81 42 80 43
REMARK SMILES IDX 33 45 67 46 46 47 66 48 47 49 50 50 65 51 85 52 48 53 49 54
REMARK SMILES IDX 64 56 86 57 51 58 34 59 35 60 44 61 36 62 37 63 43 64 45 65
REMARK SMILES IDX 38 66 39 67 40 68 41 69 42 70 68 71 69 72 78 73 70 74 71 75
REMARK SMILES IDX 77 76 79 77 72 78 73 79 74 80 75 81 76 82 52 83 53 84 62 85
REMARK SMILES IDX 54 86 55 87 61 88 63 89 56 90 57 91 58 92 59 93 60 94
REMARK H PARENT 6 14 84 44 50 55
REMARK Flexibility Score: inf
ROOT
ATOM      1  C   UNL A   1      37.607  22.470  25.727  1.00  0.00     0.274 C 
ENDROOT
BRANCH   1   2
ATOM      2  O   UNL A   1      36.184  22.381  25.758  1.00  0.00    -0.462 OA
BRANCH   2   3
ATOM      3  C   UNL A   1      35.680  21.145  25.491  1.00  0.00     0.310 C 
ATOM      4  O   UNL A   1      36.309  20.240  25.013  1.00  0.00    -0.252 OA
BRANCH   3   5
ATOM      5  C   UNL A   1      34.214  21.138  25.907  1.00  0.00     0.160 C 
BRANCH   5   6
ATOM      6  C   UNL A   1      33.322  21.032  24.697  1.00  0.00    -0.013 A 
ATOM      7  C   UNL A   1      32.109  18.095  22.642  1.00  0.00     0.044 C 
ATOM      8  C   UNL A   1      32.353  19.503  23.082  1.00  0.00    -0.051 A 
ATOM      9  C   UNL A   1      32.133  20.587  22.229  1.00  0.00     0.005 A 
ATOM     10  C   UNL A   1      32.942  19.737  24.319  1.00  0.00     0.009 A 
ATOM     11  C   UNL A   1      32.456  21.891  22.627  1.00  0.00     0.026 A 
ATOM     12  C   UNL A   1      33.026  22.147  23.875  1.00  0.00     0.042 A 
BRANCH  12  13
ATOM     13  N   UNL A   1      33.462  23.440  24.223  1.00  0.00    -0.352 N 
ATOM     14  H   UNL A   1      34.261  23.741  23.732  1.00  0.00     0.167 HD
BRANCH  13  15
ATOM     15  C   UNL A   1      32.961  24.387  25.153  1.00  0.00     0.094 A 
ATOM     16  C   UNL A   1      33.740  25.480  25.554  1.00  0.00     0.148 A 
ATOM     17  C   UNL A   1      31.590  24.429  25.470  1.00  0.00     0.067 A 
ATOM     18  F   UNL A   1      35.054  25.513  25.278  1.00  0.00    -0.205 F 
ATOM     19  C   UNL A   1      33.189  26.568  26.235  1.00  0.00     0.041 A 
ATOM     20  C   UNL A   1      31.020  25.540  26.106  1.00  0.00     0.023 A 
ATOM     21  Cl  UNL A   1      30.563  23.064  25.203  1.00  0.00    -0.082 Cl
ATOM     22  C   UNL A   1      31.820  26.612  26.488  1.00  0.00     0.005 A 
ENDBRANCH  13  15
ENDBRANCH  12  13
ENDBRANCH   5   6
ENDBRANCH   3   5
ENDBRANCH   2   3
ENDBRANCH   1   2
BRANCH   1  23
ATOM     23  C   UNL A   1      38.091  23.899  26.053  1.00  0.00     0.275 C 
BRANCH  23  24
ATOM     24  O   UNL A   1      39.243  24.029  26.953  1.00  0.00    -0.458 OA
BRANCH  24  25
ATOM     25  C   UNL A   1      40.461  24.649  26.846  1.00  0.00     0.338 C 
ATOM     26  O   UNL A   1      41.261  24.250  26.001  1.00  0.00    -0.246 OA
BRANCH  25  27
ATOM     27  C   UNL A   1      40.643  26.008  27.406  1.00  0.00     0.060 A 
ATOM     28  C   UNL A   1      40.752  27.143  26.579  1.00  0.00     0.016 A 
ATOM     29  C   UNL A   1      40.403  26.185  28.741  1.00  0.00     0.016 A 
ATOM     30  C   UNL A   1      40.461  28.411  27.105  1.00  0.00     0.010 A 
ATOM     31  C   UNL A   1      39.728  27.306  29.117  1.00  0.00     0.010 A 
ATOM     32  C   UNL A   1      39.893  28.470  28.380  1.00  0.00    -0.014 A 
BRANCH  32  33
ATOM     33  C   UNL A   1      39.724  29.644  29.226  1.00  0.00     0.031 A 
ATOM     34  C   UNL A   1      38.593  30.567  29.103  1.00  0.00     0.074 A 
ATOM     35  C   UNL A   1      40.669  29.799  30.189  1.00  0.00     0.049 A 
ATOM     36  N   UNL A   1      38.722  31.844  28.980  1.00  0.00    -0.248 NA
ATOM     37  C   UNL A   1      37.203  30.116  29.185  1.00  0.00     0.031 C 
ATOM     38  C   UNL A   1      40.775  30.788  31.241  1.00  0.00     0.029 A 
ATOM     39  N   UNL A   1      41.825  29.048  30.391  1.00  0.00    -0.354 N 
ATOM     40  C   UNL A   1      37.497  32.382  29.314  1.00  0.00     0.074 A 
ATOM     41  C   UNL A   1      36.551  31.285  29.265  1.00  0.00     0.031 C 
ATOM     42  C   UNL A   1      42.050  30.786  31.693  1.00  0.00     0.029 A 
ATOM     43  C   UNL A   1      42.828  29.841  30.897  1.00  0.00     0.049 A 
ATOM     44  H   UNL A   1      41.912  28.086  30.200  1.00  0.00     0.167 HD
ATOM     45  C   UNL A   1      37.411  33.611  29.900  1.00  0.00     0.037 A 
ATOM     46  C   UNL A   1      43.928  30.089  30.125  1.00  0.00     0.037 A 
ATOM     47  C   UNL A   1      38.738  34.076  30.308  1.00  0.00     0.049 A 
ATOM     48  C   UNL A   1      43.897  31.507  29.605  1.00  0.00     0.074 A 
ATOM     49  C   UNL A   1      39.374  34.013  31.539  1.00  0.00     0.029 A 
ATOM     50  N   UNL A   1      39.741  34.313  29.369  1.00  0.00    -0.354 N 
ATOM     51  N   UNL A   1      42.839  32.268  29.669  1.00  0.00    -0.248 NA
ATOM     52  C   UNL A   1      45.034  32.196  29.007  1.00  0.00     0.031 C 
ATOM     53  C   UNL A   1      40.767  34.132  31.332  1.00  0.00     0.029 A 
ATOM     54  C   UNL A   1      40.987  34.285  29.976  1.00  0.00     0.049 A 
ATOM     55  H   UNL A   1      39.585  34.476  28.411  1.00  0.00     0.167 HD
ATOM     56  C   UNL A   1      43.127  33.515  29.198  1.00  0.00     0.074 A 
ATOM     57  C   UNL A   1      44.519  33.422  28.794  1.00  0.00     0.031 C 
ATOM     58  C   UNL A   1      42.206  34.522  29.214  1.00  0.00     0.037 A 
BRANCH  45  59
ATOM     59  C   UNL A   1      36.103  34.152  30.436  1.00  0.00     0.058 A 
ATOM     60  C   UNL A   1      35.098  34.679  29.597  1.00  0.00     0.135 A 
ATOM     61  C   UNL A   1      35.794  34.155  31.813  1.00  0.00     0.135 A 
ATOM     62  F   UNL A   1      35.230  34.700  28.267  1.00  0.00    -0.206 F 
ATOM     63  C   UNL A   1      33.914  35.231  30.087  1.00  0.00     0.059 A 
ATOM     64  C   UNL A   1      34.620  34.721  32.331  1.00  0.00     0.059 A 
ATOM     65  F   UNL A   1      36.643  33.610  32.702  1.00  0.00    -0.206 F 
ATOM     66  C   UNL A   1      33.686  35.262  31.455  1.00  0.00     0.060 A 
BRANCH  66  67
ATOM     67  S   UNL A   1      32.167  36.033  32.053  1.00  0.00     0.124 S 
ATOM     68  O   UNL A   1      31.496  34.920  32.717  1.00  0.00    -0.237 OA
ATOM     69  O   UNL A   1      32.683  37.077  32.932  1.00  0.00    -0.237 OA
ATOM     70  O   UNL A   1      31.522  36.504  30.830  1.00  0.00    -0.744 OA
ENDBRANCH  66  67
ENDBRANCH  45  59
BRANCH  46  71
ATOM     71  C   UNL A   1      44.477  28.880  29.425  1.00  0.00     0.058 A 
ATOM     72  C   UNL A   1      45.109  27.912  30.233  1.00  0.00     0.135 A 
ATOM     73  C   UNL A   1      44.078  28.464  28.142  1.00  0.00     0.135 A 
ATOM     74  F   UNL A   1      45.534  28.244  31.462  1.00  0.00    -0.206 F 
ATOM     75  C   UNL A   1      45.203  26.572  29.862  1.00  0.00     0.059 A 
ATOM     76  C   UNL A   1      44.172  27.121  27.741  1.00  0.00     0.059 A 
ATOM     77  F   UNL A   1      43.475  29.326  27.310  1.00  0.00    -0.206 F 
ATOM     78  C   UNL A   1      44.674  26.175  28.637  1.00  0.00     0.060 A 
BRANCH  78  79
ATOM     79  S   UNL A   1      44.459  24.396  28.364  1.00  0.00     0.124 S 
ATOM     80  O   UNL A   1      44.446  24.302  26.909  1.00  0.00    -0.237 OA
ATOM     81  O   UNL A   1      45.645  23.862  29.030  1.00  0.00    -0.237 OA
ATOM     82  O   UNL A   1      43.199  24.105  29.033  1.00  0.00    -0.744 OA
ENDBRANCH  78  79
ENDBRANCH  46  71
BRANCH  58  83
ATOM     83  C   UNL A   1      42.411  35.891  28.639  1.00  0.00     0.058 A 
ATOM     84  C   UNL A   1      41.879  36.308  27.411  1.00  0.00     0.135 A 
ATOM     85  C   UNL A   1      43.065  36.884  29.408  1.00  0.00     0.135 A 
ATOM     86  F   UNL A   1      41.159  35.474  26.645  1.00  0.00    -0.206 F 
ATOM     87  C   UNL A   1      42.034  37.612  26.947  1.00  0.00     0.059 A 
ATOM     88  C   UNL A   1      43.175  38.203  28.992  1.00  0.00     0.059 A 
ATOM     89  F   UNL A   1      43.613  36.605  30.600  1.00  0.00    -0.206 F 
ATOM     90  C   UNL A   1      42.680  38.552  27.746  1.00  0.00     0.060 A 
BRANCH  90  91
ATOM     91  S   UNL A   1      42.839  40.256  27.193  1.00  0.00     0.124 S 
ATOM     92  O   UNL A   1      43.198  40.930  28.437  1.00  0.00    -0.237 OA
ATOM     93  O   UNL A   1      43.899  40.175  26.191  1.00  0.00    -0.237 OA
ATOM     94  O   UNL A   1      41.512  40.556  26.667  1.00  0.00    -0.744 OA
ENDBRANCH  90  91
ENDBRANCH  58  83
ENDBRANCH  32  33
ENDBRANCH  25  27
ENDBRANCH  24  25
ENDBRANCH  23  24
ENDBRANCH   1  23
TORSDOF 17
ENDMDL
