MODEL 1
REMARK VINA RESULT:     -10.4      0.000      0.000
REMARK SMILES CCCC[C@H](C(=O)OCCOC(=O)c1ccc(-c2c3nc(c(-c4c(F)cc(S(=O)(=O)[O-])cc4F)c4ccc([nH]4)c(-c4c(F)cc(S(=O)(=O)[O-])cc4F)c4nc(c(-c5c(F)cc(S(=O)(=O)[O-])cc5F)c5ccc2[nH]5)C=C4)C=C3)cc1)[C@H](O)c1ccc(C(F)(F)F)cc1
REMARK SMILES IDX 9 1 8 2 6 3 7 4 5 5 4 6 3 7 2 8 1 9 80 10 82 11 83 12 91 13
REMARK SMILES IDX 84 14 90 15 85 16 86 17 87 18 88 19 89 20 81 21 10 23 11 24
REMARK SMILES IDX 12 25 13 26 14 27 15 28 79 29 16 30 78 31 17 32 18 33 19 34
REMARK SMILES IDX 72 35 20 36 77 37 71 38 73 39 21 40 76 41 70 42 69 43 22 45
REMARK SMILES IDX 56 46 35 47 55 48 36 49 39 50 54 51 74 52 37 53 38 54 53 56
REMARK SMILES IDX 75 57 40 58 23 59 24 60 33 61 25 62 26 63 32 64 34 65 27 66
REMARK SMILES IDX 28 67 29 68 30 69 31 70 57 71 58 72 67 73 59 74 60 75 66 76
REMARK SMILES IDX 68 77 61 78 62 79 63 80 64 81 65 82 41 83 42 84 51 85 43 86
REMARK SMILES IDX 44 87 50 88 52 89 45 90 46 91 47 92 48 93 49 94
REMARK H PARENT 81 22 73 44 39 55
REMARK Flexibility Score: inf
ROOT
ATOM      1  C   UNL A   1      35.969  22.266  24.184  1.00  0.00     0.274 C 
ENDROOT
BRANCH   1   2
ATOM      2  O   UNL A   1      34.597  22.677  24.359  1.00  0.00    -0.462 OA
BRANCH   2   3
ATOM      3  C   UNL A   1      34.072  23.438  23.376  1.00  0.00     0.312 C 
ATOM      4  O   UNL A   1      34.165  23.181  22.178  1.00  0.00    -0.252 OA
BRANCH   3   5
ATOM      5  C   UNL A   1      33.369  24.698  23.839  1.00  0.00     0.132 C 
BRANCH   5   6
ATOM      6  C   UNL A   1      33.925  25.582  24.984  1.00  0.00     0.018 C 
BRANCH   6   7
ATOM      7  C   UNL A   1      33.085  26.137  26.139  1.00  0.00     0.001 C 
BRANCH   7   8
ATOM      8  C   UNL A   1      32.897  27.646  26.247  1.00  0.00    -0.003 C 
ATOM      9  C   UNL A   1      33.843  28.457  25.378  1.00  0.00     0.004 C 
ENDBRANCH   7   8
ENDBRANCH   6   7
ENDBRANCH   5   6
BRANCH   5  10
ATOM     10  C   UNL A   1      32.708  25.442  22.655  1.00  0.00     0.158 C 
BRANCH  10  11
ATOM     11  C   UNL A   1      31.572  26.417  22.850  1.00  0.00    -0.019 A 
ATOM     12  C   UNL A   1      31.746  27.728  22.370  1.00  0.00     0.007 A 
ATOM     13  C   UNL A   1      30.366  26.111  23.479  1.00  0.00     0.007 A 
ATOM     14  C   UNL A   1      30.714  28.664  22.422  1.00  0.00     0.013 A 
ATOM     15  C   UNL A   1      29.317  27.036  23.511  1.00  0.00     0.013 A 
ATOM     16  C   UNL A   1      29.469  28.310  22.954  1.00  0.00     0.056 A 
BRANCH  16  17
ATOM     17  C   UNL A   1      28.325  29.288  22.946  1.00  0.00     0.416 C 
ATOM     18  F   UNL A   1      28.553  30.371  23.737  1.00  0.00    -0.166 F 
ATOM     19  F   UNL A   1      28.052  29.782  21.705  1.00  0.00    -0.166 F 
ATOM     20  F   UNL A   1      27.155  28.745  23.387  1.00  0.00    -0.166 F 
ENDBRANCH  16  17
ENDBRANCH  10  11
BRANCH  10  21
ATOM     21  O   UNL A   1      33.684  26.100  21.834  1.00  0.00    -0.388 OA
ATOM     22  H   UNL A   1      33.926  26.949  22.237  1.00  0.00     0.211 HD
ENDBRANCH  10  21
ENDBRANCH   5  10
ENDBRANCH   3   5
ENDBRANCH   2   3
ENDBRANCH   1   2
BRANCH   1  23
ATOM     23  C   UNL A   1      36.763  22.501  25.466  1.00  0.00     0.275 C 
BRANCH  23  24
ATOM     24  O   UNL A   1      37.919  23.310  25.193  1.00  0.00    -0.458 OA
BRANCH  24  25
ATOM     25  C   UNL A   1      38.984  23.088  25.995  1.00  0.00     0.338 C 
ATOM     26  O   UNL A   1      39.659  22.075  26.080  1.00  0.00    -0.246 OA
BRANCH  25  27
ATOM     27  C   UNL A   1      39.273  24.308  26.755  1.00  0.00     0.060 A 
ATOM     28  C   UNL A   1      40.136  25.259  26.210  1.00  0.00     0.016 A 
ATOM     29  C   UNL A   1      38.767  24.460  28.045  1.00  0.00     0.016 A 
ATOM     30  C   UNL A   1      40.530  26.358  26.964  1.00  0.00     0.010 A 
ATOM     31  C   UNL A   1      39.125  25.588  28.783  1.00  0.00     0.010 A 
ATOM     32  C   UNL A   1      40.021  26.536  28.255  1.00  0.00    -0.014 A 
BRANCH  32  33
ATOM     33  C   UNL A   1      40.435  27.696  29.078  1.00  0.00     0.031 A 
ATOM     34  C   UNL A   1      41.713  27.628  29.861  1.00  0.00     0.074 A 
ATOM     35  C   UNL A   1      39.646  28.786  29.148  1.00  0.00     0.049 A 
ATOM     36  N   UNL A   1      42.140  28.411  30.816  1.00  0.00    -0.248 NA
ATOM     37  C   UNL A   1      42.626  26.522  29.532  1.00  0.00     0.031 C 
ATOM     38  C   UNL A   1      38.412  28.988  28.386  1.00  0.00     0.029 A 
ATOM     39  N   UNL A   1      39.756  29.920  29.911  1.00  0.00    -0.354 N 
ATOM     40  C   UNL A   1      43.348  27.868  31.236  1.00  0.00     0.074 A 
ATOM     41  C   UNL A   1      43.589  26.691  30.428  1.00  0.00     0.031 C 
ATOM     42  C   UNL A   1      37.874  30.169  28.726  1.00  0.00     0.029 A 
ATOM     43  C   UNL A   1      38.687  30.773  29.777  1.00  0.00     0.049 A 
ATOM     44  H   UNL A   1      40.527  30.105  30.496  1.00  0.00     0.167 HD
ATOM     45  C   UNL A   1      44.171  28.311  32.217  1.00  0.00     0.037 A 
ATOM     46  C   UNL A   1      38.369  31.887  30.464  1.00  0.00     0.037 A 
ATOM     47  C   UNL A   1      43.926  29.501  32.989  1.00  0.00     0.049 A 
ATOM     48  C   UNL A   1      39.275  32.338  31.575  1.00  0.00     0.074 A 
ATOM     49  C   UNL A   1      44.693  30.043  34.006  1.00  0.00     0.029 A 
ATOM     50  N   UNL A   1      42.832  30.338  32.822  1.00  0.00    -0.354 N 
ATOM     51  N   UNL A   1      40.389  31.791  32.001  1.00  0.00    -0.248 NA
ATOM     52  C   UNL A   1      38.877  33.547  32.308  1.00  0.00     0.031 C 
ATOM     53  C   UNL A   1      44.048  31.194  34.470  1.00  0.00     0.029 A 
ATOM     54  C   UNL A   1      42.898  31.388  33.721  1.00  0.00     0.049 A 
ATOM     55  H   UNL A   1      42.115  30.204  32.162  1.00  0.00     0.167 HD
ATOM     56  C   UNL A   1      40.832  32.594  33.045  1.00  0.00     0.074 A 
ATOM     57  C   UNL A   1      39.871  33.672  33.179  1.00  0.00     0.031 C 
ATOM     58  C   UNL A   1      41.931  32.452  33.826  1.00  0.00     0.037 A 
BRANCH  45  59
ATOM     59  C   UNL A   1      45.386  27.486  32.531  1.00  0.00     0.058 A 
ATOM     60  C   UNL A   1      45.352  26.441  33.467  1.00  0.00     0.135 A 
ATOM     61  C   UNL A   1      46.601  27.736  31.872  1.00  0.00     0.135 A 
ATOM     62  F   UNL A   1      44.222  26.173  34.140  1.00  0.00    -0.206 F 
ATOM     63  C   UNL A   1      46.487  25.688  33.757  1.00  0.00     0.059 A 
ATOM     64  C   UNL A   1      47.742  26.983  32.131  1.00  0.00     0.059 A 
ATOM     65  F   UNL A   1      46.688  28.727  30.971  1.00  0.00    -0.206 F 
ATOM     66  C   UNL A   1      47.678  25.971  33.087  1.00  0.00     0.060 A 
BRANCH  66  67
ATOM     67  S   UNL A   1      49.147  24.993  33.477  1.00  0.00     0.124 S 
ATOM     68  O   UNL A   1      49.853  25.885  34.391  1.00  0.00    -0.237 OA
ATOM     69  O   UNL A   1      48.576  23.793  34.079  1.00  0.00    -0.237 OA
ATOM     70  O   UNL A   1      49.780  24.798  32.177  1.00  0.00    -0.744 OA
ENDBRANCH  66  67
ENDBRANCH  45  59
BRANCH  46  71
ATOM     71  C   UNL A   1      37.113  32.615  30.148  1.00  0.00     0.058 A 
ATOM     72  C   UNL A   1      35.925  32.336  30.838  1.00  0.00     0.135 A 
ATOM     73  C   UNL A   1      37.085  33.628  29.177  1.00  0.00     0.135 A 
ATOM     74  F   UNL A   1      35.901  31.370  31.768  1.00  0.00    -0.206 F 
ATOM     75  C   UNL A   1      34.751  33.034  30.574  1.00  0.00     0.059 A 
ATOM     76  C   UNL A   1      35.929  34.356  28.912  1.00  0.00     0.059 A 
ATOM     77  F   UNL A   1      38.200  33.941  28.499  1.00  0.00    -0.206 F 
ATOM     78  C   UNL A   1      34.765  34.047  29.613  1.00  0.00     0.060 A 
BRANCH  78  79
ATOM     79  S   UNL A   1      33.254  34.995  29.323  1.00  0.00     0.124 S 
ATOM     80  O   UNL A   1      32.595  34.192  28.300  1.00  0.00    -0.237 OA
ATOM     81  O   UNL A   1      32.627  34.989  30.641  1.00  0.00    -0.237 OA
ATOM     82  O   UNL A   1      33.756  36.293  28.883  1.00  0.00    -0.744 OA
ENDBRANCH  78  79
ENDBRANCH  46  71
BRANCH  58  83
ATOM     83  C   UNL A   1      42.170  33.503  34.869  1.00  0.00     0.058 A 
ATOM     84  C   UNL A   1      42.805  34.714  34.556  1.00  0.00     0.135 A 
ATOM     85  C   UNL A   1      41.702  33.321  36.179  1.00  0.00     0.135 A 
ATOM     86  F   UNL A   1      43.276  34.930  33.317  1.00  0.00    -0.206 F 
ATOM     87  C   UNL A   1      42.978  35.707  35.513  1.00  0.00     0.059 A 
ATOM     88  C   UNL A   1      41.848  34.309  37.147  1.00  0.00     0.059 A 
ATOM     89  F   UNL A   1      41.083  32.181  36.524  1.00  0.00    -0.206 F 
ATOM     90  C   UNL A   1      42.494  35.497  36.806  1.00  0.00     0.060 A 
BRANCH  90  91
ATOM     91  S   UNL A   1      42.681  36.810  38.028  1.00  0.00     0.124 S 
ATOM     92  O   UNL A   1      41.292  37.150  38.311  1.00  0.00    -0.237 OA
ATOM     93  O   UNL A   1      43.402  36.138  39.106  1.00  0.00    -0.237 OA
ATOM     94  O   UNL A   1      43.446  37.830  37.315  1.00  0.00    -0.744 OA
ENDBRANCH  90  91
ENDBRANCH  58  83
ENDBRANCH  32  33
ENDBRANCH  25  27
ENDBRANCH  24  25
ENDBRANCH  23  24
ENDBRANCH   1  23
TORSDOF 21
ENDMDL
MODEL 2
REMARK VINA RESULT:     -10.1      5.291     11.519
REMARK SMILES CCCC[C@H](C(=O)OCCOC(=O)c1ccc(-c2c3nc(c(-c4c(F)cc(S(=O)(=O)[O-])cc4F)c4ccc([nH]4)c(-c4c(F)cc(S(=O)(=O)[O-])cc4F)c4nc(c(-c5c(F)cc(S(=O)(=O)[O-])cc5F)c5ccc2[nH]5)C=C4)C=C3)cc1)[C@H](O)c1ccc(C(F)(F)F)cc1
REMARK SMILES IDX 9 1 8 2 6 3 7 4 5 5 4 6 3 7 2 8 1 9 80 10 82 11 83 12 91 13
REMARK SMILES IDX 84 14 90 15 85 16 86 17 87 18 88 19 89 20 81 21 10 23 11 24
REMARK SMILES IDX 12 25 13 26 14 27 15 28 79 29 16 30 78 31 17 32 18 33 19 34
REMARK SMILES IDX 72 35 20 36 77 37 71 38 73 39 21 40 76 41 70 42 69 43 22 45
REMARK SMILES IDX 56 46 35 47 55 48 36 49 39 50 54 51 74 52 37 53 38 54 53 56
REMARK SMILES IDX 75 57 40 58 23 59 24 60 33 61 25 62 26 63 32 64 34 65 27 66
REMARK SMILES IDX 28 67 29 68 30 69 31 70 57 71 58 72 67 73 59 74 60 75 66 76
REMARK SMILES IDX 68 77 61 78 62 79 63 80 64 81 65 82 41 83 42 84 51 85 43 86
REMARK SMILES IDX 44 87 50 88 52 89 45 90 46 91 47 92 48 93 49 94
REMARK H PARENT 81 22 73 44 39 55
REMARK Flexibility Score: inf
ROOT
ATOM      1  C   UNL A   1      35.126  33.649  28.032  1.00  0.00     0.274 C 
ENDROOT
BRANCH   1   2
ATOM      2  O   UNL A   1      34.836  34.754  28.914  1.00  0.00    -0.462 OA
BRANCH   2   3
ATOM      3  C   UNL A   1      34.981  34.517  30.234  1.00  0.00     0.312 C 
ATOM      4  O   UNL A   1      34.251  34.986  31.105  1.00  0.00    -0.252 OA
BRANCH   3   5
ATOM      5  C   UNL A   1      36.161  33.644  30.609  1.00  0.00     0.132 C 
BRANCH   5   6
ATOM      6  C   UNL A   1      37.605  34.199  30.698  1.00  0.00     0.018 C 
BRANCH   6   7
ATOM      7  C   UNL A   1      38.510  34.463  29.490  1.00  0.00     0.001 C 
BRANCH   7   8
ATOM      8  C   UNL A   1      39.851  35.152  29.717  1.00  0.00    -0.003 C 
ATOM      9  C   UNL A   1      40.737  35.217  28.485  1.00  0.00     0.004 C 
ENDBRANCH   7   8
ENDBRANCH   6   7
ENDBRANCH   5   6
BRANCH   5  10
ATOM     10  C   UNL A   1      35.766  32.585  31.664  1.00  0.00     0.158 C 
BRANCH  10  11
ATOM     11  C   UNL A   1      36.182  32.694  33.111  1.00  0.00    -0.019 A 
ATOM     12  C   UNL A   1      37.178  31.814  33.573  1.00  0.00     0.007 A 
ATOM     13  C   UNL A   1      35.642  33.600  34.024  1.00  0.00     0.007 A 
ATOM     14  C   UNL A   1      37.689  31.910  34.867  1.00  0.00     0.013 A 
ATOM     15  C   UNL A   1      36.168  33.720  35.314  1.00  0.00     0.013 A 
ATOM     16  C   UNL A   1      37.219  32.899  35.738  1.00  0.00     0.056 A 
BRANCH  16  17
ATOM     17  C   UNL A   1      37.816  33.060  37.110  1.00  0.00     0.416 C 
ATOM     18  F   UNL A   1      38.371  31.910  37.581  1.00  0.00    -0.166 F 
ATOM     19  F   UNL A   1      38.803  33.999  37.156  1.00  0.00    -0.166 F 
ATOM     20  F   UNL A   1      36.903  33.444  38.048  1.00  0.00    -0.166 F 
ENDBRANCH  16  17
ENDBRANCH  10  11
BRANCH  10  21
ATOM     21  O   UNL A   1      34.353  32.332  31.656  1.00  0.00    -0.388 OA
ATOM     22  H   UNL A   1      33.908  32.964  32.243  1.00  0.00     0.211 HD
ENDBRANCH  10  21
ENDBRANCH   5  10
ENDBRANCH   3   5
ENDBRANCH   2   3
ENDBRANCH   1   2
BRANCH   1  23
ATOM     23  C   UNL A   1      33.947  32.681  27.987  1.00  0.00     0.275 C 
BRANCH  23  24
ATOM     24  O   UNL A   1      34.215  31.532  28.807  1.00  0.00    -0.458 OA
BRANCH  24  25
ATOM     25  C   UNL A   1      34.385  30.369  28.139  1.00  0.00     0.338 C 
ATOM     26  O   UNL A   1      33.573  29.781  27.443  1.00  0.00    -0.246 OA
BRANCH  25  27
ATOM     27  C   UNL A   1      35.763  29.907  28.326  1.00  0.00     0.060 A 
ATOM     28  C   UNL A   1      36.193  29.556  29.606  1.00  0.00     0.016 A 
ATOM     29  C   UNL A   1      36.651  29.916  27.252  1.00  0.00     0.016 A 
ATOM     30  C   UNL A   1      37.528  29.242  29.832  1.00  0.00     0.010 A 
ATOM     31  C   UNL A   1      37.981  29.554  27.471  1.00  0.00     0.010 A 
ATOM     32  C   UNL A   1      38.433  29.230  28.764  1.00  0.00    -0.014 A 
BRANCH  32  33
ATOM     33  C   UNL A   1      39.861  28.907  28.985  1.00  0.00     0.031 A 
ATOM     34  C   UNL A   1      40.797  29.980  29.459  1.00  0.00     0.074 A 
ATOM     35  C   UNL A   1      40.317  27.667  28.725  1.00  0.00     0.049 A 
ATOM     36  N   UNL A   1      42.103  29.985  29.487  1.00  0.00    -0.248 NA
ATOM     37  C   UNL A   1      40.177  31.219  29.956  1.00  0.00     0.031 C 
ATOM     38  C   UNL A   1      39.490  26.529  28.317  1.00  0.00     0.029 A 
ATOM     39  N   UNL A   1      41.592  27.162  28.747  1.00  0.00    -0.354 N 
ATOM     40  C   UNL A   1      42.465  31.241  29.959  1.00  0.00     0.074 A 
ATOM     41  C   UNL A   1      41.240  31.970  30.210  1.00  0.00     0.031 C 
ATOM     42  C   UNL A   1      40.280  25.462  28.118  1.00  0.00     0.029 A 
ATOM     43  C   UNL A   1      41.670  25.859  28.316  1.00  0.00     0.049 A 
ATOM     44  H   UNL A   1      42.374  27.681  29.043  1.00  0.00     0.167 HD
ATOM     45  C   UNL A   1      43.711  31.736  30.152  1.00  0.00     0.037 A 
ATOM     46  C   UNL A   1      42.744  25.089  28.057  1.00  0.00     0.037 A 
ATOM     47  C   UNL A   1      44.916  30.984  29.923  1.00  0.00     0.049 A 
ATOM     48  C   UNL A   1      44.116  25.672  28.240  1.00  0.00     0.074 A 
ATOM     49  C   UNL A   1      46.230  31.386  30.087  1.00  0.00     0.029 A 
ATOM     50  N   UNL A   1      44.951  29.666  29.489  1.00  0.00    -0.354 N 
ATOM     51  N   UNL A   1      44.451  26.878  28.636  1.00  0.00    -0.248 NA
ATOM     52  C   UNL A   1      45.256  24.801  27.926  1.00  0.00     0.031 C 
ATOM     53  C   UNL A   1      47.060  30.320  29.726  1.00  0.00     0.029 A 
ATOM     54  C   UNL A   1      46.264  29.243  29.370  1.00  0.00     0.049 A 
ATOM     55  H   UNL A   1      44.161  29.115  29.293  1.00  0.00     0.167 HD
ATOM     56  C   UNL A   1      45.840  26.907  28.632  1.00  0.00     0.074 A 
ATOM     57  C   UNL A   1      46.284  25.594  28.203  1.00  0.00     0.031 C 
ATOM     58  C   UNL A   1      46.675  27.927  28.949  1.00  0.00     0.037 A 
BRANCH  45  59
ATOM     59  C   UNL A   1      43.828  33.167  30.595  1.00  0.00     0.058 A 
ATOM     60  C   UNL A   1      43.699  33.541  31.941  1.00  0.00     0.135 A 
ATOM     61  C   UNL A   1      44.090  34.179  29.657  1.00  0.00     0.135 A 
ATOM     62  F   UNL A   1      43.427  32.617  32.876  1.00  0.00    -0.206 F 
ATOM     63  C   UNL A   1      43.801  34.872  32.339  1.00  0.00     0.059 A 
ATOM     64  C   UNL A   1      44.217  35.512  30.034  1.00  0.00     0.059 A 
ATOM     65  F   UNL A   1      44.219  33.876  28.355  1.00  0.00    -0.206 F 
ATOM     66  C   UNL A   1      44.054  35.850  31.377  1.00  0.00     0.060 A 
BRANCH  66  67
ATOM     67  S   UNL A   1      44.177  37.574  31.903  1.00  0.00     0.124 S 
ATOM     68  O   UNL A   1      43.715  38.274  30.708  1.00  0.00    -0.237 OA
ATOM     69  O   UNL A   1      43.276  37.618  33.049  1.00  0.00    -0.237 OA
ATOM     70  O   UNL A   1      45.593  37.734  32.216  1.00  0.00    -0.744 OA
ENDBRANCH  66  67
ENDBRANCH  45  59
BRANCH  46  71
ATOM     71  C   UNL A   1      42.554  23.704  27.552  1.00  0.00     0.058 A 
ATOM     72  C   UNL A   1      42.483  23.443  26.176  1.00  0.00     0.135 A 
ATOM     73  C   UNL A   1      42.476  22.614  28.432  1.00  0.00     0.135 A 
ATOM     74  F   UNL A   1      42.544  24.454  25.298  1.00  0.00    -0.206 F 
ATOM     75  C   UNL A   1      42.340  22.147  25.690  1.00  0.00     0.059 A 
ATOM     76  C   UNL A   1      42.356  21.307  27.969  1.00  0.00     0.059 A 
ATOM     77  F   UNL A   1      42.552  22.812  29.757  1.00  0.00    -0.206 F 
ATOM     78  C   UNL A   1      42.282  21.085  26.595  1.00  0.00     0.060 A 
BRANCH  78  79
ATOM     79  S   UNL A   1      42.164  19.400  25.954  1.00  0.00     0.124 S 
ATOM     80  O   UNL A   1      42.617  18.619  27.099  1.00  0.00    -0.237 OA
ATOM     81  O   UNL A   1      40.745  19.291  25.628  1.00  0.00    -0.237 OA
ATOM     82  O   UNL A   1      43.063  19.417  24.805  1.00  0.00    -0.744 OA
ENDBRANCH  78  79
ENDBRANCH  46  71
BRANCH  58  83
ATOM     83  C   UNL A   1      48.148  27.653  28.876  1.00  0.00     0.058 A 
ATOM     84  C   UNL A   1      48.818  26.970  29.903  1.00  0.00     0.135 A 
ATOM     85  C   UNL A   1      48.883  28.025  27.740  1.00  0.00     0.135 A 
ATOM     86  F   UNL A   1      48.157  26.602  31.012  1.00  0.00    -0.206 F 
ATOM     87  C   UNL A   1      50.172  26.672  29.808  1.00  0.00     0.059 A 
ATOM     88  C   UNL A   1      50.235  27.721  27.617  1.00  0.00     0.059 A 
ATOM     89  F   UNL A   1      48.284  28.675  26.730  1.00  0.00    -0.206 F 
ATOM     90  C   UNL A   1      50.872  27.050  28.661  1.00  0.00     0.060 A 
BRANCH  90  91
ATOM     91  S   UNL A   1      52.619  26.618  28.527  1.00  0.00     0.124 S 
ATOM     92  O   UNL A   1      52.935  26.239  29.899  1.00  0.00    -0.237 OA
ATOM     93  O   UNL A   1      52.600  25.527  27.556  1.00  0.00    -0.237 OA
ATOM     94  O   UNL A   1      53.239  27.853  28.056  1.00  0.00    -0.744 OA
ENDBRANCH  90  91
ENDBRANCH  58  83
ENDBRANCH  32  33
ENDBRANCH  25  27
ENDBRANCH  24  25
ENDBRANCH  23  24
ENDBRANCH   1  23
TORSDOF 21
ENDMDL
MODEL 3
REMARK VINA RESULT:     -10.1      3.726      9.483
REMARK SMILES CCCC[C@H](C(=O)OCCOC(=O)c1ccc(-c2c3nc(c(-c4c(F)cc(S(=O)(=O)[O-])cc4F)c4ccc([nH]4)c(-c4c(F)cc(S(=O)(=O)[O-])cc4F)c4nc(c(-c5c(F)cc(S(=O)(=O)[O-])cc5F)c5ccc2[nH]5)C=C4)C=C3)cc1)[C@H](O)c1ccc(C(F)(F)F)cc1
REMARK SMILES IDX 9 1 8 2 6 3 7 4 5 5 4 6 3 7 2 8 1 9 80 10 82 11 83 12 91 13
REMARK SMILES IDX 84 14 90 15 85 16 86 17 87 18 88 19 89 20 81 21 10 23 11 24
REMARK SMILES IDX 12 25 13 26 14 27 15 28 79 29 16 30 78 31 17 32 18 33 19 34
REMARK SMILES IDX 72 35 20 36 77 37 71 38 73 39 21 40 76 41 70 42 69 43 22 45
REMARK SMILES IDX 56 46 35 47 55 48 36 49 39 50 54 51 74 52 37 53 38 54 53 56
REMARK SMILES IDX 75 57 40 58 23 59 24 60 33 61 25 62 26 63 32 64 34 65 27 66
REMARK SMILES IDX 28 67 29 68 30 69 31 70 57 71 58 72 67 73 59 74 60 75 66 76
REMARK SMILES IDX 68 77 61 78 62 79 63 80 64 81 65 82 41 83 42 84 51 85 43 86
REMARK SMILES IDX 44 87 50 88 52 89 45 90 46 91 47 92 48 93 49 94
REMARK H PARENT 81 22 73 44 39 55
REMARK Flexibility Score: inf
ROOT
ATOM      1  C   UNL A   1      32.029  28.456  27.047  1.00  0.00     0.274 C 
ENDROOT
BRANCH   1   2
ATOM      2  O   UNL A   1      31.522  27.130  27.307  1.00  0.00    -0.462 OA
BRANCH   2   3
ATOM      3  C   UNL A   1      31.287  26.359  26.226  1.00  0.00     0.312 C 
ATOM      4  O   UNL A   1      30.519  25.399  26.214  1.00  0.00    -0.252 OA
BRANCH   3   5
ATOM      5  C   UNL A   1      32.079  26.723  24.987  1.00  0.00     0.132 C 
BRANCH   5   6
ATOM      6  C   UNL A   1      33.501  26.167  24.722  1.00  0.00     0.018 C 
BRANCH   6   7
ATOM      7  C   UNL A   1      33.864  24.678  24.711  1.00  0.00     0.001 C 
BRANCH   7   8
ATOM      8  C   UNL A   1      35.114  24.225  25.457  1.00  0.00    -0.003 C 
ATOM      9  C   UNL A   1      36.144  23.528  24.585  1.00  0.00     0.004 C 
ENDBRANCH   7   8
ENDBRANCH   6   7
ENDBRANCH   5   6
BRANCH   5  10
ATOM     10  C   UNL A   1      31.159  26.874  23.753  1.00  0.00     0.158 C 
BRANCH  10  11
ATOM     11  C   UNL A   1      30.241  28.059  23.571  1.00  0.00    -0.019 A 
ATOM     12  C   UNL A   1      30.685  29.307  24.045  1.00  0.00     0.007 A 
ATOM     13  C   UNL A   1      28.983  28.001  22.973  1.00  0.00     0.007 A 
ATOM     14  C   UNL A   1      29.944  30.469  23.833  1.00  0.00     0.013 A 
ATOM     15  C   UNL A   1      28.247  29.166  22.733  1.00  0.00     0.013 A 
ATOM     16  C   UNL A   1      28.735  30.415  23.131  1.00  0.00     0.056 A 
BRANCH  16  17
ATOM     17  C   UNL A   1      27.966  31.673  22.831  1.00  0.00     0.416 C 
ATOM     18  F   UNL A   1      27.360  31.643  21.613  1.00  0.00    -0.166 F 
ATOM     19  F   UNL A   1      26.976  31.923  23.735  1.00  0.00    -0.166 F 
ATOM     20  F   UNL A   1      28.748  32.791  22.829  1.00  0.00    -0.166 F 
ENDBRANCH  16  17
ENDBRANCH  10  11
BRANCH  10  21
ATOM     21  O   UNL A   1      31.890  26.723  22.527  1.00  0.00    -0.388 OA
ATOM     22  H   UNL A   1      32.827  26.919  22.684  1.00  0.00     0.211 HD
ENDBRANCH  10  21
ENDBRANCH   5  10
ENDBRANCH   3   5
ENDBRANCH   2   3
ENDBRANCH   1   2
BRANCH   1  23
ATOM     23  C   UNL A   1      33.429  28.614  27.632  1.00  0.00     0.275 C 
BRANCH  23  24
ATOM     24  O   UNL A   1      34.020  29.845  27.183  1.00  0.00    -0.458 OA
BRANCH  24  25
ATOM     25  C   UNL A   1      34.631  30.579  28.140  1.00  0.00     0.338 C 
ATOM     26  O   UNL A   1      34.155  31.484  28.806  1.00  0.00    -0.246 OA
BRANCH  25  27
ATOM     27  C   UNL A   1      35.999  30.085  28.321  1.00  0.00     0.060 A 
ATOM     28  C   UNL A   1      36.419  29.704  29.596  1.00  0.00     0.016 A 
ATOM     29  C   UNL A   1      36.889  30.094  27.249  1.00  0.00     0.016 A 
ATOM     30  C   UNL A   1      37.747  29.359  29.818  1.00  0.00     0.010 A 
ATOM     31  C   UNL A   1      38.210  29.701  27.464  1.00  0.00     0.010 A 
ATOM     32  C   UNL A   1      38.653  29.347  28.752  1.00  0.00    -0.014 A 
BRANCH  32  33
ATOM     33  C   UNL A   1      40.074  28.991  28.970  1.00  0.00     0.031 A 
ATOM     34  C   UNL A   1      41.037  30.044  29.431  1.00  0.00     0.074 A 
ATOM     35  C   UNL A   1      40.498  27.737  28.718  1.00  0.00     0.049 A 
ATOM     36  N   UNL A   1      42.343  30.018  29.454  1.00  0.00    -0.248 NA
ATOM     37  C   UNL A   1      40.450  31.301  29.921  1.00  0.00     0.031 C 
ATOM     38  C   UNL A   1      39.643  26.617  28.321  1.00  0.00     0.029 A 
ATOM     39  N   UNL A   1      41.761  27.202  28.739  1.00  0.00    -0.354 N 
ATOM     40  C   UNL A   1      42.738  31.268  29.915  1.00  0.00     0.074 A 
ATOM     41  C   UNL A   1      41.532  32.029  30.165  1.00  0.00     0.031 C 
ATOM     42  C   UNL A   1      40.405  25.530  28.127  1.00  0.00     0.029 A 
ATOM     43  C   UNL A   1      41.805  25.894  28.317  1.00  0.00     0.049 A 
ATOM     44  H   UNL A   1      42.557  27.705  29.027  1.00  0.00     0.167 HD
ATOM     45  C   UNL A   1      43.996  31.734  30.099  1.00  0.00     0.037 A 
ATOM     46  C   UNL A   1      42.859  25.096  28.060  1.00  0.00     0.037 A 
ATOM     47  C   UNL A   1      45.182  30.951  29.871  1.00  0.00     0.049 A 
ATOM     48  C   UNL A   1      44.246  25.648  28.233  1.00  0.00     0.074 A 
ATOM     49  C   UNL A   1      46.506  31.323  30.027  1.00  0.00     0.029 A 
ATOM     50  N   UNL A   1      45.184  29.630  29.447  1.00  0.00    -0.354 N 
ATOM     51  N   UNL A   1      44.612  26.847  28.618  1.00  0.00    -0.248 NA
ATOM     52  C   UNL A   1      45.363  24.747  27.921  1.00  0.00     0.031 C 
ATOM     53  C   UNL A   1      47.308  30.233  29.671  1.00  0.00     0.029 A 
ATOM     54  C   UNL A   1      46.485  29.173  29.326  1.00  0.00     0.049 A 
ATOM     55  H   UNL A   1      44.379  29.096  29.258  1.00  0.00     0.167 HD
ATOM     56  C   UNL A   1      46.002  26.843  28.608  1.00  0.00     0.074 A 
ATOM     57  C   UNL A   1      46.411  25.517  28.188  1.00  0.00     0.031 C 
ATOM     58  C   UNL A   1      46.862  27.844  28.913  1.00  0.00     0.037 A 
BRANCH  45  59
ATOM     59  C   UNL A   1      44.150  33.165  30.531  1.00  0.00     0.058 A 
ATOM     60  C   UNL A   1      44.159  33.537  31.884  1.00  0.00     0.135 A 
ATOM     61  C   UNL A   1      44.308  34.179  29.572  1.00  0.00     0.135 A 
ATOM     62  F   UNL A   1      43.991  32.609  32.840  1.00  0.00    -0.206 F 
ATOM     63  C   UNL A   1      44.293  34.867  32.272  1.00  0.00     0.059 A 
ATOM     64  C   UNL A   1      44.465  35.513  29.937  1.00  0.00     0.059 A 
ATOM     65  F   UNL A   1      44.303  33.879  28.264  1.00  0.00    -0.206 F 
ATOM     66  C   UNL A   1      44.440  35.848  31.290  1.00  0.00     0.060 A 
BRANCH  66  67
ATOM     67  S   UNL A   1      44.606  37.572  31.804  1.00  0.00     0.124 S 
ATOM     68  O   UNL A   1      44.161  38.275  30.604  1.00  0.00    -0.237 OA
ATOM     69  O   UNL A   1      43.707  37.647  32.951  1.00  0.00    -0.237 OA
ATOM     70  O   UNL A   1      46.026  37.699  32.115  1.00  0.00    -0.744 OA
ENDBRANCH  66  67
ENDBRANCH  45  59
BRANCH  46  71
ATOM     71  C   UNL A   1      42.634  23.713  27.567  1.00  0.00     0.058 A 
ATOM     72  C   UNL A   1      42.607  23.433  26.193  1.00  0.00     0.135 A 
ATOM     73  C   UNL A   1      42.477  22.640  28.457  1.00  0.00     0.135 A 
ATOM     74  F   UNL A   1      42.743  24.428  25.304  1.00  0.00    -0.206 F 
ATOM     75  C   UNL A   1      42.430  22.137  25.719  1.00  0.00     0.059 A 
ATOM     76  C   UNL A   1      42.323  21.332  28.007  1.00  0.00     0.059 A 
ATOM     77  F   UNL A   1      42.508  22.855  29.781  1.00  0.00    -0.206 F 
ATOM     78  C   UNL A   1      42.294  21.093  26.634  1.00  0.00     0.060 A 
BRANCH  78  79
ATOM     79  S   UNL A   1      42.133  19.404  26.013  1.00  0.00     0.124 S 
ATOM     80  O   UNL A   1      42.556  18.624  27.170  1.00  0.00    -0.237 OA
ATOM     81  O   UNL A   1      40.715  19.331  25.677  1.00  0.00    -0.237 OA
ATOM     82  O   UNL A   1      43.041  19.382  24.870  1.00  0.00    -0.744 OA
ENDBRANCH  78  79
ENDBRANCH  46  71
BRANCH  58  83
ATOM     83  C   UNL A   1      48.328  27.535  28.837  1.00  0.00     0.058 A 
ATOM     84  C   UNL A   1      49.070  27.784  27.672  1.00  0.00     0.135 A 
ATOM     85  C   UNL A   1      49.008  27.041  29.961  1.00  0.00     0.135 A 
ATOM     86  F   UNL A   1      48.461  28.249  26.570  1.00  0.00    -0.206 F 
ATOM     87  C   UNL A   1      50.438  27.545  27.622  1.00  0.00     0.059 A 
ATOM     88  C   UNL A   1      50.379  26.812  29.938  1.00  0.00     0.059 A 
ATOM     89  F   UNL A   1      48.341  26.792  31.099  1.00  0.00    -0.206 F 
ATOM     90  C   UNL A   1      51.085  27.061  28.761  1.00  0.00     0.060 A 
BRANCH  90  91
ATOM     91  S   UNL A   1      52.869  26.798  28.701  1.00  0.00     0.124 S 
ATOM     92  O   UNL A   1      53.348  28.117  28.307  1.00  0.00    -0.237 OA
ATOM     93  O   UNL A   1      53.174  26.396  30.072  1.00  0.00    -0.237 OA
ATOM     94  O   UNL A   1      53.023  25.746  27.700  1.00  0.00    -0.744 OA
ENDBRANCH  90  91
ENDBRANCH  58  83
ENDBRANCH  32  33
ENDBRANCH  25  27
ENDBRANCH  24  25
ENDBRANCH  23  24
ENDBRANCH   1  23
TORSDOF 21
ENDMDL
