MODEL 1
REMARK VINA RESULT:     -13.4      0.000      0.000
REMARK SMILES Cc1c(C(=O)OCCOC(=O)c2ccc(-c3c4nc(c(-c5c(F)cc(S(=O)(=O)[O-])cc5F)c5ccc([nH]5)c(-c5c(F)cc(S(=O)(=O)[O-])cc5F)c5nc(c(-c6c(F)cc(S(=O)(=O)[O-])cc6F)c6ccc3[nH]6)C=C5)C=C4)cc2)oc2c1/C(=N/NC(=O)C(c1ccccc1)c1ccccc1)CCC2
REMARK SMILES IDX 7 1 6 2 4 3 5 4 3 5 1 6 2 7 80 8 78 9 79 10 81 11 101 12
REMARK SMILES IDX 82 13 99 14 100 15 83 16 84 17 85 19 86 20 87 21 88 22 92 23
REMARK SMILES IDX 89 24 91 25 90 26 93 27 94 28 98 29 95 30 97 31 96 32 8 33
REMARK SMILES IDX 9 34 10 35 11 36 12 37 13 38 77 39 14 40 76 41 15 42 16 43
REMARK SMILES IDX 17 44 70 45 18 46 75 47 69 48 71 49 19 50 74 51 68 52 67 53
REMARK SMILES IDX 20 55 54 56 33 57 53 58 34 59 37 60 52 61 72 62 35 63 36 64
REMARK SMILES IDX 51 66 73 67 38 68 21 69 22 70 31 71 23 72 24 73 30 74 32 75
REMARK SMILES IDX 25 76 26 77 27 78 28 79 29 80 55 81 56 82 65 83 57 84 58 85
REMARK SMILES IDX 64 86 66 87 59 88 60 89 61 90 62 91 63 92 39 93 40 94 49 95
REMARK SMILES IDX 41 96 42 97 48 98 50 99 43 100 44 101 45 102 46 103 47 104
REMARK H PARENT 83 18 71 54 37 65
REMARK Flexibility Score: inf
ROOT
ATOM      1  C   UNL A   1      33.150  29.574  25.192  1.00  0.00     0.275 C 
ENDROOT
BRANCH   1   2
ATOM      2  O   UNL A   1      31.782  29.520  24.780  1.00  0.00    -0.456 OA
BRANCH   2   3
ATOM      3  C   UNL A   1      31.426  28.895  23.606  1.00  0.00     0.374 C 
ATOM      4  O   UNL A   1      31.185  29.455  22.556  1.00  0.00    -0.242 OA
BRANCH   3   5
ATOM      5  C   UNL A   1      31.469  27.469  23.866  1.00  0.00     0.215 A 
ATOM      6  C   UNL A   1      32.568  26.195  21.887  1.00  0.00     0.049 C 
ATOM      7  C   UNL A   1      31.929  26.309  23.221  1.00  0.00     0.012 A 
ATOM      8  C   UNL A   1      31.604  25.226  24.109  1.00  0.00     0.043 A 
ATOM      9  O   UNL A   1      30.957  27.145  25.082  1.00  0.00    -0.453 OA
ATOM     10  C   UNL A   1      31.063  25.840  25.226  1.00  0.00     0.114 A 
ATOM     11  C   UNL A   1      31.595  23.759  24.089  1.00  0.00     0.072 C 
ATOM     12  C   UNL A   1      30.471  25.300  26.460  1.00  0.00     0.076 C 
ATOM     13  N   UNL A   1      32.197  23.047  23.186  1.00  0.00    -0.177 NA
ATOM     14  C   UNL A   1      30.700  23.248  25.157  1.00  0.00     0.059 C 
ATOM     15  C   UNL A   1      30.848  23.846  26.538  1.00  0.00     0.014 C 
BRANCH  13  16
ATOM     16  N   UNL A   1      32.212  21.664  22.987  1.00  0.00    -0.246 N 
ATOM     17  C   UNL A   1      32.537  20.442  23.552  1.00  0.00     0.252 C 
ATOM     18  H   UNL A   1      31.849  21.489  22.090  1.00  0.00     0.193 HD
ATOM     19  O   UNL A   1      32.248  19.457  22.839  1.00  0.00    -0.272 OA
BRANCH  17  20
ATOM     20  C   UNL A   1      33.204  20.109  24.950  1.00  0.00     0.140 C 
BRANCH  20  21
ATOM     21  C   UNL A   1      33.504  18.562  25.008  1.00  0.00    -0.031 A 
ATOM     22  C   UNL A   1      32.618  17.723  25.734  1.00  0.00     0.005 A 
ATOM     23  C   UNL A   1      34.499  17.907  24.262  1.00  0.00     0.005 A 
ATOM     24  C   UNL A   1      32.560  16.342  25.527  1.00  0.00     0.000 A 
ATOM     25  C   UNL A   1      34.446  16.513  24.061  1.00  0.00     0.000 A 
ATOM     26  C   UNL A   1      33.449  15.741  24.653  1.00  0.00     0.000 A 
ENDBRANCH  20  21
BRANCH  20  27
ATOM     27  C   UNL A   1      34.236  21.254  25.256  1.00  0.00    -0.031 A 
ATOM     28  C   UNL A   1      35.316  21.650  24.449  1.00  0.00     0.005 A 
ATOM     29  C   UNL A   1      33.979  22.069  26.386  1.00  0.00     0.005 A 
ATOM     30  C   UNL A   1      35.910  22.921  24.610  1.00  0.00     0.000 A 
ATOM     31  C   UNL A   1      34.554  23.334  26.539  1.00  0.00     0.000 A 
ATOM     32  C   UNL A   1      35.485  23.783  25.617  1.00  0.00     0.000 A 
ENDBRANCH  20  27
ENDBRANCH  17  20
ENDBRANCH  13  16
ENDBRANCH   3   5
ENDBRANCH   2   3
ENDBRANCH   1   2
BRANCH   1  33
ATOM     33  C   UNL A   1      33.297  30.303  26.518  1.00  0.00     0.275 C 
BRANCH  33  34
ATOM     34  O   UNL A   1      34.586  30.054  27.058  1.00  0.00    -0.458 OA
BRANCH  34  35
ATOM     35  C   UNL A   1      35.198  31.109  27.638  1.00  0.00     0.338 C 
ATOM     36  O   UNL A   1      34.933  32.289  27.497  1.00  0.00    -0.246 OA
BRANCH  35  37
ATOM     37  C   UNL A   1      36.343  30.606  28.395  1.00  0.00     0.060 A 
ATOM     38  C   UNL A   1      37.272  31.534  28.872  1.00  0.00     0.016 A 
ATOM     39  C   UNL A   1      36.596  29.226  28.388  1.00  0.00     0.016 A 
ATOM     40  C   UNL A   1      38.542  31.086  29.155  1.00  0.00     0.010 A 
ATOM     41  C   UNL A   1      37.860  28.785  28.662  1.00  0.00     0.010 A 
ATOM     42  C   UNL A   1      38.836  29.733  28.950  1.00  0.00    -0.014 A 
BRANCH  42  43
ATOM     43  C   UNL A   1      40.192  29.279  29.140  1.00  0.00     0.031 A 
ATOM     44  C   UNL A   1      40.557  29.188  30.571  1.00  0.00     0.074 A 
ATOM     45  C   UNL A   1      40.944  28.859  28.103  1.00  0.00     0.049 A 
ATOM     46  N   UNL A   1      41.426  29.902  31.203  1.00  0.00    -0.248 NA
ATOM     47  C   UNL A   1      39.705  28.367  31.451  1.00  0.00     0.031 C 
ATOM     48  C   UNL A   1      40.552  28.688  26.700  1.00  0.00     0.029 A 
ATOM     49  N   UNL A   1      42.214  28.380  28.122  1.00  0.00    -0.354 N 
ATOM     50  C   UNL A   1      41.411  29.429  32.509  1.00  0.00     0.074 A 
ATOM     51  C   UNL A   1      40.203  28.661  32.652  1.00  0.00     0.031 C 
ATOM     52  C   UNL A   1      41.473  27.923  26.069  1.00  0.00     0.029 A 
ATOM     53  C   UNL A   1      42.571  27.662  26.981  1.00  0.00     0.049 A 
ATOM     54  H   UNL A   1      42.831  28.526  28.876  1.00  0.00     0.167 HD
ATOM     55  C   UNL A   1      42.530  29.475  33.278  1.00  0.00     0.037 A 
ATOM     56  C   UNL A   1      43.645  26.832  26.886  1.00  0.00     0.037 A 
ATOM     57  C   UNL A   1      43.480  30.428  32.761  1.00  0.00     0.049 A 
ATOM     58  C   UNL A   1      44.596  27.253  27.961  1.00  0.00     0.074 A 
ATOM     59  C   UNL A   1      43.417  31.783  32.488  1.00  0.00     0.029 A 
ATOM     60  N   UNL A   1      44.544  29.949  32.032  1.00  0.00    -0.354 N 
ATOM     61  N   UNL A   1      45.192  28.420  27.971  1.00  0.00    -0.248 NA
ATOM     62  C   UNL A   1      44.453  26.618  29.265  1.00  0.00     0.031 C 
ATOM     63  C   UNL A   1      44.094  31.937  31.243  1.00  0.00     0.029 A 
ATOM     64  C   UNL A   1      44.617  30.696  30.880  1.00  0.00     0.049 A 
ATOM     65  H   UNL A   1      45.141  29.208  32.286  1.00  0.00     0.167 HD
ATOM     66  C   UNL A   1      45.112  28.851  29.290  1.00  0.00     0.074 A 
ATOM     67  C   UNL A   1      44.682  27.677  30.049  1.00  0.00     0.031 C 
ATOM     68  C   UNL A   1      45.099  30.180  29.616  1.00  0.00     0.037 A 
BRANCH  55  69
ATOM     69  C   UNL A   1      42.896  28.392  34.259  1.00  0.00     0.058 A 
ATOM     70  C   UNL A   1      43.149  28.728  35.600  1.00  0.00     0.135 A 
ATOM     71  C   UNL A   1      43.261  27.081  33.875  1.00  0.00     0.135 A 
ATOM     72  F   UNL A   1      42.867  29.957  36.062  1.00  0.00    -0.206 F 
ATOM     73  C   UNL A   1      43.759  27.839  36.486  1.00  0.00     0.059 A 
ATOM     74  C   UNL A   1      43.816  26.162  34.753  1.00  0.00     0.059 A 
ATOM     75  F   UNL A   1      43.190  26.656  32.607  1.00  0.00    -0.206 F 
ATOM     76  C   UNL A   1      44.095  26.560  36.048  1.00  0.00     0.060 A 
BRANCH  76  77
ATOM     77  S   UNL A   1      44.944  25.434  37.166  1.00  0.00     0.124 S 
ATOM     78  O   UNL A   1      46.290  25.991  37.173  1.00  0.00    -0.237 OA
ATOM     79  O   UNL A   1      44.176  25.597  38.395  1.00  0.00    -0.237 OA
ATOM     80  O   UNL A   1      44.799  24.138  36.511  1.00  0.00    -0.744 OA
ENDBRANCH  76  77
ENDBRANCH  55  69
BRANCH  56  81
ATOM     81  C   UNL A   1      43.674  25.485  26.244  1.00  0.00     0.058 A 
ATOM     82  C   UNL A   1      44.568  25.178  25.201  1.00  0.00     0.135 A 
ATOM     83  C   UNL A   1      43.003  24.382  26.816  1.00  0.00     0.135 A 
ATOM     84  F   UNL A   1      45.273  26.156  24.609  1.00  0.00    -0.206 F 
ATOM     85  C   UNL A   1      44.809  23.860  24.780  1.00  0.00     0.059 A 
ATOM     86  C   UNL A   1      43.218  23.067  26.408  1.00  0.00     0.059 A 
ATOM     87  F   UNL A   1      42.177  24.535  27.860  1.00  0.00    -0.206 F 
ATOM     88  C   UNL A   1      44.141  22.808  25.405  1.00  0.00     0.060 A 
BRANCH  88  89
ATOM     89  S   UNL A   1      44.562  21.096  24.994  1.00  0.00     0.124 S 
ATOM     90  O   UNL A   1      44.675  21.152  23.540  1.00  0.00    -0.237 OA
ATOM     91  O   UNL A   1      45.809  20.900  25.724  1.00  0.00    -0.237 OA
ATOM     92  O   UNL A   1      43.421  20.335  25.500  1.00  0.00    -0.744 OA
ENDBRANCH  88  89
ENDBRANCH  56  81
BRANCH  68  93
ATOM     93  C   UNL A   1      45.398  31.202  28.545  1.00  0.00     0.058 A 
ATOM     94  C   UNL A   1      44.457  31.698  27.622  1.00  0.00     0.135 A 
ATOM     95  C   UNL A   1      46.649  31.840  28.578  1.00  0.00     0.135 A 
ATOM     96  F   UNL A   1      43.204  31.226  27.596  1.00  0.00    -0.206 F 
ATOM     97  C   UNL A   1      44.761  32.746  26.747  1.00  0.00     0.059 A 
ATOM     98  C   UNL A   1      46.961  32.906  27.740  1.00  0.00     0.059 A 
ATOM     99  F   UNL A   1      47.570  31.462  29.479  1.00  0.00    -0.206 F 
ATOM    100  C   UNL A   1      46.018  33.345  26.815  1.00  0.00     0.060 A 
BRANCH 100 101
ATOM    101  S   UNL A   1      46.399  34.736  25.726  1.00  0.00     0.124 S 
ATOM    102  O   UNL A   1      47.804  34.501  25.410  1.00  0.00    -0.237 OA
ATOM    103  O   UNL A   1      45.461  34.544  24.624  1.00  0.00    -0.237 OA
ATOM    104  O   UNL A   1      46.135  35.906  26.560  1.00  0.00    -0.744 OA
ENDBRANCH 100 101
ENDBRANCH  68  93
ENDBRANCH  42  43
ENDBRANCH  35  37
ENDBRANCH  34  35
ENDBRANCH  33  34
ENDBRANCH   1  33
TORSDOF 18
ENDMDL
MODEL 2
REMARK VINA RESULT:     -13.4      1.243      2.582
REMARK SMILES Cc1c(C(=O)OCCOC(=O)c2ccc(-c3c4nc(c(-c5c(F)cc(S(=O)(=O)[O-])cc5F)c5ccc([nH]5)c(-c5c(F)cc(S(=O)(=O)[O-])cc5F)c5nc(c(-c6c(F)cc(S(=O)(=O)[O-])cc6F)c6ccc3[nH]6)C=C5)C=C4)cc2)oc2c1/C(=N/NC(=O)C(c1ccccc1)c1ccccc1)CCC2
REMARK SMILES IDX 7 1 6 2 4 3 5 4 3 5 1 6 2 7 80 8 78 9 79 10 81 11 101 12
REMARK SMILES IDX 82 13 99 14 100 15 83 16 84 17 85 19 86 20 87 21 88 22 92 23
REMARK SMILES IDX 89 24 91 25 90 26 93 27 94 28 98 29 95 30 97 31 96 32 8 33
REMARK SMILES IDX 9 34 10 35 11 36 12 37 13 38 77 39 14 40 76 41 15 42 16 43
REMARK SMILES IDX 17 44 70 45 18 46 75 47 69 48 71 49 19 50 74 51 68 52 67 53
REMARK SMILES IDX 20 55 54 56 33 57 53 58 34 59 37 60 52 61 72 62 35 63 36 64
REMARK SMILES IDX 51 66 73 67 38 68 21 69 22 70 31 71 23 72 24 73 30 74 32 75
REMARK SMILES IDX 25 76 26 77 27 78 28 79 29 80 55 81 56 82 65 83 57 84 58 85
REMARK SMILES IDX 64 86 66 87 59 88 60 89 61 90 62 91 63 92 39 93 40 94 49 95
REMARK SMILES IDX 41 96 42 97 48 98 50 99 43 100 44 101 45 102 46 103 47 104
REMARK H PARENT 83 18 71 54 37 65
REMARK Flexibility Score: inf
ROOT
ATOM      1  C   UNL A   1      32.867  30.283  25.753  1.00  0.00     0.275 C 
ENDROOT
BRANCH   1   2
ATOM      2  O   UNL A   1      31.478  30.447  25.461  1.00  0.00    -0.456 OA
BRANCH   2   3
ATOM      3  C   UNL A   1      30.863  29.668  24.506  1.00  0.00     0.374 C 
ATOM      4  O   UNL A   1      30.014  30.051  23.727  1.00  0.00    -0.242 OA
BRANCH   3   5
ATOM      5  C   UNL A   1      31.478  28.358  24.581  1.00  0.00     0.215 A 
ATOM      6  C   UNL A   1      31.163  27.315  26.939  1.00  0.00     0.049 C 
ATOM      7  C   UNL A   1      31.632  27.335  25.532  1.00  0.00     0.012 A 
ATOM      8  C   UNL A   1      32.394  26.311  24.869  1.00  0.00     0.043 A 
ATOM      9  O   UNL A   1      32.043  27.980  23.405  1.00  0.00    -0.453 OA
ATOM     10  C   UNL A   1      32.551  26.776  23.574  1.00  0.00     0.114 A 
ATOM     11  C   UNL A   1      33.084  25.064  25.214  1.00  0.00     0.072 C 
ATOM     12  C   UNL A   1      33.286  26.243  22.417  1.00  0.00     0.076 C 
ATOM     13  N   UNL A   1      32.912  24.432  26.335  1.00  0.00    -0.177 NA
ATOM     14  C   UNL A   1      34.079  24.734  24.164  1.00  0.00     0.059 C 
ATOM     15  C   UNL A   1      33.626  24.810  22.723  1.00  0.00     0.014 C 
BRANCH  13  16
ATOM     16  N   UNL A   1      33.548  23.293  26.838  1.00  0.00    -0.246 N 
ATOM     17  C   UNL A   1      34.448  22.280  26.554  1.00  0.00     0.252 C 
ATOM     18  H   UNL A   1      33.229  23.157  27.758  1.00  0.00     0.193 HD
ATOM     19  O   UNL A   1      34.670  21.511  27.513  1.00  0.00    -0.272 OA
BRANCH  17  20
ATOM     20  C   UNL A   1      35.237  21.960  25.217  1.00  0.00     0.140 C 
BRANCH  20  21
ATOM     21  C   UNL A   1      36.758  22.312  25.434  1.00  0.00    -0.031 A 
ATOM     22  C   UNL A   1      37.099  23.619  25.874  1.00  0.00     0.005 A 
ATOM     23  C   UNL A   1      37.813  21.386  25.383  1.00  0.00     0.005 A 
ATOM     24  C   UNL A   1      38.333  23.909  26.464  1.00  0.00     0.000 A 
ATOM     25  C   UNL A   1      39.060  21.682  25.970  1.00  0.00     0.000 A 
ATOM     26  C   UNL A   1      39.301  22.925  26.552  1.00  0.00     0.000 A 
ENDBRANCH  20  21
BRANCH  20  27
ATOM     27  C   UNL A   1      34.682  20.597  24.667  1.00  0.00    -0.031 A 
ATOM     28  C   UNL A   1      35.331  19.351  24.696  1.00  0.00     0.005 A 
ATOM     29  C   UNL A   1      33.335  20.580  24.224  1.00  0.00     0.005 A 
ATOM     30  C   UNL A   1      34.599  18.151  24.559  1.00  0.00     0.000 A 
ATOM     31  C   UNL A   1      32.605  19.394  24.104  1.00  0.00     0.000 A 
ATOM     32  C   UNL A   1      33.227  18.177  24.324  1.00  0.00     0.000 A 
ENDBRANCH  20  27
ENDBRANCH  17  20
ENDBRANCH  13  16
ENDBRANCH   3   5
ENDBRANCH   2   3
ENDBRANCH   1   2
BRANCH   1  33
ATOM     33  C   UNL A   1      33.182  30.703  27.179  1.00  0.00     0.275 C 
BRANCH  33  34
ATOM     34  O   UNL A   1      34.518  30.342  27.498  1.00  0.00    -0.458 OA
BRANCH  34  35
ATOM     35  C   UNL A   1      35.336  31.355  27.857  1.00  0.00     0.338 C 
ATOM     36  O   UNL A   1      35.226  32.534  27.567  1.00  0.00    -0.246 OA
BRANCH  35  37
ATOM     37  C   UNL A   1      36.476  30.784  28.570  1.00  0.00     0.060 A 
ATOM     38  C   UNL A   1      37.418  31.663  29.112  1.00  0.00     0.016 A 
ATOM     39  C   UNL A   1      36.711  29.406  28.462  1.00  0.00     0.016 A 
ATOM     40  C   UNL A   1      38.683  31.180  29.356  1.00  0.00     0.010 A 
ATOM     41  C   UNL A   1      37.971  28.930  28.699  1.00  0.00     0.010 A 
ATOM     42  C   UNL A   1      38.959  29.842  29.052  1.00  0.00    -0.014 A 
BRANCH  42  43
ATOM     43  C   UNL A   1      40.310  29.358  29.204  1.00  0.00     0.031 A 
ATOM     44  C   UNL A   1      40.706  29.241  30.625  1.00  0.00     0.074 A 
ATOM     45  C   UNL A   1      41.028  28.937  28.144  1.00  0.00     0.049 A 
ATOM     46  N   UNL A   1      41.605  29.929  31.244  1.00  0.00    -0.248 NA
ATOM     47  C   UNL A   1      39.858  28.425  31.514  1.00  0.00     0.031 C 
ATOM     48  C   UNL A   1      40.600  28.792  26.749  1.00  0.00     0.029 A 
ATOM     49  N   UNL A   1      42.288  28.432  28.127  1.00  0.00    -0.354 N 
ATOM     50  C   UNL A   1      41.611  29.440  32.544  1.00  0.00     0.074 A 
ATOM     51  C   UNL A   1      40.391  28.694  32.706  1.00  0.00     0.031 C 
ATOM     52  C   UNL A   1      41.490  28.018  26.086  1.00  0.00     0.029 A 
ATOM     53  C   UNL A   1      42.603  27.722  26.968  1.00  0.00     0.049 A 
ATOM     54  H   UNL A   1      42.925  28.556  28.867  1.00  0.00     0.167 HD
ATOM     55  C   UNL A   1      42.748  29.452  33.287  1.00  0.00     0.037 A 
ATOM     56  C   UNL A   1      43.657  26.872  26.836  1.00  0.00     0.037 A 
ATOM     57  C   UNL A   1      43.705  30.393  32.759  1.00  0.00     0.049 A 
ATOM     58  C   UNL A   1      44.642  27.260  27.894  1.00  0.00     0.074 A 
ATOM     59  C   UNL A   1      43.663  31.752  32.506  1.00  0.00     0.029 A 
ATOM     60  N   UNL A   1      44.742  29.902  31.999  1.00  0.00    -0.354 N 
ATOM     61  N   UNL A   1      45.262  28.414  27.905  1.00  0.00    -0.248 NA
ATOM     62  C   UNL A   1      44.516  26.610  29.193  1.00  0.00     0.031 C 
ATOM     63  C   UNL A   1      44.314  31.909  31.247  1.00  0.00     0.029 A 
ATOM     64  C   UNL A   1      44.803  30.662  30.855  1.00  0.00     0.049 A 
ATOM     65  H   UNL A   1      45.329  29.146  32.229  1.00  0.00     0.167 HD
ATOM     66  C   UNL A   1      45.221  28.829  29.230  1.00  0.00     0.074 A 
ATOM     67  C   UNL A   1      44.786  27.654  29.985  1.00  0.00     0.031 C 
ATOM     68  C   UNL A   1      45.244  30.154  29.573  1.00  0.00     0.037 A 
BRANCH  55  69
ATOM     69  C   UNL A   1      43.115  28.350  34.244  1.00  0.00     0.058 A 
ATOM     70  C   UNL A   1      43.414  28.663  35.582  1.00  0.00     0.135 A 
ATOM     71  C   UNL A   1      43.436  27.035  33.836  1.00  0.00     0.135 A 
ATOM     72  F   UNL A   1      43.177  29.893  36.065  1.00  0.00    -0.206 F 
ATOM     73  C   UNL A   1      44.028  27.750  36.439  1.00  0.00     0.059 A 
ATOM     74  C   UNL A   1      43.993  26.092  34.688  1.00  0.00     0.059 A 
ATOM     75  F   UNL A   1      43.318  26.626  32.566  1.00  0.00    -0.206 F 
ATOM     76  C   UNL A   1      44.319  26.468  35.978  1.00  0.00     0.060 A 
BRANCH  76  77
ATOM     77  S   UNL A   1      45.171  25.308  37.059  1.00  0.00     0.124 S 
ATOM     78  O   UNL A   1      46.240  26.142  37.595  1.00  0.00    -0.237 OA
ATOM     79  O   UNL A   1      44.115  24.940  37.996  1.00  0.00    -0.237 OA
ATOM     80  O   UNL A   1      45.591  24.247  36.149  1.00  0.00    -0.744 OA
ENDBRANCH  76  77
ENDBRANCH  55  69
BRANCH  56  81
ATOM     81  C   UNL A   1      43.643  25.533  26.178  1.00  0.00     0.058 A 
ATOM     82  C   UNL A   1      44.581  25.183  25.188  1.00  0.00     0.135 A 
ATOM     83  C   UNL A   1      42.870  24.468  26.689  1.00  0.00     0.135 A 
ATOM     84  F   UNL A   1      45.381  26.121  24.656  1.00  0.00    -0.206 F 
ATOM     85  C   UNL A   1      44.767  23.857  24.762  1.00  0.00     0.059 A 
ATOM     86  C   UNL A   1      43.029  23.147  26.275  1.00  0.00     0.059 A 
ATOM     87  F   UNL A   1      41.990  24.661  27.682  1.00  0.00    -0.206 F 
ATOM     88  C   UNL A   1      43.996  22.842  25.328  1.00  0.00     0.060 A 
BRANCH  88  89
ATOM     89  S   UNL A   1      44.336  21.112  24.918  1.00  0.00     0.124 S 
ATOM     90  O   UNL A   1      44.474  21.165  23.466  1.00  0.00    -0.237 OA
ATOM     91  O   UNL A   1      45.559  20.850  25.667  1.00  0.00    -0.237 OA
ATOM     92  O   UNL A   1      43.150  20.409  25.404  1.00  0.00    -0.744 OA
ENDBRANCH  88  89
ENDBRANCH  56  81
BRANCH  68  93
ATOM     93  C   UNL A   1      45.539  31.183  28.508  1.00  0.00     0.058 A 
ATOM     94  C   UNL A   1      44.580  31.733  27.635  1.00  0.00     0.135 A 
ATOM     95  C   UNL A   1      46.814  31.771  28.500  1.00  0.00     0.135 A 
ATOM     96  F   UNL A   1      43.309  31.311  27.655  1.00  0.00    -0.206 F 
ATOM     97  C   UNL A   1      44.889  32.785  26.766  1.00  0.00     0.059 A 
ATOM     98  C   UNL A   1      47.133  32.841  27.668  1.00  0.00     0.059 A 
ATOM     99  F   UNL A   1      47.756  31.341  29.354  1.00  0.00    -0.206 F 
ATOM    100  C   UNL A   1      46.170  33.333  26.791  1.00  0.00     0.060 A 
BRANCH 100 101
ATOM    101  S   UNL A   1      46.560  34.729  25.712  1.00  0.00     0.124 S 
ATOM    102  O   UNL A   1      46.318  35.871  26.588  1.00  0.00    -0.237 OA
ATOM    103  O   UNL A   1      47.956  34.482  25.364  1.00  0.00    -0.237 OA
ATOM    104  O   UNL A   1      45.615  34.582  24.607  1.00  0.00    -0.744 OA
ENDBRANCH 100 101
ENDBRANCH  68  93
ENDBRANCH  42  43
ENDBRANCH  35  37
ENDBRANCH  34  35
ENDBRANCH  33  34
ENDBRANCH   1  33
TORSDOF 18
ENDMDL
MODEL 3
REMARK VINA RESULT:     -13.3      3.119      9.603
REMARK SMILES Cc1c(C(=O)OCCOC(=O)c2ccc(-c3c4nc(c(-c5c(F)cc(S(=O)(=O)[O-])cc5F)c5ccc([nH]5)c(-c5c(F)cc(S(=O)(=O)[O-])cc5F)c5nc(c(-c6c(F)cc(S(=O)(=O)[O-])cc6F)c6ccc3[nH]6)C=C5)C=C4)cc2)oc2c1/C(=N/NC(=O)C(c1ccccc1)c1ccccc1)CCC2
REMARK SMILES IDX 7 1 6 2 4 3 5 4 3 5 1 6 2 7 80 8 78 9 79 10 81 11 101 12
REMARK SMILES IDX 82 13 99 14 100 15 83 16 84 17 85 19 86 20 87 21 88 22 92 23
REMARK SMILES IDX 89 24 91 25 90 26 93 27 94 28 98 29 95 30 97 31 96 32 8 33
REMARK SMILES IDX 9 34 10 35 11 36 12 37 13 38 77 39 14 40 76 41 15 42 16 43
REMARK SMILES IDX 17 44 70 45 18 46 75 47 69 48 71 49 19 50 74 51 68 52 67 53
REMARK SMILES IDX 20 55 54 56 33 57 53 58 34 59 37 60 52 61 72 62 35 63 36 64
REMARK SMILES IDX 51 66 73 67 38 68 21 69 22 70 31 71 23 72 24 73 30 74 32 75
REMARK SMILES IDX 25 76 26 77 27 78 28 79 29 80 55 81 56 82 65 83 57 84 58 85
REMARK SMILES IDX 64 86 66 87 59 88 60 89 61 90 62 91 63 92 39 93 40 94 49 95
REMARK SMILES IDX 41 96 42 97 48 98 50 99 43 100 44 101 45 102 46 103 47 104
REMARK H PARENT 83 18 71 54 37 65
REMARK Flexibility Score: inf
ROOT
ATOM      1  C   UNL A   1      37.292  21.180  24.797  1.00  0.00     0.275 C 
ENDROOT
BRANCH   1   2
ATOM      2  O   UNL A   1      36.019  21.551  24.260  1.00  0.00    -0.456 OA
BRANCH   2   3
ATOM      3  C   UNL A   1      35.869  22.725  23.557  1.00  0.00     0.374 C 
ATOM      4  O   UNL A   1      36.700  23.214  22.818  1.00  0.00    -0.242 OA
BRANCH   3   5
ATOM      5  C   UNL A   1      34.524  23.197  23.820  1.00  0.00     0.215 A 
ATOM      6  C   UNL A   1      33.769  24.911  22.021  1.00  0.00     0.049 C 
ATOM      7  C   UNL A   1      33.597  24.076  23.236  1.00  0.00     0.012 A 
ATOM      8  C   UNL A   1      32.445  24.041  24.095  1.00  0.00     0.043 A 
ATOM      9  O   UNL A   1      33.974  22.615  24.918  1.00  0.00    -0.453 OA
ATOM     10  C   UNL A   1      32.754  23.093  25.055  1.00  0.00     0.114 A 
ATOM     11  C   UNL A   1      31.184  24.771  24.265  1.00  0.00     0.072 C 
ATOM     12  C   UNL A   1      32.037  22.635  26.256  1.00  0.00     0.076 C 
ATOM     13  N   UNL A   1      30.692  25.577  23.374  1.00  0.00    -0.177 NA
ATOM     14  C   UNL A   1      30.656  24.549  25.634  1.00  0.00     0.059 C 
ATOM     15  C   UNL A   1      30.620  23.127  26.147  1.00  0.00     0.014 C 
BRANCH  13  16
ATOM     16  N   UNL A   1      29.561  26.397  23.421  1.00  0.00    -0.246 N 
ATOM     17  C   UNL A   1      29.102  27.681  23.662  1.00  0.00     0.252 C 
ATOM     18  H   UNL A   1      28.782  25.841  23.194  1.00  0.00     0.193 HD
ATOM     19  O   UNL A   1      27.874  27.825  23.482  1.00  0.00    -0.272 OA
BRANCH  17  20
ATOM     20  C   UNL A   1      29.890  28.978  24.117  1.00  0.00     0.140 C 
BRANCH  20  21
ATOM     21  C   UNL A   1      31.369  28.566  24.478  1.00  0.00    -0.031 A 
ATOM     22  C   UNL A   1      31.646  28.109  25.794  1.00  0.00     0.005 A 
ATOM     23  C   UNL A   1      32.423  28.460  23.555  1.00  0.00     0.005 A 
ATOM     24  C   UNL A   1      32.789  27.365  26.100  1.00  0.00     0.000 A 
ATOM     25  C   UNL A   1      33.580  27.717  23.867  1.00  0.00     0.000 A 
ATOM     26  C   UNL A   1      33.739  27.131  25.121  1.00  0.00     0.000 A 
ENDBRANCH  20  21
BRANCH  20  27
ATOM     27  C   UNL A   1      29.475  30.138  23.141  1.00  0.00    -0.031 A 
ATOM     28  C   UNL A   1      29.317  30.049  21.748  1.00  0.00     0.005 A 
ATOM     29  C   UNL A   1      29.081  31.366  23.730  1.00  0.00     0.005 A 
ATOM     30  C   UNL A   1      28.560  31.012  21.044  1.00  0.00     0.000 A 
ATOM     31  C   UNL A   1      28.320  32.313  23.039  1.00  0.00     0.000 A 
ATOM     32  C   UNL A   1      28.014  32.109  21.704  1.00  0.00     0.000 A 
ENDBRANCH  20  27
ENDBRANCH  17  20
ENDBRANCH  13  16
ENDBRANCH   3   5
ENDBRANCH   2   3
ENDBRANCH   1   2
BRANCH   1  33
ATOM     33  C   UNL A   1      37.595  21.949  26.073  1.00  0.00     0.275 C 
BRANCH  33  34
ATOM     34  O   UNL A   1      38.726  22.782  25.868  1.00  0.00    -0.458 OA
BRANCH  34  35
ATOM     35  C   UNL A   1      39.687  22.718  26.816  1.00  0.00     0.338 C 
ATOM     36  O   UNL A   1      40.040  21.738  27.448  1.00  0.00    -0.246 OA
BRANCH  35  37
ATOM     37  C   UNL A   1      40.173  24.075  27.059  1.00  0.00     0.060 A 
ATOM     38  C   UNL A   1      41.445  24.225  27.616  1.00  0.00     0.016 A 
ATOM     39  C   UNL A   1      39.262  25.137  26.969  1.00  0.00     0.016 A 
ATOM     40  C   UNL A   1      41.726  25.403  28.271  1.00  0.00     0.010 A 
ATOM     41  C   UNL A   1      39.541  26.304  27.626  1.00  0.00     0.010 A 
ATOM     42  C   UNL A   1      40.728  26.382  28.345  1.00  0.00    -0.014 A 
BRANCH  42  43
ATOM     43  C   UNL A   1      40.978  27.572  29.121  1.00  0.00     0.031 A 
ATOM     44  C   UNL A   1      42.065  28.397  28.548  1.00  0.00     0.074 A 
ATOM     45  C   UNL A   1      40.183  27.916  30.154  1.00  0.00     0.049 A 
ATOM     46  N   UNL A   1      43.221  28.636  29.067  1.00  0.00    -0.248 NA
ATOM     47  C   UNL A   1      41.940  28.823  27.142  1.00  0.00     0.031 C 
ATOM     48  C   UNL A   1      38.946  27.274  30.608  1.00  0.00     0.029 A 
ATOM     49  N   UNL A   1      40.268  29.009  30.955  1.00  0.00    -0.354 N 
ATOM     50  C   UNL A   1      43.868  29.464  28.159  1.00  0.00     0.074 A 
ATOM     51  C   UNL A   1      43.140  29.363  26.922  1.00  0.00     0.031 C 
ATOM     52  C   UNL A   1      38.279  28.118  31.429  1.00  0.00     0.029 A 
ATOM     53  C   UNL A   1      39.096  29.296  31.656  1.00  0.00     0.049 A 
ATOM     54  H   UNL A   1      41.085  29.552  31.036  1.00  0.00     0.167 HD
ATOM     55  C   UNL A   1      44.780  30.379  28.579  1.00  0.00     0.037 A 
ATOM     56  C   UNL A   1      38.822  30.480  32.265  1.00  0.00     0.037 A 
ATOM     57  C   UNL A   1      45.277  30.054  29.894  1.00  0.00     0.049 A 
ATOM     58  C   UNL A   1      40.141  31.145  32.500  1.00  0.00     0.074 A 
ATOM     59  C   UNL A   1      45.907  28.943  30.425  1.00  0.00     0.029 A 
ATOM     60  N   UNL A   1      44.759  30.741  30.968  1.00  0.00    -0.354 N 
ATOM     61  N   UNL A   1      41.050  30.663  33.309  1.00  0.00    -0.248 NA
ATOM     62  C   UNL A   1      40.648  32.015  31.445  1.00  0.00     0.031 C 
ATOM     63  C   UNL A   1      45.298  28.753  31.700  1.00  0.00     0.029 A 
ATOM     64  C   UNL A   1      44.412  29.809  31.917  1.00  0.00     0.049 A 
ATOM     65  H   UNL A   1      44.655  31.717  31.042  1.00  0.00     0.167 HD
ATOM     66  C   UNL A   1      42.252  30.810  32.627  1.00  0.00     0.074 A 
ATOM     67  C   UNL A   1      41.944  31.691  31.500  1.00  0.00     0.031 C 
ATOM     68  C   UNL A   1      43.314  29.976  32.846  1.00  0.00     0.037 A 
BRANCH  55  69
ATOM     69  C   UNL A   1      44.921  31.742  27.956  1.00  0.00     0.058 A 
ATOM     70  C   UNL A   1      46.132  32.101  27.338  1.00  0.00     0.135 A 
ATOM     71  C   UNL A   1      44.007  32.799  28.173  1.00  0.00     0.135 A 
ATOM     72  F   UNL A   1      47.082  31.180  27.112  1.00  0.00    -0.206 F 
ATOM     73  C   UNL A   1      46.430  33.420  26.997  1.00  0.00     0.059 A 
ATOM     74  C   UNL A   1      44.258  34.108  27.790  1.00  0.00     0.059 A 
ATOM     75  F   UNL A   1      42.865  32.635  28.854  1.00  0.00    -0.206 F 
ATOM     76  C   UNL A   1      45.486  34.418  27.235  1.00  0.00     0.060 A 
BRANCH  76  77
ATOM     77  S   UNL A   1      45.892  36.131  26.860  1.00  0.00     0.124 S 
ATOM     78  O   UNL A   1      44.567  36.731  26.774  1.00  0.00    -0.237 OA
ATOM     79  O   UNL A   1      46.693  36.509  28.019  1.00  0.00    -0.237 OA
ATOM     80  O   UNL A   1      46.626  36.034  25.602  1.00  0.00    -0.744 OA
ENDBRANCH  76  77
ENDBRANCH  55  69
BRANCH  56  81
ATOM     81  C   UNL A   1      37.524  31.217  32.234  1.00  0.00     0.058 A 
ATOM     82  C   UNL A   1      36.927  31.719  33.406  1.00  0.00     0.135 A 
ATOM     83  C   UNL A   1      36.966  31.676  31.021  1.00  0.00     0.135 A 
ATOM     84  F   UNL A   1      37.402  31.361  34.610  1.00  0.00    -0.206 F 
ATOM     85  C   UNL A   1      35.871  32.644  33.376  1.00  0.00     0.059 A 
ATOM     86  C   UNL A   1      35.912  32.586  30.966  1.00  0.00     0.059 A 
ATOM     87  F   UNL A   1      37.488  31.324  29.837  1.00  0.00    -0.206 F 
ATOM     88  C   UNL A   1      35.383  33.087  32.146  1.00  0.00     0.060 A 
BRANCH  88  89
ATOM     89  S   UNL A   1      34.141  34.403  32.086  1.00  0.00     0.124 S 
ATOM     90  O   UNL A   1      33.768  34.403  30.675  1.00  0.00    -0.237 OA
ATOM     91  O   UNL A   1      33.127  33.916  33.014  1.00  0.00    -0.237 OA
ATOM     92  O   UNL A   1      34.876  35.584  32.535  1.00  0.00    -0.744 OA
ENDBRANCH  88  89
ENDBRANCH  56  81
BRANCH  68  93
ATOM     93  C   UNL A   1      43.263  29.011  34.006  1.00  0.00     0.058 A 
ATOM     94  C   UNL A   1      43.515  29.354  35.349  1.00  0.00     0.135 A 
ATOM     95  C   UNL A   1      42.756  27.724  33.766  1.00  0.00     0.135 A 
ATOM     96  F   UNL A   1      43.893  30.595  35.682  1.00  0.00    -0.206 F 
ATOM     97  C   UNL A   1      43.313  28.447  36.394  1.00  0.00     0.059 A 
ATOM     98  C   UNL A   1      42.516  26.817  34.795  1.00  0.00     0.059 A 
ATOM     99  F   UNL A   1      42.431  27.353  32.518  1.00  0.00    -0.206 F 
ATOM    100  C   UNL A   1      42.812  27.179  36.106  1.00  0.00     0.060 A 
BRANCH 100 101
ATOM    101  S   UNL A   1      42.497  26.021  37.457  1.00  0.00     0.124 S 
ATOM    102  O   UNL A   1      41.071  26.218  37.702  1.00  0.00    -0.237 OA
ATOM    103  O   UNL A   1      42.867  24.738  36.869  1.00  0.00    -0.237 OA
ATOM    104  O   UNL A   1      43.382  26.488  38.522  1.00  0.00    -0.744 OA
ENDBRANCH 100 101
ENDBRANCH  68  93
ENDBRANCH  42  43
ENDBRANCH  35  37
ENDBRANCH  34  35
ENDBRANCH  33  34
ENDBRANCH   1  33
TORSDOF 18
ENDMDL
