MODEL 1
REMARK VINA RESULT:     -10.0      0.000      0.000
REMARK SMILES O=C(OCCOC(=O)[C@H]1CCCCN1C(=O)c1cn2ccccc2n1)c1ccc(-c2c3nc(c(-c4c(F)cc(S(=O)(=O)[O-])cc4F)c4ccc([nH]4)c(-c4c(F)cc(S(=O)(=O)[O-])cc4F)c4nc(c(-c5c(F)cc(S(=O)(=O)[O-])cc5F)c5ccc2[nH]5)C=C4)C=C3)cc1
REMARK SMILES IDX 4 1 3 2 2 3 1 4 26 5 27 6 91 7 28 8 90 9 29 10 30 11 31 12
REMARK SMILES IDX 84 13 32 14 89 15 83 16 85 17 33 18 88 19 82 20 81 21 34 23
REMARK SMILES IDX 68 24 47 25 67 26 48 27 51 28 66 29 86 30 49 31 50 32 65 34
REMARK SMILES IDX 87 35 52 36 35 37 36 38 45 39 37 40 38 41 44 42 46 43 39 44
REMARK SMILES IDX 40 45 41 46 42 47 43 48 69 49 70 50 79 51 71 52 72 53 78 54
REMARK SMILES IDX 80 55 73 56 74 57 75 58 76 59 77 60 53 61 54 62 63 63 55 64
REMARK SMILES IDX 56 65 62 66 64 67 57 68 58 69 59 70 60 71 61 72 5 73 6 74
REMARK SMILES IDX 7 75 8 76 9 77 10 78 14 79 11 80 13 81 12 82 15 83 16 84
REMARK SMILES IDX 17 85 18 86 25 87 19 88 24 89 20 90 23 91 21 92 22 93
REMARK H PARENT 85 22 51 33
REMARK Flexibility Score: inf
ROOT
ATOM      1  C   UNL A   1      33.752  32.797  27.943  1.00  0.00     0.275 C 
ENDROOT
BRANCH   1   2
ATOM      2  O   UNL A   1      34.040  31.521  28.521  1.00  0.00    -0.458 OA
BRANCH   2   3
ATOM      3  C   UNL A   1      34.669  30.454  27.979  1.00  0.00     0.338 C 
ATOM      4  O   UNL A   1      34.053  29.757  27.182  1.00  0.00    -0.246 OA
BRANCH   3   5
ATOM      5  C   UNL A   1      36.054  30.023  28.368  1.00  0.00     0.060 A 
ATOM      6  C   UNL A   1      36.465  29.404  29.555  1.00  0.00     0.016 A 
ATOM      7  C   UNL A   1      37.036  30.285  27.414  1.00  0.00     0.016 A 
ATOM      8  C   UNL A   1      37.788  28.962  29.741  1.00  0.00     0.010 A 
ATOM      9  C   UNL A   1      38.345  29.855  27.609  1.00  0.00     0.010 A 
ATOM     10  C   UNL A   1      38.746  29.162  28.753  1.00  0.00    -0.014 A 
BRANCH  10  11
ATOM     11  C   UNL A   1      40.178  28.773  28.908  1.00  0.00     0.031 A 
ATOM     12  C   UNL A   1      41.144  29.787  29.480  1.00  0.00     0.074 A 
ATOM     13  C   UNL A   1      40.641  27.592  28.447  1.00  0.00     0.049 A 
ATOM     14  N   UNL A   1      42.450  29.804  29.470  1.00  0.00    -0.248 NA
ATOM     15  C   UNL A   1      40.545  31.008  30.045  1.00  0.00     0.031 C 
ATOM     16  C   UNL A   1      39.853  26.563  27.764  1.00  0.00     0.029 A 
ATOM     17  N   UNL A   1      41.906  27.057  28.483  1.00  0.00    -0.354 N 
ATOM     18  C   UNL A   1      42.811  31.087  29.875  1.00  0.00     0.074 A 
ATOM     19  C   UNL A   1      41.585  31.825  30.067  1.00  0.00     0.031 C 
ATOM     20  C   UNL A   1      40.636  25.501  27.503  1.00  0.00     0.029 A 
ATOM     21  C   UNL A   1      41.987  25.781  27.973  1.00  0.00     0.049 A 
ATOM     22  H   UNL A   1      42.683  27.543  28.841  1.00  0.00     0.167 HD
ATOM     23  C   UNL A   1      44.053  31.583  30.104  1.00  0.00     0.037 A 
ATOM     24  C   UNL A   1      43.035  24.936  27.925  1.00  0.00     0.037 A 
ATOM     25  C   UNL A   1      45.223  30.745  30.109  1.00  0.00     0.049 A 
ATOM     26  C   UNL A   1      44.354  25.407  28.486  1.00  0.00     0.074 A 
ATOM     27  C   UNL A   1      46.517  31.061  30.481  1.00  0.00     0.029 A 
ATOM     28  N   UNL A   1      45.215  29.394  29.789  1.00  0.00    -0.354 N 
ATOM     29  N   UNL A   1      44.695  26.609  28.888  1.00  0.00    -0.248 NA
ATOM     30  C   UNL A   1      45.417  24.404  28.626  1.00  0.00     0.031 C 
ATOM     31  C   UNL A   1      47.289  29.897  30.401  1.00  0.00     0.029 A 
ATOM     32  C   UNL A   1      46.464  28.851  30.017  1.00  0.00     0.049 A 
ATOM     33  H   UNL A   1      44.436  28.898  29.449  1.00  0.00     0.167 HD
ATOM     34  C   UNL A   1      45.990  26.494  29.376  1.00  0.00     0.074 A 
ATOM     35  C   UNL A   1      46.372  25.107  29.220  1.00  0.00     0.031 C 
ATOM     36  C   UNL A   1      46.791  27.451  29.907  1.00  0.00     0.037 A 
BRANCH  23  37
ATOM     37  C   UNL A   1      44.201  33.061  30.385  1.00  0.00     0.058 A 
ATOM     38  C   UNL A   1      44.095  33.612  31.673  1.00  0.00     0.135 A 
ATOM     39  C   UNL A   1      44.430  33.959  29.327  1.00  0.00     0.135 A 
ATOM     40  F   UNL A   1      43.915  32.817  32.741  1.00  0.00    -0.206 F 
ATOM     41  C   UNL A   1      44.088  34.988  31.887  1.00  0.00     0.059 A 
ATOM     42  C   UNL A   1      44.476  35.338  29.522  1.00  0.00     0.059 A 
ATOM     43  F   UNL A   1      44.593  33.508  28.075  1.00  0.00    -0.206 F 
ATOM     44  C   UNL A   1      44.260  35.844  30.800  1.00  0.00     0.060 A 
BRANCH  44  45
ATOM     45  S   UNL A   1      44.185  37.625  31.071  1.00  0.00     0.124 S 
ATOM     46  O   UNL A   1      45.602  37.973  31.070  1.00  0.00    -0.237 OA
ATOM     47  O   UNL A   1      43.417  38.090  29.920  1.00  0.00    -0.237 OA
ATOM     48  O   UNL A   1      43.510  37.741  32.360  1.00  0.00    -0.744 OA
ENDBRANCH  44  45
ENDBRANCH  23  37
BRANCH  24  49
ATOM     49  C   UNL A   1      42.858  23.524  27.485  1.00  0.00     0.058 A 
ATOM     50  C   UNL A   1      43.046  23.184  26.134  1.00  0.00     0.135 A 
ATOM     51  C   UNL A   1      42.494  22.496  28.366  1.00  0.00     0.135 A 
ATOM     52  F   UNL A   1      43.393  24.130  25.249  1.00  0.00    -0.206 F 
ATOM     53  C   UNL A   1      42.845  21.891  25.667  1.00  0.00     0.059 A 
ATOM     54  C   UNL A   1      42.308  21.186  27.925  1.00  0.00     0.059 A 
ATOM     55  F   UNL A   1      42.318  22.759  29.670  1.00  0.00    -0.206 F 
ATOM     56  C   UNL A   1      42.471  20.896  26.569  1.00  0.00     0.060 A 
BRANCH  56  57
ATOM     57  S   UNL A   1      42.232  19.216  25.945  1.00  0.00     0.124 S 
ATOM     58  O   UNL A   1      40.792  19.189  25.716  1.00  0.00    -0.237 OA
ATOM     59  O   UNL A   1      43.066  19.213  24.747  1.00  0.00    -0.237 OA
ATOM     60  O   UNL A   1      42.713  18.377  27.038  1.00  0.00    -0.744 OA
ENDBRANCH  56  57
ENDBRANCH  24  49
BRANCH  36  61
ATOM     61  C   UNL A   1      48.115  27.018  30.462  1.00  0.00     0.058 A 
ATOM     62  C   UNL A   1      48.255  26.543  31.773  1.00  0.00     0.135 A 
ATOM     63  C   UNL A   1      49.248  27.011  29.631  1.00  0.00     0.135 A 
ATOM     64  F   UNL A   1      47.200  26.529  32.603  1.00  0.00    -0.206 F 
ATOM     65  C   UNL A   1      49.480  26.093  32.251  1.00  0.00     0.059 A 
ATOM     66  C   UNL A   1      50.476  26.543  30.079  1.00  0.00     0.059 A 
ATOM     67  F   UNL A   1      49.159  27.445  28.363  1.00  0.00    -0.206 F 
ATOM     68  C   UNL A   1      50.584  26.094  31.394  1.00  0.00     0.060 A 
BRANCH  68  69
ATOM     69  S   UNL A   1      52.158  25.462  32.011  1.00  0.00     0.124 S 
ATOM     70  O   UNL A   1      51.855  24.047  32.194  1.00  0.00    -0.237 OA
ATOM     71  O   UNL A   1      53.072  25.780  30.919  1.00  0.00    -0.237 OA
ATOM     72  O   UNL A   1      52.372  26.224  33.239  1.00  0.00    -0.744 OA
ENDBRANCH  68  69
ENDBRANCH  36  61
ENDBRANCH  10  11
ENDBRANCH   3   5
ENDBRANCH   2   3
ENDBRANCH   1   2
BRANCH   1  73
ATOM     73  C   UNL A   1      33.880  34.006  28.879  1.00  0.00     0.274 C 
BRANCH  73  74
ATOM     74  O   UNL A   1      35.073  34.096  29.683  1.00  0.00    -0.461 OA
BRANCH  74  75
ATOM     75  C   UNL A   1      34.923  33.769  31.005  1.00  0.00     0.328 C 
ATOM     76  O   UNL A   1      33.976  34.147  31.682  1.00  0.00    -0.250 OA
BRANCH  75  77
ATOM     77  C   UNL A   1      36.106  32.914  31.537  1.00  0.00     0.195 C 
ATOM     78  C   UNL A   1      37.133  32.778  30.390  1.00  0.00     0.037 C 
ATOM     79  N   UNL A   1      36.839  33.401  32.735  1.00  0.00    -0.323 N 
ATOM     80  C   UNL A   1      37.938  34.070  30.167  1.00  0.00     0.005 C 
ATOM     81  C   UNL A   1      37.464  34.706  32.573  1.00  0.00     0.121 C 
ATOM     82  C   UNL A   1      38.514  34.629  31.468  1.00  0.00     0.022 C 
BRANCH  79  83
ATOM     83  C   UNL A   1      37.307  32.414  33.639  1.00  0.00     0.274 C 
ATOM     84  O   UNL A   1      36.702  32.263  34.704  1.00  0.00    -0.267 OA
BRANCH  83  85
ATOM     85  C   UNL A   1      38.516  31.592  33.359  1.00  0.00     0.147 A 
ATOM     86  C   UNL A   1      39.860  31.858  33.575  1.00  0.00     0.127 A 
ATOM     87  N   UNL A   1      38.399  30.267  32.937  1.00  0.00    -0.223 NA
ATOM     88  N   UNL A   1      40.527  30.662  33.447  1.00  0.00    -0.306 N 
ATOM     89  C   UNL A   1      39.595  29.726  33.031  1.00  0.00     0.137 A 
ATOM     90  C   UNL A   1      41.862  30.369  33.713  1.00  0.00     0.093 A 
ATOM     91  C   UNL A   1      40.067  28.396  32.832  1.00  0.00     0.048 A 
ATOM     92  C   UNL A   1      42.303  29.112  33.534  1.00  0.00     0.018 A 
ATOM     93  C   UNL A   1      41.362  28.104  33.066  1.00  0.00     0.005 A 
ENDBRANCH  83  85
ENDBRANCH  79  83
ENDBRANCH  75  77
ENDBRANCH  74  75
ENDBRANCH  73  74
ENDBRANCH   1  73
TORSDOF 16
ENDMDL
MODEL 2
REMARK VINA RESULT:     -10.0      3.146      5.758
REMARK SMILES O=C(OCCOC(=O)[C@H]1CCCCN1C(=O)c1cn2ccccc2n1)c1ccc(-c2c3nc(c(-c4c(F)cc(S(=O)(=O)[O-])cc4F)c4ccc([nH]4)c(-c4c(F)cc(S(=O)(=O)[O-])cc4F)c4nc(c(-c5c(F)cc(S(=O)(=O)[O-])cc5F)c5ccc2[nH]5)C=C4)C=C3)cc1
REMARK SMILES IDX 4 1 3 2 2 3 1 4 26 5 27 6 91 7 28 8 90 9 29 10 30 11 31 12
REMARK SMILES IDX 84 13 32 14 89 15 83 16 85 17 33 18 88 19 82 20 81 21 34 23
REMARK SMILES IDX 68 24 47 25 67 26 48 27 51 28 66 29 86 30 49 31 50 32 65 34
REMARK SMILES IDX 87 35 52 36 35 37 36 38 45 39 37 40 38 41 44 42 46 43 39 44
REMARK SMILES IDX 40 45 41 46 42 47 43 48 69 49 70 50 79 51 71 52 72 53 78 54
REMARK SMILES IDX 80 55 73 56 74 57 75 58 76 59 77 60 53 61 54 62 63 63 55 64
REMARK SMILES IDX 56 65 62 66 64 67 57 68 58 69 59 70 60 71 61 72 5 73 6 74
REMARK SMILES IDX 7 75 8 76 9 77 10 78 14 79 11 80 13 81 12 82 15 83 16 84
REMARK SMILES IDX 17 85 18 86 25 87 19 88 24 89 20 90 23 91 21 92 22 93
REMARK H PARENT 85 22 51 33
REMARK Flexibility Score: inf
ROOT
ATOM      1  C   UNL A   1      32.608  30.461  26.567  1.00  0.00     0.275 C 
ENDROOT
BRANCH   1   2
ATOM      2  O   UNL A   1      33.792  29.999  27.222  1.00  0.00    -0.458 OA
BRANCH   2   3
ATOM      3  C   UNL A   1      34.576  30.631  28.126  1.00  0.00     0.338 C 
ATOM      4  O   UNL A   1      34.162  31.664  28.636  1.00  0.00    -0.246 OA
BRANCH   3   5
ATOM      5  C   UNL A   1      35.966  30.182  28.472  1.00  0.00     0.060 A 
ATOM      6  C   UNL A   1      36.410  29.571  29.653  1.00  0.00     0.016 A 
ATOM      7  C   UNL A   1      36.918  30.414  27.480  1.00  0.00     0.016 A 
ATOM      8  C   UNL A   1      37.731  29.110  29.798  1.00  0.00     0.010 A 
ATOM      9  C   UNL A   1      38.226  29.963  27.635  1.00  0.00     0.010 A 
ATOM     10  C   UNL A   1      38.656  29.279  28.774  1.00  0.00    -0.014 A 
BRANCH  10  11
ATOM     11  C   UNL A   1      40.086  28.867  28.883  1.00  0.00     0.031 A 
ATOM     12  C   UNL A   1      41.081  29.857  29.449  1.00  0.00     0.074 A 
ATOM     13  C   UNL A   1      40.520  27.689  28.387  1.00  0.00     0.049 A 
ATOM     14  N   UNL A   1      42.386  29.855  29.405  1.00  0.00    -0.248 NA
ATOM     15  C   UNL A   1      40.514  31.074  30.053  1.00  0.00     0.031 C 
ATOM     16  C   UNL A   1      39.699  26.685  27.705  1.00  0.00     0.029 A 
ATOM     17  N   UNL A   1      41.777  27.137  28.379  1.00  0.00    -0.354 N 
ATOM     18  C   UNL A   1      42.776  31.126  29.826  1.00  0.00     0.074 A 
ATOM     19  C   UNL A   1      41.566  31.876  30.064  1.00  0.00     0.031 C 
ATOM     20  C   UNL A   1      40.460  25.618  27.403  1.00  0.00     0.029 A 
ATOM     21  C   UNL A   1      41.826  25.870  27.842  1.00  0.00     0.049 A 
ATOM     22  H   UNL A   1      42.570  27.605  28.726  1.00  0.00     0.167 HD
ATOM     23  C   UNL A   1      44.030  31.600  30.032  1.00  0.00     0.037 A 
ATOM     24  C   UNL A   1      42.861  25.012  27.750  1.00  0.00     0.037 A 
ATOM     25  C   UNL A   1      45.188  30.746  29.990  1.00  0.00     0.049 A 
ATOM     26  C   UNL A   1      44.200  25.453  28.285  1.00  0.00     0.074 A 
ATOM     27  C   UNL A   1      46.495  31.036  30.334  1.00  0.00     0.029 A 
ATOM     28  N   UNL A   1      45.153  29.402  29.643  1.00  0.00    -0.354 N 
ATOM     29  N   UNL A   1      44.569  26.643  28.702  1.00  0.00    -0.248 NA
ATOM     30  C   UNL A   1      45.252  24.433  28.377  1.00  0.00     0.031 C 
ATOM     31  C   UNL A   1      47.248  29.863  30.210  1.00  0.00     0.029 A 
ATOM     32  C   UNL A   1      46.399  28.836  29.827  1.00  0.00     0.049 A 
ATOM     33  H   UNL A   1      44.358  28.923  29.314  1.00  0.00     0.167 HD
ATOM     34  C   UNL A   1      45.875  26.500  29.152  1.00  0.00     0.074 A 
ATOM     35  C   UNL A   1      46.233  25.111  28.960  1.00  0.00     0.031 C 
ATOM     36  C   UNL A   1      46.703  27.435  29.681  1.00  0.00     0.037 A 
BRANCH  23  37
ATOM     37  C   UNL A   1      44.206  33.070  30.338  1.00  0.00     0.058 A 
ATOM     38  C   UNL A   1      43.972  33.623  31.608  1.00  0.00     0.135 A 
ATOM     39  C   UNL A   1      44.598  33.958  29.320  1.00  0.00     0.135 A 
ATOM     40  F   UNL A   1      43.633  32.834  32.641  1.00  0.00    -0.206 F 
ATOM     41  C   UNL A   1      43.999  34.997  31.828  1.00  0.00     0.059 A 
ATOM     42  C   UNL A   1      44.679  35.333  29.528  1.00  0.00     0.059 A 
ATOM     43  F   UNL A   1      44.889  33.502  28.093  1.00  0.00    -0.206 F 
ATOM     44  C   UNL A   1      44.334  35.846  30.774  1.00  0.00     0.060 A 
BRANCH  44  45
ATOM     45  S   UNL A   1      44.304  37.629  31.046  1.00  0.00     0.124 S 
ATOM     46  O   UNL A   1      43.424  38.067  29.967  1.00  0.00    -0.237 OA
ATOM     47  O   UNL A   1      43.755  37.736  32.394  1.00  0.00    -0.237 OA
ATOM     48  O   UNL A   1      45.705  38.014  30.910  1.00  0.00    -0.744 OA
ENDBRANCH  44  45
ENDBRANCH  23  37
BRANCH  24  49
ATOM     49  C   UNL A   1      42.652  23.612  27.288  1.00  0.00     0.058 A 
ATOM     50  C   UNL A   1      42.359  22.604  28.222  1.00  0.00     0.135 A 
ATOM     51  C   UNL A   1      42.748  23.237  25.941  1.00  0.00     0.135 A 
ATOM     52  F   UNL A   1      42.257  22.908  29.525  1.00  0.00    -0.206 F 
ATOM     53  C   UNL A   1      42.204  21.274  27.846  1.00  0.00     0.059 A 
ATOM     54  C   UNL A   1      42.576  21.913  25.535  1.00  0.00     0.059 A 
ATOM     55  F   UNL A   1      43.010  24.159  25.003  1.00  0.00    -0.206 F 
ATOM     56  C   UNL A   1      42.319  20.935  26.498  1.00  0.00     0.060 A 
BRANCH  56  57
ATOM     57  S   UNL A   1      42.097  19.205  26.027  1.00  0.00     0.124 S 
ATOM     58  O   UNL A   1      42.990  19.094  24.879  1.00  0.00    -0.237 OA
ATOM     59  O   UNL A   1      42.521  18.501  27.233  1.00  0.00    -0.237 OA
ATOM     60  O   UNL A   1      40.671  19.116  25.727  1.00  0.00    -0.744 OA
ENDBRANCH  56  57
ENDBRANCH  24  49
BRANCH  36  61
ATOM     61  C   UNL A   1      48.034  26.972  30.193  1.00  0.00     0.058 A 
ATOM     62  C   UNL A   1      49.163  26.890  29.367  1.00  0.00     0.135 A 
ATOM     63  C   UNL A   1      48.190  26.681  31.559  1.00  0.00     0.135 A 
ATOM     64  F   UNL A   1      49.063  27.160  28.056  1.00  0.00    -0.206 F 
ATOM     65  C   UNL A   1      50.402  26.513  29.872  1.00  0.00     0.059 A 
ATOM     66  C   UNL A   1      49.423  26.327  32.091  1.00  0.00     0.059 A 
ATOM     67  F   UNL A   1      47.139  26.759  32.392  1.00  0.00    -0.206 F 
ATOM     68  C   UNL A   1      50.522  26.236  31.237  1.00  0.00     0.060 A 
BRANCH  68  69
ATOM     69  S   UNL A   1      52.145  25.795  31.891  1.00  0.00     0.124 S 
ATOM     70  O   UNL A   1      53.018  26.155  30.779  1.00  0.00    -0.237 OA
ATOM     71  O   UNL A   1      52.245  26.640  33.077  1.00  0.00    -0.237 OA
ATOM     72  O   UNL A   1      52.026  24.365  32.159  1.00  0.00    -0.744 OA
ENDBRANCH  68  69
ENDBRANCH  36  61
ENDBRANCH  10  11
ENDBRANCH   3   5
ENDBRANCH   2   3
ENDBRANCH   1   2
BRANCH   1  73
ATOM     73  C   UNL A   1      32.084  29.580  25.425  1.00  0.00     0.274 C 
BRANCH  73  74
ATOM     74  O   UNL A   1      31.715  28.226  25.750  1.00  0.00    -0.461 OA
BRANCH  74  75
ATOM     75  C   UNL A   1      32.561  27.253  25.285  1.00  0.00     0.328 C 
ATOM     76  O   UNL A   1      33.567  27.502  24.633  1.00  0.00    -0.250 OA
BRANCH  75  77
ATOM     77  C   UNL A   1      32.067  25.824  25.641  1.00  0.00     0.195 C 
ATOM     78  C   UNL A   1      30.529  25.884  25.776  1.00  0.00     0.037 C 
ATOM     79  N   UNL A   1      32.389  24.718  24.702  1.00  0.00    -0.323 N 
ATOM     80  C   UNL A   1      29.824  25.977  24.411  1.00  0.00     0.005 C 
ATOM     81  C   UNL A   1      31.854  24.890  23.358  1.00  0.00     0.121 C 
ATOM     82  C   UNL A   1      30.331  24.929  23.421  1.00  0.00     0.022 C 
BRANCH  79  83
ATOM     83  C   UNL A   1      32.664  23.452  25.280  1.00  0.00     0.274 C 
ATOM     84  O   UNL A   1      31.711  22.718  25.560  1.00  0.00    -0.267 OA
BRANCH  83  85
ATOM     85  C   UNL A   1      34.049  23.006  25.589  1.00  0.00     0.147 A 
ATOM     86  C   UNL A   1      34.674  21.786  25.383  1.00  0.00     0.127 A 
ATOM     87  N   UNL A   1      35.011  23.915  26.035  1.00  0.00    -0.223 NA
ATOM     88  N   UNL A   1      36.023  21.997  25.540  1.00  0.00    -0.306 N 
ATOM     89  C   UNL A   1      36.176  23.307  25.964  1.00  0.00     0.137 A 
ATOM     90  C   UNL A   1      37.083  21.128  25.295  1.00  0.00     0.093 A 
ATOM     91  C   UNL A   1      37.509  23.756  26.193  1.00  0.00     0.048 A 
ATOM     92  C   UNL A   1      38.340  21.556  25.503  1.00  0.00     0.018 A 
ATOM     93  C   UNL A   1      38.543  22.917  25.978  1.00  0.00     0.005 A 
ENDBRANCH  83  85
ENDBRANCH  79  83
ENDBRANCH  75  77
ENDBRANCH  74  75
ENDBRANCH  73  74
ENDBRANCH   1  73
TORSDOF 16
ENDMDL
MODEL 3
REMARK VINA RESULT:      -9.9      3.894      6.808
REMARK SMILES O=C(OCCOC(=O)[C@H]1CCCCN1C(=O)c1cn2ccccc2n1)c1ccc(-c2c3nc(c(-c4c(F)cc(S(=O)(=O)[O-])cc4F)c4ccc([nH]4)c(-c4c(F)cc(S(=O)(=O)[O-])cc4F)c4nc(c(-c5c(F)cc(S(=O)(=O)[O-])cc5F)c5ccc2[nH]5)C=C4)C=C3)cc1
REMARK SMILES IDX 4 1 3 2 2 3 1 4 26 5 27 6 91 7 28 8 90 9 29 10 30 11 31 12
REMARK SMILES IDX 84 13 32 14 89 15 83 16 85 17 33 18 88 19 82 20 81 21 34 23
REMARK SMILES IDX 68 24 47 25 67 26 48 27 51 28 66 29 86 30 49 31 50 32 65 34
REMARK SMILES IDX 87 35 52 36 35 37 36 38 45 39 37 40 38 41 44 42 46 43 39 44
REMARK SMILES IDX 40 45 41 46 42 47 43 48 69 49 70 50 79 51 71 52 72 53 78 54
REMARK SMILES IDX 80 55 73 56 74 57 75 58 76 59 77 60 53 61 54 62 63 63 55 64
REMARK SMILES IDX 56 65 62 66 64 67 57 68 58 69 59 70 60 71 61 72 5 73 6 74
REMARK SMILES IDX 7 75 8 76 9 77 10 78 14 79 11 80 13 81 12 82 15 83 16 84
REMARK SMILES IDX 17 85 18 86 25 87 19 88 24 89 20 90 23 91 21 92 22 93
REMARK H PARENT 85 22 51 33
REMARK Flexibility Score: inf
ROOT
ATOM      1  C   UNL A   1      32.448  29.787  27.189  1.00  0.00     0.275 C 
ENDROOT
BRANCH   1   2
ATOM      2  O   UNL A   1      33.692  29.579  27.863  1.00  0.00    -0.458 OA
BRANCH   2   3
ATOM      3  C   UNL A   1      34.692  30.456  28.113  1.00  0.00     0.338 C 
ATOM      4  O   UNL A   1      34.468  31.651  27.970  1.00  0.00    -0.246 OA
BRANCH   3   5
ATOM      5  C   UNL A   1      36.089  30.038  28.469  1.00  0.00     0.060 A 
ATOM      6  C   UNL A   1      36.565  29.573  29.702  1.00  0.00     0.016 A 
ATOM      7  C   UNL A   1      37.011  30.135  27.427  1.00  0.00     0.016 A 
ATOM      8  C   UNL A   1      37.887  29.118  29.862  1.00  0.00     0.010 A 
ATOM      9  C   UNL A   1      38.319  29.693  27.596  1.00  0.00     0.010 A 
ATOM     10  C   UNL A   1      38.780  29.150  28.797  1.00  0.00    -0.014 A 
BRANCH  10  11
ATOM     11  C   UNL A   1      40.210  28.740  28.913  1.00  0.00     0.031 A 
ATOM     12  C   UNL A   1      41.199  29.723  29.499  1.00  0.00     0.074 A 
ATOM     13  C   UNL A   1      40.650  27.569  28.405  1.00  0.00     0.049 A 
ATOM     14  N   UNL A   1      42.504  29.725  29.466  1.00  0.00    -0.248 NA
ATOM     15  C   UNL A   1      40.625  30.932  30.114  1.00  0.00     0.031 C 
ATOM     16  C   UNL A   1      39.837  26.572  27.704  1.00  0.00     0.029 A 
ATOM     17  N   UNL A   1      41.908  27.019  28.401  1.00  0.00    -0.354 N 
ATOM     18  C   UNL A   1      42.889  30.990  29.906  1.00  0.00     0.074 A 
ATOM     19  C   UNL A   1      41.675  31.735  30.144  1.00  0.00     0.031 C 
ATOM     20  C   UNL A   1      40.602  25.510  27.394  1.00  0.00     0.029 A 
ATOM     21  C   UNL A   1      41.964  25.759  27.848  1.00  0.00     0.049 A 
ATOM     22  H   UNL A   1      42.698  27.483  28.760  1.00  0.00     0.167 HD
ATOM     23  C   UNL A   1      44.140  31.464  30.128  1.00  0.00     0.037 A 
ATOM     24  C   UNL A   1      43.001  24.904  27.754  1.00  0.00     0.037 A 
ATOM     25  C   UNL A   1      45.300  30.612  30.084  1.00  0.00     0.049 A 
ATOM     26  C   UNL A   1      44.335  25.340  28.304  1.00  0.00     0.074 A 
ATOM     27  C   UNL A   1      46.604  30.901  30.442  1.00  0.00     0.029 A 
ATOM     28  N   UNL A   1      45.270  29.273  29.720  1.00  0.00    -0.354 N 
ATOM     29  N   UNL A   1      44.699  26.525  28.739  1.00  0.00    -0.248 NA
ATOM     30  C   UNL A   1      45.388  24.321  28.392  1.00  0.00     0.031 C 
ATOM     31  C   UNL A   1      47.360  29.731  30.310  1.00  0.00     0.029 A 
ATOM     32  C   UNL A   1      46.516  28.707  29.907  1.00  0.00     0.049 A 
ATOM     33  H   UNL A   1      44.478  28.797  29.379  1.00  0.00     0.167 HD
ATOM     34  C   UNL A   1      46.001  26.379  29.199  1.00  0.00     0.074 A 
ATOM     35  C   UNL A   1      46.363  24.993  28.992  1.00  0.00     0.031 C 
ATOM     36  C   UNL A   1      46.823  27.308  29.746  1.00  0.00     0.037 A 
BRANCH  23  37
ATOM     37  C   UNL A   1      44.311  32.930  30.454  1.00  0.00     0.058 A 
ATOM     38  C   UNL A   1      44.430  33.416  31.767  1.00  0.00     0.135 A 
ATOM     39  C   UNL A   1      44.331  33.883  29.420  1.00  0.00     0.135 A 
ATOM     40  F   UNL A   1      44.459  32.566  32.806  1.00  0.00    -0.206 F 
ATOM     41  C   UNL A   1      44.439  34.779  32.049  1.00  0.00     0.059 A 
ATOM     42  C   UNL A   1      44.388  35.251  29.674  1.00  0.00     0.059 A 
ATOM     43  F   UNL A   1      44.273  33.496  28.137  1.00  0.00    -0.206 F 
ATOM     44  C   UNL A   1      44.397  35.690  30.994  1.00  0.00     0.060 A 
BRANCH  44  45
ATOM     45  S   UNL A   1      44.342  37.454  31.366  1.00  0.00     0.124 S 
ATOM     46  O   UNL A   1      43.499  37.469  32.557  1.00  0.00    -0.237 OA
ATOM     47  O   UNL A   1      45.749  37.777  31.582  1.00  0.00    -0.237 OA
ATOM     48  O   UNL A   1      43.747  38.032  30.165  1.00  0.00    -0.744 OA
ENDBRANCH  44  45
ENDBRANCH  23  37
BRANCH  24  49
ATOM     49  C   UNL A   1      42.799  23.509  27.272  1.00  0.00     0.058 A 
ATOM     50  C   UNL A   1      42.371  22.515  28.168  1.00  0.00     0.135 A 
ATOM     51  C   UNL A   1      43.030  23.126  25.944  1.00  0.00     0.135 A 
ATOM     52  F   UNL A   1      42.136  22.828  29.452  1.00  0.00    -0.206 F 
ATOM     53  C   UNL A   1      42.215  21.190  27.778  1.00  0.00     0.059 A 
ATOM     54  C   UNL A   1      42.860  21.807  25.522  1.00  0.00     0.059 A 
ATOM     55  F   UNL A   1      43.424  24.035  25.040  1.00  0.00    -0.206 F 
ATOM     56  C   UNL A   1      42.466  20.842  26.451  1.00  0.00     0.060 A 
BRANCH  56  57
ATOM     57  S   UNL A   1      42.240  19.117  25.959  1.00  0.00     0.124 S 
ATOM     58  O   UNL A   1      42.707  18.409  27.145  1.00  0.00    -0.237 OA
ATOM     59  O   UNL A   1      40.805  19.056  25.705  1.00  0.00    -0.237 OA
ATOM     60  O   UNL A   1      43.085  18.990  24.776  1.00  0.00    -0.744 OA
ENDBRANCH  56  57
ENDBRANCH  24  49
BRANCH  36  61
ATOM     61  C   UNL A   1      48.151  26.842  30.263  1.00  0.00     0.058 A 
ATOM     62  C   UNL A   1      49.298  26.816  29.457  1.00  0.00     0.135 A 
ATOM     63  C   UNL A   1      48.284  26.486  31.615  1.00  0.00     0.135 A 
ATOM     64  F   UNL A   1      49.219  27.148  28.159  1.00  0.00    -0.206 F 
ATOM     65  C   UNL A   1      50.531  26.434  29.970  1.00  0.00     0.059 A 
ATOM     66  C   UNL A   1      49.512  26.125  32.156  1.00  0.00     0.059 A 
ATOM     67  F   UNL A   1      47.215  26.508  32.429  1.00  0.00    -0.206 F 
ATOM     68  C   UNL A   1      50.629  26.093  31.322  1.00  0.00     0.060 A 
BRANCH  68  69
ATOM     69  S   UNL A   1      52.245  25.645  31.987  1.00  0.00     0.124 S 
ATOM     70  O   UNL A   1      52.343  26.531  33.142  1.00  0.00    -0.237 OA
ATOM     71  O   UNL A   1      52.079  24.227  32.287  1.00  0.00    -0.237 OA
ATOM     72  O   UNL A   1      53.159  25.942  30.888  1.00  0.00    -0.744 OA
ENDBRANCH  68  69
ENDBRANCH  36  61
ENDBRANCH  10  11
ENDBRANCH   3   5
ENDBRANCH   2   3
ENDBRANCH   1   2
BRANCH   1  73
ATOM     73  C   UNL A   1      31.907  28.595  26.390  1.00  0.00     0.274 C 
BRANCH  73  74
ATOM     74  O   UNL A   1      31.600  27.392  27.122  1.00  0.00    -0.461 OA
BRANCH  74  75
ATOM     75  C   UNL A   1      31.530  26.245  26.374  1.00  0.00     0.328 C 
ATOM     76  O   UNL A   1      31.307  25.145  26.861  1.00  0.00    -0.250 OA
BRANCH  75  77
ATOM     77  C   UNL A   1      31.811  26.508  24.869  1.00  0.00     0.195 C 
ATOM     78  C   UNL A   1      32.689  25.347  24.350  1.00  0.00     0.037 C 
ATOM     79  N   UNL A   1      30.648  26.631  23.951  1.00  0.00    -0.323 N 
ATOM     80  C   UNL A   1      31.888  24.048  24.154  1.00  0.00     0.005 C 
ATOM     81  C   UNL A   1      29.795  25.451  23.893  1.00  0.00     0.121 C 
ATOM     82  C   UNL A   1      30.602  24.271  23.359  1.00  0.00     0.022 C 
BRANCH  79  83
ATOM     83  C   UNL A   1      30.771  27.561  22.888  1.00  0.00     0.274 C 
ATOM     84  O   UNL A   1      31.597  27.329  22.001  1.00  0.00    -0.267 OA
BRANCH  83  85
ATOM     85  C   UNL A   1      29.969  28.814  22.834  1.00  0.00     0.147 A 
ATOM     86  C   UNL A   1      29.840  29.845  23.752  1.00  0.00     0.127 A 
ATOM     87  N   UNL A   1      29.304  29.188  21.666  1.00  0.00    -0.223 NA
ATOM     88  N   UNL A   1      29.250  30.896  23.089  1.00  0.00    -0.306 N 
ATOM     89  C   UNL A   1      28.918  30.436  21.826  1.00  0.00     0.137 A 
ATOM     90  C   UNL A   1      29.041  32.202  23.525  1.00  0.00     0.093 A 
ATOM     91  C   UNL A   1      28.288  31.367  20.950  1.00  0.00     0.048 A 
ATOM     92  C   UNL A   1      28.455  33.081  22.694  1.00  0.00     0.018 A 
ATOM     93  C   UNL A   1      28.061  32.629  21.367  1.00  0.00     0.005 A 
ENDBRANCH  83  85
ENDBRANCH  79  83
ENDBRANCH  75  77
ENDBRANCH  74  75
ENDBRANCH  73  74
ENDBRANCH   1  73
TORSDOF 16
ENDMDL
