MODEL 1
REMARK VINA RESULT:     -12.3      0.000      0.000
REMARK SMILES O=C1CC[C@@H](CC(=O)N2CCC(Oc3ccccc3)(C(=O)OCCOC(=O)c3ccc(-c4c5nc(c(-c6c(F)cc(S(=O)(=O)[O-])cc6F)c6ccc([nH]6)c(-c6c(F)cc(S(=O)(=O)[O-])cc6F)c6nc(c(-c7c(F)cc(S(=O)(=O)[O-])cc7F)c7ccc4[nH]7)C=C6)C=C5)cc3)CC2)N1
REMARK SMILES IDX 24 1 23 2 22 3 20 4 21 5 12 6 7 7 8 8 9 9 10 10 95 11 11 12
REMARK SMILES IDX 94 13 6 14 5 15 1 16 2 17 3 18 96 19 4 20 13 22 14 23 15 24
REMARK SMILES IDX 19 25 16 26 18 27 17 28 25 29 26 30 27 31 28 32 29 33 93 34
REMARK SMILES IDX 30 35 92 36 31 37 32 38 33 39 86 40 34 41 91 42 85 43 87 44
REMARK SMILES IDX 35 45 90 46 84 47 83 48 36 50 70 51 49 52 69 53 50 54 53 55
REMARK SMILES IDX 68 56 88 57 51 58 52 59 67 61 89 62 54 63 37 64 38 65 47 66
REMARK SMILES IDX 39 67 40 68 46 69 48 70 41 71 42 72 43 73 44 74 45 75 71 76
REMARK SMILES IDX 72 77 81 78 73 79 74 80 80 81 82 82 75 83 76 84 77 85 78 86
REMARK SMILES IDX 79 87 55 88 56 89 65 90 57 91 58 92 64 93 66 94 59 95 60 96
REMARK SMILES IDX 61 97 62 98 63 99
REMARK H PARENT 96 21 87 49 53 60
REMARK Flexibility Score: inf
ROOT
ATOM      1  C   UNL A   1      31.977  30.966  26.645  1.00  0.00     0.275 C 
ENDROOT
BRANCH   1   2
ATOM      2  C   UNL A   1      31.459  30.181  25.441  1.00  0.00     0.274 C 
BRANCH   2   3
ATOM      3  O   UNL A   1      31.977  28.831  25.431  1.00  0.00    -0.459 OA
BRANCH   3   4
ATOM      4  C   UNL A   1      32.319  28.341  24.208  1.00  0.00     0.350 C 
ATOM      5  O   UNL A   1      33.165  28.864  23.487  1.00  0.00    -0.247 OA
BRANCH   4   6
ATOM      6  C   UNL A   1      31.513  27.089  23.789  1.00  0.00     0.209 C 
ATOM      7  C   UNL A   1      31.661  23.731  26.247  1.00  0.00     0.224 C 
ATOM      8  O   UNL A   1      30.523  23.302  26.460  1.00  0.00    -0.275 OA
ATOM      9  N   UNL A   1      31.857  25.040  25.833  1.00  0.00    -0.342 N 
ATOM     10  C   UNL A   1      30.827  26.051  26.053  1.00  0.00     0.124 C 
ATOM     11  C   UNL A   1      32.987  25.508  25.069  1.00  0.00     0.124 C 
ATOM     12  C   UNL A   1      30.367  26.710  24.754  1.00  0.00     0.082 C 
ATOM     13  C   UNL A   1      32.529  25.928  23.681  1.00  0.00     0.082 C 
BRANCH   7  14
ATOM     14  C   UNL A   1      32.864  22.869  26.641  1.00  0.00     0.125 C 
BRANCH  14  15
ATOM     15  C   UNL A   1      33.346  21.685  25.793  1.00  0.00     0.091 C 
ATOM     16  O   UNL A   1      32.166  18.446  25.160  1.00  0.00    -0.275 OA
ATOM     17  C   UNL A   1      32.526  19.599  25.083  1.00  0.00     0.220 C 
ATOM     18  C   UNL A   1      32.641  20.418  23.823  1.00  0.00     0.102 C 
ATOM     19  N   UNL A   1      32.878  20.387  26.161  1.00  0.00    -0.353 N 
ATOM     20  C   UNL A   1      32.976  21.819  24.318  1.00  0.00     0.035 C 
ATOM     21  H   UNL A   1      32.811  20.082  27.095  1.00  0.00     0.163 HD
ENDBRANCH  14  15
ENDBRANCH   7  14
BRANCH   6  22
ATOM     22  O   UNL A   1      30.968  27.556  22.516  1.00  0.00    -0.475 OA
BRANCH  22  23
ATOM     23  C   UNL A   1      29.883  28.379  22.612  1.00  0.00     0.121 A 
ATOM     24  C   UNL A   1      30.002  29.716  22.233  1.00  0.00     0.046 A 
ATOM     25  C   UNL A   1      28.679  27.899  23.124  1.00  0.00     0.046 A 
ATOM     26  C   UNL A   1      28.878  30.542  22.260  1.00  0.00     0.004 A 
ATOM     27  C   UNL A   1      27.556  28.723  23.144  1.00  0.00     0.004 A 
ATOM     28  C   UNL A   1      27.653  30.040  22.698  1.00  0.00     0.000 A 
ENDBRANCH  22  23
ENDBRANCH   6  22
ENDBRANCH   4   6
ENDBRANCH   3   4
ENDBRANCH   2   3
ENDBRANCH   1   2
BRANCH   1  29
ATOM     29  O   UNL A   1      33.374  30.682  26.854  1.00  0.00    -0.458 OA
BRANCH  29  30
ATOM     30  C   UNL A   1      34.087  31.621  27.520  1.00  0.00     0.338 C 
ATOM     31  O   UNL A   1      33.729  32.758  27.781  1.00  0.00    -0.246 OA
BRANCH  30  32
ATOM     32  C   UNL A   1      35.388  31.068  27.966  1.00  0.00     0.060 A 
ATOM     33  C   UNL A   1      35.483  29.735  28.337  1.00  0.00     0.016 A 
ATOM     34  C   UNL A   1      36.475  31.917  28.192  1.00  0.00     0.016 A 
ATOM     35  C   UNL A   1      36.586  29.305  29.077  1.00  0.00     0.010 A 
ATOM     36  C   UNL A   1      37.647  31.430  28.805  1.00  0.00     0.010 A 
ATOM     37  C   UNL A   1      37.706  30.127  29.326  1.00  0.00    -0.014 A 
BRANCH  37  38
ATOM     38  C   UNL A   1      38.855  29.624  30.174  1.00  0.00     0.031 A 
ATOM     39  C   UNL A   1      39.857  28.590  29.663  1.00  0.00     0.074 A 
ATOM     40  C   UNL A   1      39.127  30.195  31.372  1.00  0.00     0.049 A 
ATOM     41  N   UNL A   1      40.912  28.095  30.272  1.00  0.00    -0.248 NA
ATOM     42  C   UNL A   1      39.703  28.095  28.283  1.00  0.00     0.031 C 
ATOM     43  C   UNL A   1      38.338  31.253  32.006  1.00  0.00     0.029 A 
ATOM     44  N   UNL A   1      40.169  30.004  32.257  1.00  0.00    -0.354 N 
ATOM     45  C   UNL A   1      41.543  27.253  29.359  1.00  0.00     0.074 A 
ATOM     46  C   UNL A   1      40.747  27.287  28.151  1.00  0.00     0.031 C 
ATOM     47  C   UNL A   1      38.972  31.691  33.100  1.00  0.00     0.029 A 
ATOM     48  C   UNL A   1      40.112  30.821  33.364  1.00  0.00     0.049 A 
ATOM     49  H   UNL A   1      40.885  29.343  32.111  1.00  0.00     0.167 HD
ATOM     50  C   UNL A   1      42.679  26.523  29.494  1.00  0.00     0.037 A 
ATOM     51  C   UNL A   1      40.814  30.837  34.517  1.00  0.00     0.037 A 
ATOM     52  C   UNL A   1      43.471  26.427  30.696  1.00  0.00     0.049 A 
ATOM     53  C   UNL A   1      41.895  29.823  34.747  1.00  0.00     0.074 A 
ATOM     54  C   UNL A   1      44.586  25.637  30.929  1.00  0.00     0.029 A 
ATOM     55  N   UNL A   1      43.227  27.116  31.871  1.00  0.00    -0.354 N 
ATOM     56  N   UNL A   1      42.415  28.972  33.899  1.00  0.00    -0.248 NA
ATOM     57  C   UNL A   1      42.447  29.735  36.107  1.00  0.00     0.031 C 
ATOM     58  C   UNL A   1      44.964  25.786  32.268  1.00  0.00     0.029 A 
ATOM     59  C   UNL A   1      44.124  26.718  32.851  1.00  0.00     0.049 A 
ATOM     60  H   UNL A   1      42.520  27.790  31.994  1.00  0.00     0.167 HD
ATOM     61  C   UNL A   1      43.343  28.236  34.627  1.00  0.00     0.074 A 
ATOM     62  C   UNL A   1      43.341  28.764  35.973  1.00  0.00     0.031 C 
ATOM     63  C   UNL A   1      44.115  27.204  34.207  1.00  0.00     0.037 A 
BRANCH  50  64
ATOM     64  C   UNL A   1      43.120  25.684  28.324  1.00  0.00     0.058 A 
ATOM     65  C   UNL A   1      44.017  26.163  27.357  1.00  0.00     0.135 A 
ATOM     66  C   UNL A   1      42.700  24.347  28.224  1.00  0.00     0.135 A 
ATOM     67  F   UNL A   1      44.438  27.438  27.399  1.00  0.00    -0.206 F 
ATOM     68  C   UNL A   1      44.477  25.347  26.326  1.00  0.00     0.059 A 
ATOM     69  C   UNL A   1      43.159  23.509  27.213  1.00  0.00     0.059 A 
ATOM     70  F   UNL A   1      41.845  23.840  29.126  1.00  0.00    -0.206 F 
ATOM     71  C   UNL A   1      44.041  24.021  26.263  1.00  0.00     0.060 A 
BRANCH  71  72
ATOM     72  S   UNL A   1      44.640  22.973  24.918  1.00  0.00     0.124 S 
ATOM     73  O   UNL A   1      45.274  21.887  25.659  1.00  0.00    -0.237 OA
ATOM     74  O   UNL A   1      43.406  22.629  24.220  1.00  0.00    -0.237 OA
ATOM     75  O   UNL A   1      45.551  23.846  24.185  1.00  0.00    -0.744 OA
ENDBRANCH  71  72
ENDBRANCH  50  64
BRANCH  51  76
ATOM     76  C   UNL A   1      40.392  31.754  35.614  1.00  0.00     0.058 A 
ATOM     77  C   UNL A   1      39.262  31.503  36.403  1.00  0.00     0.135 A 
ATOM     78  C   UNL A   1      41.143  32.909  35.900  1.00  0.00     0.135 A 
ATOM     79  F   UNL A   1      38.487  30.436  36.147  1.00  0.00    -0.206 F 
ATOM     80  C   UNL A   1      38.903  32.350  37.449  1.00  0.00     0.059 A 
ATOM     81  C   UNL A   1      40.832  33.742  36.964  1.00  0.00     0.059 A 
ATOM     82  F   UNL A   1      42.227  33.206  35.165  1.00  0.00    -0.206 F 
ATOM     83  C   UNL A   1      39.706  33.460  37.729  1.00  0.00     0.060 A 
BRANCH  83  84
ATOM     84  S   UNL A   1      39.297  34.510  39.139  1.00  0.00     0.124 S 
ATOM     85  O   UNL A   1      38.151  33.809  39.705  1.00  0.00    -0.237 OA
ATOM     86  O   UNL A   1      40.526  34.469  39.925  1.00  0.00    -0.237 OA
ATOM     87  O   UNL A   1      39.005  35.799  38.517  1.00  0.00    -0.744 OA
ENDBRANCH  83  84
ENDBRANCH  51  76
BRANCH  63  88
ATOM     88  C   UNL A   1      45.012  26.549  35.219  1.00  0.00     0.058 A 
ATOM     89  C   UNL A   1      44.597  25.415  35.936  1.00  0.00     0.135 A 
ATOM     90  C   UNL A   1      46.308  27.035  35.462  1.00  0.00     0.135 A 
ATOM     91  F   UNL A   1      43.365  24.914  35.751  1.00  0.00    -0.206 F 
ATOM     92  C   UNL A   1      45.421  24.800  36.873  1.00  0.00     0.059 A 
ATOM     93  C   UNL A   1      47.160  26.420  36.376  1.00  0.00     0.059 A 
ATOM     94  F   UNL A   1      46.760  28.112  34.802  1.00  0.00    -0.206 F 
ATOM     95  C   UNL A   1      46.704  25.310  37.086  1.00  0.00     0.060 A 
BRANCH  95  96
ATOM     96  S   UNL A   1      47.771  24.487  38.287  1.00  0.00     0.124 S 
ATOM     97  O   UNL A   1      48.911  25.398  38.342  1.00  0.00    -0.237 OA
ATOM     98  O   UNL A   1      46.931  24.452  39.479  1.00  0.00    -0.237 OA
ATOM     99  O   UNL A   1      48.036  23.188  37.674  1.00  0.00    -0.744 OA
ENDBRANCH  95  96
ENDBRANCH  63  88
ENDBRANCH  37  38
ENDBRANCH  30  32
ENDBRANCH  29  30
ENDBRANCH   1  29
TORSDOF 18
ENDMDL
MODEL 2
REMARK VINA RESULT:     -12.0      5.447      9.382
REMARK SMILES O=C1CC[C@@H](CC(=O)N2CCC(Oc3ccccc3)(C(=O)OCCOC(=O)c3ccc(-c4c5nc(c(-c6c(F)cc(S(=O)(=O)[O-])cc6F)c6ccc([nH]6)c(-c6c(F)cc(S(=O)(=O)[O-])cc6F)c6nc(c(-c7c(F)cc(S(=O)(=O)[O-])cc7F)c7ccc4[nH]7)C=C6)C=C5)cc3)CC2)N1
REMARK SMILES IDX 24 1 23 2 22 3 20 4 21 5 12 6 7 7 8 8 9 9 10 10 95 11 11 12
REMARK SMILES IDX 94 13 6 14 5 15 1 16 2 17 3 18 96 19 4 20 13 22 14 23 15 24
REMARK SMILES IDX 19 25 16 26 18 27 17 28 25 29 26 30 27 31 28 32 29 33 93 34
REMARK SMILES IDX 30 35 92 36 31 37 32 38 33 39 86 40 34 41 91 42 85 43 87 44
REMARK SMILES IDX 35 45 90 46 84 47 83 48 36 50 70 51 49 52 69 53 50 54 53 55
REMARK SMILES IDX 68 56 88 57 51 58 52 59 67 61 89 62 54 63 37 64 38 65 47 66
REMARK SMILES IDX 39 67 40 68 46 69 48 70 41 71 42 72 43 73 44 74 45 75 71 76
REMARK SMILES IDX 72 77 81 78 73 79 74 80 80 81 82 82 75 83 76 84 77 85 78 86
REMARK SMILES IDX 79 87 55 88 56 89 65 90 57 91 58 92 64 93 66 94 59 95 60 96
REMARK SMILES IDX 61 97 62 98 63 99
REMARK H PARENT 96 21 87 49 53 60
REMARK Flexibility Score: inf
ROOT
ATOM      1  C   UNL A   1      34.455  31.451  27.642  1.00  0.00     0.275 C 
ENDROOT
BRANCH   1   2
ATOM      2  C   UNL A   1      34.205  29.999  27.238  1.00  0.00     0.274 C 
BRANCH   2   3
ATOM      3  O   UNL A   1      33.376  29.917  26.057  1.00  0.00    -0.459 OA
BRANCH   3   4
ATOM      4  C   UNL A   1      32.281  29.114  26.160  1.00  0.00     0.350 C 
ATOM      5  O   UNL A   1      31.493  29.171  27.101  1.00  0.00    -0.247 OA
BRANCH   4   6
ATOM      6  C   UNL A   1      32.143  28.093  25.006  1.00  0.00     0.209 C 
ATOM      7  C   UNL A   1      32.696  24.056  25.866  1.00  0.00     0.224 C 
ATOM      8  O   UNL A   1      31.777  23.383  25.387  1.00  0.00    -0.275 OA
ATOM      9  N   UNL A   1      32.535  25.415  26.089  1.00  0.00    -0.342 N 
ATOM     10  C   UNL A   1      31.200  25.999  26.189  1.00  0.00     0.124 C 
ATOM     11  C   UNL A   1      33.604  26.383  26.126  1.00  0.00     0.124 C 
ATOM     12  C   UNL A   1      30.966  27.104  25.161  1.00  0.00     0.082 C 
ATOM     13  C   UNL A   1      33.484  27.325  24.938  1.00  0.00     0.082 C 
BRANCH   7  14
ATOM     14  C   UNL A   1      33.939  23.339  26.401  1.00  0.00     0.125 C 
BRANCH  14  15
ATOM     15  C   UNL A   1      34.122  21.819  26.308  1.00  0.00     0.091 C 
ATOM     16  O   UNL A   1      32.093  19.135  25.325  1.00  0.00    -0.275 OA
ATOM     17  C   UNL A   1      32.960  19.973  25.430  1.00  0.00     0.220 C 
ATOM     18  C   UNL A   1      34.212  20.073  24.598  1.00  0.00     0.102 C 
ATOM     19  N   UNL A   1      32.938  21.019  26.331  1.00  0.00    -0.353 N 
ATOM     20  C   UNL A   1      34.851  21.383  25.039  1.00  0.00     0.035 C 
ATOM     21  H   UNL A   1      32.180  21.196  26.932  1.00  0.00     0.163 HD
ENDBRANCH  14  15
ENDBRANCH   7  14
BRANCH   6  22
ATOM     22  O   UNL A   1      31.895  29.005  23.893  1.00  0.00    -0.475 OA
BRANCH  22  23
ATOM     23  C   UNL A   1      30.580  29.283  23.648  1.00  0.00     0.121 A 
ATOM     24  C   UNL A   1      30.070  30.536  23.984  1.00  0.00     0.046 A 
ATOM     25  C   UNL A   1      29.745  28.308  23.105  1.00  0.00     0.046 A 
ATOM     26  C   UNL A   1      28.748  30.849  23.669  1.00  0.00     0.004 A 
ATOM     27  C   UNL A   1      28.427  28.624  22.784  1.00  0.00     0.004 A 
ATOM     28  C   UNL A   1      27.933  29.900  23.053  1.00  0.00     0.000 A 
ENDBRANCH  22  23
ENDBRANCH   6  22
ENDBRANCH   4   6
ENDBRANCH   3   4
ENDBRANCH   2   3
ENDBRANCH   1   2
BRANCH   1  29
ATOM     29  O   UNL A   1      35.857  31.655  27.901  1.00  0.00    -0.458 OA
BRANCH  29  30
ATOM     30  C   UNL A   1      36.316  31.236  29.104  1.00  0.00     0.338 C 
ATOM     31  O   UNL A   1      35.788  31.420  30.189  1.00  0.00    -0.246 OA
BRANCH  30  32
ATOM     32  C   UNL A   1      37.558  30.445  28.942  1.00  0.00     0.060 A 
ATOM     33  C   UNL A   1      38.448  30.329  30.000  1.00  0.00     0.016 A 
ATOM     34  C   UNL A   1      37.932  29.968  27.682  1.00  0.00     0.016 A 
ATOM     35  C   UNL A   1      39.754  29.899  29.755  1.00  0.00     0.010 A 
ATOM     36  C   UNL A   1      39.204  29.394  27.484  1.00  0.00     0.010 A 
ATOM     37  C   UNL A   1      40.173  29.407  28.500  1.00  0.00    -0.014 A 
BRANCH  37  38
ATOM     38  C   UNL A   1      41.614  28.996  28.279  1.00  0.00     0.031 A 
ATOM     39  C   UNL A   1      42.779  29.966  28.468  1.00  0.00     0.074 A 
ATOM     40  C   UNL A   1      41.932  27.698  28.053  1.00  0.00     0.049 A 
ATOM     41  N   UNL A   1      44.068  29.737  28.346  1.00  0.00    -0.248 NA
ATOM     42  C   UNL A   1      42.476  31.339  28.910  1.00  0.00     0.031 C 
ATOM     43  C   UNL A   1      40.971  26.601  27.916  1.00  0.00     0.029 A 
ATOM     44  N   UNL A   1      43.153  27.065  27.946  1.00  0.00    -0.354 N 
ATOM     45  C   UNL A   1      44.719  30.916  28.702  1.00  0.00     0.074 A 
ATOM     46  C   UNL A   1      43.685  31.872  29.033  1.00  0.00     0.031 C 
ATOM     47  C   UNL A   1      41.627  25.436  27.858  1.00  0.00     0.029 A 
ATOM     48  C   UNL A   1      43.057  25.704  27.756  1.00  0.00     0.049 A 
ATOM     49  H   UNL A   1      44.013  27.542  27.999  1.00  0.00     0.167 HD
ATOM     50  C   UNL A   1      46.047  31.190  28.761  1.00  0.00     0.037 A 
ATOM     51  C   UNL A   1      43.974  24.765  27.440  1.00  0.00     0.037 A 
ATOM     52  C   UNL A   1      47.103  30.279  28.393  1.00  0.00     0.049 A 
ATOM     53  C   UNL A   1      45.406  25.159  27.240  1.00  0.00     0.074 A 
ATOM     54  C   UNL A   1      48.468  30.521  28.345  1.00  0.00     0.029 A 
ATOM     55  N   UNL A   1      46.924  28.969  27.987  1.00  0.00    -0.354 N 
ATOM     56  N   UNL A   1      45.986  26.305  27.493  1.00  0.00    -0.248 NA
ATOM     57  C   UNL A   1      46.300  24.146  26.658  1.00  0.00     0.031 C 
ATOM     58  C   UNL A   1      49.102  29.384  27.832  1.00  0.00     0.029 A 
ATOM     59  C   UNL A   1      48.141  28.413  27.621  1.00  0.00     0.049 A 
ATOM     60  H   UNL A   1      46.058  28.499  27.961  1.00  0.00     0.167 HD
ATOM     61  C   UNL A   1      47.307  26.157  27.087  1.00  0.00     0.074 A 
ATOM     62  C   UNL A   1      47.453  24.801  26.605  1.00  0.00     0.031 C 
ATOM     63  C   UNL A   1      48.301  27.078  27.104  1.00  0.00     0.037 A 
BRANCH  50  64
ATOM     64  C   UNL A   1      46.462  32.577  29.173  1.00  0.00     0.058 A 
ATOM     65  C   UNL A   1      46.760  32.902  30.506  1.00  0.00     0.135 A 
ATOM     66  C   UNL A   1      46.648  33.571  28.198  1.00  0.00     0.135 A 
ATOM     67  F   UNL A   1      46.585  31.992  31.478  1.00  0.00    -0.206 F 
ATOM     68  C   UNL A   1      47.220  34.169  30.857  1.00  0.00     0.059 A 
ATOM     69  C   UNL A   1      47.122  34.838  28.524  1.00  0.00     0.059 A 
ATOM     70  F   UNL A   1      46.380  33.308  26.909  1.00  0.00    -0.206 F 
ATOM     71  C   UNL A   1      47.398  35.130  29.859  1.00  0.00     0.060 A 
BRANCH  71  72
ATOM     72  S   UNL A   1      47.989  36.772  30.327  1.00  0.00     0.124 S 
ATOM     73  O   UNL A   1      49.432  36.554  30.381  1.00  0.00    -0.237 OA
ATOM     74  O   UNL A   1      47.513  37.600  29.225  1.00  0.00    -0.237 OA
ATOM     75  O   UNL A   1      47.344  37.012  31.615  1.00  0.00    -0.744 OA
ENDBRANCH  71  72
ENDBRANCH  50  64
BRANCH  51  76
ATOM     76  C   UNL A   1      43.520  23.380  27.128  1.00  0.00     0.058 A 
ATOM     77  C   UNL A   1      43.259  22.437  28.132  1.00  0.00     0.135 A 
ATOM     78  C   UNL A   1      43.324  22.981  25.793  1.00  0.00     0.135 A 
ATOM     79  F   UNL A   1      43.468  22.752  29.420  1.00  0.00    -0.206 F 
ATOM     80  C   UNL A   1      42.799  21.159  27.826  1.00  0.00     0.059 A 
ATOM     81  C   UNL A   1      42.825  21.730  25.466  1.00  0.00     0.059 A 
ATOM     82  F   UNL A   1      43.574  23.840  24.791  1.00  0.00    -0.206 F 
ATOM     83  C   UNL A   1      42.571  20.821  26.489  1.00  0.00     0.060 A 
BRANCH  83  84
ATOM     84  S   UNL A   1      41.891  19.197  26.092  1.00  0.00     0.124 S 
ATOM     85  O   UNL A   1      42.633  18.855  24.885  1.00  0.00    -0.237 OA
ATOM     86  O   UNL A   1      42.217  18.423  27.286  1.00  0.00    -0.237 OA
ATOM     87  O   UNL A   1      40.469  19.471  25.904  1.00  0.00    -0.744 OA
ENDBRANCH  83  84
ENDBRANCH  51  76
BRANCH  63  88
ATOM     88  C   UNL A   1      49.641  26.665  26.561  1.00  0.00     0.058 A 
ATOM     89  C   UNL A   1      50.581  26.004  27.367  1.00  0.00     0.135 A 
ATOM     90  C   UNL A   1      49.986  26.905  25.221  1.00  0.00     0.135 A 
ATOM     91  F   UNL A   1      50.309  25.758  28.659  1.00  0.00    -0.206 F 
ATOM     92  C   UNL A   1      51.823  25.615  26.873  1.00  0.00     0.059 A 
ATOM     93  C   UNL A   1      51.211  26.502  24.697  1.00  0.00     0.059 A 
ATOM     94  F   UNL A   1      49.124  27.528  24.403  1.00  0.00    -0.206 F 
ATOM     95  C   UNL A   1      52.129  25.868  25.534  1.00  0.00     0.060 A 
BRANCH  95  96
ATOM     96  S   UNL A   1      53.734  25.337  24.901  1.00  0.00     0.124 S 
ATOM     97  O   UNL A   1      54.636  25.816  25.943  1.00  0.00    -0.237 OA
ATOM     98  O   UNL A   1      53.573  23.888  24.818  1.00  0.00    -0.237 OA
ATOM     99  O   UNL A   1      53.838  26.025  23.617  1.00  0.00    -0.744 OA
ENDBRANCH  95  96
ENDBRANCH  63  88
ENDBRANCH  37  38
ENDBRANCH  30  32
ENDBRANCH  29  30
ENDBRANCH   1  29
TORSDOF 18
ENDMDL
MODEL 3
REMARK VINA RESULT:     -11.9      3.984      8.616
REMARK SMILES O=C1CC[C@@H](CC(=O)N2CCC(Oc3ccccc3)(C(=O)OCCOC(=O)c3ccc(-c4c5nc(c(-c6c(F)cc(S(=O)(=O)[O-])cc6F)c6ccc([nH]6)c(-c6c(F)cc(S(=O)(=O)[O-])cc6F)c6nc(c(-c7c(F)cc(S(=O)(=O)[O-])cc7F)c7ccc4[nH]7)C=C6)C=C5)cc3)CC2)N1
REMARK SMILES IDX 24 1 23 2 22 3 20 4 21 5 12 6 7 7 8 8 9 9 10 10 95 11 11 12
REMARK SMILES IDX 94 13 6 14 5 15 1 16 2 17 3 18 96 19 4 20 13 22 14 23 15 24
REMARK SMILES IDX 19 25 16 26 18 27 17 28 25 29 26 30 27 31 28 32 29 33 93 34
REMARK SMILES IDX 30 35 92 36 31 37 32 38 33 39 86 40 34 41 91 42 85 43 87 44
REMARK SMILES IDX 35 45 90 46 84 47 83 48 36 50 70 51 49 52 69 53 50 54 53 55
REMARK SMILES IDX 68 56 88 57 51 58 52 59 67 61 89 62 54 63 37 64 38 65 47 66
REMARK SMILES IDX 39 67 40 68 46 69 48 70 41 71 42 72 43 73 44 74 45 75 71 76
REMARK SMILES IDX 72 77 81 78 73 79 74 80 80 81 82 82 75 83 76 84 77 85 78 86
REMARK SMILES IDX 79 87 55 88 56 89 65 90 57 91 58 92 64 93 66 94 59 95 60 96
REMARK SMILES IDX 61 97 62 98 63 99
REMARK H PARENT 96 21 87 49 53 60
REMARK Flexibility Score: inf
ROOT
ATOM      1  C   UNL A   1      33.299  29.174  26.790  1.00  0.00     0.275 C 
ENDROOT
BRANCH   1   2
ATOM      2  C   UNL A   1      32.645  30.070  25.740  1.00  0.00     0.274 C 
BRANCH   2   3
ATOM      3  O   UNL A   1      31.663  29.344  24.967  1.00  0.00    -0.459 OA
BRANCH   3   4
ATOM      4  C   UNL A   1      32.154  28.616  23.926  1.00  0.00     0.350 C 
ATOM      5  O   UNL A   1      33.088  28.994  23.224  1.00  0.00    -0.247 OA
BRANCH   4   6
ATOM      6  C   UNL A   1      31.398  27.288  23.680  1.00  0.00     0.209 C 
ATOM      7  C   UNL A   1      31.907  24.190  26.415  1.00  0.00     0.224 C 
ATOM      8  O   UNL A   1      30.813  23.722  26.746  1.00  0.00    -0.275 OA
ATOM      9  N   UNL A   1      31.998  25.462  25.872  1.00  0.00    -0.342 N 
ATOM     10  C   UNL A   1      30.926  26.433  26.071  1.00  0.00     0.124 C 
ATOM     11  C   UNL A   1      33.045  25.916  24.990  1.00  0.00     0.124 C 
ATOM     12  C   UNL A   1      30.343  26.942  24.754  1.00  0.00     0.082 C 
ATOM     13  C   UNL A   1      32.473  26.179  23.606  1.00  0.00     0.082 C 
BRANCH   7  14
ATOM     14  C   UNL A   1      33.183  23.434  26.799  1.00  0.00     0.125 C 
BRANCH  14  15
ATOM     15  C   UNL A   1      33.617  22.138  26.104  1.00  0.00     0.091 C 
ATOM     16  O   UNL A   1      32.020  19.146  25.217  1.00  0.00    -0.275 OA
ATOM     17  C   UNL A   1      32.605  20.206  25.225  1.00  0.00     0.220 C 
ATOM     18  C   UNL A   1      33.178  20.921  24.029  1.00  0.00     0.102 C 
ATOM     19  N   UNL A   1      32.831  20.972  26.353  1.00  0.00    -0.353 N 
ATOM     20  C   UNL A   1      33.648  22.259  24.582  1.00  0.00     0.035 C 
ATOM     21  H   UNL A   1      32.483  20.735  27.242  1.00  0.00     0.163 HD
ENDBRANCH  14  15
ENDBRANCH   7  14
BRANCH   6  22
ATOM     22  O   UNL A   1      30.745  27.604  22.412  1.00  0.00    -0.475 OA
BRANCH  22  23
ATOM     23  C   UNL A   1      29.726  28.511  22.489  1.00  0.00     0.121 A 
ATOM     24  C   UNL A   1      28.498  28.118  23.018  1.00  0.00     0.046 A 
ATOM     25  C   UNL A   1      29.901  29.806  22.005  1.00  0.00     0.046 A 
ATOM     26  C   UNL A   1      27.479  29.059  23.167  1.00  0.00     0.004 A 
ATOM     27  C   UNL A   1      28.885  30.747  22.161  1.00  0.00     0.004 A 
ATOM     28  C   UNL A   1      27.680  30.376  22.756  1.00  0.00     0.000 A 
ENDBRANCH  22  23
ENDBRANCH   6  22
ENDBRANCH   4   6
ENDBRANCH   3   4
ENDBRANCH   2   3
ENDBRANCH   1   2
BRANCH   1  29
ATOM     29  O   UNL A   1      33.366  29.865  28.053  1.00  0.00    -0.458 OA
BRANCH  29  30
ATOM     30  C   UNL A   1      34.360  30.774  28.191  1.00  0.00     0.338 C 
ATOM     31  O   UNL A   1      34.231  31.984  28.293  1.00  0.00    -0.246 OA
BRANCH  30  32
ATOM     32  C   UNL A   1      35.678  30.100  28.265  1.00  0.00     0.060 A 
ATOM     33  C   UNL A   1      36.161  29.658  29.488  1.00  0.00     0.016 A 
ATOM     34  C   UNL A   1      36.518  30.069  27.149  1.00  0.00     0.016 A 
ATOM     35  C   UNL A   1      37.517  29.354  29.621  1.00  0.00     0.010 A 
ATOM     36  C   UNL A   1      37.846  29.612  27.267  1.00  0.00     0.010 A 
ATOM     37  C   UNL A   1      38.401  29.307  28.521  1.00  0.00    -0.014 A 
BRANCH  37  38
ATOM     38  C   UNL A   1      39.872  29.015  28.729  1.00  0.00     0.031 A 
ATOM     39  C   UNL A   1      40.821  30.019  29.381  1.00  0.00     0.074 A 
ATOM     40  C   UNL A   1      40.369  27.778  28.483  1.00  0.00     0.049 A 
ATOM     41  N   UNL A   1      42.100  29.886  29.654  1.00  0.00    -0.248 NA
ATOM     42  C   UNL A   1      40.264  31.303  29.844  1.00  0.00     0.031 C 
ATOM     43  C   UNL A   1      39.610  26.653  27.932  1.00  0.00     0.029 A 
ATOM     44  N   UNL A   1      41.620  27.239  28.705  1.00  0.00    -0.354 N 
ATOM     45  C   UNL A   1      42.491  31.045  30.320  1.00  0.00     0.074 A 
ATOM     46  C   UNL A   1      41.317  31.887  30.402  1.00  0.00     0.031 C 
ATOM     47  C   UNL A   1      40.362  25.547  27.965  1.00  0.00     0.029 A 
ATOM     48  C   UNL A   1      41.720  25.911  28.353  1.00  0.00     0.049 A 
ATOM     49  H   UNL A   1      42.370  27.755  29.079  1.00  0.00     0.167 HD
ATOM     50  C   UNL A   1      43.702  31.388  30.827  1.00  0.00     0.037 A 
ATOM     51  C   UNL A   1      42.776  25.077  28.250  1.00  0.00     0.037 A 
ATOM     52  C   UNL A   1      44.903  30.596  30.723  1.00  0.00     0.049 A 
ATOM     53  C   UNL A   1      44.155  25.578  28.560  1.00  0.00     0.074 A 
ATOM     54  C   UNL A   1      46.186  30.923  31.139  1.00  0.00     0.029 A 
ATOM     55  N   UNL A   1      44.987  29.342  30.147  1.00  0.00    -0.354 N 
ATOM     56  N   UNL A   1      44.513  26.714  29.104  1.00  0.00    -0.248 NA
ATOM     57  C   UNL A   1      45.279  24.704  28.192  1.00  0.00     0.031 C 
ATOM     58  C   UNL A   1      47.055  29.903  30.739  1.00  0.00     0.029 A 
ATOM     59  C   UNL A   1      46.306  28.911  30.132  1.00  0.00     0.049 A 
ATOM     60  H   UNL A   1      44.223  28.829  29.797  1.00  0.00     0.167 HD
ATOM     61  C   UNL A   1      45.903  26.699  29.127  1.00  0.00     0.074 A 
ATOM     62  C   UNL A   1      46.322  25.428  28.578  1.00  0.00     0.031 C 
ATOM     63  C   UNL A   1      46.748  27.667  29.557  1.00  0.00     0.037 A 
BRANCH  50  64
ATOM     64  C   UNL A   1      43.831  32.731  31.493  1.00  0.00     0.058 A 
ATOM     65  C   UNL A   1      43.736  32.887  32.885  1.00  0.00     0.135 A 
ATOM     66  C   UNL A   1      44.143  33.866  30.726  1.00  0.00     0.135 A 
ATOM     67  F   UNL A   1      43.426  31.837  33.663  1.00  0.00    -0.206 F 
ATOM     68  C   UNL A   1      43.939  34.125  33.491  1.00  0.00     0.059 A 
ATOM     69  C   UNL A   1      44.366  35.108  31.311  1.00  0.00     0.059 A 
ATOM     70  F   UNL A   1      44.248  33.767  29.391  1.00  0.00    -0.206 F 
ATOM     71  C   UNL A   1      44.253  35.229  32.695  1.00  0.00     0.060 A 
BRANCH  71  72
ATOM     72  S   UNL A   1      44.508  36.831  33.492  1.00  0.00     0.124 S 
ATOM     73  O   UNL A   1      43.746  37.715  32.615  1.00  0.00    -0.237 OA
ATOM     74  O   UNL A   1      43.942  36.611  34.819  1.00  0.00    -0.237 OA
ATOM     75  O   UNL A   1      45.957  37.005  33.451  1.00  0.00    -0.744 OA
ENDBRANCH  71  72
ENDBRANCH  50  64
BRANCH  51  76
ATOM     76  C   UNL A   1      42.579  23.719  27.667  1.00  0.00     0.058 A 
ATOM     77  C   UNL A   1      42.607  23.490  26.285  1.00  0.00     0.135 A 
ATOM     78  C   UNL A   1      42.370  22.611  28.508  1.00  0.00     0.135 A 
ATOM     79  F   UNL A   1      42.763  24.518  25.436  1.00  0.00    -0.206 F 
ATOM     80  C   UNL A   1      42.459  22.208  25.758  1.00  0.00     0.059 A 
ATOM     81  C   UNL A   1      42.264  21.321  28.010  1.00  0.00     0.059 A 
ATOM     82  F   UNL A   1      42.318  22.776  29.840  1.00  0.00    -0.206 F 
ATOM     83  C   UNL A   1      42.302  21.129  26.632  1.00  0.00     0.060 A 
BRANCH  83  84
ATOM     84  S   UNL A   1      42.200  19.457  25.960  1.00  0.00     0.124 S 
ATOM     85  O   UNL A   1      42.681  18.660  27.082  1.00  0.00    -0.237 OA
ATOM     86  O   UNL A   1      40.779  19.334  25.649  1.00  0.00    -0.237 OA
ATOM     87  O   UNL A   1      43.083  19.513  24.799  1.00  0.00    -0.744 OA
ENDBRANCH  83  84
ENDBRANCH  51  76
BRANCH  63  88
ATOM     88  C   UNL A   1      48.224  27.409  29.430  1.00  0.00     0.058 A 
ATOM     89  C   UNL A   1      48.955  27.889  28.332  1.00  0.00     0.135 A 
ATOM     90  C   UNL A   1      48.924  26.702  30.421  1.00  0.00     0.135 A 
ATOM     91  F   UNL A   1      48.335  28.563  27.350  1.00  0.00    -0.206 F 
ATOM     92  C   UNL A   1      50.322  27.659  28.207  1.00  0.00     0.059 A 
ATOM     93  C   UNL A   1      50.296  26.481  30.331  1.00  0.00     0.059 A 
ATOM     94  F   UNL A   1      48.277  26.225  31.496  1.00  0.00    -0.206 F 
ATOM     95  C   UNL A   1      50.985  26.953  29.214  1.00  0.00     0.060 A 
BRANCH  95  96
ATOM     96  S   UNL A   1      52.762  26.682  29.051  1.00  0.00     0.124 S 
ATOM     97  O   UNL A   1      53.065  25.959  30.282  1.00  0.00    -0.237 OA
ATOM     98  O   UNL A   1      52.848  25.902  27.820  1.00  0.00    -0.237 OA
ATOM     99  O   UNL A   1      53.307  28.035  28.969  1.00  0.00    -0.744 OA
ENDBRANCH  95  96
ENDBRANCH  63  88
ENDBRANCH  37  38
ENDBRANCH  30  32
ENDBRANCH  29  30
ENDBRANCH   1  29
TORSDOF 18
ENDMDL
