MODEL 1
REMARK VINA RESULT:     -13.4      0.000      0.000
REMARK SMILES Cc1cccc(-n2ncc(C(=O)Nc3cccc(C(=O)OCCOC(=O)c4ccc(-c5c6nc(c(-c7c(F)cc(S(=O)(=O)[O-])cc7F)c7ccc([nH]7)c(-c7c(F)cc(S(=O)(=O)[O-])cc7F)c7nc(c(-c8c(F)cc(S(=O)(=O)[O-])cc8F)c8ccc5[nH]8)C=C7)C=C6)cc4)c3C)c2C)c1
REMARK SMILES IDX 22 1 21 2 19 3 20 4 18 5 14 6 15 7 93 8 16 9 94 10 17 11
REMARK SMILES IDX 13 12 11 13 12 14 10 16 7 17 8 18 95 19 9 20 96 21 6 22 1 23
REMARK SMILES IDX 2 24 3 25 97 26 4 27 5 28 23 29 24 30 25 31 26 32 27 33
REMARK SMILES IDX 28 34 92 35 29 36 91 37 30 38 31 39 32 40 85 41 33 42 90 43
REMARK SMILES IDX 84 44 86 45 34 46 89 47 83 48 82 49 35 51 69 52 48 53 68 54
REMARK SMILES IDX 49 55 52 56 67 57 87 58 50 59 51 60 66 62 88 63 53 64 36 65
REMARK SMILES IDX 37 66 46 67 38 68 39 69 45 70 47 71 40 72 41 73 42 74 43 75
REMARK SMILES IDX 44 76 70 77 71 78 80 79 72 80 73 81 79 82 81 83 74 84 75 85
REMARK SMILES IDX 76 86 77 87 78 88 54 89 55 90 64 91 56 92 57 93 63 94 65 95
REMARK SMILES IDX 58 96 59 97 60 98 61 99 62 100
REMARK H PARENT 13 15 86 50 52 61
REMARK Flexibility Score: inf
ROOT
ATOM      1  C   UNL A   1      34.290  30.313  27.288  1.00  0.00     0.275 C 
ENDROOT
BRANCH   1   2
ATOM      2  O   UNL A   1      33.985  29.360  26.244  1.00  0.00    -0.458 OA
BRANCH   2   3
ATOM      3  C   UNL A   1      32.847  29.531  25.531  1.00  0.00     0.338 C 
ATOM      4  O   UNL A   1      32.074  30.475  25.623  1.00  0.00    -0.246 OA
BRANCH   3   5
ATOM      5  C   UNL A   1      32.790  28.506  24.453  1.00  0.00     0.065 A 
ATOM      6  C   UNL A   1      31.827  26.629  23.225  1.00  0.00     0.045 A 
ATOM      7  C   UNL A   1      32.723  26.887  22.181  1.00  0.00     0.026 A 
ATOM      8  C   UNL A   1      31.793  27.503  24.343  1.00  0.00    -0.013 A 
ATOM      9  C   UNL A   1      33.699  27.873  22.297  1.00  0.00     0.003 A 
ATOM     10  C   UNL A   1      30.720  27.331  25.389  1.00  0.00     0.047 C 
ATOM     11  C   UNL A   1      33.754  28.656  23.443  1.00  0.00     0.016 A 
BRANCH   6  12
ATOM     12  N   UNL A   1      30.918  25.548  23.156  1.00  0.00    -0.322 N 
ATOM     13  C   UNL A   1      31.043  24.199  23.428  1.00  0.00     0.259 C 
ATOM     14  O   UNL A   1      30.197  23.444  22.943  1.00  0.00    -0.269 OA
ATOM     15  H   UNL A   1      30.019  25.809  22.857  1.00  0.00     0.170 HD
BRANCH  13  16
ATOM     16  C   UNL A   1      32.093  23.687  24.304  1.00  0.00     0.081 A 
ATOM     17  N   UNL A   1      34.055  22.963  25.081  1.00  0.00    -0.237 N 
ATOM     18  N   UNL A   1      33.206  22.879  26.133  1.00  0.00    -0.175 NA
ATOM     19  C   UNL A   1      33.370  23.280  23.915  1.00  0.00     0.054 A 
ATOM     20  C   UNL A   1      32.042  23.316  25.663  1.00  0.00     0.149 A 
ATOM     21  C   UNL A   1      33.898  23.055  22.540  1.00  0.00     0.068 C 
BRANCH  17  22
ATOM     22  C   UNL A   1      35.445  22.736  25.284  1.00  0.00     0.065 A 
ATOM     23  C   UNL A   1      37.893  19.843  24.895  1.00  0.00     0.044 C 
ATOM     24  C   UNL A   1      37.329  21.197  25.213  1.00  0.00    -0.049 A 
ATOM     25  C   UNL A   1      38.176  22.236  25.618  1.00  0.00     0.003 A 
ATOM     26  C   UNL A   1      35.958  21.447  25.077  1.00  0.00     0.031 A 
ATOM     27  C   UNL A   1      37.661  23.507  25.877  1.00  0.00     0.002 A 
ATOM     28  C   UNL A   1      36.299  23.762  25.705  1.00  0.00     0.028 A 
ENDBRANCH  17  22
ENDBRANCH  13  16
ENDBRANCH   6  12
ENDBRANCH   3   5
ENDBRANCH   2   3
ENDBRANCH   1   2
BRANCH   1  29
ATOM     29  C   UNL A   1      35.435  29.943  28.263  1.00  0.00     0.275 C 
BRANCH  29  30
ATOM     30  O   UNL A   1      36.570  30.813  28.181  1.00  0.00    -0.458 OA
BRANCH  30  31
ATOM     31  C   UNL A   1      37.239  30.906  29.348  1.00  0.00     0.338 C 
ATOM     32  O   UNL A   1      36.841  31.493  30.358  1.00  0.00    -0.246 OA
BRANCH  31  33
ATOM     33  C   UNL A   1      38.227  29.818  29.388  1.00  0.00     0.060 A 
ATOM     34  C   UNL A   1      38.073  28.759  30.296  1.00  0.00     0.016 A 
ATOM     35  C   UNL A   1      39.124  29.729  28.312  1.00  0.00     0.016 A 
ATOM     36  C   UNL A   1      38.879  27.643  30.175  1.00  0.00     0.010 A 
ATOM     37  C   UNL A   1      39.766  28.556  28.066  1.00  0.00     0.010 A 
ATOM     38  C   UNL A   1      39.750  27.606  29.085  1.00  0.00    -0.014 A 
BRANCH  38  39
ATOM     39  C   UNL A   1      41.055  26.996  29.195  1.00  0.00     0.031 A 
ATOM     40  C   UNL A   1      41.217  25.614  28.782  1.00  0.00     0.074 A 
ATOM     41  C   UNL A   1      42.004  27.915  29.486  1.00  0.00     0.049 A 
ATOM     42  N   UNL A   1      41.986  24.769  29.362  1.00  0.00    -0.248 NA
ATOM     43  C   UNL A   1      40.433  25.044  27.688  1.00  0.00     0.031 C 
ATOM     44  C   UNL A   1      43.448  27.876  29.458  1.00  0.00     0.029 A 
ATOM     45  N   UNL A   1      41.719  29.178  30.037  1.00  0.00    -0.354 N 
ATOM     46  C   UNL A   1      42.134  23.744  28.456  1.00  0.00     0.074 A 
ATOM     47  C   UNL A   1      40.982  23.830  27.589  1.00  0.00     0.031 C 
ATOM     48  C   UNL A   1      43.902  28.871  30.255  1.00  0.00     0.029 A 
ATOM     49  C   UNL A   1      42.758  29.528  30.893  1.00  0.00     0.049 A 
ATOM     50  H   UNL A   1      40.919  29.722  29.850  1.00  0.00     0.167 HD
ATOM     51  C   UNL A   1      43.362  23.160  28.321  1.00  0.00     0.037 A 
ATOM     52  C   UNL A   1      42.429  29.501  32.222  1.00  0.00     0.037 A 
ATOM     53  C   UNL A   1      44.332  23.817  29.221  1.00  0.00     0.049 A 
ATOM     54  C   UNL A   1      42.874  28.193  32.868  1.00  0.00     0.074 A 
ATOM     55  C   UNL A   1      45.343  24.749  29.042  1.00  0.00     0.029 A 
ATOM     56  N   UNL A   1      44.052  23.856  30.579  1.00  0.00    -0.354 N 
ATOM     57  N   UNL A   1      43.462  27.221  32.215  1.00  0.00    -0.248 NA
ATOM     58  C   UNL A   1      42.708  27.863  34.282  1.00  0.00     0.031 C 
ATOM     59  C   UNL A   1      45.602  25.389  30.300  1.00  0.00     0.029 A 
ATOM     60  C   UNL A   1      44.741  24.857  31.244  1.00  0.00     0.049 A 
ATOM     61  H   UNL A   1      43.429  23.238  31.025  1.00  0.00     0.167 HD
ATOM     62  C   UNL A   1      43.781  26.198  33.056  1.00  0.00     0.074 A 
ATOM     63  C   UNL A   1      43.273  26.642  34.346  1.00  0.00     0.031 C 
ATOM     64  C   UNL A   1      44.444  25.069  32.659  1.00  0.00     0.037 A 
BRANCH  51  65
ATOM     65  C   UNL A   1      43.706  22.298  27.121  1.00  0.00     0.058 A 
ATOM     66  C   UNL A   1      43.059  21.069  26.889  1.00  0.00     0.135 A 
ATOM     67  C   UNL A   1      44.695  22.626  26.165  1.00  0.00     0.135 A 
ATOM     68  F   UNL A   1      42.019  20.676  27.636  1.00  0.00    -0.206 F 
ATOM     69  C   UNL A   1      43.440  20.188  25.872  1.00  0.00     0.059 A 
ATOM     70  C   UNL A   1      45.140  21.737  25.181  1.00  0.00     0.059 A 
ATOM     71  F   UNL A   1      45.236  23.853  26.119  1.00  0.00    -0.206 F 
ATOM     72  C   UNL A   1      44.503  20.515  25.041  1.00  0.00     0.060 A 
BRANCH  72  73
ATOM     73  S   UNL A   1      44.999  19.350  23.757  1.00  0.00     0.124 S 
ATOM     74  O   UNL A   1      46.448  19.309  23.918  1.00  0.00    -0.237 OA
ATOM     75  O   UNL A   1      44.279  18.145  24.153  1.00  0.00    -0.237 OA
ATOM     76  O   UNL A   1      44.532  19.982  22.525  1.00  0.00    -0.744 OA
ENDBRANCH  72  73
ENDBRANCH  51  65
BRANCH  52  77
ATOM     77  C   UNL A   1      41.225  30.364  32.545  1.00  0.00     0.058 A 
ATOM     78  C   UNL A   1      40.047  29.706  32.991  1.00  0.00     0.135 A 
ATOM     79  C   UNL A   1      41.207  31.763  32.653  1.00  0.00     0.135 A 
ATOM     80  F   UNL A   1      39.954  28.368  32.904  1.00  0.00    -0.206 F 
ATOM     81  C   UNL A   1      38.976  30.367  33.592  1.00  0.00     0.059 A 
ATOM     82  C   UNL A   1      40.121  32.458  33.231  1.00  0.00     0.059 A 
ATOM     83  F   UNL A   1      42.270  32.487  32.273  1.00  0.00    -0.206 F 
ATOM     84  C   UNL A   1      39.024  31.748  33.725  1.00  0.00     0.060 A 
BRANCH  84  85
ATOM     85  S   UNL A   1      37.682  32.560  34.638  1.00  0.00     0.124 S 
ATOM     86  O   UNL A   1      38.148  33.942  34.683  1.00  0.00    -0.237 OA
ATOM     87  O   UNL A   1      36.536  32.320  33.766  1.00  0.00    -0.237 OA
ATOM     88  O   UNL A   1      37.682  31.861  35.919  1.00  0.00    -0.744 OA
ENDBRANCH  84  85
ENDBRANCH  52  77
BRANCH  64  89
ATOM     89  C   UNL A   1      44.903  24.032  33.640  1.00  0.00     0.058 A 
ATOM     90  C   UNL A   1      46.247  23.931  34.028  1.00  0.00     0.135 A 
ATOM     91  C   UNL A   1      44.038  23.014  34.094  1.00  0.00     0.135 A 
ATOM     92  F   UNL A   1      47.156  24.820  33.597  1.00  0.00    -0.206 F 
ATOM     93  C   UNL A   1      46.696  22.908  34.860  1.00  0.00     0.059 A 
ATOM     94  C   UNL A   1      44.477  21.948  34.863  1.00  0.00     0.059 A 
ATOM     95  F   UNL A   1      42.724  23.035  33.833  1.00  0.00    -0.206 F 
ATOM     96  C   UNL A   1      45.803  21.921  35.269  1.00  0.00     0.060 A 
BRANCH  96  97
ATOM     97  S   UNL A   1      46.366  20.591  36.340  1.00  0.00     0.124 S 
ATOM     98  O   UNL A   1      45.780  20.946  37.629  1.00  0.00    -0.237 OA
ATOM     99  O   UNL A   1      45.786  19.427  35.679  1.00  0.00    -0.237 OA
ATOM    100  O   UNL A   1      47.821  20.697  36.270  1.00  0.00    -0.744 OA
ENDBRANCH  96  97
ENDBRANCH  64  89
ENDBRANCH  38  39
ENDBRANCH  31  33
ENDBRANCH  30  31
ENDBRANCH  29  30
ENDBRANCH   1  29
TORSDOF 17
ENDMDL
MODEL 2
REMARK VINA RESULT:     -13.3      4.650     11.417
REMARK SMILES Cc1cccc(-n2ncc(C(=O)Nc3cccc(C(=O)OCCOC(=O)c4ccc(-c5c6nc(c(-c7c(F)cc(S(=O)(=O)[O-])cc7F)c7ccc([nH]7)c(-c7c(F)cc(S(=O)(=O)[O-])cc7F)c7nc(c(-c8c(F)cc(S(=O)(=O)[O-])cc8F)c8ccc5[nH]8)C=C7)C=C6)cc4)c3C)c2C)c1
REMARK SMILES IDX 22 1 21 2 19 3 20 4 18 5 14 6 15 7 93 8 16 9 94 10 17 11
REMARK SMILES IDX 13 12 11 13 12 14 10 16 7 17 8 18 95 19 9 20 96 21 6 22 1 23
REMARK SMILES IDX 2 24 3 25 97 26 4 27 5 28 23 29 24 30 25 31 26 32 27 33
REMARK SMILES IDX 28 34 92 35 29 36 91 37 30 38 31 39 32 40 85 41 33 42 90 43
REMARK SMILES IDX 84 44 86 45 34 46 89 47 83 48 82 49 35 51 69 52 48 53 68 54
REMARK SMILES IDX 49 55 52 56 67 57 87 58 50 59 51 60 66 62 88 63 53 64 36 65
REMARK SMILES IDX 37 66 46 67 38 68 39 69 45 70 47 71 40 72 41 73 42 74 43 75
REMARK SMILES IDX 44 76 70 77 71 78 80 79 72 80 73 81 79 82 81 83 74 84 75 85
REMARK SMILES IDX 76 86 77 87 78 88 54 89 55 90 64 91 56 92 57 93 63 94 65 95
REMARK SMILES IDX 58 96 59 97 60 98 61 99 62 100
REMARK H PARENT 13 15 86 50 52 61
REMARK Flexibility Score: inf
ROOT
ATOM      1  C   UNL A   1      38.057  23.487  25.751  1.00  0.00     0.275 C 
ENDROOT
BRANCH   1   2
ATOM      2  O   UNL A   1      36.795  22.809  25.952  1.00  0.00    -0.458 OA
BRANCH   2   3
ATOM      3  C   UNL A   1      36.455  21.817  25.095  1.00  0.00     0.338 C 
ATOM      4  O   UNL A   1      37.223  21.017  24.578  1.00  0.00    -0.246 OA
BRANCH   3   5
ATOM      5  C   UNL A   1      34.972  21.702  25.048  1.00  0.00     0.065 A 
ATOM      6  C   UNL A   1      32.742  22.127  24.153  1.00  0.00     0.045 A 
ATOM      7  C   UNL A   1      32.250  21.097  24.962  1.00  0.00     0.026 A 
ATOM      8  C   UNL A   1      34.138  22.381  24.123  1.00  0.00    -0.013 A 
ATOM      9  C   UNL A   1      33.075  20.437  25.868  1.00  0.00     0.003 A 
ATOM     10  C   UNL A   1      34.693  23.372  23.131  1.00  0.00     0.047 C 
ATOM     11  C   UNL A   1      34.424  20.763  25.935  1.00  0.00     0.016 A 
BRANCH   6  12
ATOM     12  N   UNL A   1      31.878  22.879  23.323  1.00  0.00    -0.322 N 
ATOM     13  C   UNL A   1      31.099  23.997  23.549  1.00  0.00     0.259 C 
ATOM     14  O   UNL A   1      30.184  24.220  22.751  1.00  0.00    -0.269 OA
ATOM     15  H   UNL A   1      31.822  22.538  22.402  1.00  0.00     0.170 HD
BRANCH  13  16
ATOM     16  C   UNL A   1      31.379  24.918  24.648  1.00  0.00     0.081 A 
ATOM     17  N   UNL A   1      32.085  26.673  25.829  1.00  0.00    -0.237 N 
ATOM     18  N   UNL A   1      31.503  25.851  26.734  1.00  0.00    -0.175 NA
ATOM     19  C   UNL A   1      32.183  26.056  24.588  1.00  0.00     0.054 A 
ATOM     20  C   UNL A   1      31.082  24.810  26.022  1.00  0.00     0.149 A 
ATOM     21  C   UNL A   1      33.108  26.488  23.503  1.00  0.00     0.068 C 
BRANCH  17  22
ATOM     22  C   UNL A   1      32.493  27.976  26.230  1.00  0.00     0.065 A 
ATOM     23  C   UNL A   1      31.040  31.498  26.191  1.00  0.00     0.044 C 
ATOM     24  C   UNL A   1      31.988  30.352  26.389  1.00  0.00    -0.049 A 
ATOM     25  C   UNL A   1      33.213  30.555  27.037  1.00  0.00     0.003 A 
ATOM     26  C   UNL A   1      31.648  29.063  25.961  1.00  0.00     0.031 A 
ATOM     27  C   UNL A   1      34.081  29.485  27.259  1.00  0.00     0.002 A 
ATOM     28  C   UNL A   1      33.722  28.195  26.864  1.00  0.00     0.028 A 
ENDBRANCH  17  22
ENDBRANCH  13  16
ENDBRANCH   6  12
ENDBRANCH   3   5
ENDBRANCH   2   3
ENDBRANCH   1   2
BRANCH   1  29
ATOM     29  C   UNL A   1      39.239  23.047  26.650  1.00  0.00     0.275 C 
BRANCH  29  30
ATOM     30  O   UNL A   1      39.643  24.039  27.601  1.00  0.00    -0.458 OA
BRANCH  30  31
ATOM     31  C   UNL A   1      40.683  24.780  27.170  1.00  0.00     0.338 C 
ATOM     32  O   UNL A   1      41.474  24.457  26.280  1.00  0.00    -0.246 OA
BRANCH  31  33
ATOM     33  C   UNL A   1      40.428  26.177  27.549  1.00  0.00     0.060 A 
ATOM     34  C   UNL A   1      40.654  27.211  26.627  1.00  0.00     0.016 A 
ATOM     35  C   UNL A   1      39.684  26.398  28.719  1.00  0.00     0.016 A 
ATOM     36  C   UNL A   1      40.207  28.485  26.917  1.00  0.00     0.010 A 
ATOM     37  C   UNL A   1      39.065  27.592  28.909  1.00  0.00     0.010 A 
ATOM     38  C   UNL A   1      39.470  28.646  28.091  1.00  0.00    -0.014 A 
BRANCH  38  39
ATOM     39  C   UNL A   1      39.576  29.853  28.878  1.00  0.00     0.031 A 
ATOM     40  C   UNL A   1      38.540  30.861  28.754  1.00  0.00     0.074 A 
ATOM     41  C   UNL A   1      40.563  29.754  29.799  1.00  0.00     0.049 A 
ATOM     42  N   UNL A   1      38.748  32.124  28.799  1.00  0.00    -0.248 NA
ATOM     43  C   UNL A   1      37.149  30.502  28.482  1.00  0.00     0.031 C 
ATOM     44  C   UNL A   1      40.907  30.547  30.956  1.00  0.00     0.029 A 
ATOM     45  N   UNL A   1      41.611  28.819  29.716  1.00  0.00    -0.354 N 
ATOM     46  C   UNL A   1      37.510  32.680  29.028  1.00  0.00     0.074 A 
ATOM     47  C   UNL A   1      36.558  31.697  28.567  1.00  0.00     0.031 C 
ATOM     48  C   UNL A   1      42.204  30.301  31.253  1.00  0.00     0.029 A 
ATOM     49  C   UNL A   1      42.761  29.402  30.238  1.00  0.00     0.049 A 
ATOM     50  H   UNL A   1      41.543  27.907  29.350  1.00  0.00     0.167 HD
ATOM     51  C   UNL A   1      37.414  33.741  29.885  1.00  0.00     0.037 A 
ATOM     52  C   UNL A   1      43.714  29.706  29.303  1.00  0.00     0.037 A 
ATOM     53  C   UNL A   1      38.748  34.066  30.431  1.00  0.00     0.049 A 
ATOM     54  C   UNL A   1      43.636  31.177  28.902  1.00  0.00     0.074 A 
ATOM     55  C   UNL A   1      39.384  33.828  31.640  1.00  0.00     0.029 A 
ATOM     56  N   UNL A   1      39.774  34.355  29.543  1.00  0.00    -0.354 N 
ATOM     57  N   UNL A   1      42.746  32.014  29.376  1.00  0.00    -0.248 NA
ATOM     58  C   UNL A   1      44.535  31.831  27.954  1.00  0.00     0.031 C 
ATOM     59  C   UNL A   1      40.802  33.909  31.433  1.00  0.00     0.029 A 
ATOM     60  C   UNL A   1      41.031  34.184  30.097  1.00  0.00     0.049 A 
ATOM     61  H   UNL A   1      39.624  34.652  28.617  1.00  0.00     0.167 HD
ATOM     62  C   UNL A   1      42.943  33.264  28.870  1.00  0.00     0.074 A 
ATOM     63  C   UNL A   1      44.073  33.096  27.969  1.00  0.00     0.031 C 
ATOM     64  C   UNL A   1      42.192  34.351  29.224  1.00  0.00     0.037 A 
BRANCH  51  65
ATOM     65  C   UNL A   1      36.084  34.174  30.471  1.00  0.00     0.058 A 
ATOM     66  C   UNL A   1      35.069  34.723  29.664  1.00  0.00     0.135 A 
ATOM     67  C   UNL A   1      35.758  34.091  31.844  1.00  0.00     0.135 A 
ATOM     68  F   UNL A   1      35.179  34.757  28.330  1.00  0.00    -0.206 F 
ATOM     69  C   UNL A   1      33.885  35.253  30.186  1.00  0.00     0.059 A 
ATOM     70  C   UNL A   1      34.613  34.672  32.400  1.00  0.00     0.059 A 
ATOM     71  F   UNL A   1      36.520  33.392  32.698  1.00  0.00    -0.206 F 
ATOM     72  C   UNL A   1      33.678  35.254  31.559  1.00  0.00     0.060 A 
BRANCH  72  73
ATOM     73  S   UNL A   1      32.159  35.972  32.214  1.00  0.00     0.124 S 
ATOM     74  O   UNL A   1      32.665  37.000  33.116  1.00  0.00    -0.237 OA
ATOM     75  O   UNL A   1      31.509  36.454  31.000  1.00  0.00    -0.237 OA
ATOM     76  O   UNL A   1      31.503  34.844  32.869  1.00  0.00    -0.744 OA
ENDBRANCH  72  73
ENDBRANCH  51  65
BRANCH  52  77
ATOM     77  C   UNL A   1      44.117  28.509  28.465  1.00  0.00     0.058 A 
ATOM     78  C   UNL A   1      43.838  28.559  27.073  1.00  0.00     0.135 A 
ATOM     79  C   UNL A   1      44.925  27.438  28.877  1.00  0.00     0.135 A 
ATOM     80  F   UNL A   1      43.050  29.531  26.582  1.00  0.00    -0.206 F 
ATOM     81  C   UNL A   1      44.398  27.682  26.144  1.00  0.00     0.059 A 
ATOM     82  C   UNL A   1      45.478  26.519  27.957  1.00  0.00     0.059 A 
ATOM     83  F   UNL A   1      45.262  27.298  30.167  1.00  0.00    -0.206 F 
ATOM     84  C   UNL A   1      45.234  26.668  26.591  1.00  0.00     0.060 A 
BRANCH  84  85
ATOM     85  S   UNL A   1      46.056  25.635  25.345  1.00  0.00     0.124 S 
ATOM     86  O   UNL A   1      46.566  26.639  24.417  1.00  0.00    -0.237 OA
ATOM     87  O   UNL A   1      47.072  24.954  26.141  1.00  0.00    -0.237 OA
ATOM     88  O   UNL A   1      44.969  24.807  24.831  1.00  0.00    -0.744 OA
ENDBRANCH  84  85
ENDBRANCH  52  77
BRANCH  64  89
ATOM     89  C   UNL A   1      42.531  35.735  28.757  1.00  0.00     0.058 A 
ATOM     90  C   UNL A   1      42.222  36.169  27.459  1.00  0.00     0.135 A 
ATOM     91  C   UNL A   1      43.313  36.606  29.544  1.00  0.00     0.135 A 
ATOM     92  F   UNL A   1      41.533  35.384  26.617  1.00  0.00    -0.206 F 
ATOM     93  C   UNL A   1      42.624  37.417  26.987  1.00  0.00     0.059 A 
ATOM     94  C   UNL A   1      43.784  37.821  29.070  1.00  0.00     0.059 A 
ATOM     95  F   UNL A   1      43.624  36.323  30.816  1.00  0.00    -0.206 F 
ATOM     96  C   UNL A   1      43.406  38.233  27.801  1.00  0.00     0.060 A 
BRANCH  96  97
ATOM     97  S   UNL A   1      43.936  39.845  27.207  1.00  0.00     0.124 S 
ATOM     98  O   UNL A   1      42.988  40.119  26.132  1.00  0.00    -0.237 OA
ATOM     99  O   UNL A   1      43.782  40.657  28.410  1.00  0.00    -0.237 OA
ATOM    100  O   UNL A   1      45.311  39.609  26.776  1.00  0.00    -0.744 OA
ENDBRANCH  96  97
ENDBRANCH  64  89
ENDBRANCH  38  39
ENDBRANCH  31  33
ENDBRANCH  30  31
ENDBRANCH  29  30
ENDBRANCH   1  29
TORSDOF 17
ENDMDL
MODEL 3
REMARK VINA RESULT:     -13.2      2.385      3.373
REMARK SMILES Cc1cccc(-n2ncc(C(=O)Nc3cccc(C(=O)OCCOC(=O)c4ccc(-c5c6nc(c(-c7c(F)cc(S(=O)(=O)[O-])cc7F)c7ccc([nH]7)c(-c7c(F)cc(S(=O)(=O)[O-])cc7F)c7nc(c(-c8c(F)cc(S(=O)(=O)[O-])cc8F)c8ccc5[nH]8)C=C7)C=C6)cc4)c3C)c2C)c1
REMARK SMILES IDX 22 1 21 2 19 3 20 4 18 5 14 6 15 7 93 8 16 9 94 10 17 11
REMARK SMILES IDX 13 12 11 13 12 14 10 16 7 17 8 18 95 19 9 20 96 21 6 22 1 23
REMARK SMILES IDX 2 24 3 25 97 26 4 27 5 28 23 29 24 30 25 31 26 32 27 33
REMARK SMILES IDX 28 34 92 35 29 36 91 37 30 38 31 39 32 40 85 41 33 42 90 43
REMARK SMILES IDX 84 44 86 45 34 46 89 47 83 48 82 49 35 51 69 52 48 53 68 54
REMARK SMILES IDX 49 55 52 56 67 57 87 58 50 59 51 60 66 62 88 63 53 64 36 65
REMARK SMILES IDX 37 66 46 67 38 68 39 69 45 70 47 71 40 72 41 73 42 74 43 75
REMARK SMILES IDX 44 76 70 77 71 78 80 79 72 80 73 81 79 82 81 83 74 84 75 85
REMARK SMILES IDX 76 86 77 87 78 88 54 89 55 90 64 91 56 92 57 93 63 94 65 95
REMARK SMILES IDX 58 96 59 97 60 98 61 99 62 100
REMARK H PARENT 13 15 86 50 52 61
REMARK Flexibility Score: inf
ROOT
ATOM      1  C   UNL A   1      33.363  29.088  27.121  1.00  0.00     0.275 C 
ENDROOT
BRANCH   1   2
ATOM      2  O   UNL A   1      32.988  28.386  25.913  1.00  0.00    -0.458 OA
BRANCH   2   3
ATOM      3  C   UNL A   1      32.452  27.149  26.030  1.00  0.00     0.338 C 
ATOM      4  O   UNL A   1      31.748  26.752  26.948  1.00  0.00    -0.246 OA
BRANCH   3   5
ATOM      5  C   UNL A   1      32.661  26.406  24.757  1.00  0.00     0.065 A 
ATOM      6  C   UNL A   1      32.327  24.578  23.174  1.00  0.00     0.045 A 
ATOM      7  C   UNL A   1      32.954  25.351  22.190  1.00  0.00     0.026 A 
ATOM      8  C   UNL A   1      32.092  25.142  24.455  1.00  0.00    -0.013 A 
ATOM      9  C   UNL A   1      33.510  26.591  22.495  1.00  0.00     0.003 A 
ATOM     10  C   UNL A   1      31.270  24.380  25.464  1.00  0.00     0.047 C 
ATOM     11  C   UNL A   1      33.394  27.100  23.781  1.00  0.00     0.016 A 
BRANCH   6  12
ATOM     12  N   UNL A   1      31.872  23.269  22.894  1.00  0.00    -0.322 N 
ATOM     13  C   UNL A   1      32.451  22.023  23.043  1.00  0.00     0.259 C 
ATOM     14  O   UNL A   1      31.968  21.094  22.391  1.00  0.00    -0.269 OA
ATOM     15  H   UNL A   1      30.963  23.239  22.520  1.00  0.00     0.170 HD
BRANCH  13  16
ATOM     16  C   UNL A   1      33.548  21.794  23.979  1.00  0.00     0.081 A 
ATOM     17  N   UNL A   1      35.516  21.905  25.024  1.00  0.00    -0.237 N 
ATOM     18  N   UNL A   1      34.807  20.972  25.704  1.00  0.00    -0.175 NA
ATOM     19  C   UNL A   1      34.847  22.292  23.870  1.00  0.00     0.054 A 
ATOM     20  C   UNL A   1      33.636  20.915  25.077  1.00  0.00     0.149 A 
ATOM     21  C   UNL A   1      35.491  22.967  22.709  1.00  0.00     0.068 C 
BRANCH  17  22
ATOM     22  C   UNL A   1      36.766  22.345  25.540  1.00  0.00     0.065 A 
ATOM     23  C   UNL A   1      40.218  20.855  26.160  1.00  0.00     0.044 C 
ATOM     24  C   UNL A   1      39.073  21.824  26.117  1.00  0.00    -0.049 A 
ATOM     25  C   UNL A   1      39.264  23.159  26.499  1.00  0.00     0.003 A 
ATOM     26  C   UNL A   1      37.811  21.418  25.667  1.00  0.00     0.031 A 
ATOM     27  C   UNL A   1      38.213  24.073  26.423  1.00  0.00     0.002 A 
ATOM     28  C   UNL A   1      36.966  23.672  25.939  1.00  0.00     0.028 A 
ENDBRANCH  17  22
ENDBRANCH  13  16
ENDBRANCH   6  12
ENDBRANCH   3   5
ENDBRANCH   2   3
ENDBRANCH   1   2
BRANCH   1  29
ATOM     29  C   UNL A   1      33.315  30.634  27.077  1.00  0.00     0.275 C 
BRANCH  29  30
ATOM     30  O   UNL A   1      33.797  31.264  28.270  1.00  0.00    -0.458 OA
BRANCH  30  31
ATOM     31  C   UNL A   1      34.881  32.035  28.049  1.00  0.00     0.338 C 
ATOM     32  O   UNL A   1      34.867  33.257  27.875  1.00  0.00    -0.246 OA
BRANCH  31  33
ATOM     33  C   UNL A   1      36.060  31.307  28.539  1.00  0.00     0.060 A 
ATOM     34  C   UNL A   1      36.173  30.980  29.899  1.00  0.00     0.016 A 
ATOM     35  C   UNL A   1      36.885  30.704  27.576  1.00  0.00     0.016 A 
ATOM     36  C   UNL A   1      37.168  30.113  30.305  1.00  0.00     0.010 A 
ATOM     37  C   UNL A   1      37.723  29.698  27.940  1.00  0.00     0.010 A 
ATOM     38  C   UNL A   1      37.957  29.540  29.306  1.00  0.00    -0.014 A 
BRANCH  38  39
ATOM     39  C   UNL A   1      39.359  29.271  29.525  1.00  0.00     0.031 A 
ATOM     40  C   UNL A   1      39.889  27.975  29.146  1.00  0.00     0.074 A 
ATOM     41  C   UNL A   1      40.026  30.395  29.876  1.00  0.00     0.049 A 
ATOM     42  N   UNL A   1      40.794  27.342  29.796  1.00  0.00    -0.248 NA
ATOM     43  C   UNL A   1      39.358  27.234  28.002  1.00  0.00     0.031 C 
ATOM     44  C   UNL A   1      41.433  30.714  29.961  1.00  0.00     0.029 A 
ATOM     45  N   UNL A   1      39.396  31.545  30.386  1.00  0.00    -0.354 N 
ATOM     46  C   UNL A   1      41.261  26.390  28.919  1.00  0.00     0.074 A 
ATOM     47  C   UNL A   1      40.196  26.194  27.964  1.00  0.00     0.031 C 
ATOM     48  C   UNL A   1      41.563  31.785  30.777  1.00  0.00     0.029 A 
ATOM     49  C   UNL A   1      40.245  32.136  31.315  1.00  0.00     0.049 A 
ATOM     50  H   UNL A   1      38.504  31.875  30.129  1.00  0.00     0.167 HD
ATOM     51  C   UNL A   1      42.602  26.128  28.888  1.00  0.00     0.037 A 
ATOM     52  C   UNL A   1      39.829  32.021  32.614  1.00  0.00     0.037 A 
ATOM     53  C   UNL A   1      43.306  26.999  29.851  1.00  0.00     0.049 A 
ATOM     54  C   UNL A   1      40.531  30.860  33.312  1.00  0.00     0.074 A 
ATOM     55  C   UNL A   1      44.067  28.153  29.738  1.00  0.00     0.029 A 
ATOM     56  N   UNL A   1      42.918  26.961  31.183  1.00  0.00    -0.354 N 
ATOM     57  N   UNL A   1      41.390  30.067  32.720  1.00  0.00    -0.248 NA
ATOM     58  C   UNL A   1      40.340  30.491  34.713  1.00  0.00     0.031 C 
ATOM     59  C   UNL A   1      44.059  28.830  31.004  1.00  0.00     0.029 A 
ATOM     60  C   UNL A   1      43.285  28.097  31.885  1.00  0.00     0.049 A 
ATOM     61  H   UNL A   1      42.434  26.206  31.587  1.00  0.00     0.167 HD
ATOM     62  C   UNL A   1      41.883  29.149  33.597  1.00  0.00     0.074 A 
ATOM     63  C   UNL A   1      41.181  29.447  34.837  1.00  0.00     0.031 C 
ATOM     64  C   UNL A   1      42.834  28.221  33.270  1.00  0.00     0.037 A 
BRANCH  51  65
ATOM     65  C   UNL A   1      43.242  25.384  27.730  1.00  0.00     0.058 A 
ATOM     66  C   UNL A   1      43.095  23.992  27.581  1.00  0.00     0.135 A 
ATOM     67  C   UNL A   1      44.040  25.997  26.738  1.00  0.00     0.135 A 
ATOM     68  F   UNL A   1      42.273  23.288  28.370  1.00  0.00    -0.206 F 
ATOM     69  C   UNL A   1      43.775  23.256  26.607  1.00  0.00     0.059 A 
ATOM     70  C   UNL A   1      44.783  25.279  25.795  1.00  0.00     0.059 A 
ATOM     71  F   UNL A   1      44.088  27.332  26.611  1.00  0.00    -0.206 F 
ATOM     72  C   UNL A   1      44.643  23.902  25.737  1.00  0.00     0.060 A 
BRANCH  72  73
ATOM     73  S   UNL A   1      45.535  22.928  24.509  1.00  0.00     0.124 S 
ATOM     74  O   UNL A   1      44.454  22.414  23.674  1.00  0.00    -0.237 OA
ATOM     75  O   UNL A   1      46.391  23.937  23.892  1.00  0.00    -0.237 OA
ATOM     76  O   UNL A   1      46.229  21.923  25.309  1.00  0.00    -0.744 OA
ENDBRANCH  72  73
ENDBRANCH  51  65
BRANCH  52  77
ATOM     77  C   UNL A   1      38.428  32.558  32.830  1.00  0.00     0.058 A 
ATOM     78  C   UNL A   1      38.167  33.893  32.419  1.00  0.00     0.135 A 
ATOM     79  C   UNL A   1      37.298  31.813  33.201  1.00  0.00     0.135 A 
ATOM     80  F   UNL A   1      39.185  34.698  32.069  1.00  0.00    -0.206 F 
ATOM     81  C   UNL A   1      36.882  34.420  32.286  1.00  0.00     0.059 A 
ATOM     82  C   UNL A   1      35.989  32.336  33.105  1.00  0.00     0.059 A 
ATOM     83  F   UNL A   1      37.424  30.538  33.595  1.00  0.00    -0.206 F 
ATOM     84  C   UNL A   1      35.790  33.629  32.616  1.00  0.00     0.060 A 
BRANCH  84  85
ATOM     85  S   UNL A   1      34.132  34.295  32.297  1.00  0.00     0.124 S 
ATOM     86  O   UNL A   1      34.276  35.677  32.744  1.00  0.00    -0.237 OA
ATOM     87  O   UNL A   1      34.009  34.120  30.853  1.00  0.00    -0.237 OA
ATOM     88  O   UNL A   1      33.273  33.458  33.129  1.00  0.00    -0.744 OA
ENDBRANCH  84  85
ENDBRANCH  52  77
BRANCH  64  89
ATOM     89  C   UNL A   1      43.455  27.325  34.298  1.00  0.00     0.058 A 
ATOM     90  C   UNL A   1      44.811  27.429  34.641  1.00  0.00     0.135 A 
ATOM     91  C   UNL A   1      42.748  26.235  34.849  1.00  0.00     0.135 A 
ATOM     92  F   UNL A   1      45.580  28.398  34.120  1.00  0.00    -0.206 F 
ATOM     93  C   UNL A   1      45.417  26.534  35.520  1.00  0.00     0.059 A 
ATOM     94  C   UNL A   1      43.348  25.292  35.668  1.00  0.00     0.059 A 
ATOM     95  F   UNL A   1      41.436  26.064  34.635  1.00  0.00    -0.206 F 
ATOM     96  C   UNL A   1      44.676  25.468  36.025  1.00  0.00     0.060 A 
BRANCH  96  97
ATOM     97  S   UNL A   1      45.443  24.302  37.158  1.00  0.00     0.124 S 
ATOM     98  O   UNL A   1      45.033  23.010  36.616  1.00  0.00    -0.237 OA
ATOM     99  O   UNL A   1      46.854  24.637  37.001  1.00  0.00    -0.237 OA
ATOM    100  O   UNL A   1      44.852  24.648  38.448  1.00  0.00    -0.744 OA
ENDBRANCH  96  97
ENDBRANCH  64  89
ENDBRANCH  38  39
ENDBRANCH  31  33
ENDBRANCH  30  31
ENDBRANCH  29  30
ENDBRANCH   1  29
TORSDOF 17
ENDMDL
