MODEL 1
REMARK VINA RESULT:     -11.0      0.000      0.000
REMARK SMILES O=C(C[NH+]1CCN(c2ncc(C(F)(F)F)cc2Cl)CC1)OCCOC(=O)c1ccc(-c2c3nc(c(-c4c(F)cc(S(=O)(=O)[O-])cc4F)c4ccc([nH]4)c(-c4c(F)cc(S(=O)(=O)[O-])cc4F)c4nc(c(-c5c(F)cc(S(=O)(=O)[O-])cc5F)c5ccc2[nH]5)C=C4)C=C3)cc1
REMARK SMILES IDX 22 1 21 2 2 3 1 4 3 5 4 6 5 7 20 8 6 10 19 11 7 12 8 13 9 14
REMARK SMILES IDX 17 15 10 16 16 17 18 18 11 19 12 20 13 21 14 22 15 23 23 24
REMARK SMILES IDX 24 25 25 26 26 27 27 28 28 29 92 30 29 31 91 32 30 33 31 34
REMARK SMILES IDX 32 35 85 36 33 37 90 38 84 39 86 40 34 41 89 42 83 43 82 44
REMARK SMILES IDX 35 46 69 47 48 48 68 49 49 50 52 51 67 52 87 53 50 54 51 55
REMARK SMILES IDX 66 57 88 58 53 59 36 60 37 61 46 62 38 63 39 64 45 65 47 66
REMARK SMILES IDX 40 67 41 68 42 69 43 70 44 71 70 72 71 73 80 74 72 75 73 76
REMARK SMILES IDX 79 77 81 78 74 79 75 80 76 81 77 82 78 83 54 84 55 85 64 86
REMARK SMILES IDX 56 87 57 88 63 89 65 90 58 91 59 92 60 93 61 94 62 95
REMARK H PARENT 4 9 86 45 52 56
REMARK Flexibility Score: inf
ROOT
ATOM      1  C   UNL A   1      33.464  28.272  25.698  1.00  0.00     0.274 C 
ENDROOT
BRANCH   1   2
ATOM      2  O   UNL A   1      32.168  27.799  25.308  1.00  0.00    -0.458 OA
BRANCH   2   3
ATOM      3  C   UNL A   1      31.640  26.813  26.090  1.00  0.00     0.361 C 
ATOM      4  O   UNL A   1      31.162  27.064  27.192  1.00  0.00    -0.245 OA
BRANCH   3   5
ATOM      5  C   UNL A   1      31.889  25.397  25.566  1.00  0.00     0.386 C 
BRANCH   5   6
ATOM      6  N   UNL A   1      33.150  24.815  26.071  1.00  0.00    -0.323 N 
ATOM      7  C   UNL A   1      32.939  23.586  26.881  1.00  0.00     0.284 C 
ATOM      8  C   UNL A   1      34.044  24.455  24.932  1.00  0.00     0.284 C 
ATOM      9  H   UNL A   1      33.571  25.530  26.666  1.00  0.00     0.348 HD
ATOM     10  C   UNL A   1      32.446  22.337  26.112  1.00  0.00     0.179 C 
ATOM     11  C   UNL A   1      33.607  23.218  24.100  1.00  0.00     0.179 C 
ATOM     12  N   UNL A   1      33.346  22.101  25.002  1.00  0.00    -0.344 N 
BRANCH  12  13
ATOM     13  C   UNL A   1      33.593  20.801  24.632  1.00  0.00     0.147 A 
ATOM     14  N   UNL A   1      32.543  20.061  24.199  1.00  0.00    -0.237 NA
ATOM     15  C   UNL A   1      34.853  20.216  24.846  1.00  0.00     0.084 A 
ATOM     16  C   UNL A   1      32.741  18.740  23.966  1.00  0.00     0.126 A 
ATOM     17  C   UNL A   1      35.019  18.850  24.634  1.00  0.00     0.039 A 
ATOM     18  Cl  UNL A   1      36.185  21.094  25.515  1.00  0.00    -0.080 Cl
ATOM     19  C   UNL A   1      33.940  18.082  24.195  1.00  0.00     0.075 A 
BRANCH  19  20
ATOM     20  C   UNL A   1      34.033  16.601  24.014  1.00  0.00     0.417 C 
ATOM     21  F   UNL A   1      35.002  16.045  24.795  1.00  0.00    -0.166 F 
ATOM     22  F   UNL A   1      32.881  15.952  24.327  1.00  0.00    -0.166 F 
ATOM     23  F   UNL A   1      34.340  16.232  22.738  1.00  0.00    -0.166 F 
ENDBRANCH  19  20
ENDBRANCH  12  13
ENDBRANCH   5   6
ENDBRANCH   3   5
ENDBRANCH   2   3
ENDBRANCH   1   2
BRANCH   1  24
ATOM     24  C   UNL A   1      33.392  29.547  26.545  1.00  0.00     0.275 C 
BRANCH  24  25
ATOM     25  O   UNL A   1      33.983  29.368  27.843  1.00  0.00    -0.458 OA
BRANCH  25  26
ATOM     26  C   UNL A   1      34.789  30.390  28.243  1.00  0.00     0.338 C 
ATOM     27  O   UNL A   1      34.422  31.495  28.609  1.00  0.00    -0.246 OA
BRANCH  26  28
ATOM     28  C   UNL A   1      36.192  29.924  28.355  1.00  0.00     0.060 A 
ATOM     29  C   UNL A   1      36.623  29.449  29.600  1.00  0.00     0.016 A 
ATOM     30  C   UNL A   1      37.072  29.926  27.268  1.00  0.00     0.016 A 
ATOM     31  C   UNL A   1      37.944  29.025  29.773  1.00  0.00     0.010 A 
ATOM     32  C   UNL A   1      38.389  29.481  27.438  1.00  0.00     0.010 A 
ATOM     33  C   UNL A   1      38.848  29.071  28.701  1.00  0.00    -0.014 A 
BRANCH  33  34
ATOM     34  C   UNL A   1      40.297  28.862  28.958  1.00  0.00     0.031 A 
ATOM     35  C   UNL A   1      40.910  27.529  28.612  1.00  0.00     0.074 A 
ATOM     36  C   UNL A   1      41.078  29.845  29.444  1.00  0.00     0.049 A 
ATOM     37  N   UNL A   1      42.163  27.156  28.652  1.00  0.00    -0.248 NA
ATOM     38  C   UNL A   1      39.983  26.478  28.160  1.00  0.00     0.031 C 
ATOM     39  C   UNL A   1      40.626  31.182  29.824  1.00  0.00     0.029 A 
ATOM     40  N   UNL A   1      42.430  29.865  29.695  1.00  0.00    -0.354 N 
ATOM     41  C   UNL A   1      42.177  25.835  28.222  1.00  0.00     0.074 A 
ATOM     42  C   UNL A   1      40.803  25.454  27.979  1.00  0.00     0.031 C 
ATOM     43  C   UNL A   1      41.682  31.896  30.254  1.00  0.00     0.029 A 
ATOM     44  C   UNL A   1      42.885  31.067  30.182  1.00  0.00     0.049 A 
ATOM     45  H   UNL A   1      43.017  29.091  29.540  1.00  0.00     0.167 HD
ATOM     46  C   UNL A   1      43.236  25.013  28.021  1.00  0.00     0.037 A 
ATOM     47  C   UNL A   1      44.132  31.458  30.518  1.00  0.00     0.037 A 
ATOM     48  C   UNL A   1      44.606  25.378  28.258  1.00  0.00     0.049 A 
ATOM     49  C   UNL A   1      45.292  30.513  30.330  1.00  0.00     0.074 A 
ATOM     50  C   UNL A   1      45.748  24.626  28.043  1.00  0.00     0.029 A 
ATOM     51  N   UNL A   1      45.021  26.596  28.775  1.00  0.00    -0.354 N 
ATOM     52  N   UNL A   1      45.297  29.292  29.847  1.00  0.00    -0.248 NA
ATOM     53  C   UNL A   1      46.622  31.006  30.722  1.00  0.00     0.031 C 
ATOM     54  C   UNL A   1      46.851  25.374  28.469  1.00  0.00     0.029 A 
ATOM     55  C   UNL A   1      46.400  26.608  28.909  1.00  0.00     0.049 A 
ATOM     56  H   UNL A   1      44.424  27.343  29.011  1.00  0.00     0.167 HD
ATOM     57  C   UNL A   1      46.631  28.891  29.838  1.00  0.00     0.074 A 
ATOM     58  C   UNL A   1      47.404  29.995  30.366  1.00  0.00     0.031 C 
ATOM     59  C   UNL A   1      47.165  27.716  29.420  1.00  0.00     0.037 A 
BRANCH  46  60
ATOM     60  C   UNL A   1      42.939  23.627  27.524  1.00  0.00     0.058 A 
ATOM     61  C   UNL A   1      42.658  22.576  28.412  1.00  0.00     0.135 A 
ATOM     62  C   UNL A   1      42.941  23.346  26.151  1.00  0.00     0.135 A 
ATOM     63  F   UNL A   1      42.662  22.790  29.738  1.00  0.00    -0.206 F 
ATOM     64  C   UNL A   1      42.429  21.283  27.955  1.00  0.00     0.059 A 
ATOM     65  C   UNL A   1      42.690  22.064  25.669  1.00  0.00     0.059 A 
ATOM     66  F   UNL A   1      43.205  24.316  25.261  1.00  0.00    -0.206 F 
ATOM     67  C   UNL A   1      42.456  21.036  26.581  1.00  0.00     0.060 A 
BRANCH  67  68
ATOM     68  S   UNL A   1      42.188  19.347  26.002  1.00  0.00     0.124 S 
ATOM     69  O   UNL A   1      40.750  19.351  25.756  1.00  0.00    -0.237 OA
ATOM     70  O   UNL A   1      43.035  19.282  24.815  1.00  0.00    -0.237 OA
ATOM     71  O   UNL A   1      42.630  18.529  27.129  1.00  0.00    -0.744 OA
ENDBRANCH  67  68
ENDBRANCH  46  60
BRANCH  47  72
ATOM     72  C   UNL A   1      44.369  32.831  31.038  1.00  0.00     0.058 A 
ATOM     73  C   UNL A   1      44.340  33.094  32.416  1.00  0.00     0.135 A 
ATOM     74  C   UNL A   1      44.600  33.908  30.170  1.00  0.00     0.135 A 
ATOM     75  F   UNL A   1      44.110  32.097  33.284  1.00  0.00    -0.206 F 
ATOM     76  C   UNL A   1      44.511  34.380  32.917  1.00  0.00     0.059 A 
ATOM     77  C   UNL A   1      44.794  35.201  30.647  1.00  0.00     0.059 A 
ATOM     78  F   UNL A   1      44.645  33.706  28.845  1.00  0.00    -0.206 F 
ATOM     79  C   UNL A   1      44.736  35.428  32.023  1.00  0.00     0.060 A 
BRANCH  79  80
ATOM     80  S   UNL A   1      44.990  37.091  32.681  1.00  0.00     0.124 S 
ATOM     81  O   UNL A   1      46.230  37.481  32.021  1.00  0.00    -0.237 OA
ATOM     82  O   UNL A   1      43.784  37.784  32.238  1.00  0.00    -0.237 OA
ATOM     83  O   UNL A   1      45.083  36.869  34.121  1.00  0.00    -0.744 OA
ENDBRANCH  79  80
ENDBRANCH  47  72
BRANCH  59  84
ATOM     84  C   UNL A   1      48.662  27.571  29.470  1.00  0.00     0.058 A 
ATOM     85  C   UNL A   1      49.491  28.093  28.465  1.00  0.00     0.135 A 
ATOM     86  C   UNL A   1      49.277  26.947  30.567  1.00  0.00     0.135 A 
ATOM     87  F   UNL A   1      48.954  28.696  27.392  1.00  0.00    -0.206 F 
ATOM     88  C   UNL A   1      50.876  27.981  28.534  1.00  0.00     0.059 A 
ATOM     89  C   UNL A   1      50.662  26.845  30.669  1.00  0.00     0.059 A 
ATOM     90  F   UNL A   1      48.532  26.441  31.563  1.00  0.00    -0.206 F 
ATOM     91  C   UNL A   1      51.453  27.355  29.641  1.00  0.00     0.060 A 
BRANCH  91  92
ATOM     92  S   UNL A   1      53.253  27.244  29.740  1.00  0.00     0.124 S 
ATOM     93  O   UNL A   1      53.508  25.984  29.049  1.00  0.00    -0.237 OA
ATOM     94  O   UNL A   1      53.683  28.449  29.037  1.00  0.00    -0.237 OA
ATOM     95  O   UNL A   1      53.514  27.238  31.175  1.00  0.00    -0.744 OA
ENDBRANCH  91  92
ENDBRANCH  59  84
ENDBRANCH  33  34
ENDBRANCH  26  28
ENDBRANCH  25  26
ENDBRANCH  24  25
ENDBRANCH   1  24
TORSDOF 17
ENDMDL
MODEL 2
REMARK VINA RESULT:     -11.0      3.172      8.494
REMARK SMILES O=C(C[NH+]1CCN(c2ncc(C(F)(F)F)cc2Cl)CC1)OCCOC(=O)c1ccc(-c2c3nc(c(-c4c(F)cc(S(=O)(=O)[O-])cc4F)c4ccc([nH]4)c(-c4c(F)cc(S(=O)(=O)[O-])cc4F)c4nc(c(-c5c(F)cc(S(=O)(=O)[O-])cc5F)c5ccc2[nH]5)C=C4)C=C3)cc1
REMARK SMILES IDX 22 1 21 2 2 3 1 4 3 5 4 6 5 7 20 8 6 10 19 11 7 12 8 13 9 14
REMARK SMILES IDX 17 15 10 16 16 17 18 18 11 19 12 20 13 21 14 22 15 23 23 24
REMARK SMILES IDX 24 25 25 26 26 27 27 28 28 29 92 30 29 31 91 32 30 33 31 34
REMARK SMILES IDX 32 35 85 36 33 37 90 38 84 39 86 40 34 41 89 42 83 43 82 44
REMARK SMILES IDX 35 46 69 47 48 48 68 49 49 50 52 51 67 52 87 53 50 54 51 55
REMARK SMILES IDX 66 57 88 58 53 59 36 60 37 61 46 62 38 63 39 64 45 65 47 66
REMARK SMILES IDX 40 67 41 68 42 69 43 70 44 71 70 72 71 73 80 74 72 75 73 76
REMARK SMILES IDX 79 77 81 78 74 79 75 80 76 81 77 82 78 83 54 84 55 85 64 86
REMARK SMILES IDX 56 87 57 88 63 89 65 90 58 91 59 92 60 93 61 94 62 95
REMARK H PARENT 4 9 86 45 52 56
REMARK Flexibility Score: inf
ROOT
ATOM      1  C   UNL A   1      31.785  29.213  25.709  1.00  0.00     0.274 C 
ENDROOT
BRANCH   1   2
ATOM      2  O   UNL A   1      31.703  27.820  25.381  1.00  0.00    -0.458 OA
BRANCH   2   3
ATOM      3  C   UNL A   1      31.324  26.995  26.399  1.00  0.00     0.361 C 
ATOM      4  O   UNL A   1      31.042  27.441  27.507  1.00  0.00    -0.245 OA
BRANCH   3   5
ATOM      5  C   UNL A   1      31.486  25.505  26.091  1.00  0.00     0.386 C 
BRANCH   5   6
ATOM      6  N   UNL A   1      32.742  25.204  25.374  1.00  0.00    -0.323 N 
ATOM      7  C   UNL A   1      33.663  24.335  26.155  1.00  0.00     0.284 C 
ATOM      8  C   UNL A   1      32.447  24.505  24.088  1.00  0.00     0.284 C 
ATOM      9  H   UNL A   1      33.197  26.103  25.215  1.00  0.00     0.348 HD
ATOM     10  C   UNL A   1      33.207  22.872  26.367  1.00  0.00     0.179 C 
ATOM     11  C   UNL A   1      31.969  23.033  24.219  1.00  0.00     0.179 C 
ATOM     12  N   UNL A   1      32.898  22.300  25.073  1.00  0.00    -0.344 N 
BRANCH  12  13
ATOM     13  C   UNL A   1      33.165  20.967  24.872  1.00  0.00     0.147 A 
ATOM     14  N   UNL A   1      32.136  20.093  25.001  1.00  0.00    -0.237 NA
ATOM     15  C   UNL A   1      34.484  20.513  24.696  1.00  0.00     0.084 A 
ATOM     16  C   UNL A   1      32.409  18.767  24.947  1.00  0.00     0.126 A 
ATOM     17  C   UNL A   1      34.740  19.145  24.681  1.00  0.00     0.039 A 
ATOM     18  Cl  UNL A   1      35.839  21.587  24.651  1.00  0.00    -0.080 Cl
ATOM     19  C   UNL A   1      33.686  18.242  24.821  1.00  0.00     0.075 A 
BRANCH  19  20
ATOM     20  C   UNL A   1      33.902  16.763  24.882  1.00  0.00     0.417 C 
ATOM     21  F   UNL A   1      33.224  16.184  25.913  1.00  0.00    -0.166 F 
ATOM     22  F   UNL A   1      33.497  16.118  23.758  1.00  0.00    -0.166 F 
ATOM     23  F   UNL A   1      35.208  16.417  25.067  1.00  0.00    -0.166 F 
ENDBRANCH  19  20
ENDBRANCH  12  13
ENDBRANCH   5   6
ENDBRANCH   3   5
ENDBRANCH   2   3
ENDBRANCH   1   2
BRANCH   1  24
ATOM     24  C   UNL A   1      33.227  29.677  25.943  1.00  0.00     0.275 C 
BRANCH  24  25
ATOM     25  O   UNL A   1      33.520  29.846  27.341  1.00  0.00    -0.458 OA
BRANCH  25  26
ATOM     26  C   UNL A   1      34.387  30.859  27.618  1.00  0.00     0.338 C 
ATOM     27  O   UNL A   1      34.116  32.049  27.655  1.00  0.00    -0.246 OA
BRANCH  26  28
ATOM     28  C   UNL A   1      35.694  30.312  28.056  1.00  0.00     0.060 A 
ATOM     29  C   UNL A   1      35.758  29.718  29.322  1.00  0.00     0.016 A 
ATOM     30  C   UNL A   1      36.834  30.353  27.247  1.00  0.00     0.016 A 
ATOM     31  C   UNL A   1      36.970  29.212  29.801  1.00  0.00     0.010 A 
ATOM     32  C   UNL A   1      38.042  29.826  27.720  1.00  0.00     0.010 A 
ATOM     33  C   UNL A   1      38.130  29.293  29.017  1.00  0.00    -0.014 A 
BRANCH  33  34
ATOM     34  C   UNL A   1      39.450  28.988  29.630  1.00  0.00     0.031 A 
ATOM     35  C   UNL A   1      39.886  29.775  30.839  1.00  0.00     0.074 A 
ATOM     36  C   UNL A   1      40.236  28.001  29.162  1.00  0.00     0.049 A 
ATOM     37  N   UNL A   1      40.941  29.616  31.597  1.00  0.00    -0.248 NA
ATOM     38  C   UNL A   1      39.015  30.890  31.247  1.00  0.00     0.031 C 
ATOM     39  C   UNL A   1      39.945  27.158  28.003  1.00  0.00     0.029 A 
ATOM     40  N   UNL A   1      41.447  27.535  29.618  1.00  0.00    -0.354 N 
ATOM     41  C   UNL A   1      40.856  30.600  32.574  1.00  0.00     0.074 A 
ATOM     42  C   UNL A   1      39.676  31.385  32.282  1.00  0.00     0.031 C 
ATOM     43  C   UNL A   1      40.947  26.274  27.842  1.00  0.00     0.029 A 
ATOM     44  C   UNL A   1      41.951  26.488  28.884  1.00  0.00     0.049 A 
ATOM     45  H   UNL A   1      41.910  27.917  30.397  1.00  0.00     0.167 HD
ATOM     46  C   UNL A   1      41.667  30.821  33.636  1.00  0.00     0.037 A 
ATOM     47  C   UNL A   1      43.085  25.775  29.043  1.00  0.00     0.037 A 
ATOM     48  C   UNL A   1      42.841  30.049  33.939  1.00  0.00     0.049 A 
ATOM     49  C   UNL A   1      44.000  26.068  30.206  1.00  0.00     0.074 A 
ATOM     50  C   UNL A   1      43.701  30.174  35.016  1.00  0.00     0.029 A 
ATOM     51  N   UNL A   1      43.329  29.014  33.156  1.00  0.00    -0.354 N 
ATOM     52  N   UNL A   1      43.862  26.951  31.167  1.00  0.00    -0.248 NA
ATOM     53  C   UNL A   1      45.221  25.253  30.313  1.00  0.00     0.031 C 
ATOM     54  C   UNL A   1      44.732  29.241  34.863  1.00  0.00     0.029 A 
ATOM     55  C   UNL A   1      44.492  28.507  33.713  1.00  0.00     0.049 A 
ATOM     56  H   UNL A   1      42.911  28.687  32.327  1.00  0.00     0.167 HD
ATOM     57  C   UNL A   1      44.953  26.768  32.012  1.00  0.00     0.074 A 
ATOM     58  C   UNL A   1      45.743  25.694  31.450  1.00  0.00     0.031 C 
ATOM     59  C   UNL A   1      45.265  27.426  33.157  1.00  0.00     0.037 A 
BRANCH  46  60
ATOM     60  C   UNL A   1      41.305  31.961  34.545  1.00  0.00     0.058 A 
ATOM     61  C   UNL A   1      40.418  31.785  35.621  1.00  0.00     0.135 A 
ATOM     62  C   UNL A   1      41.842  33.239  34.337  1.00  0.00     0.135 A 
ATOM     63  F   UNL A   1      39.863  30.584  35.851  1.00  0.00    -0.206 F 
ATOM     64  C   UNL A   1      40.047  32.849  36.435  1.00  0.00     0.059 A 
ATOM     65  C   UNL A   1      41.503  34.313  35.155  1.00  0.00     0.059 A 
ATOM     66  F   UNL A   1      42.693  33.459  33.322  1.00  0.00    -0.206 F 
ATOM     67  C   UNL A   1      40.589  34.112  36.187  1.00  0.00     0.060 A 
BRANCH  67  68
ATOM     68  S   UNL A   1      40.074  35.492  37.232  1.00  0.00     0.124 S 
ATOM     69  O   UNL A   1      38.965  34.897  37.970  1.00  0.00    -0.237 OA
ATOM     70  O   UNL A   1      41.279  35.766  38.009  1.00  0.00    -0.237 OA
ATOM     71  O   UNL A   1      39.705  36.525  36.268  1.00  0.00    -0.744 OA
ENDBRANCH  67  68
ENDBRANCH  46  60
BRANCH  47  72
ATOM     72  C   UNL A   1      43.416  24.679  28.095  1.00  0.00     0.058 A 
ATOM     73  C   UNL A   1      44.176  24.928  26.942  1.00  0.00     0.135 A 
ATOM     74  C   UNL A   1      42.957  23.370  28.307  1.00  0.00     0.135 A 
ATOM     75  F   UNL A   1      44.626  26.167  26.691  1.00  0.00    -0.206 F 
ATOM     76  C   UNL A   1      44.454  23.924  26.020  1.00  0.00     0.059 A 
ATOM     77  C   UNL A   1      43.239  22.344  27.410  1.00  0.00     0.059 A 
ATOM     78  F   UNL A   1      42.234  23.080  29.399  1.00  0.00    -0.206 F 
ATOM     79  C   UNL A   1      43.978  22.634  26.262  1.00  0.00     0.060 A 
BRANCH  79  80
ATOM     80  S   UNL A   1      44.370  21.328  25.078  1.00  0.00     0.124 S 
ATOM     81  O   UNL A   1      43.364  20.324  25.406  1.00  0.00    -0.237 OA
ATOM     82  O   UNL A   1      44.198  22.012  23.800  1.00  0.00    -0.237 OA
ATOM     83  O   UNL A   1      45.747  20.976  25.413  1.00  0.00    -0.744 OA
ENDBRANCH  79  80
ENDBRANCH  47  72
BRANCH  59  84
ATOM     84  C   UNL A   1      46.489  26.980  33.909  1.00  0.00     0.058 A 
ATOM     85  C   UNL A   1      47.749  27.556  33.684  1.00  0.00     0.135 A 
ATOM     86  C   UNL A   1      46.388  25.997  34.908  1.00  0.00     0.135 A 
ATOM     87  F   UNL A   1      47.902  28.497  32.738  1.00  0.00    -0.206 F 
ATOM     88  C   UNL A   1      48.870  27.159  34.407  1.00  0.00     0.059 A 
ATOM     89  C   UNL A   1      47.492  25.601  35.660  1.00  0.00     0.059 A 
ATOM     90  F   UNL A   1      45.205  25.422  35.173  1.00  0.00    -0.206 F 
ATOM     91  C   UNL A   1      48.731  26.180  35.393  1.00  0.00     0.060 A 
BRANCH  91  92
ATOM     92  S   UNL A   1      50.184  25.694  36.349  1.00  0.00     0.124 S 
ATOM     93  O   UNL A   1      51.220  25.679  35.321  1.00  0.00    -0.237 OA
ATOM     94  O   UNL A   1      50.287  26.764  37.335  1.00  0.00    -0.237 OA
ATOM     95  O   UNL A   1      49.815  24.389  36.888  1.00  0.00    -0.744 OA
ENDBRANCH  91  92
ENDBRANCH  59  84
ENDBRANCH  33  34
ENDBRANCH  26  28
ENDBRANCH  25  26
ENDBRANCH  24  25
ENDBRANCH   1  24
TORSDOF 17
ENDMDL
MODEL 3
REMARK VINA RESULT:     -10.9      6.023     10.611
REMARK SMILES O=C(C[NH+]1CCN(c2ncc(C(F)(F)F)cc2Cl)CC1)OCCOC(=O)c1ccc(-c2c3nc(c(-c4c(F)cc(S(=O)(=O)[O-])cc4F)c4ccc([nH]4)c(-c4c(F)cc(S(=O)(=O)[O-])cc4F)c4nc(c(-c5c(F)cc(S(=O)(=O)[O-])cc5F)c5ccc2[nH]5)C=C4)C=C3)cc1
REMARK SMILES IDX 22 1 21 2 2 3 1 4 3 5 4 6 5 7 20 8 6 10 19 11 7 12 8 13 9 14
REMARK SMILES IDX 17 15 10 16 16 17 18 18 11 19 12 20 13 21 14 22 15 23 23 24
REMARK SMILES IDX 24 25 25 26 26 27 27 28 28 29 92 30 29 31 91 32 30 33 31 34
REMARK SMILES IDX 32 35 85 36 33 37 90 38 84 39 86 40 34 41 89 42 83 43 82 44
REMARK SMILES IDX 35 46 69 47 48 48 68 49 49 50 52 51 67 52 87 53 50 54 51 55
REMARK SMILES IDX 66 57 88 58 53 59 36 60 37 61 46 62 38 63 39 64 45 65 47 66
REMARK SMILES IDX 40 67 41 68 42 69 43 70 44 71 70 72 71 73 80 74 72 75 73 76
REMARK SMILES IDX 79 77 81 78 74 79 75 80 76 81 77 82 78 83 54 84 55 85 64 86
REMARK SMILES IDX 56 87 57 88 63 89 65 90 58 91 59 92 60 93 61 94 62 95
REMARK H PARENT 4 9 86 45 52 56
REMARK Flexibility Score: inf
ROOT
ATOM      1  C   UNL A   1      39.070  21.777  26.064  1.00  0.00     0.274 C 
ENDROOT
BRANCH   1   2
ATOM      2  O   UNL A   1      37.984  22.712  26.046  1.00  0.00    -0.458 OA
BRANCH   2   3
ATOM      3  C   UNL A   1      37.058  22.521  25.062  1.00  0.00     0.361 C 
ATOM      4  O   UNL A   1      37.146  21.580  24.280  1.00  0.00    -0.245 OA
BRANCH   3   5
ATOM      5  C   UNL A   1      36.062  23.673  24.908  1.00  0.00     0.386 C 
BRANCH   5   6
ATOM      6  N   UNL A   1      34.656  23.227  24.993  1.00  0.00    -0.323 N 
ATOM      7  C   UNL A   1      33.866  23.987  25.997  1.00  0.00     0.284 C 
ATOM      8  C   UNL A   1      33.982  23.393  23.672  1.00  0.00     0.284 C 
ATOM      9  H   UNL A   1      34.689  22.248  25.276  1.00  0.00     0.348 HD
ATOM     10  C   UNL A   1      33.577  25.470  25.661  1.00  0.00     0.179 C 
ATOM     11  C   UNL A   1      33.671  24.857  23.255  1.00  0.00     0.179 C 
ATOM     12  N   UNL A   1      32.973  25.529  24.346  1.00  0.00    -0.344 N 
BRANCH  12  13
ATOM     13  C   UNL A   1      32.025  26.495  24.110  1.00  0.00     0.147 A 
ATOM     14  N   UNL A   1      30.722  26.144  24.249  1.00  0.00    -0.237 NA
ATOM     15  C   UNL A   1      32.386  27.749  23.590  1.00  0.00     0.084 A 
ATOM     16  C   UNL A   1      29.773  27.040  23.883  1.00  0.00     0.126 A 
ATOM     17  C   UNL A   1      31.390  28.636  23.188  1.00  0.00     0.039 A 
ATOM     18  Cl  UNL A   1      34.029  28.190  23.280  1.00  0.00    -0.080 Cl
ATOM     19  C   UNL A   1      30.049  28.277  23.322  1.00  0.00     0.075 A 
BRANCH  19  20
ATOM     20  C   UNL A   1      28.935  29.154  22.846  1.00  0.00     0.417 C 
ATOM     21  F   UNL A   1      29.194  29.703  21.626  1.00  0.00    -0.166 F 
ATOM     22  F   UNL A   1      27.755  28.495  22.718  1.00  0.00    -0.166 F 
ATOM     23  F   UNL A   1      28.690  30.210  23.674  1.00  0.00    -0.166 F 
ENDBRANCH  19  20
ENDBRANCH  12  13
ENDBRANCH   5   6
ENDBRANCH   3   5
ENDBRANCH   2   3
ENDBRANCH   1   2
BRANCH   1  24
ATOM     24  C   UNL A   1      40.346  22.372  26.669  1.00  0.00     0.275 C 
BRANCH  24  25
ATOM     25  O   UNL A   1      40.374  23.806  26.570  1.00  0.00    -0.458 OA
BRANCH  25  26
ATOM     26  C   UNL A   1      41.480  24.388  27.110  1.00  0.00     0.338 C 
ATOM     27  O   UNL A   1      42.638  24.161  26.800  1.00  0.00    -0.246 OA
BRANCH  26  28
ATOM     28  C   UNL A   1      41.087  25.492  28.019  1.00  0.00     0.060 A 
ATOM     29  C   UNL A   1      42.048  26.470  28.308  1.00  0.00     0.016 A 
ATOM     30  C   UNL A   1      39.805  25.594  28.567  1.00  0.00     0.016 A 
ATOM     31  C   UNL A   1      41.744  27.518  29.182  1.00  0.00     0.010 A 
ATOM     32  C   UNL A   1      39.496  26.656  29.425  1.00  0.00     0.010 A 
ATOM     33  C   UNL A   1      40.476  27.600  29.775  1.00  0.00    -0.014 A 
BRANCH  33  34
ATOM     34  C   UNL A   1      40.250  28.561  30.887  1.00  0.00     0.031 A 
ATOM     35  C   UNL A   1      41.097  28.445  32.128  1.00  0.00     0.074 A 
ATOM     36  C   UNL A   1      39.345  29.553  30.791  1.00  0.00     0.049 A 
ATOM     37  N   UNL A   1      41.148  29.228  33.175  1.00  0.00    -0.248 NA
ATOM     38  C   UNL A   1      42.007  27.290  32.197  1.00  0.00     0.031 C 
ATOM     39  C   UNL A   1      38.457  29.788  29.654  1.00  0.00     0.029 A 
ATOM     40  N   UNL A   1      39.032  30.560  31.674  1.00  0.00    -0.354 N 
ATOM     41  C   UNL A   1      42.100  28.670  34.019  1.00  0.00     0.074 A 
ATOM     42  C   UNL A   1      42.562  27.452  33.388  1.00  0.00     0.031 C 
ATOM     43  C   UNL A   1      37.703  30.874  29.905  1.00  0.00     0.029 A 
ATOM     44  C   UNL A   1      38.053  31.411  31.220  1.00  0.00     0.049 A 
ATOM     45  H   UNL A   1      39.469  30.662  32.550  1.00  0.00     0.167 HD
ATOM     46  C   UNL A   1      42.570  29.134  35.201  1.00  0.00     0.037 A 
ATOM     47  C   UNL A   1      37.510  32.504  31.794  1.00  0.00     0.037 A 
ATOM     48  C   UNL A   1      42.121  30.342  35.839  1.00  0.00     0.049 A 
ATOM     49  C   UNL A   1      38.016  32.979  33.134  1.00  0.00     0.074 A 
ATOM     50  C   UNL A   1      42.570  30.913  37.016  1.00  0.00     0.029 A 
ATOM     51  N   UNL A   1      41.110  31.160  35.358  1.00  0.00    -0.354 N 
ATOM     52  N   UNL A   1      38.974  32.483  33.881  1.00  0.00    -0.248 NA
ATOM     53  C   UNL A   1      37.374  34.176  33.701  1.00  0.00     0.031 C 
ATOM     54  C   UNL A   1      41.803  32.055  37.269  1.00  0.00     0.029 A 
ATOM     55  C   UNL A   1      40.904  32.218  36.227  1.00  0.00     0.049 A 
ATOM     56  H   UNL A   1      40.613  31.011  34.521  1.00  0.00     0.167 HD
ATOM     57  C   UNL A   1      39.076  33.330  34.981  1.00  0.00     0.074 A 
ATOM     58  C   UNL A   1      38.083  34.368  34.805  1.00  0.00     0.031 C 
ATOM     59  C   UNL A   1      39.924  33.258  36.038  1.00  0.00     0.037 A 
BRANCH  46  60
ATOM     60  C   UNL A   1      43.629  28.315  35.883  1.00  0.00     0.058 A 
ATOM     61  C   UNL A   1      44.995  28.555  35.661  1.00  0.00     0.135 A 
ATOM     62  C   UNL A   1      43.276  27.280  36.760  1.00  0.00     0.135 A 
ATOM     63  F   UNL A   1      45.385  29.523  34.817  1.00  0.00    -0.206 F 
ATOM     64  C   UNL A   1      45.975  27.767  36.256  1.00  0.00     0.059 A 
ATOM     65  C   UNL A   1      44.240  26.495  37.386  1.00  0.00     0.059 A 
ATOM     66  F   UNL A   1      41.983  27.011  37.004  1.00  0.00    -0.206 F 
ATOM     67  C   UNL A   1      45.586  26.733  37.110  1.00  0.00     0.060 A 
BRANCH  67  68
ATOM     68  S   UNL A   1      46.865  25.699  37.852  1.00  0.00     0.124 S 
ATOM     69  O   UNL A   1      47.912  25.762  36.837  1.00  0.00    -0.237 OA
ATOM     70  O   UNL A   1      47.151  26.396  39.102  1.00  0.00    -0.237 OA
ATOM     71  O   UNL A   1      46.210  24.402  37.997  1.00  0.00    -0.744 OA
ENDBRANCH  67  68
ENDBRANCH  46  60
BRANCH  47  72
ATOM     72  C   UNL A   1      36.440  33.261  31.093  1.00  0.00     0.058 A 
ATOM     73  C   UNL A   1      35.103  33.173  31.511  1.00  0.00     0.135 A 
ATOM     74  C   UNL A   1      36.727  34.063  29.978  1.00  0.00     0.135 A 
ATOM     75  F   UNL A   1      34.779  32.408  32.564  1.00  0.00    -0.206 F 
ATOM     76  C   UNL A   1      34.083  33.837  30.836  1.00  0.00     0.059 A 
ATOM     77  C   UNL A   1      35.727  34.753  29.299  1.00  0.00     0.059 A 
ATOM     78  F   UNL A   1      37.990  34.186  29.546  1.00  0.00    -0.206 F 
ATOM     79  C   UNL A   1      34.406  34.623  29.729  1.00  0.00     0.060 A 
BRANCH  79  80
ATOM     80  S   UNL A   1      33.081  35.508  28.878  1.00  0.00     0.124 S 
ATOM     81  O   UNL A   1      32.526  34.460  28.029  1.00  0.00    -0.237 OA
ATOM     82  O   UNL A   1      32.240  35.943  29.989  1.00  0.00    -0.237 OA
ATOM     83  O   UNL A   1      33.788  36.578  28.181  1.00  0.00    -0.744 OA
ENDBRANCH  79  80
ENDBRANCH  47  72
BRANCH  59  84
ATOM     84  C   UNL A   1      39.854  34.351  37.068  1.00  0.00     0.058 A 
ATOM     85  C   UNL A   1      40.551  35.561  36.914  1.00  0.00     0.135 A 
ATOM     86  C   UNL A   1      39.036  34.208  38.201  1.00  0.00     0.135 A 
ATOM     87  F   UNL A   1      41.351  35.748  35.851  1.00  0.00    -0.206 F 
ATOM     88  C   UNL A   1      40.456  36.580  37.857  1.00  0.00     0.059 A 
ATOM     89  C   UNL A   1      38.908  35.224  39.145  1.00  0.00     0.059 A 
ATOM     90  F   UNL A   1      38.338  33.077  38.392  1.00  0.00    -0.206 F 
ATOM     91  C   UNL A   1      39.632  36.402  38.970  1.00  0.00     0.060 A 
BRANCH  91  92
ATOM     92  S   UNL A   1      39.489  37.742  40.171  1.00  0.00     0.124 S 
ATOM     93  O   UNL A   1      40.814  38.349  40.094  1.00  0.00    -0.237 OA
ATOM     94  O   UNL A   1      38.395  38.540  39.626  1.00  0.00    -0.237 OA
ATOM     95  O   UNL A   1      39.187  37.048  41.419  1.00  0.00    -0.744 OA
ENDBRANCH  91  92
ENDBRANCH  59  84
ENDBRANCH  33  34
ENDBRANCH  26  28
ENDBRANCH  25  26
ENDBRANCH  24  25
ENDBRANCH   1  24
TORSDOF 17
ENDMDL
